#------------------------------------------------------------------------------
#$Date: 2019-01-24 05:37:59 +0200 (Thu, 24 Jan 2019) $
#$Revision: 213283 $
#$URL: file:///home/coder/svn-repositories/cod/cif/2/10/83/2108357.cif $
#------------------------------------------------------------------------------
#
# This file is available in the Crystallography Open Database (COD),
# http://www.crystallography.net/. The original data for this entry
# were provided by IUCr Journals, http://journals.iucr.org/.
#
# The file may be used within the scientific community so long as
# proper attribution is given to the journal article from which the
# data were obtained.
#
data_2108357
loop_
_publ_author_name
'Ming, Mei'
'Shi, Jun'
_publ_section_title
;
 Solvent-mediated structural transformations of copper(II) coordination
 polymers induced by different short-chain alcohols
;
_journal_coeditor_code           UM5021SUP1
_journal_issue                   1
_journal_name_full               'Acta Crystallographica Section B'
_journal_page_first
;
;
_journal_paper_doi               10.1107/S2052520618017481
_journal_volume                  75
_journal_year                    2019
_chemical_absolute_configuration ad
_chemical_formula_sum            'C6 H3 Cu F N4 O2'
_chemical_formula_weight         245.66
_space_group_crystal_system      orthorhombic
_space_group_IT_number           19
_space_group_name_Hall           'P 2ac 2ab'
_space_group_name_H-M_alt        'P 21 21 21'
_symmetry_space_group_name_Hall  'P 2ac 2ab'
_symmetry_space_group_name_H-M   'P 21 21 21'
_atom_sites_solution_hydrogens   geom
_audit_creation_method           SHELXL-2016/6
_cell_angle_alpha                90
_cell_angle_beta                 90
_cell_angle_gamma                90
_cell_formula_units_Z            4
_cell_length_a                   6.6235(3)
_cell_length_b                   9.4208(4)
_cell_length_c                   12.5188(5)
_cell_measurement_reflns_used    3648
_cell_measurement_temperature    173(2)
_cell_measurement_theta_max      28.19
_cell_measurement_theta_min      2.71
_cell_volume                     781.16(6)
_computing_structure_refinement  'SHELXL-2016/6 (Sheldrick, 2016)'
_diffrn_ambient_temperature      173(2)
_diffrn_measured_fraction_theta_full 1.000
_diffrn_measured_fraction_theta_max 0.997
_diffrn_measurement_device_type  'CCD area detector'
_diffrn_measurement_method       'phi and omega scans'
_diffrn_radiation_type           MoK\a
_diffrn_radiation_wavelength     0.71073
_diffrn_reflns_av_R_equivalents  0.0229
_diffrn_reflns_av_unetI/netI     0.0299
_diffrn_reflns_Laue_measured_fraction_full 1.000
_diffrn_reflns_Laue_measured_fraction_max 0.997
_diffrn_reflns_limit_h_max       8
_diffrn_reflns_limit_h_min       -8
_diffrn_reflns_limit_k_max       11
_diffrn_reflns_limit_k_min       -12
_diffrn_reflns_limit_l_max       10
_diffrn_reflns_limit_l_min       -16
_diffrn_reflns_number            5780
_diffrn_reflns_point_group_measured_fraction_full 1.000
_diffrn_reflns_point_group_measured_fraction_max 0.997
_diffrn_reflns_theta_full        25.242
_diffrn_reflns_theta_max         28.225
_diffrn_reflns_theta_min         2.706
_exptl_absorpt_coefficient_mu    2.789
_exptl_absorpt_correction_T_max  0.6337
_exptl_absorpt_correction_T_min  0.5790
_exptl_absorpt_correction_type   multi-scan
_exptl_absorpt_process_details   SADABS
_exptl_crystal_colour            green
_exptl_crystal_density_diffrn    2.089
_exptl_crystal_description       block
_exptl_crystal_F_000             484
_exptl_crystal_size_max          0.220
_exptl_crystal_size_mid          0.210
_exptl_crystal_size_min          0.180
_refine_diff_density_max         0.334
_refine_diff_density_min         -0.344
_refine_diff_density_rms         0.058
_refine_ls_abs_structure_details
;
 Refined as an inversion twin.
;
_refine_ls_abs_structure_Flack   0.069(16)
_refine_ls_extinction_method     none
_refine_ls_goodness_of_fit_ref   1.041
_refine_ls_hydrogen_treatment    constr
_refine_ls_matrix_type           full
_refine_ls_number_parameters     128
_refine_ls_number_reflns         1928
_refine_ls_number_restraints     0
_refine_ls_restrained_S_all      1.041
_refine_ls_R_factor_all          0.0190
_refine_ls_R_factor_gt           0.0183
_refine_ls_shift/su_max          0.001
_refine_ls_shift/su_mean         0.000
_refine_ls_structure_factor_coef Fsqd
_refine_ls_weighting_details
'w=1/[\s^2^(Fo^2^)+(0.0204P)^2^] where P=(Fo^2^+2Fc^2^)/3'
_refine_ls_weighting_scheme      calc
_refine_ls_wR_factor_gt          0.0435
_refine_ls_wR_factor_ref         0.0438
_reflns_Friedel_coverage         0.696
_reflns_Friedel_fraction_full    1.000
_reflns_Friedel_fraction_max     0.996
_reflns_number_gt                1877
_reflns_number_total             1928
_reflns_threshold_expression     'I > 2\s(I)'
_cod_data_source_file            um5021sup1.cif
_cod_data_source_block           1
_cod_database_code               2108357
_publcif_datablock.id            {0195a901-8c5a-4379-aed8-70c7375ced51}
_shelx_shelxl_version_number     2016/6
_shelx_space_group_comment
;
The symmetry employed for this shelxl refinement is uniquely defined
by the following loop, which should always be used as a source of
symmetry information in preference to the above space-group names.
They are only intended as comments.
;
_shelx_estimated_absorpt_t_min   0.579
_shelx_estimated_absorpt_t_max   0.634
_shelx_res_file
;
TITL 1in P2(1)2(1)2(1)
    1.res
    created by SHELXL-2016/6 at 15:46:49 on 19-Oct-2018
CELL 0.71073   6.6235   9.4208  12.5188  90.000  90.000  90.000
ZERR    4.00   0.0003   0.0004   0.0005   0.000   0.000   0.000
LATT -1
SYMM 0.5-X, -Y, 0.5+Z
SYMM -X, 0.5+Y, 0.5-Z
SYMM 0.5+X, 0.5-Y, -Z
SFAC C  H  N  O  F  Cu
UNIT 24 12 16 8 4 4
LIST 6 ! automatically inserted. Change 6 to 4 for CHECKCIF!!
L.S. 8
ACTA
BOND $H
FMAP 2
PLAN 20
SIZE 0.22 0.21 0.18
HTAB
CONF
TEMP -100
TWIN -1 0 0 0 -1 0 0 0 -1
WGHT    0.020400
BASF   0.06931
FVAR       0.24161
CU1   6    0.712447    0.709681    0.492478    11.00000    0.00638    0.01107 =
         0.00386    0.00098    0.00002   -0.00025
F1    5    0.660452    0.851523   -0.035964    11.00000    0.02013    0.02863 =
         0.01013    0.00265   -0.00660   -0.01142
O1    4    0.795408    0.795276    0.354555    11.00000    0.01089    0.01620 =
         0.00664    0.00234   -0.00083   -0.00281
O2    4    1.121998    0.862142    0.368986    11.00000    0.00901    0.01682 =
         0.00720    0.00285   -0.00067    0.00064
N1    3    1.114515    1.014649    0.058962    11.00000    0.01134    0.01242 =
         0.00816    0.00183    0.00137   -0.00070
N2    3    0.936085    0.810685    0.568577    11.00000    0.00728    0.01476 =
         0.00442   -0.00172   -0.00034    0.00003
N3    3    0.921865    0.831464    0.664773    11.00000    0.00586    0.01325 =
         0.01262   -0.00015    0.00000    0.00177
N4    3    0.906479    0.854243    0.753520    11.00000    0.01619    0.03151 =
         0.00906   -0.00687   -0.00143    0.00276
C1    1    0.957687    0.845795    0.319933    11.00000    0.01142    0.00748 =
         0.00582    0.00042   -0.00012    0.00170
C2    1    0.957003    0.889243    0.203609    11.00000    0.01120    0.00777 =
         0.00692    0.00148    0.00050    0.00176
C3    1    1.110848    0.972186    0.161688    11.00000    0.01040    0.01350 =
         0.00730    0.00043   -0.00222   -0.00057
AFIX  43
H3    2    1.218196    1.000235    0.207375    11.00000   -1.20000
AFIX   0
C4    1    0.799203    0.847350    0.137459    11.00000    0.01147    0.01101 =
         0.01050    0.00194    0.00180   -0.00257
AFIX  43
H4    2    0.689350    0.792785    0.163811    11.00000   -1.20000
AFIX   0
C5    1    0.809343    0.888589    0.031842    11.00000    0.01283    0.01184 =
         0.01033   -0.00276   -0.00442   -0.00035
C6    1    0.966241    0.971484   -0.005504    11.00000    0.01523    0.01026 =
         0.00536   -0.00167    0.00159    0.00121
AFIX  43
H6    2    0.968643    0.998339   -0.078639    11.00000   -1.20000
AFIX   0
HKLF 4




REM  1in P2(1)2(1)2(1)
REM R1 =  0.0183 for    1877 Fo > 4sig(Fo)  and  0.0190 for all    1928 data
REM    128 parameters refined using      0 restraints

END

WGHT      0.0195      0.0000

REM Instructions for potential hydrogen bonds
EQIV $3 x-1/2, -y+3/2, -z+1
HTAB C4 N4_$3
EQIV $5 x, y, z-1
HTAB C6 N4_$5

REM Highest difference peak  0.334,  deepest hole -0.344,  1-sigma level  0.058
Q1    1   0.9272  0.8967  0.0157  11.00000  0.05    0.33
Q2    1   0.9161  0.8430  0.1605  11.00000  0.05    0.29
Q3    1   0.7848  0.7958  0.4011  11.00000  0.05    0.27
Q4    1   1.0365  0.9282  0.1860  11.00000  0.05    0.23
Q5    1   0.7735  0.8035  0.1432  11.00000  0.05    0.23
Q6    1   0.8118  0.8446  0.0816  11.00000  0.05    0.23
Q7    1   0.7155  0.7134  0.4195  11.00000  0.05    0.23
Q8    1   0.5768  0.6993  0.4939  11.00000  0.05    0.22
Q9    1   0.9729  0.8514  0.2495  11.00000  0.05    0.22
Q10   1   0.8791  0.7912  0.3402  11.00000  0.05    0.22
Q11   1   0.7082  0.7020  0.5654  11.00000  0.05    0.21
Q12   1   0.7866  0.8908  0.0883  11.00000  0.05    0.21
Q13   1   0.6902  0.8024  0.5220  11.00000  0.05    0.20
Q14   1   0.8439  0.7173  0.4811  11.00000  0.05    0.20
Q15   1   0.9436  0.9923 -0.0218  11.00000  0.05    0.19
Q16   1   1.0897  0.8258  0.4143  11.00000  0.05    0.19
Q17   1   1.0275  1.0339  0.0404  11.00000  0.05    0.19
Q18   1   0.6616  0.8839  0.0204  11.00000  0.05    0.19
Q19   1   0.9193  0.8083  0.5170  11.00000  0.05    0.19
Q20   1   0.9103  0.9208  0.2160  11.00000  0.05    0.18
;
_shelx_res_checksum              70358
_shelx_hkl_file
;
  -1   0   0   -0.38    0.07
  -2   0   0  257.91    7.35
   3   0   0    0.03    0.09
  -3   0   0   -0.06    0.17
   4   0   0    9.21    0.61
  -4   0   0    9.16    1.19
   5   0   0    0.24    0.19
  -5   0   0    0.32    0.37
  -6   0   0   19.51    1.83
   6   0   0   18.22    1.07
  -7   0   0    0.64    0.59
  -8   0   0   42.04    3.36
   0  -1   0   -0.94    0.05
   0   1   0   -0.93    0.05
   0  -1   0   -0.92    0.04
   0  -1   0   -0.90    0.06
  -1   1   0    4.12    0.31
  -1  -1   0    4.33    0.41
  -1  -1   0    3.84    0.37
   1  -1   0    3.91    0.27
   1  -1   0    3.82    0.29
  -2  -1   0    0.17    0.20
  -2  -1   0    0.37    0.22
  -2   1   0    0.02    0.16
   2  -1   0    0.15    0.13
  -3  -1   0   17.65    1.24
   3   1   0   16.66    0.66
   3  -1   0   17.38    0.84
  -4   1   0  422.50   12.14
   4   1   0  411.52    9.97
  -4  -1   0  409.86   12.29
   4  -1   0  414.08   10.28
   5   1   0   21.37    0.97
  -5   1   0   23.18    1.77
   5  -1   0   22.41    1.17
  -5  -1   0   19.74    1.71
  -6   1   0   15.78    1.64
  -6  -1   0   13.80    1.89
   6  -1   0   13.87    1.01
  -7  -1   0   53.35    3.57
  -7   1   0   52.28    3.38
  -8  -1   0   40.32    3.32
  -8   1   0   40.15    3.24
   0   2   0  739.35   19.15
   0  -2   0  701.85   17.80
   0  -2   0  701.59   17.51
   1  -2   0  861.30   21.67
   1  -2   0  850.84   22.33
  -1   2   0  899.76   23.30
  -1  -2   0  917.62   20.68
  -1  -2   0  884.71   23.94
  -1  -2   0  873.28   22.12
   2  -2   0  562.36   13.87
   2  -2   0  547.69   13.20
  -2  -2   0  543.72   15.05
  -2   2   0  558.96   14.67
  -2  -2   0  539.71   14.34
   3  -2   0   33.57    1.34
   3  -2   0   32.99    1.36
   3   2   0   33.15    0.94
  -3  -2   0   35.27    1.88
  -3   2   0   32.30    1.60
  -3  -2   0   32.01    1.67
  -4   2   0  128.40    4.54
   4   2   0  124.02    3.19
   4  -2   0  129.30    3.78
  -4  -2   0  124.63    4.82
   4  -2   0  123.04    3.85
  -5  -2   0   30.00    2.18
   5  -2   0   28.36    1.49
   5  -2   0   29.56    1.47
  -5   2   0   27.70    1.93
  -6  -2   0    5.35    1.26
  -6   2   0    3.31    0.89
   6  -2   0    5.61    0.85
   6  -2   0    4.60    0.73
   7  -2   0  128.14    4.30
  -7  -2   0  126.46    6.05
  -7   2   0  131.02    5.77
  -8   2   0   43.53    3.33
  -8  -2   0   47.61    3.69
   0  -3   0   -0.36    0.08
   0   3   0   -0.37    0.08
   0  -3   0   -0.25    0.15
  -1  -3   0   79.60    2.72
  -1   3   0   81.10    2.35
   1  -3   0   79.86    2.43
  -1  -3   0   82.46    2.14
   1   3   0   78.86    2.62
  -2  -3   0   30.15    1.58
  -2   3   0   29.51    1.23
   2  -3   0   29.66    1.16
  -2  -3   0   31.68    1.58
   2  -3   0   29.55    1.26
   3  -3   0  329.77    8.44
   3  -3   0  307.47    8.18
  -3   3   0  326.99    9.11
  -3  -3   0  309.32    9.12
  -3  -3   0  318.65    9.66
   4  -3   0   63.61    2.34
  -4  -3   0   59.89    3.05
   4  -3   0   58.98    2.18
  -4   3   0   60.13    2.65
  -4  -3   0   59.45    2.81
  -5  -3   0    2.60    0.81
   5  -3   0    2.38    0.54
  -5   3   0    2.56    0.71
   5  -3   0    2.94    0.54
  -6  -3   0  138.94    6.20
  -6   3   0  151.65    5.88
   6  -3   0  152.15    4.79
  -7   3   0    0.75    0.62
  -7  -3   0    0.26    0.58
   7  -3   0    0.76    0.48
  -8  -3   0   20.20    2.80
  -8   3   0   25.33    2.48
   0  -4   0    4.30    0.58
   0   4   0    5.11    0.40
   0  -4   0    4.81    0.41
   1  -4   0  137.98    4.06
   1  -4   0  141.17    3.90
   1   4   0  134.76    4.21
  -1  -4   0  143.10    3.64
  -1  -4   0  137.35    4.38
  -1   4   0  139.92    3.92
  -2   4   0   84.07    2.68
  -2  -4   0   83.16    2.21
  -2  -4   0   87.70    3.24
   2   4   0   84.94    3.06
   2  -4   0   81.32    2.71
   2  -4   0   81.19    2.63
   3  -4   0  110.15    3.55
  -3  -4   0  113.61    4.20
  -3   4   0  115.62    3.75
   3  -4   0  111.44    3.42
  -3  -4   0  113.81    4.34
   4  -4   0   49.83    1.93
   4  -4   0   53.52    2.19
  -4  -4   0   52.86    2.86
  -4   4   0   50.98    2.35
  -4  -4   0   49.17    2.62
   5  -4   0   80.16    3.04
  -5  -4   0   72.43    3.88
   5  -4   0   80.57    2.83
  -5   4   0   82.74    3.54
  -6   4   0    3.71    0.94
  -6  -4   0    2.43    0.95
   6  -4   0    3.62    0.79
  -7   4   0  186.81    7.31
   7  -4   0  183.06    5.94
  -7  -4   0  176.55    7.79
  -8  -4   0    1.87    1.12
   8   4   0    1.00    0.82
   8  -4   0    2.00    0.72
   0  -5   0    0.39    0.19
   0  -5   0    0.35    0.29
   1  -5   0  247.23    6.73
  -1  -5   0  259.96    6.48
   1   5   0  260.26    7.37
   1  -5   0  256.23    7.17
  -1  -5   0  260.82    7.55
  -1   5   0  256.99    7.01
   2   5   0   11.61    0.93
   2  -5   0   12.39    0.83
  -2  -5   0   10.28    1.06
  -2  -5   0   10.29    0.60
  -2   5   0   13.10    0.74
   2  -5   0   11.35    0.87
  -3   5   0  124.96    4.01
   3  -5   0  123.21    3.95
   3  -5   0  125.20    3.82
  -3  -5   0  117.54    4.58
   3   5   0  124.70    4.48
  -4  -5   0    2.40    0.74
   4   5   0    1.90    0.57
   4  -5   0    2.74    0.49
  -4  -5   0    1.81    0.69
  -4   5   0    2.41    0.58
   4  -5   0    1.64    0.51
   5  -5   0    3.52    0.77
  -5  -5   0    5.41    1.12
  -5  -5   0    3.38    0.99
  -5   5   0    3.81    0.80
   6  -5   0   51.24    2.56
  -6  -5   0   57.63    3.62
   6   5   0   52.09    3.12
   7   5   0   -0.10    0.51
   7  -5   0    0.49    0.52
   8  -5   0   26.49    2.04
   8   5   0   24.94    2.55
   0  -6   0  263.58    6.98
   0   6   0  268.87    7.49
   0  -6   0  269.21    7.84
  -1   6   0    9.44    0.61
   1  -6   0   10.31    0.81
   1   6   0   10.21    0.79
  -1  -6   0    9.86    0.70
  -1  -6   0    9.21    0.99
   1  -6   0    9.51    0.87
  -2   6   0   11.66    0.73
   2  -6   0   11.87    0.92
  -2  -6   0   12.65    0.74
  -2  -6   0   10.55    1.33
   2   6   0   14.04    1.05
   2  -6   0   11.96    0.95
  -3  -6   0   92.71    3.99
   3   6   0   93.90    3.71
  -3   6   0   91.54    3.17
   3  -6   0   95.48    3.37
   3  -6   0   90.50    3.16
  -4  -6   0   20.11    1.79
   4  -6   0   19.54    1.40
   4  -6   0   17.75    1.13
   4   6   0   18.70    1.57
   5   6   0  150.22    5.89
  -5  -6   0  144.63    6.03
   5  -6   0  154.55    5.13
   6  -6   0    6.65    1.10
   6   6   0    7.78    1.45
   7  -6   0   81.45    3.70
   7   6   0   86.25    4.61
   0  -7   0    0.37    0.38
   0  -7   0    1.02    0.34
  -1   7   0  186.47    5.57
   1  -7   0  197.82    5.67
   1  -7   0  193.09    6.11
  -1  -7   0  199.71    5.42
   1   7   0  198.12    6.00
  -1  -7   0  200.74    6.50
  -2  -7   0    2.73    0.54
   2  -7   0    1.30    0.43
  -2  -7   0    4.29    0.95
   2   7   0    2.04    0.53
   2  -7   0    1.86    0.53
   3   7   0   87.30    3.59
   3  -7   0   84.78    3.32
  -3  -7   0   89.65    4.06
   3  -7   0   88.70    3.22
   4   7   0   30.83    2.09
   4  -7   0   31.21    1.90
  -4  -7   0   31.72    2.39
   5   7   0   32.53    2.34
  -5  -7   0   30.99    2.54
   5  -7   0   30.58    2.00
   6  -7   0    0.85    0.62
   6   7   0    1.33    0.79
   7  -7   0   17.84    1.78
   7   7   0   19.46    2.18
   0  -8   0    3.08    0.60
   0  -8   0    3.85    0.86
   1  -8   0    1.35    0.58
  -1  -8   0    1.39    0.64
   1   8   0    1.49    0.42
  -1  -8   0    1.61    0.44
   1  -8   0    0.90    0.43
  -2  -8   0   27.19    2.06
   2  -8   0   26.18    1.62
   2  -8   0   24.76    1.63
   2   8   0   24.30    1.56
   3  -8   0   91.10    3.60
   3   8   0   87.41    3.77
  -3  -8   0   94.09    4.37
   3  -8   0   95.50    3.54
   4  -8   0   29.55    1.95
   4   8   0   28.90    2.06
  -4  -8   0   30.67    2.48
   5   8   0  118.34    5.14
   5  -8   0  122.26    4.68
  -5  -8   0  119.02    5.61
   6  -8   0    5.52    1.18
   6   8   0    5.35    1.29
   0  -9   0    0.09    0.46
   0  -9   0   -0.02    0.33
  -1  -9   0   98.36    3.38
  -1  -9   0   96.59    4.27
   1  -9   0   97.52    4.04
   1  -9   0   89.22    3.51
   2  -9   0    0.97    0.47
   2   9   0    0.48    0.38
   2  -9   0    0.43    0.48
  -2  -9   0    1.21    0.67
   3  -9   0    8.80    1.23
  -3  -9   0    7.41    1.41
   3   9   0    8.64    1.21
  -4  -9   0   11.23    1.84
   4   9   0   13.11    1.69
   4  -9   0   11.92    1.51
   5  -9   0    4.53    1.07
   5   9   0    6.77    1.35
  -5  -9   0    4.76    1.35
  -6  -9   0   58.08    4.02
   6   9   0   54.05    3.45
   6  -9   0   48.85    3.03
   0 -10   0   49.03    2.40
   0 -10   0   48.59    2.92
   1 -10   0    5.48    1.14
   1 -10   0    5.49    0.97
  -1 -10   0    4.68    1.18
  -2 -10   0   56.38    3.46
   2 -10   0   59.64    2.91
   2 -10   0   61.47    3.12
  -3 -10   0   11.83    1.91
   3 -10   0   16.23    1.57
   4 -10   0   34.06    2.36
  -4 -10   0   27.66    2.65
   5  10   0   33.60    2.53
   5 -10   0   33.34    2.46
  -5 -10   0   33.55    3.06
   0 -11   0    0.69    0.66
   1 -11   0    9.47    1.38
   1 -11   0   10.23    1.64
  -1 -11   0    9.96    1.77
  -2 -11   0    5.28    1.42
   2 -11   0    4.20    1.01
  -3 -11   0    0.17    0.75
   3 -11   0    2.06    0.86
  -4 -11   0   20.55    2.80
   4 -11   0   19.57    1.95
   0 -12   0   80.42    4.37
   1 -12   0    2.00    0.94
  -1 -12   0    1.12    0.85
   1 -12   0    0.80    0.65
   2 -12   0   55.06    3.10
  -2 -12   0   50.31    3.65
   0   0   1   -1.32    0.02
   0   0  -1   -1.28    0.03
  -1   0   1   80.28    2.52
  -1   0  -1   83.04    2.27
   1   0   1   86.15    2.14
   2   0   1    1.08    0.19
  -2   0   1    0.19    0.18
  -2   0  -1    0.50    0.24
  -3   0   1   44.95    2.07
   3   0   1   45.55    1.45
  -3   0  -1   44.33    2.08
  -4   0   1  274.00    8.45
  -4   0  -1  265.63    8.45
   4   0   1  266.89    6.76
  -5   0  -1   19.90    1.69
  -5   0   1   18.18    1.60
   5   0   1   18.37    0.97
   5   0  -1   19.80    1.03
  -6   0   1  224.05    8.17
   6   0  -1  229.49    6.19
   6   0   1  226.44    6.10
  -6   0  -1  221.70    8.17
  -7   0   1    1.74    0.84
  -7   0  -1    2.66    1.05
  -8   0   1   63.65    4.17
  -8   0  -1   65.97    4.28
   0  -1   1  853.25   21.88
   0  -1  -1  850.20   22.00
   0   1  -1  855.55   23.11
   0  -1  -1  873.93   22.49
  -1   1   1   18.37    0.73
   1   1  -1   17.06    0.83
  -1  -1  -1   18.05    0.80
  -1  -1  -1   17.28    0.85
  -1   1  -1   20.04    0.80
   1  -1  -1   17.98    0.76
  -2  -1  -1  254.96    7.10
  -2  -1  -1  254.41    6.63
   2  -1   1  254.13    6.05
  -2   1   1  260.36    6.91
  -2   1  -1  217.78    6.83
  -2  -1   1  220.33    7.02
   2   1   1  238.80    5.75
  -3   1   1  139.73    4.73
  -3  -1  -1  146.24    4.97
  -3  -1  -1  144.88    4.50
   3  -1   1  143.25    3.96
  -3   1  -1  153.51    4.87
   3   1   1  155.15    3.71
  -3  -1   1  148.97    5.00
   4  -1   1  113.37    3.40
  -4   1   1  114.28    4.31
  -4  -1  -1  112.93    4.49
  -4   1  -1  122.60    4.43
  -4  -1   1  120.60    4.57
   4   1   1  120.84    3.15
  -5  -1  -1   12.00    1.34
   5   1  -1   12.04    0.73
  -5   1   1   12.45    1.30
   5  -1   1   12.35    0.85
  -5   1  -1   13.37    1.36
  -5  -1   1   13.15    1.41
   5   1   1   13.41    0.74
   5  -1  -1   14.69    0.94
  -6   1   1   73.60    3.75
  -6  -1  -1   75.01    3.97
   6  -1   1   67.75    2.58
  -6  -1   1   79.34    4.04
  -6   1  -1   73.30    3.82
   6  -1  -1   76.35    2.74
  -7  -1  -1   23.96    2.35
  -7   1   1   26.04    2.34
  -7  -1   1   23.98    2.30
  -7   1  -1   23.53    2.26
  -8  -1  -1    9.77    2.05
  -8   1   1   13.22    2.16
  -8  -1   1   18.96    2.76
  -8   1  -1   14.58    2.25
   0  -2  -1   74.05    2.06
   0  -2   1   72.60    2.02
   0  -2  -1   70.60    2.18
   0   2  -1   70.17    2.19
   0   2   1   74.50    2.07
   0  -2   1   71.29    2.17
  -1  -2  -1  596.04   14.75
  -1  -2  -1  565.72   15.32
   1  -2   1  579.62   14.39
   1  -2   1  581.32   13.69
   1   2  -1  553.03   15.27
  -1   2   1  596.73   15.05
   1  -2  -1  573.95   14.54
   1  -2  -1  582.93   15.03
  -1  -2   1  587.78   14.79
  -1   2  -1  564.70   15.12
  -2   2   1   60.07    2.06
  -2  -2  -1   58.88    2.22
   2  -2   1   56.85    1.73
  -2  -2  -1   56.03    2.33
  -2   2  -1   61.20    2.14
   2  -2  -1   63.98    2.02
  -2  -2   1   63.31    2.44
  -2  -2   1   58.27    2.27
  -3   2   1   76.76    2.88
  -3  -2  -1   80.09    3.23
  -3  -2  -1   80.40    2.95
   3  -2   1   80.15    2.51
   3  -2   1   78.90    2.40
  -3  -2   1   80.94    3.25
  -3   2  -1   77.31    2.94
   3  -2  -1   81.46    2.66
  -4  -2  -1  176.17    5.82
   4  -2   1  183.78    5.19
  -4   2   1  177.65    5.98
  -4  -2  -1  176.42    6.35
   4  -2   1  176.77    5.08
   4   2   1  190.98    4.52
   4  -2  -1  191.99    5.17
   4  -2  -1  183.35    5.43
  -4  -2   1  192.41    6.50
  -4   2  -1  189.47    6.13
   5  -2   1   31.07    1.51
  -5  -2  -1   28.96    2.18
  -5   2   1   29.80    1.99
  -5   2  -1   32.71    2.11
   5  -2  -1   32.78    1.57
  -5  -2   1   31.63    2.24
   5  -2  -1   35.50    1.73
  -6  -2  -1   41.12    2.84
  -6   2   1   45.94    2.71
   6  -2   1   44.65    1.94
   6  -2  -1   37.34    1.99
   6  -2  -1   36.31    1.84
  -6   2  -1   33.21    2.45
  -6  -2   1   33.07    2.61
   7  -2   1    3.27    0.70
  -7   2   1    3.67    1.08
  -7  -2  -1    3.10    1.10
   7  -2  -1    3.19    0.68
  -7  -2   1    4.44    1.30
  -7   2  -1    3.83    1.12
  -8   2   1   89.03    4.85
  -8  -2  -1   84.47    5.13
  -8  -2   1   85.88    5.10
  -8   2  -1   86.28    4.87
   0  -3   1  779.84   18.10
   0  -3   1  775.51   19.39
   0   3   1  786.27   20.32
   0  -3  -1  744.28   19.37
   0   3  -1  760.34   20.65
  -1   3   1  589.60   14.55
   1  -3   1  527.44   13.44
  -1  -3  -1  560.94   15.06
  -1  -3  -1  562.94   13.28
  -1  -3  -1  568.46   14.58
   1   3  -1  551.13   15.00
   1  -3   1  557.45   14.13
  -1  -3   1  562.15   14.61
   1  -3  -1  573.04   14.49
  -1   3  -1  558.58   14.78
  -1  -3   1  573.28   13.31
   1  -3  -1  564.16   14.31
  -2   3   1  237.22    6.54
   2   3  -1  239.07    6.99
   2  -3   1  229.03    6.14
  -2  -3  -1  235.92    7.11
  -2  -3  -1  234.22    6.83
   2  -3   1  240.56    6.16
  -2   3  -1  242.10    6.72
   2  -3  -1  236.67    6.42
  -2  -3   1  234.41    6.89
  -3   3   1  153.82    4.56
  -3  -3  -1  139.79    4.73
   3  -3   1  142.21    3.95
   3  -3   1  138.52    4.11
  -3  -3  -1  140.07    5.00
   3  -3  -1  143.03    4.24
  -3  -3   1  140.24    4.81
  -3  -3   1  139.18    5.03
  -3   3  -1  142.19    4.59
   3  -3  -1  145.07    4.17
   4  -3   1  107.08    3.46
  -4  -3  -1  100.22    4.01
  -4  -3  -1  100.50    4.33
   4  -3   1  102.86    3.24
  -4   3   1  106.47    3.94
  -4  -3   1  115.21    4.54
  -4   3  -1  113.18    4.10
   4  -3  -1  114.49    3.53
   4  -3  -1  115.24    3.59
  -5  -3  -1   41.25    2.63
   5  -3   1   39.11    1.81
  -5   3   1   37.47    2.19
   5  -3   1   39.54    1.62
   5  -3  -1   33.84    1.74
   5  -3  -1   35.71    1.79
  -5  -3   1   35.59    2.46
  -5   3  -1   34.54    2.19
  -6   3   1   18.34    1.69
  -6  -3  -1   17.70    1.95
   6  -3   1   16.88    1.26
  -6   3  -1   18.79    1.78
   6  -3  -1   17.32    1.29
  -6  -3   1   18.48    1.95
   6  -3  -1   18.78    1.33
  -7  -3  -1   53.92    3.72
  -7   3   1   50.82    3.25
   7  -3   1   49.01    2.43
   7  -3  -1   54.19    2.53
  -7  -3   1   53.09    3.66
  -7   3  -1   57.19    3.47
   8   3  -1   19.50    2.17
  -8  -3  -1   18.76    2.82
  -8  -3   1   23.48    2.63
  -8   3  -1   19.86    2.21
   0  -4   1    4.03    0.55
   0  -4  -1    3.76    0.36
   0  -4   1    3.52    0.44
   0   4  -1    3.52    0.39
   0   4   1    4.16    0.33
   0  -4  -1    3.49    0.51
   1  -4   1  239.97    6.36
  -1  -4  -1  239.18    5.77
  -1   4   1  239.38    6.18
  -1  -4  -1  228.81    6.74
   1   4  -1  238.12    6.75
   1  -4   1  230.37    6.09
  -1  -4   1  232.55    6.77
   1  -4  -1  236.95    6.49
  -1   4  -1  231.73    6.49
   1   4   1  235.73    6.65
   1  -4  -1  218.39    6.04
  -1  -4   1  236.92    5.93
  -2  -4  -1   22.56    1.41
   2   4  -1   22.81    1.33
   2  -4   1   24.43    1.20
  -2   4   1   22.84    0.99
  -2  -4  -1   24.15    0.77
   2  -4   1   22.90    1.02
  -2  -4  -1   22.83    1.43
   2  -4  -1   27.97    1.27
   2  -4  -1   27.74    1.23
  -2  -4   1   26.17    1.53
  -2   4  -1   28.78    1.21
   3   4  -1  222.31    7.06
  -3  -4  -1  218.98    7.00
   3  -4   1  213.68    6.15
  -3   4   1  223.05    6.55
  -3  -4  -1  222.72    7.31
   3  -4   1  230.65    6.07
   3  -4  -1  232.08    6.36
  -3  -4   1  229.85    7.12
   3  -4  -1  221.70    6.19
  -3   4  -1  232.81    6.76
   4  -4   1   24.97    1.44
  -4   4   1   25.61    1.55
  -4  -4  -1   26.15    1.97
  -4  -4  -1   30.89    1.96
   4   4  -1   28.62    1.85
   4  -4   1   26.18    1.20
  -4   4  -1   32.09    1.78
   4  -4  -1   32.00    1.60
   4  -4  -1   28.85    1.44
  -4  -4   1   34.20    2.10
   5   4  -1   14.89    1.44
  -5   4   1   17.64    1.41
  -5  -4  -1   13.95    1.45
   5  -4   1   15.17    1.17
  -5  -4  -1   14.61    1.63
   5  -4  -1   11.08    0.95
   5  -4  -1    9.87    0.99
  -5   4  -1   12.74    1.28
  -5  -4   1   11.79    1.76
  -6  -4  -1   66.45    3.90
   6  -4   1   63.95    2.75
  -6   4   1   67.27    3.33
   6   4  -1   60.86    3.37
  -6  -4   1   62.42    3.76
   6  -4  -1   58.01    2.68
  -6   4  -1   63.38    3.39
  -7  -4  -1    0.89    0.75
   7  -4   1    1.30    0.62
   7   4  -1    0.06    0.59
  -7   4  -1    1.12    0.74
   7  -4  -1    0.55    0.48
   8  -4   1    1.59    0.68
   8   4  -1    0.85    0.74
  -8  -4  -1    1.99    1.09
   8  -4  -1    3.05    0.87
   0  -5  -1   35.67    1.68
   0   5   1   34.78    1.27
   0   5  -1   32.29    1.41
   0  -5   1   32.91    1.39
   0  -5   1   32.95    1.62
   0  -5  -1   32.61    1.34
   1  -5   1   25.68    1.24
  -1  -5  -1   24.53    1.02
  -1   5   1   24.27    0.91
   1   5  -1   25.11    1.30
  -1  -5  -1   24.40    1.49
   1  -5   1   24.15    1.26
   1  -5  -1   27.63    1.37
  -1  -5   1   28.31    1.18
   1   5   1   27.41    1.26
  -1   5  -1   26.91    1.15
   1  -5  -1   25.34    1.23
  -1  -5   1   27.43    1.55
   2  -5   1  153.43    4.35
   2   5  -1  141.99    4.81
   2  -5   1  152.16    4.41
  -2  -5  -1  154.40    3.77
  -2   5   1  153.87    4.21
  -2  -5  -1  151.96    5.04
  -2  -5   1  144.32    5.02
   2  -5  -1  142.98    4.47
   2  -5  -1  142.68    4.35
   2   5   1  145.40    4.78
  -2  -5   1  143.87    3.93
  -2   5  -1  140.67    4.41
   3  -5   1  134.79    3.87
  -3  -5  -1  138.28    4.97
   3   5  -1  132.43    4.68
   3  -5   1  130.48    4.11
  -3   5   1  132.01    4.08
  -3  -5  -1  133.65    4.84
   3  -5  -1  126.40    4.10
  -3   5  -1  125.65    4.24
  -3  -5   1  127.50    4.81
   3  -5  -1  122.16    4.05
   4   5  -1   25.09    1.79
  -4  -5  -1   26.00    1.94
  -4   5   1   27.41    1.54
   4  -5   1   25.93    1.23
  -4  -5  -1   25.20    1.98
   4  -5   1   25.95    1.54
  -4  -5   1   29.34    2.09
   4  -5  -1   30.70    1.50
   4  -5  -1   29.38    1.63
  -4   5  -1   30.54    1.72
  -5  -5  -1  211.47    7.51
   5  -5   1  215.86    6.50
   5   5  -1  227.95    7.68
  -5  -5  -1  219.71    8.04
   5  -5  -1  207.63    6.38
   5  -5  -1  212.67    6.49
  -5   5  -1  213.98    7.23
  -6  -5  -1    9.02    1.77
   6   5  -1    4.69    1.12
   6  -5   1    6.48    1.06
   6  -5  -1    6.11    0.98
  -6   5  -1    7.01    1.26
  -7  -5  -1  168.51    7.73
   7  -5   1  174.18    5.95
   7   5  -1  174.78    7.21
   7  -5  -1  188.32    6.08
  -8  -5  -1    3.01    1.35
   8  -5   1    4.11    1.00
   8  -5  -1    3.96    0.99
   0   6   1    4.87    0.44
   0  -6  -1    4.61    0.59
   0  -6   1    4.95    0.80
   0   6  -1    3.95    0.56
   0  -6  -1    4.59    0.76
   0  -6   1    4.24    0.61
   1  -6   1   78.67    2.77
  -1  -6  -1   81.11    3.29
   1   6  -1   82.65    2.98
  -1  -6  -1   79.84    2.50
   1  -6   1   80.49    2.97
  -1   6   1   80.05    2.43
  -1  -6   1   81.86    2.65
  -1  -6   1   82.11    3.29
  -1   6  -1   81.69    2.71
   1  -6  -1   82.23    3.05
   1  -6  -1   82.34    2.80
   1   6   1   83.65    2.87
   2  -6   1   43.10    1.93
  -2  -6  -1   43.71    1.48
   2  -6   1   41.85    1.83
   2   6  -1   43.69    2.08
  -2  -6  -1   43.89    2.35
  -2   6   1   42.75    1.50
   2  -6  -1   42.79    1.94
  -2   6  -1   44.94    1.75
  -2  -6   1   39.83    2.29
   2  -6  -1   45.35    1.97
  -2  -6   1   43.18    1.62
   2   6   1   43.52    2.03
   3  -6   1  130.81    4.01
  -3  -6  -1  128.05    4.95
   3  -6   1  128.80    4.24
   3   6  -1  134.13    4.74
   3  -6  -1  124.28    4.22
   3   6   1  129.86    4.70
  -3   6  -1  131.36    4.28
  -3  -6   1  123.51    4.94
   3  -6  -1  130.62    4.21
   4  -6   1    0.87    0.46
   4   6  -1    1.77    0.60
  -4  -6  -1    1.32    0.62
  -4  -6  -1    1.17    0.60
   4   6   1    0.97    0.54
  -4  -6   1    1.47    0.69
   4  -6  -1    1.37    0.49
  -4   6  -1    0.60    0.37
   4  -6  -1    1.91    0.49
  -5  -6  -1   43.95    2.97
  -5  -6  -1   45.67    2.90
   5   6  -1   43.12    2.69
   5  -6   1   43.31    2.28
   5  -6  -1   39.85    2.22
   6  -6   1    0.20    0.46
  -6  -6  -1   -0.11    0.51
  -6  -6  -1    0.40    0.65
   6   6  -1    0.83    0.61
   6   6   1    0.42    0.56
   6  -6  -1    0.50    0.49
   7   6  -1    3.37    1.14
   7  -6   1    1.27    0.73
   7  -6  -1    1.49    0.70
   7   6   1    1.55    0.90
   0   7  -1   35.82    1.62
   0  -7   1   36.29    1.68
   0  -7   1   39.89    2.06
   0  -7  -1   38.22    1.65
   0  -7  -1   34.82    2.01
   0   7   1   32.08    1.42
  -1  -7  -1   12.77    1.26
   1   7  -1   12.26    0.97
   1  -7   1   13.59    1.14
   1  -7   1   14.21    1.06
  -1  -7  -1   13.52    0.87
  -1   7  -1   13.97    0.87
   1  -7  -1   13.75    1.17
  -1  -7   1   13.72    1.30
  -1  -7   1   14.74    0.99
   1  -7  -1   13.43    1.01
   1   7   1   14.02    0.95
   2  -7   1   21.92    1.35
   2   7  -1   19.56    1.36
   2  -7   1   21.68    1.37
  -2  -7  -1   19.08    1.62
  -2   7  -1   18.57    1.06
   2   7   1   18.64    1.28
  -2  -7   1   19.20    1.10
   2  -7  -1   20.26    1.32
   2  -7  -1   16.71    1.27
  -2  -7   1   18.83    1.63
   3  -7   1   79.54    3.09
   3  -7   1   79.59    2.86
   3   7  -1   81.26    3.38
  -3  -7  -1   78.78    3.71
   3   7   1   69.76    3.19
  -3  -7   1   72.83    3.64
   3  -7  -1   71.54    3.00
   3  -7  -1   71.57    2.92
   4  -7   1    0.51    0.45
  -4  -7  -1    0.66    0.62
   4   7  -1    0.60    0.47
  -4  -7   1    0.07    0.51
   4  -7  -1    1.51    0.58
   4   7   1    1.31    0.57
   4  -7  -1    1.08    0.45
  -5  -7  -1  105.82    5.16
   5   7  -1  120.69    5.11
   5  -7   1  122.62    4.52
   5   7   1  121.56    5.14
   5  -7  -1  120.89    4.50
  -5  -7   1  128.83    5.62
   6  -7   1    9.32    1.41
   6   7  -1   10.45    1.70
  -6  -7  -1   11.16    1.92
   6  -7  -1    9.58    1.41
   6   7   1    9.08    1.62
   7  -7   1  108.33    4.61
   7   7  -1  109.50    5.41
   7  -7  -1  111.40    4.63
   7   7   1  109.01    5.47
   0  -8  -1    0.49    0.32
   0  -8   1    0.41    0.45
   0  -8  -1    0.21    0.44
   0   8  -1    0.30    0.25
   0  -8   1    0.29    0.34
  -1  -8  -1   74.69    2.72
   1  -8   1   75.60    3.28
  -1  -8  -1   73.65    3.54
   1   8  -1   72.56    3.01
   1  -8   1   70.03    2.95
   1  -8  -1   86.22    3.08
  -1  -8   1   83.21    3.66
   1  -8  -1   87.06    3.46
   1   8   1   89.97    3.04
  -1  -8   1   85.51    2.96
   2  -8   1    0.69    0.42
   2  -8   1    0.53    0.41
   2   8  -1    0.28    0.34
  -2  -8  -1    0.28    0.52
   2   8   1    0.72    0.36
   2  -8  -1    0.23    0.39
   2  -8  -1    0.53    0.39
  -2  -8   1    0.58    0.52
   3  -8   1   64.67    2.87
  -3  -8  -1   57.31    3.32
   3   8  -1   63.64    3.03
   3   8   1   60.65    2.91
  -3  -8   1   61.44    3.40
   3  -8  -1   61.95    2.77
   3  -8  -1   64.11    2.85
   4  -8   1   18.57    1.57
  -4  -8  -1   17.85    1.93
   4   8  -1   18.54    1.66
   4   8   1   19.38    1.67
   4  -8  -1   18.79    1.56
  -4  -8   1   19.72    1.98
  -5  -8  -1   25.54    2.39
   5   8  -1   24.19    2.05
   5  -8   1   27.61    2.00
  -5  -8   1   18.31    2.44
   5  -8  -1   20.50    1.75
   5   8   1   20.78    1.94
  -6  -8  -1    2.85    1.11
   6   8  -1    2.12    0.90
   6  -8   1    2.13    0.83
   6   8   1    1.22    0.73
   6  -8  -1    0.78    0.64
   0  -9   1  127.16    4.31
   0  -9  -1  132.81    4.24
   0  -9   1  124.98    4.92
   0  -9  -1  123.13    4.99
   1  -9   1    7.14    1.02
  -1  -9  -1    7.52    1.35
   1   9  -1    8.15    1.12
   1  -9   1    8.32    1.23
   1  -9  -1    5.80    1.13
  -1  -9   1    7.09    1.30
  -1  -9   1    6.89    0.96
   1  -9  -1    6.25    0.95
   2   9  -1   43.46    2.29
   2  -9   1   46.65    2.38
   2  -9   1   40.23    2.31
  -2  -9  -1   44.74    2.85
   2  -9  -1   42.74    2.41
  -2  -9   1   42.84    2.79
   2  -9  -1   40.16    2.20
   3   9  -1   20.90    1.68
   3  -9   1   20.03    1.65
  -3  -9  -1   19.91    2.04
  -3  -9   1   22.18    2.13
   3  -9  -1   22.94    1.70
   3  -9  -1   22.49    1.67
   3   9   1   21.61    1.65
   4  -9   1   25.79    1.96
   4   9  -1   22.59    1.92
  -4  -9  -1   25.08    2.39
  -4  -9   1   28.06    2.52
   4   9   1   28.68    2.08
   4  -9  -1   27.23    1.94
  -5  -9  -1   46.19    3.42
   5   9  -1   46.20    2.97
   5  -9   1   49.54    2.87
   5   9   1   51.44    3.06
   5  -9  -1   48.11    2.79
  -5  -9   1   42.97    3.37
  -6  -9  -1    2.14    1.11
   6   9  -1    0.92    0.76
   6  -9   1    0.59    0.75
   6  -9  -1    1.01    0.76
   6   9   1    1.04    0.76
   0 -10   1    9.80    1.48
   0 -10   1    8.16    1.14
   0 -10  -1    9.08    1.57
   0 -10  -1    7.92    1.08
   1 -10   1   58.29    2.80
   1 -10   1   57.53    3.07
  -1 -10  -1   55.30    3.30
  -1 -10   1   61.55    3.39
   1 -10  -1   57.35    3.15
   1 -10  -1   55.36    2.66
   2 -10   1   11.12    1.48
  -2 -10  -1   11.43    1.87
  -2 -10   1    9.34    1.64
   2 -10  -1    9.89    1.50
   2 -10  -1   11.05    1.41
   3 -10   1    1.95    0.77
  -3 -10  -1    0.27    0.72
   3 -10  -1    1.82    0.70
  -3 -10   1    1.19    0.80
   4 -10   1   37.09    2.52
   4  10  -1   36.43    2.51
  -4 -10  -1   41.38    3.20
  -4 -10   1   38.23    3.12
   4 -10  -1   41.43    2.55
   5 -10   1    9.23    1.53
  -5 -10  -1    7.93    1.79
   5  10  -1    6.68    1.34
  -5 -10   1    7.36    1.80
   5 -10  -1    8.23    1.44
   0 -11   1   61.32    3.01
   0 -11  -1   64.93    3.66
   0 -11   1   64.23    3.59
  -1 -11  -1    1.45    0.90
   1 -11   1    1.71    0.71
   1 -11   1    2.47    0.88
  -1 -11   1    2.10    0.94
   1 -11  -1    2.58    0.97
   1 -11  -1    2.41    0.74
   2 -11   1   83.77    3.84
  -2 -11  -1   80.94    4.53
   2 -11  -1   87.61    4.14
  -2 -11   1   82.76    4.50
   2 -11  -1   87.52    3.79
   3 -11   1   11.70    1.67
  -3 -11  -1   12.82    2.16
   3 -11  -1   13.58    1.67
  -3 -11   1   11.91    2.05
  -4 -11  -1    9.27    1.89
   4 -11   1    9.74    1.65
  -4 -11   1   11.04    2.05
   4 -11  -1   10.03    1.58
   0 -12   1    0.14    0.69
   0 -12  -1    0.05    0.65
   1 -12   1    3.68    1.04
  -1 -12  -1    3.52    1.26
   1 -12  -1    2.45    0.82
   1 -12  -1    3.03    1.14
  -1 -12   1    3.17    1.21
  -2 -12  -1   19.05    2.63
   2 -12   1   18.85    1.91
   2 -12  -1   21.84    1.95
  -2 -12   1   17.45    2.46
   0   0  -2  853.83   23.77
   0   0  -2  916.02   22.86
  -1   0  -2    4.92    0.41
   1   0   2    4.60    0.34
   1   0  -2    5.28    0.38
  -1   0  -2    5.42    0.30
   2   0   2  638.08   15.15
  -2   0  -2  645.48   16.13
  -2   0   2  636.93   17.22
   2   0  -2  653.51   17.09
   3   0   2   42.83    1.45
  -3   0   2   41.44    2.00
  -3   0  -2   43.03    2.05
  -4   0   2   86.20    3.53
  -4   0  -2   83.76    3.54
   4   0   2   81.44    2.52
   5   0   2    2.08    0.41
  -5   0  -2    2.95    0.80
  -5   0   2    2.69    0.77
  -6   0  -2    6.65    1.35
  -6   0   2    6.60    1.27
   6   0  -2    5.56    0.73
  -7   0   2    0.12    0.50
  -7   0  -2    0.37    0.58
  -8   0   2   11.83    2.15
  -8   0  -2    9.65    1.96
   0  -1  -2   72.62    2.13
   0  -1   2   70.42    2.04
   0  -1  -2   74.34    2.07
   1  -1   2   31.45    1.12
   1   1  -2   31.44    1.23
  -1  -1  -2   32.34    1.24
  -1  -1  -2   31.90    1.12
  -1   1  -2   28.10    1.16
   1  -1  -2   28.46    1.02
   1  -1  -2   27.82    1.14
  -2  -1  -2  316.91    8.31
  -2  -1  -2  312.69    8.91
  -2   1   2  316.85    8.69
   2  -1   2  314.32    7.73
   2   1  -2  323.21    8.81
   2   1   2  313.93    7.49
  -2   1  -2  297.49    8.74
  -3  -1  -2    1.72    0.40
  -3  -1  -2    0.63    0.33
   3   1   2    2.20    0.29
  -3   1  -2    1.58    0.42
  -3  -1   2    1.65    0.49
  -4   1   2  183.18    6.00
   4  -1   2  174.79    4.84
  -4  -1  -2  172.48    6.14
  -4   1  -2  178.91    6.07
   4   1   2  178.18    4.60
  -4  -1   2  178.15    6.16
  -5   1   2    8.25    1.24
   5  -1   2    9.66    0.78
  -5  -1  -2    8.69    1.34
  -5  -1   2   12.00    1.59
   5   1   2   12.10    0.73
  -5   1  -2    9.66    1.39
   6  -1   2  173.93    4.96
  -6   1   2  171.33    6.49
  -6  -1  -2  165.84    6.71
  -6   1  -2  161.57    6.53
  -6  -1   2  166.17    6.63
   6  -1  -2  160.96    4.94
  -7  -1  -2   14.77    2.16
  -7   1   2   13.08    1.97
  -7   1  -2   12.74    1.97
   7  -1  -2   15.49    1.26
  -7  -1   2   11.58    1.87
   8   1  -2   65.16    3.84
  -8   1   2   66.27    4.17
  -8  -1  -2   67.18    4.45
  -8   1  -2   73.35    4.51
  -8  -1   2   71.06    4.44
   0   2  -2  210.66    5.90
   0  -2   2  206.97    5.38
   0  -2  -2  220.98    5.66
   0  -2   2  211.19    5.63
   1  -2   2   79.68    2.16
  -1  -2  -2   78.07    2.52
   1  -2   2   82.10    2.39
  -1  -2  -2   79.53    2.61
   1   2  -2   76.39    2.62
   1  -2  -2   80.21    2.49
   1  -2  -2   82.18    2.19
   1  -2  -2   81.46    2.22
  -1   2  -2   82.38    2.55
   2  -2   2  544.11   13.14
  -2  -2  -2  540.76   14.14
   2   2  -2  539.24   14.78
  -2  -2  -2  545.78   14.90
   2  -2   2  578.12   13.43
  -2   2   2  566.07   14.47
   2  -2  -2  505.88   13.94
  -2   2  -2  534.04   14.66
  -3  -2  -2  117.36    3.89
   3  -2   2  113.60    3.40
  -3   2   2  113.14    3.85
  -3  -2  -2  112.65    4.22
   3  -2   2  112.85    3.17
   3   2  -2  109.55    4.01
  -3   2  -2  128.60    4.09
   3  -2  -2  124.70    3.74
  -4   2   2   81.01    3.18
  -4  -2  -2   75.12    3.46
   4  -2   2   75.13    2.58
  -4  -2  -2   75.76    3.04
   4   2   2   76.63    2.10
  -4  -2   2   72.70    3.41
  -4   2  -2   81.44    3.32
   4  -2  -2   76.33    2.83
  -5  -2  -2   82.51    4.02
  -5   2   2   86.13    3.73
   5  -2   2   86.95    2.97
  -5  -2   2   86.75    4.07
   5  -2  -2   87.36    3.01
   5  -2  -2   86.23    3.26
  -5   2  -2   83.31    3.80
  -6   2   2    3.58    0.92
  -6  -2  -2    3.43    1.00
   6  -2   2    3.29    0.65
   6  -2  -2    4.27    0.80
  -6   2  -2    3.63    0.95
  -6  -2   2    2.59    0.95
   6  -2  -2    4.44    0.74
  -7  -2  -2   44.54    3.27
   7  -2   2   41.04    2.06
  -7   2   2   42.46    2.90
   7   2  -2   41.34    2.78
   7  -2  -2   38.11    2.04
   7  -2  -2   39.03    2.27
  -7   2  -2   38.90    2.93
  -7  -2   2   37.89    3.00
   8   2  -2    6.73    1.44
  -8   2   2    7.22    1.59
  -8  -2  -2    7.70    1.87
  -8   2  -2   10.35    1.91
   0  -3  -2   34.44    1.42
   0  -3   2   36.47    1.41
   0   3  -2   34.20    1.38
   0  -3  -2   34.85    1.16
   0  -3   2   33.27    1.32
  -1  -3  -2  172.62    5.14
   1   3  -2  179.41    5.28
  -1  -3  -2  174.12    5.23
   1  -3   2  178.20    4.76
   1  -3   2  182.18    4.79
  -1   3  -2  170.25    5.10
  -1  -3   2  186.78    5.27
  -1  -3   2  184.51    4.66
   1  -3  -2  179.78    5.05
   2   3  -2   40.54    1.82
  -2  -3  -2   38.92    1.82
   2  -3   2   39.50    1.25
  -2  -3  -2   39.95    1.89
  -2   3   2   38.64    1.42
   2  -3   2   41.20    1.60
  -2  -3   2   43.31    1.96
  -2   3  -2   44.15    1.72
   2  -3  -2   44.88    1.69
   3  -3   2   41.58    1.33
  -3   3   2   39.57    1.74
   3   3  -2   43.02    2.09
  -3  -3  -2   42.62    2.05
   3  -3   2   38.97    1.67
  -3  -3  -2   42.95    2.22
   3  -3  -2   45.80    1.83
  -3   3  -2   45.97    2.01
   4  -3   2  200.25    5.48
  -4  -3  -2  192.14    6.74
  -4  -3  -2  189.09    6.20
  -4   3   2  193.89    6.12
   4   3  -2  186.23    6.41
   4  -3   2  197.84    5.17
  -4   3  -2  189.43    6.32
   4  -3  -2  183.54    5.71
   5   3  -2   92.88    4.06
  -5   3   2   97.30    3.93
  -5  -3  -2   87.03    4.29
   5  -3   2   93.75    3.30
  -5  -3  -2   88.94    3.87
   5  -3  -2   98.47    3.53
  -5   3  -2   96.43    4.11
   5  -3  -2  101.70    3.39
  -6   3   2   82.09    3.93
  -6  -3  -2   90.39    4.58
   6  -3   2   85.68    3.23
   6   3  -2   89.77    4.16
   6  -3  -2   79.64    3.35
  -6   3  -2   84.67    4.14
   6  -3  -2   87.59    3.29
  -7   3   2    0.91    0.63
   7  -3   2    1.18    0.55
   7   3  -2    1.16    0.75
  -7  -3  -2    1.45    0.87
  -7   3  -2    0.45    0.55
   7  -3  -2    1.14    0.52
   8   3  -2   64.33    4.01
  -8  -3  -2   69.20    4.67
  -8   3  -2   75.06    4.46
   0  -4  -2  266.46    7.39
   0   4   2  263.06    7.08
   0  -4   2  262.12    6.84
   0   4  -2  268.88    7.50
   0  -4   2  268.09    7.34
   1   4  -2  111.50    3.79
  -1  -4  -2  115.99    3.76
   1  -4   2  113.01    3.46
  -1  -4  -2  115.80    3.84
   1  -4   2  115.12    3.47
  -1  -4   2  122.26    3.93
  -1  -4   2  123.70    3.39
  -1   4  -2  120.58    3.65
   1  -4  -2  122.25    3.71
   2  -4   2   18.77    1.05
   2   4  -2   18.57    1.18
  -2   4   2   18.47    0.73
  -2  -4  -2   18.95    0.63
  -2  -4  -2   18.29    1.22
  -2  -4  -2   18.69    1.27
   2  -4   2   18.43    0.81
  -2  -4   2   12.65    1.12
   3  -4   2   68.64    2.48
  -3   4   2   71.41    2.41
  -3  -4  -2   71.00    3.08
   3   4  -2   69.37    2.90
   3  -4   2   70.49    2.05
  -3  -4  -2   65.56    2.89
  -3  -4   2   64.74    2.98
   3  -4  -2   61.79    2.44
  -3   4  -2   61.17    2.60
  -4  -4  -2   48.27    2.56
  -4   4   2   49.15    2.21
   4   4  -2   51.54    2.62
   4  -4   2   49.02    2.13
  -4  -4  -2   46.29    2.70
   4  -4  -2   52.78    2.19
  -4   4  -2   53.96    2.50
   4  -4  -2   50.70    2.17
   5  -4   2   77.74    2.98
   5   4  -2   75.32    3.60
  -5   4   2   77.36    3.29
  -5  -4  -2   77.05    3.57
  -5  -4  -2   72.16    3.83
   5  -4  -2   75.06    2.97
  -5   4  -2   76.87    3.53
   5  -4  -2   73.64    2.94
  -6  -4  -2   24.39    2.33
   6   4  -2   26.69    2.15
   6  -4   2   22.71    1.59
   6  -4  -2   22.38    1.54
   6  -4  -2   26.49    1.68
  -6   4  -2   22.64    1.99
  -7  -4  -2   73.19    4.54
   7  -4   2   70.26    3.16
   7   4  -2   69.87    3.99
  -7   4  -2   79.32    4.21
   7  -4  -2   71.80    3.19
  -8  -4  -2    1.38    1.03
   8  -4   2    1.22    0.67
   8   4  -2    1.14    0.88
   8  -4  -2    1.35    0.67
  -8   4  -2    1.59    1.00
   0  -5   2   18.24    1.16
   0  -5  -2   17.62    1.17
   0   5   2   17.90    0.77
   0  -5   2   18.45    1.04
   0  -5  -2   17.69    0.93
   0   5  -2   18.52    1.04
  -1  -5  -2  374.45    9.23
  -1  -5  -2  373.36   10.53
   1  -5   2  373.61    9.65
   1  -5   2  385.07   10.10
   1   5  -2  375.15   10.63
   1   5   2  381.76   10.41
  -1  -5   2  380.17   10.57
   1  -5  -2  383.49   10.30
  -1  -5   2  380.17    9.53
  -1   5  -2  377.19   10.40
   2   5  -2   46.12    2.12
  -2  -5  -2   46.77    2.21
   2  -5   2   44.85    1.72
   2  -5   2   45.70    1.93
  -2  -5  -2   45.96    2.30
  -2  -5  -2   48.52    1.40
   2  -5  -2   44.98    1.90
   2  -5  -2   44.43    1.94
  -2  -5   2   44.06    2.28
  -2   5  -2   45.39    1.87
  -3  -5  -2  204.26    6.80
  -3   5   2  198.51    5.71
   3  -5   2  199.27    5.80
   3   5  -2  194.58    6.48
   3  -5   2  196.00    5.45
  -3  -5  -2  197.56    6.56
   3  -5  -2  198.51    5.77
  -3  -5   2  205.17    6.74
  -3   5  -2  201.09    6.19
   3  -5  -2  205.57    5.99
  -4  -5  -2   52.34    2.85
  -4  -5  -2   54.81    3.03
   4   5  -2   53.94    2.76
   4  -5   2   51.83    2.33
   4  -5  -2   54.98    2.32
   4  -5  -2   56.82    2.42
  -4   5  -2   56.44    2.59
  -5  -5  -2    6.42    1.35
  -5  -5  -2    7.60    1.38
   5   5  -2    5.89    1.09
   5  -5   2    5.39    0.90
   5  -5  -2    9.89    0.95
   5  -5  -2    8.68    1.09
  -5   5  -2   10.96    1.22
   6   5  -2   16.39    1.74
   6  -5   2   16.97    1.44
  -6  -5  -2   16.85    2.30
  -6  -5  -2   16.15    1.74
   6  -5  -2   15.67    1.42
  -6   5  -2   14.47    1.58
  -7  -5  -2    6.38    1.63
   7  -5   2    6.45    1.18
   7   5  -2    6.27    1.48
   7  -5  -2    5.77    1.07
  -8  -5  -2   10.91    2.19
   8  -5   2   10.59    1.54
   8   5  -2   14.17    2.25
   8  -5  -2   10.45    1.54
   0   6  -2    0.29    0.23
   0  -6   2    0.19    0.32
   0  -6   2    0.01    0.25
   0   6   2    0.06    0.13
   0  -6  -2    0.23    0.34
   1  -6   2   83.83    2.95
  -1  -6  -2   86.14    3.44
   1   6  -2   86.98    3.14
  -1  -6  -2   83.59    2.59
   1  -6   2   86.00    3.04
   1  -6  -2   83.11    3.17
  -1   6  -2   83.39    2.92
   1  -6  -2   87.81    2.91
  -1  -6   2   84.08    3.38
   1   6   2   82.85    2.88
  -1  -6   2   84.99    2.85
   2  -6   2   39.83    1.72
   2  -6   2   39.59    1.88
  -2  -6  -2   40.18    1.35
   2   6  -2   38.65    1.99
  -2  -6  -2   41.56    2.29
  -2  -6   2   39.28    2.25
  -2   6  -2   39.25    1.73
  -2  -6   2   41.35    1.64
   2   6   2   40.93    1.94
   2  -6  -2   39.59    1.92
   2  -6  -2   37.22    1.79
   3   6  -2   41.04    2.20
   3  -6   2   38.95    1.96
  -3  -6  -2   41.49    2.37
  -3  -6  -2   37.85    2.34
   3  -6   2   38.73    1.63
  -3   6  -2   39.89    1.91
   3  -6  -2   40.25    1.96
  -3  -6   2   39.78    2.43
   3  -6  -2   37.68    1.89
  -4  -6  -2   25.32    2.01
  -4  -6  -2   25.33    2.01
   4   6  -2   24.62    1.79
   4  -6   2   24.86    1.62
  -4   6  -2   23.74    1.58
   4  -6  -2   25.11    1.50
  -4  -6   2   25.09    2.06
  -5  -6  -2  102.48    4.93
  -5  -6  -2   93.19    4.53
   5   6  -2  107.40    4.63
   5  -6   2  106.33    4.01
   5  -6  -2  104.03    3.97
   5  -6  -2  107.90    3.85
  -5   6  -2  106.40    4.35
   6  -6   2    3.89    0.90
  -6  -6  -2    2.84    1.03
  -6  -6  -2    4.55    1.24
   6   6  -2    6.09    1.29
   6  -6  -2    5.41    1.02
   7   6  -2   76.06    4.32
  -7  -6  -2   76.55    4.86
   7  -6   2   76.33    3.64
   7  -6  -2   88.69    3.79
   0   7  -2    0.31    0.25
   0  -7   2    0.52    0.36
   0  -7  -2    0.42    0.27
   0  -7   2    0.44    0.41
   0  -7  -2    0.43    0.41
   0   7   2    0.46    0.20
  -1  -7  -2  218.29    5.78
   1  -7   2  201.05    6.15
   1  -7   2  204.55    6.47
  -1  -7  -2  204.69    6.94
   1   7  -2  214.34    6.63
   1   7   2  219.03    6.35
  -1  -7   2  223.51    6.11
  -1   7  -2  213.34    6.37
   1  -7  -2  217.29    6.72
   1  -7  -2  216.65    6.13
  -1  -7   2  226.06    7.03
   2  -7   2    5.11    0.81
   2  -7   2    5.70    0.81
   2   7  -2    6.23    0.93
  -2  -7  -2    6.33    1.13
  -2  -7   2    4.23    0.91
   2  -7  -2    5.87    0.91
  -2   7  -2    5.98    0.64
   2   7   2    5.37    0.78
  -2  -7   2    4.92    0.70
   2  -7  -2    6.67    0.92
   3  -7   2  180.75    5.52
   3   7  -2  162.51    5.88
  -3  -7  -2  162.05    6.17
  -3  -7   2  171.38    6.31
   3  -7  -2  166.72    5.36
   3   7   2  169.42    5.84
  -3   7  -2  172.08    5.49
   3  -7  -2  169.39    5.50
  -4  -7  -2   36.82    2.57
   4   7  -2   37.18    2.32
   4  -7   2   37.77    2.13
   4   7   2   34.63    2.24
   4  -7  -2   33.38    1.89
   4  -7  -2   35.08    2.04
  -4  -7   2   34.79    2.58
   5   7  -2   10.46    1.57
   5  -7   2    9.69    1.31
  -5  -7  -2    9.72    1.66
   5   7   2    5.49    1.14
   6   7  -2    4.47    1.16
  -6  -7  -2    3.09    1.14
   6  -7   2    3.87    0.96
   6  -7  -2    3.70    0.89
   6   7   2    2.22    0.93
   7  -7   2    3.44    1.00
   7   7  -2    4.90    1.34
   7   7   2    4.45    1.36
   7  -7  -2    6.06    1.27
   0  -8   2   25.88    1.78
   0  -8  -2   25.79    1.43
   0   8  -2   24.87    1.43
   0  -8  -2   26.09    1.87
   0  -8   2   24.35    1.53
   1  -8   2   31.97    1.89
   1   8  -2   33.45    1.81
  -1  -8  -2   30.35    2.14
   1  -8   2   34.51    1.87
  -1  -8  -2   32.75    1.52
  -1   8  -2   31.41    1.59
  -1  -8   2   32.21    1.73
  -1  -8   2   31.88    2.12
   1  -8  -2   32.27    1.73
   1  -8  -2   31.68    1.99
   2  -8   2   18.76    1.42
   2   8  -2   18.36    1.38
  -2  -8  -2   20.49    1.80
   2  -8   2   18.82    1.36
  -2  -8   2   14.16    1.79
   2  -8  -2   14.29    1.32
   2  -8  -2   16.32    1.28
   2   8   2   15.44    1.20
   3   8  -2  125.89    4.71
   3  -8   2  121.69    4.39
  -3  -8  -2  115.37    5.06
   3  -8  -2  117.85    4.27
   3   8   2  118.89    4.52
   3  -8  -2  113.30    4.31
  -3  -8   2  113.69    5.04
   4  -8   2   30.95    2.06
  -4  -8  -2   29.09    2.42
   4   8  -2   30.32    2.15
   4   8   2   30.13    2.09
   4  -8  -2   28.66    1.81
   4  -8  -2   28.90    1.93
  -4  -8   2   26.07    2.37
   5  -8   2   38.64    2.45
   5   8  -2   39.17    2.68
  -5  -8  -2   37.02    2.90
   5  -8  -2   42.53    2.47
   5   8   2   39.43    2.66
   6  -8   2    3.76    1.08
  -6  -8  -2    4.53    1.35
   6   8  -2    3.80    1.19
   6   8   2    4.44    1.21
   6  -8  -2    3.89    0.97
   0  -9  -2    1.16    0.67
   0  -9  -2    0.24    0.33
   0  -9   2   -0.03    0.37
   0  -9   2    0.13    0.46
   1   9  -2   67.47    2.98
   1  -9   2   70.76    3.06
   1  -9   2   68.87    3.20
  -1  -9  -2   65.22    3.52
   1  -9  -2   73.99    2.97
  -1  -9   2   72.42    3.55
  -1  -9   2   74.31    2.96
   1  -9  -2   73.71    3.43
  -2  -9  -2    5.35    1.18
   2   9  -2    7.17    1.06
   2  -9   2    6.89    1.09
   2  -9  -2    5.59    0.96
  -2  -9   2    6.73    1.34
   2  -9  -2    5.65    1.08
   3   9  -2   37.47    2.28
  -3  -9  -2   32.42    2.59
   3  -9   2   34.43    2.17
   3  -9  -2   31.24    2.03
  -3  -9   2   33.69    2.61
   3  -9  -2   32.08    2.09
   4  -9   2   24.76    1.96
  -4  -9  -2   24.22    2.37
   4   9  -2   25.03    2.01
  -4  -9   2   23.38    2.31
   4  -9  -2   24.29    1.86
   4   9   2   23.84    1.90
  -5  -9  -2   11.52    2.07
   5  -9   2   11.04    1.66
   5   9  -2   10.54    1.68
   5  -9  -2    8.90    1.38
   5   9   2    9.48    1.54
   6  -9   2   23.30    2.16
  -6  -9  -2   25.57    2.68
   6   9  -2   24.68    2.34
   6   9   2   22.11    2.20
   6  -9  -2   19.71    1.91
   0 -10   2   93.31    4.22
   0 -10  -2   91.02    3.46
   0 -10  -2   91.16    4.35
   0 -10   2   95.84    3.78
   1 -10   2    9.65    1.43
  -1 -10  -2   10.77    1.72
   1 -10   2   11.11    1.46
   1 -10  -2    6.56    1.00
  -1 -10   2    7.47    1.38
   1 -10  -2    6.68    1.27
  -2 -10  -2   35.51    2.75
   2 -10   2   42.17    2.44
  -2 -10   2   38.49    2.81
   2 -10  -2   41.22    2.30
   2 -10  -2   37.32    2.45
   3  10  -2   13.29    1.41
   3 -10   2   13.99    1.76
  -3 -10  -2   11.39    1.88
   3 -10  -2   10.77    1.52
   3 -10  -2   10.25    1.41
  -3 -10   2   12.87    2.07
   4  10  -2   11.35    1.64
  -4 -10  -2   11.01    2.02
   4 -10   2   12.03    1.67
   4 -10  -2   11.83    1.62
  -4 -10   2    9.13    1.85
   5  10  -2   35.99    2.69
  -5 -10  -2   38.40    3.25
   5 -10   2   35.02    2.62
   5 -10  -2   40.19    2.66
   0 -11  -2    6.97    1.53
   0 -11   2    6.96    1.21
   0 -11   2    7.30    1.43
  -1 -11  -2    7.93    1.61
   1 -11   2    5.13    1.09
  -1 -11   2    7.79    1.50
   1 -11  -2    7.76    1.45
   1 -11  -2    7.78    1.17
   2 -11   2    1.41    0.80
  -2 -11  -2    2.04    1.07
   2 -11  -2    3.03    0.84
   2 -11  -2    3.01    1.03
  -2 -11   2    4.02    1.23
  -3 -11  -2    9.87    1.98
   3 -11   2    9.85    1.55
  -3 -11   2   10.54    1.93
   3 -11  -2    9.17    1.40
  -4 -11  -2   39.99    3.38
   4 -11   2   38.38    2.76
   4 -11  -2   43.46    2.75
  -4 -11   2   42.19    3.44
   0 -12   2   74.01    4.08
   0 -12  -2   68.71    4.13
   1 -12   2    4.24    1.15
  -1 -12  -2    4.02    1.30
   1 -12  -2    4.87    1.12
   1 -12  -2    4.60    1.34
  -1 -12   2    5.01    1.40
  -2 -12  -2   34.51    3.13
   2 -12   2   34.94    2.59
   2 -12  -2   32.96    2.35
  -2 -12   2   35.59    2.97
   0   0  -3   -1.31    0.11
   0   0  -3   -1.40    0.09
  -1   0  -3   28.08    1.18
  -1   0  -3   26.50    0.93
   1   0  -3   26.39    1.10
  -2   0  -3  112.59    3.19
   2   0   3  114.11    3.15
   2   0  -3  112.30    3.55
   3   0   3  179.70    4.83
  -3   0  -3  185.70    5.10
   3   0  -3  185.38    5.65
  -3   0  -3  177.71    5.87
  -4   0   3  127.32    4.67
   4   0   3  122.80    3.62
  -4   0  -3  121.46    4.73
   4   0  -3  130.17    4.44
  -5   0  -3    8.21    1.31
  -5   0   3   10.28    1.45
   5   0   3    8.49    0.74
   6   0  -3  307.36    9.72
  -6   0   3  309.44   10.23
  -6   0  -3  291.22   10.33
   7   0  -3    6.46    1.24
  -7   0  -3    8.44    1.73
   8   0  -3  100.27    4.94
  -8   0  -3  111.73    5.86
   0  -1  -3   50.28    1.67
   0  -1  -3   52.05    1.63
   0   1  -3   47.96    1.74
  -1  -1  -3   24.26    1.00
   1  -1   3   22.70    1.05
  -1  -1  -3   24.59    1.12
   1   1  -3   22.99    1.11
  -1   1  -3   26.33    0.78
  -1   1  -3   26.09    1.14
   1  -1  -3   26.87    0.99
   2   1  -3  294.94    8.28
  -2  -1  -3  298.00    7.79
   2  -1   3  291.12    7.38
  -2  -1  -3  293.27    8.40
   2  -1  -3  290.96    8.04
  -2   1  -3  281.66    8.31
  -2   1  -3  292.33    7.30
   2  -1  -3  293.46    7.94
  -3  -1  -3   85.63    2.92
  -3  -1  -3   83.59    3.37
   3   1  -3   85.23    3.19
   3  -1   3   85.65    2.69
   3  -1  -3   87.42    3.03
  -3   1  -3   85.85    3.29
   3   1   3   89.07    2.50
   4  -1   3  182.69    5.14
  -4   1   3  177.02    6.12
  -4  -1  -3  183.05    6.44
   4   1  -3  187.65    6.15
  -4  -1  -3  185.57    5.64
   4   1   3  194.41    4.93
  -4   1  -3  195.81    6.42
  -5  -1  -3    9.35    1.45
   5   1  -3   10.44    1.14
  -5   1   3   10.29    1.38
   5  -1   3    9.83    0.85
   5   1   3   10.66    0.75
  -5   1  -3   10.31    1.44
   6  -1   3    9.79    0.92
  -6  -1  -3    9.45    1.62
   6   1  -3    7.99    1.24
  -6   1   3    9.56    1.54
  -7   1   3    5.28    1.20
  -7  -1  -3    3.92    1.17
   7   1  -3    4.15    1.04
  -7   1  -3    4.82    1.26
   7  -1  -3    5.02    1.09
   7  -1  -3    6.55    0.90
  -8  -1  -3    3.50    1.37
   8   1  -3    6.40    1.45
  -8   1  -3    2.59    1.17
   8  -1  -3    5.60    1.29
   8  -1  -3    4.58    1.07
   0  -2  -3    0.27    0.17
   0  -2  -3    0.34    0.13
   0   2  -3    0.08    0.14
   0  -2   3    0.34    0.22
  -1  -2  -3  306.95    8.09
   1   2  -3  289.35    8.46
   1  -2   3  304.98    7.71
  -1  -2  -3  314.63    8.42
   1  -2  -3  305.11    7.98
  -1   2  -3  301.79    8.40
   2  -2   3   64.76    2.30
   2   2  -3   67.31    2.62
  -2  -2  -3   68.65    2.71
  -2  -2  -3   70.74    2.51
   2  -2  -3   77.29    2.55
   2  -2  -3   75.58    2.29
  -2   2  -3   75.63    2.62
   3   2  -3   37.98    1.89
   3  -2   3   38.22    1.60
  -3  -2  -3   35.85    1.75
  -3  -2  -3   37.34    2.01
  -3   2  -3   38.48    1.90
   3  -2  -3   39.70    1.64
   3  -2  -3   38.91    1.75
  -4  -2  -3  177.87    5.70
   4   2  -3  185.32    6.12
   4  -2   3  180.08    4.81
  -4   2   3  185.51    5.94
  -4  -2  -3  186.19    6.43
   4  -2   3  181.23    5.15
  -4   2  -3  175.63    6.11
   4  -2  -3  173.32    5.55
  -5  -2  -3   10.31    1.53
  -5  -2  -3   11.44    1.12
   5  -2   3    9.55    0.87
   5   2  -3   10.44    1.41
  -5   2   3   10.21    1.15
   5  -2  -3   12.26    1.09
  -5   2  -3   11.84    1.57
   6  -2   3  143.32    4.57
  -6  -2  -3  141.19    6.16
  -6   2   3  138.60    5.61
   6   2  -3  141.04    5.64
   6  -2  -3  146.60    4.63
  -6   2  -3  141.76    5.92
   6  -2  -3  145.59    5.08
  -7   2   3    8.72    1.58
   7   2  -3    9.97    1.60
   7  -2   3    7.71    1.10
  -7  -2  -3    8.85    1.79
   7  -2  -3    7.15    1.18
   7  -2  -3    7.84    1.07
  -7   2  -3    5.05    1.30
  -8  -2  -3   78.26    4.96
   8   2  -3   78.47    4.38
  -8   2  -3   87.19    4.98
   8  -2  -3   80.63    4.13
   0  -3   3  273.11    7.31
   0  -3  -3  286.18    7.78
   0  -3   3  292.34    7.68
   0  -3  -3  295.25    7.65
   0   3  -3  283.11    8.01
   1   3  -3    3.88    0.56
   1  -3   3    4.45    0.36
  -1  -3  -3    4.05    0.54
  -1  -3  -3    4.72    0.62
   1  -3   3    4.22    0.59
   1  -3  -3    5.54    0.54
  -1   3  -3    5.24    0.50
  -2  -3  -3  175.51    5.75
   2   3  -3  174.75    5.69
  -2  -3  -3  181.56    5.55
   2  -3   3  181.65    5.13
   2  -3  -3  193.57    5.46
   2  -3  -3  192.53    5.07
  -2   3  -3  195.45    5.62
   3  -3   3   52.53    2.07
  -3  -3  -3   54.12    2.37
  -3  -3  -3   53.26    2.57
   3   3  -3   54.83    2.44
  -3   3  -3   53.41    2.34
   3  -3  -3   54.13    2.20
   3  -3  -3   52.91    1.95
  -4   3   3   68.70    2.76
  -4  -3  -3   64.58    3.25
   4  -3   3   63.18    2.48
  -4  -3  -3   61.45    2.85
   4   3  -3   65.19    3.01
   4  -3  -3   72.44    2.75
  -4   3  -3   71.33    3.05
  -5   3   3  138.94    5.04
  -5  -3  -3  143.19    5.76
   5   3  -3  133.54    5.26
  -5  -3  -3  138.89    5.05
   5  -3   3  135.21    4.38
  -5   3  -3  137.13    5.35
   5  -3  -3  134.29    4.68
  -6   3   3    0.61    0.46
   6   3  -3    0.88    0.54
  -6  -3  -3    1.07    0.66
   6  -3   3    0.39    0.38
   6  -3  -3    0.53    0.36
   6  -3  -3    0.46    0.41
  -6   3  -3    1.16    0.63
  -7  -3  -3   26.42    2.62
   7  -3   3   27.29    1.81
   7   3  -3   27.45    2.31
  -7   3  -3   31.11    2.58
   7  -3  -3   28.71    1.84
   7  -3  -3   26.52    1.91
   8   3  -3    9.85    1.86
   8  -3  -3    9.71    1.32
  -8   3  -3    6.96    1.63
   0  -4  -3    3.90    0.33
   0  -4   3    4.53    0.60
   0   4  -3    3.32    0.50
   0  -4   3    3.40    0.55
   0  -4  -3    4.15    0.64
  -1  -4  -3  314.78    9.20
   1   4  -3  340.57    9.51
   1  -4   3  350.89    8.81
  -1  -4  -3  340.65    9.36
   1  -4   3  331.28    8.63
   1  -4  -3  333.31    9.14
  -1   4  -3  326.65    9.32
  -1  -4   3  334.28    8.51
  -1  -4   3  337.09    9.32
  -2  -4  -3  113.92    4.08
   2  -4   3  122.09    3.31
   2   4  -3  118.72    4.14
   2  -4   3  121.04    3.74
  -2  -4  -3  117.64    4.16
  -2  -4   3  118.64    4.22
  -2   4  -3  123.12    3.94
   2  -4  -3  122.02    3.89
  -3  -4  -3  178.55    5.90
   3   4  -3  165.65    5.62
  -3  -4  -3  177.26    5.61
   3  -4   3  168.26    4.97
  -3   4  -3  162.23    5.41
   3  -4  -3  163.66    5.16
   3  -4  -3  162.17    4.80
  -4   4   3   70.06    2.75
  -4  -4  -3   73.27    3.50
  -4  -4  -3   70.52    3.21
   4   4  -3   68.79    3.19
   4  -4   3   71.03    2.76
  -4   4  -3   72.04    3.13
   4  -4  -3   72.81    2.87
  -5  -4  -3   33.83    2.20
   5   4  -3   31.95    2.19
  -5   4   3   34.31    1.95
  -5  -4  -3   33.81    2.49
   5  -4   3   33.03    1.83
   5  -4  -3   32.87    1.81
  -5   4  -3   32.90    2.18
   5  -4  -3   32.03    1.83
  -6  -4  -3   28.13    2.16
  -6  -4  -3   27.45    2.47
   6   4  -3   32.58    2.37
   6  -4   3   28.12    1.79
  -6   4  -3   29.56    2.27
   6  -4  -3   27.34    1.76
   6  -4  -3   28.28    1.82
   7   4  -3    5.18    1.31
  -7  -4  -3    4.48    1.32
   7  -4   3    3.81    0.89
  -7   4  -3    5.44    1.36
   7  -4  -3    5.20    1.01
   8   4  -3   16.11    2.34
  -8  -4  -3   14.14    2.49
  -8   4  -3   17.02    2.46
   8  -4  -3   19.24    1.68
   0  -5   3  193.58    5.70
   0   5  -3  189.12    5.76
   0  -5  -3  190.42    5.82
   0   5   3  187.26    5.19
   0  -5   3  192.31    5.42
   1  -5   3    7.81    0.67
  -1  -5  -3    6.15    0.64
  -1  -5  -3    7.21    0.97
   1   5  -3    5.57    0.78
   1  -5   3    7.57    0.75
  -1  -5   3    8.74    0.77
   1  -5  -3    8.33    0.80
  -1   5  -3    8.83    0.73
  -1  -5   3    9.18    0.91
  -2  -5  -3   13.47    1.20
  -2  -5  -3   12.24    1.06
   2  -5   3   16.39    1.12
   2  -5   3   15.66    0.82
  -2  -5  -3   14.61    0.64
   2  -5  -3   12.55    1.00
  -2  -5   3   11.12    1.14
  -2   5  -3   12.17    0.91
   3  -5   3  133.21    4.22
  -3  -5  -3  124.62    4.70
   3   5  -3  130.82    4.71
  -3  -5  -3  132.62    4.89
  -3   5  -3  127.12    4.41
   3  -5  -3  123.94    4.25
   4   5  -3   19.85    1.58
  -4  -5  -3   20.36    1.70
   4  -5   3   19.57    1.40
  -4  -5  -3   19.30    1.71
  -4   5  -3   22.96    1.57
   4  -5  -3   22.91    1.46
   5   5  -3   90.63    4.13
   5  -5   3   95.24    3.60
  -5  -5  -3   96.60    4.60
  -5  -5  -3   89.98    4.14
  -5   5  -3   90.53    4.03
   5  -5  -3   87.71    3.49
   5  -5  -3   91.21    3.52
  -6  -5  -3    7.70    1.45
  -6  -5  -3    5.65    1.46
   6  -5   3    8.49    1.24
   6  -5  -3    6.85    1.05
   6  -5  -3    7.31    1.10
  -6   5  -3    5.00    1.09
   7  -5   3   59.87    3.04
   7   5  -3   63.60    3.76
  -7  -5  -3   56.84    4.09
  -7   5  -3   58.85    3.67
   7  -5  -3   61.07    3.03
   0   6   3   35.97    1.25
   0   6  -3   35.44    1.71
   0  -6   3   36.36    1.75
   0  -6  -3   34.67    1.90
   0  -6   3   34.35    1.81
   1   6  -3  389.40   10.97
  -1  -6  -3  381.32    9.51
  -1  -6  -3  380.29   10.93
   1  -6   3  390.22   10.41
   1  -6   3  388.07   10.06
   1  -6  -3  379.69   10.70
  -1   6  -3  370.73   10.71
   1   6   3  382.23   10.56
  -1  -6   3  387.17   10.92
  -1  -6   3  374.30    9.88
  -2  -6  -3    2.01    0.56
  -2  -6  -3    2.55    0.35
  -2  -6  -3    1.84    0.62
   2  -6   3    1.65    0.40
   2  -6   3    2.30    0.55
   2   6  -3    1.74    0.50
  -2   6  -3    2.77    0.54
   2  -6  -3    2.55    0.58
  -2  -6   3    2.98    0.74
  -3  -6  -3   93.01    3.93
  -3  -6  -3   93.48    3.90
   3   6  -3   99.06    3.84
   3  -6   3   94.30    3.42
  -3  -6   3   84.17    3.92
   3  -6  -3   81.45    3.21
   3  -6  -3   85.01    3.35
  -3   6  -3   86.30    3.36
  -4  -6  -3   38.86    2.52
   4   6  -3   39.59    2.38
  -4  -6  -3   37.14    2.52
   4  -6   3   39.96    2.14
   4  -6  -3   37.02    2.02
  -4   6  -3   42.54    2.25
   4  -6  -3   43.31    2.11
   5  -6   3   32.59    2.02
  -5  -6  -3   30.38    2.49
  -5  -6  -3   30.47    2.37
   5   6  -3   30.16    2.24
   5  -6  -3   31.78    1.88
   5  -6  -3   32.95    1.99
  -5   6  -3   33.86    2.21
  -6  -6  -3    5.79    1.30
   6   6  -3    4.65    1.14
   6  -6   3    6.15    1.09
  -6  -6  -3    7.83    1.65
   6  -6  -3    6.39    1.09
  -7  -6  -3    1.08    0.89
   7   6  -3    1.49    0.88
   7  -6   3    1.82    0.77
   7  -6  -3    1.09    0.68
   0  -7  -3    0.92    0.33
   0  -7  -3    1.30    0.54
   0  -7   3    1.09    0.50
   0   7  -3    0.75    0.36
   0  -7   3    0.88    0.44
  -1  -7  -3   28.09    1.32
   1   7  -3   27.96    1.64
  -1  -7  -3   27.50    1.91
   1  -7   3   29.50    1.64
   1  -7   3   28.50    1.65
  -1  -7   3   27.64    1.85
  -1   7  -3   27.94    1.50
   1   7   3   27.48    1.36
  -1  -7   3   30.03    1.61
   1  -7  -3   27.96    1.76
   1  -7  -3   29.02    1.53
   2   7  -3   36.12    2.03
   2  -7   3   35.18    1.96
   2  -7   3   37.65    1.77
  -2  -7  -3   36.21    2.33
   2  -7  -3   40.18    1.95
   2  -7  -3   38.16    2.05
  -2  -7   3   38.54    2.35
  -2   7  -3   40.24    1.87
   2   7   3   38.90    1.93
   3   7  -3   14.49    1.35
  -3  -7  -3   16.51    1.60
   3  -7   3   15.73    1.35
  -3  -7  -3   16.38    1.50
  -3   7  -3   15.89    1.20
   3  -7  -3   16.75    1.32
   3  -7  -3   16.44    1.29
  -3  -7   3   17.54    1.71
   4   7  -3    3.53    0.87
  -4  -7  -3    4.26    1.07
   4  -7   3    4.09    0.87
  -4  -7  -3    3.39    0.93
  -4   7  -3    3.06    0.73
   4  -7  -3    1.80    0.61
   4  -7  -3    3.18    0.73
   5  -7   3   37.12    2.30
  -5  -7  -3   37.71    2.75
  -5  -7  -3   35.22    2.74
   5   7  -3   34.10    2.48
   5  -7  -3   38.96    2.16
   5  -7  -3   39.10    2.27
  -6  -7  -3   -0.40    0.51
   6   7  -3   -0.08    0.48
  -6  -7  -3   -0.04    0.58
   6  -7   3   -0.26    0.48
   6  -7  -3   -0.08    0.43
   7  -7   3   55.24    3.20
  -7  -7  -3   54.95    3.73
   7   7  -3   55.11    3.63
  -7  -7  -3   50.77    3.97
   7  -7  -3   53.02    3.04
   0  -8  -3    1.65    0.49
   0  -8   3    1.74    0.61
   0  -8  -3    1.23    0.63
   0   8  -3    1.26    0.44
   0  -8   3    1.19    0.55
  -1  -8  -3  126.08    3.88
   1  -8   3  127.40    4.51
   1   8  -3  121.97    4.52
   1  -8   3  123.42    4.37
  -1  -8  -3  123.08    5.00
  -1  -8   3  130.46    4.29
  -1  -8   3  127.42    4.91
   1  -8  -3  128.98    4.22
  -1   8  -3  128.90    4.34
   1  -8  -3  130.79    4.81
  -2  -8  -3   29.12    2.20
   2  -8   3   23.47    1.68
   2   8  -3   29.70    1.84
   2  -8  -3   25.84    1.82
   2  -8  -3   28.32    1.70
  -2   8  -3   26.05    1.52
  -2  -8   3   28.47    2.11
   3  -8   3  181.37    6.14
   3   8  -3  190.67    6.66
  -3  -8  -3  190.23    7.06
   3  -8  -3  186.60    6.03
  -3  -8   3  191.50    7.12
   3  -8  -3  192.41    6.34
   3   8   3  198.85    6.54
   4  -8   3   10.18    1.44
  -4  -8  -3    9.12    1.58
   4   8  -3   10.56    1.47
   4  -8  -3   11.06    1.38
   4   8   3   11.57    1.53
   4  -8  -3   10.81    1.39
  -5  -8  -3    4.75    1.30
   5   8  -3    4.48    1.15
   5  -8   3    3.82    1.06
   5   8   3    3.86    1.05
   5  -8  -3    2.71    0.85
   6   8  -3    8.23    1.53
  -6  -8  -3    9.46    1.84
   6  -8   3   10.46    1.70
   6   8   3   11.70    1.83
   6  -8  -3   12.46    1.71
   0  -9  -3   73.05    2.82
   0  -9   3   70.79    3.34
   0  -9  -3   65.63    3.45
   0   9  -3   71.27    2.96
   0  -9   3   70.24    3.08
   1   9  -3   12.47    1.17
   1  -9   3   13.34    1.34
  -1  -9  -3   12.65    1.68
   1  -9   3   11.05    1.38
   1  -9  -3   13.72    1.67
   1  -9  -3   14.99    1.24
  -1  -9   3   13.11    1.28
  -1  -9   3   16.24    1.64
   2   9  -3   10.41    1.16
   2  -9   3   11.18    1.43
  -2  -9  -3   10.81    1.74
   2  -9  -3   10.10    1.24
   2  -9  -3   12.50    1.55
  -2  -9   3   11.06    1.66
  -3  -9  -3    6.35    1.32
   3   9  -3   12.18    1.32
   3  -9   3    7.51    1.22
   3  -9  -3    5.96    1.08
   3  -9  -3    6.22    1.05
  -3  -9   3    5.67    1.27
   4  -9   3   16.14    1.88
   4   9  -3   15.34    1.61
  -4  -9  -3   14.88    2.20
  -4  -9   3   17.71    2.43
   4  -9  -3   15.46    1.48
   4  -9  -3   16.15    1.55
   5   9  -3   13.36    1.85
   5  -9   3   12.49    1.81
  -5  -9  -3   11.08    1.99
   5   9   3   16.05    1.72
   5  -9  -3   17.69    1.70
   0 -10  -3   -0.32    0.32
   0 -10   3    0.61    0.55
   0 -10   3   -0.17    0.46
   0 -10  -3   -0.24    0.54
  -1 -10  -3   44.77    3.05
   1 -10   3   46.16    2.62
  -1 -10   3   50.55    3.04
   1 -10  -3   51.15    2.51
   1 -10  -3   52.34    3.02
   2  10  -3   22.28    1.73
   2 -10   3   22.32    1.85
  -2 -10  -3   22.60    2.18
   2 -10  -3   21.51    1.67
   2 -10  -3   21.96    1.93
  -2 -10   3   20.69    2.08
   3  10  -3   17.49    1.67
  -3 -10  -3   17.87    2.47
   3 -10   3   18.50    1.78
   3 -10  -3   18.77    1.65
   3 -10  -3   16.81    1.71
  -3 -10   3   19.52    2.51
   4  10  -3  112.68    4.94
   4 -10   3  115.37    4.85
  -4 -10  -3  105.92    5.53
   4 -10  -3  109.09    4.56
  -4 -10   3  110.62    5.57
   5  10  -3    0.80    0.68
   5 -10   3    0.32    0.71
  -5 -10  -3    0.09    0.76
   5 -10  -3   -0.10    0.57
   0 -11   3   82.21    3.73
   0 -11   3   87.64    4.19
   0 -11  -3   79.21    4.30
  -1 -11  -3    4.28    1.31
   1 -11   3    5.05    1.14
  -1 -11   3    3.31    1.01
   1 -11  -3    5.04    0.98
   1 -11  -3    5.60    1.36
  -2 -11  -3   18.17    2.52
   2 -11   3   16.28    1.93
   2 -11  -3   14.13    1.70
   2 -11  -3   16.33    2.03
  -2 -11   3   16.26    2.29
  -3 -11  -3    9.27    1.88
   3 -11   3   12.37    1.80
   3 -11  -3   13.22    1.70
  -3 -11   3   12.53    2.17
   0 -12  -3    4.76    1.41
   1 -12   3    0.25    0.74
  -1 -12  -3    0.75    0.92
  -1 -12   3    3.07    1.10
   1 -12  -3    1.40    0.91
   0   0  -4  395.23   10.18
   1   0  -4   39.67    1.56
  -1   0  -4   40.47    1.35
  -1   0  -4   39.08    1.61
  -2   0  -4  170.03    5.31
   2   0   4  169.68    4.61
  -2   0  -4  168.77    4.61
   2   0  -4  174.68    5.15
   3   0  -4    0.24    0.23
   3   0   4    0.56    0.27
  -3   0  -4    0.86    0.26
  -3   0  -4    0.86    0.38
   4   0  -4  125.81    4.41
   4   0   4  123.61    3.70
  -4   0  -4  121.66    4.75
   5   0  -4    4.93    0.89
  -5   0  -4    3.80    0.95
   5   0   4    4.91    0.69
   6   0  -4    0.15    0.39
  -6   0  -4    0.05    0.45
  -7   0  -4    0.59    0.66
   7   0  -4    0.36    0.50
   8   0  -4   12.63    1.82
  -8   0  -4   13.01    2.31
   0  -1  -4    0.00    0.16
   0   1  -4   -0.10    0.16
   0  -1  -4    0.78    0.23
  -1  -1  -4   43.12    1.65
   1  -1   4   42.67    1.59
   1   1  -4   44.15    1.68
  -1  -1  -4   42.68    1.49
  -1   1  -4   35.33    1.59
   1  -1  -4   36.99    1.44
  -1   1  -4   36.68    1.24
  -2  -1  -4   83.16    3.04
  -2  -1  -4   79.27    2.61
   2  -1   4   84.40    2.68
   2   1  -4   85.66    2.97
  -2   1  -4   80.62    2.96
   2  -1  -4   84.34    2.88
  -2   1  -4   83.33    2.26
   2  -1  -4   82.81    2.73
   3  -1   4  158.86    4.52
   3   1  -4  156.96    5.11
  -3  -1  -4  156.95    5.38
  -3  -1  -4  155.50    4.68
   3  -1  -4  159.41    4.97
  -3   1  -4  161.07    5.32
   3  -1  -4  155.49    4.89
   4  -1   4  315.73    8.39
  -4  -1  -4  321.61    8.94
   4   1  -4  331.39    9.68
  -4  -1  -4  320.26   10.07
   4  -1  -4  319.86    9.42
  -4   1  -4  319.85    9.92
   4   1   4  317.14    8.10
  -5  -1  -4   36.01    2.44
   5  -1   4   33.94    1.68
   5   1  -4   32.08    2.04
   5  -1  -4   35.64    2.02
   5   1   4   33.74    1.49
  -5   1  -4   35.86    2.38
  -6  -1  -4  232.72    8.86
   6  -1   4  247.04    6.92
   6   1  -4  244.90    8.29
  -6   1  -4  240.72    8.79
   6  -1  -4  246.13    8.08
  -7  -1  -4    6.16    1.60
   7   1  -4    7.70    1.42
   7  -1  -4    6.26    1.17
   7  -1  -4    5.90    1.21
  -7   1  -4    5.39    1.35
   7  -1  -4    5.97    0.90
   8   1  -4   80.28    4.23
  -8  -1  -4   67.27    4.61
   8  -1  -4   72.80    3.73
   8  -1  -4   74.75    4.00
  -8   1  -4   76.79    4.79
   0  -2  -4  117.39    3.47
   0  -2  -4  121.23    3.63
   1   2  -4    3.77    0.55
   1  -2   4    3.95    0.57
  -1  -2  -4    4.71    0.48
  -1  -2  -4    4.63    0.49
   1  -2  -4    6.48    0.57
   2  -2   4  261.58    6.73
  -2  -2  -4  261.78    7.52
  -2  -2  -4  249.91    6.95
   2   2  -4  266.00    7.45
   2  -2  -4  238.99    6.89
   2  -2  -4  239.97    7.04
  -2   2  -4  233.14    7.28
   3   2  -4   21.39    1.42
  -3  -2  -4   21.65    1.54
  -3  -2  -4   23.74    1.36
   3  -2   4   23.69    1.31
   3  -2  -4   29.49    1.31
   3  -2  -4   29.45    1.52
  -3   2  -4   29.54    1.64
  -4  -2  -4   32.68    1.75
   4  -2   4   33.64    1.61
  -4  -2  -4   31.93    2.09
   4   2  -4   34.68    1.94
  -4   2  -4   29.08    1.88
   4  -2  -4   28.00    1.56
   4  -2  -4   26.48    1.62
  -5  -2  -4   41.23    2.13
   5   2  -4   38.39    2.29
  -5  -2  -4   36.05    2.52
   5  -2   4   38.78    1.87
   5  -2  -4   35.19    1.97
  -5   2  -4   36.97    2.41
   5  -2  -4   34.76    2.01
   6   2  -4    4.44    1.01
  -6  -2  -4    6.05    1.41
   6  -2   4    4.50    0.82
   6  -2  -4    3.99    0.84
   6  -2  -4    4.51    0.94
  -6   2  -4    3.01    0.95
   7   2  -4   30.47    2.39
  -7  -2  -4   26.79    2.65
   7  -2  -4   31.43    1.85
   7  -2  -4   31.74    2.16
   7  -2  -4   29.65    2.16
  -7   2  -4   28.33    2.57
  -8  -2  -4    2.84    1.26
   8   2  -4    6.12    1.36
  -8   2  -4    1.45    0.90
   0   3  -4    7.76    0.66
   0  -3  -4    8.15    0.50
   0  -3   4    7.58    0.70
   0  -3  -4    7.77    0.66
   1   3  -4  208.97    6.11
  -1  -3  -4  208.81    5.94
   1  -3   4  192.92    5.58
  -1  -3  -4  205.75    5.85
   1  -3  -4  204.82    5.37
   1  -3  -4  196.49    5.83
  -1   3  -4  191.74    5.96
   2  -3   4  155.59    4.68
  -2  -3  -4  161.05    5.21
  -2  -3  -4  156.24    4.92
   2  -3  -4  156.27    4.90
   2  -3  -4  161.49    4.45
  -2   3  -4  168.05    5.09
   3  -3   4  153.64    4.74
  -3  -3  -4  159.48    5.57
  -3  -3  -4  159.51    5.16
   3   3  -4  156.48    5.36
   3  -3  -4  160.54    4.72
  -3   3  -4  161.89    5.35
   3  -3  -4  166.34    5.09
   4  -3   4   97.99    3.34
   4   3  -4   98.76    3.89
  -4  -3  -4   99.45    3.72
  -4  -3  -4   95.32    4.14
  -4   3  -4   88.37    3.78
   4  -3  -4   90.19    3.27
   4  -3  -4   89.66    3.48
   5  -3   4   61.94    2.61
  -5  -3  -4   59.42    3.43
  -5  -3  -4   63.58    2.97
   5   3  -4   60.47    3.10
   5  -3  -4   63.73    2.82
   5  -3  -4   62.38    2.69
  -5   3  -4   59.79    3.18
  -6  -3  -4   91.28    4.78
  -6  -3  -4   91.44    4.01
   6  -3   4   92.84    3.55
   6   3  -4   94.90    4.34
   6  -3  -4   92.43    3.83
   6  -3  -4   92.31    3.81
  -6   3  -4   90.00    4.48
  -7  -3  -4    9.15    1.80
   7  -3   4   11.28    1.38
   7   3  -4   12.84    1.86
  -7   3  -4   13.41    2.04
   7  -3  -4   12.75    1.59
   7  -3  -4   12.25    1.40
   8   3  -4   42.14    3.13
  -8  -3  -4   47.43    3.85
  -8   3  -4   44.00    3.51
   8  -3  -4   45.69    2.53
   0  -4  -4   74.23    2.81
   0  -4  -4   75.09    2.39
   0   4  -4   80.78    2.86
   0  -4   4   78.38    2.73
   1   4  -4    3.02    0.57
  -1  -4  -4    2.85    0.57
   1  -4   4    2.73    0.53
  -1  -4  -4    3.23    0.50
  -1   4  -4    3.44    0.57
   1  -4  -4    3.22    0.60
   2   4  -4   43.28    2.08
  -2  -4  -4   41.10    2.04
  -2  -4  -4   42.33    2.05
   2  -4   4   41.56    1.91
  -2   4  -4   43.95    1.94
   2  -4  -4   43.98    1.97
   3  -4   4   40.83    1.95
  -3  -4  -4   42.37    2.32
  -3  -4  -4   42.36    2.21
   3   4  -4   37.99    2.12
   3  -4  -4   44.93    2.05
  -3   4  -4   44.08    2.12
   3  -4  -4   44.53    1.55
  -4  -4  -4   32.16    2.02
  -4  -4  -4   33.73    2.26
   4   4  -4   32.80    2.05
   4  -4   4   32.46    1.77
   4  -4  -4   33.22    1.84
  -4   4  -4   30.59    1.95
   4  -4  -4   33.52    1.51
   5   4  -4   40.00    2.50
  -5  -4  -4   43.33    2.86
   5  -4   4   41.26    2.14
  -5  -4  -4   43.02    2.51
   5  -4  -4   42.20    2.22
  -5   4  -4   41.90    2.56
  -6  -4  -4    4.90    1.09
  -6  -4  -4    4.65    1.31
   6   4  -4    6.02    1.20
   6  -4   4    6.03    1.05
   6  -4  -4    4.19    0.84
  -6   4  -4    4.44    1.12
   6  -4  -4    4.10    0.88
   7   4  -4   37.59    2.79
   7  -4   4   40.80    2.38
  -7  -4  -4   36.83    3.18
   7  -4  -4   34.89    2.29
   7  -4  -4   38.07    2.26
  -7   4  -4   37.63    2.93
   8   4  -4   14.76    2.14
  -8  -4  -4   12.04    2.35
  -8   4  -4   11.59    2.11
   8  -4  -4   13.14    1.66
   0  -5   4   56.73    2.30
   0   5  -4   54.98    2.33
   0  -5  -4   55.47    1.86
   0  -5  -4   57.75    2.45
   0  -5   4   58.26    2.32
   1  -5   4  486.61   12.59
   1  -5   4  459.45   12.31
  -1  -5  -4  473.73   13.21
  -1  -5  -4  463.68   13.14
   1   5  -4  478.15   13.52
  -1  -5   4  496.66   12.23
  -1  -5   4  503.61   13.24
   1  -5  -4  498.89   13.09
  -1   5  -4  479.58   13.35
   2  -5   4    2.90    0.59
   2  -5   4    2.56    0.38
  -2  -5  -4    2.13    0.56
  -2  -5  -4    1.99    0.59
   2   5  -4    3.36    0.69
  -2   5  -4    4.42    0.68
   2  -5  -4    3.73    0.67
   3   5  -4  128.22    4.75
  -3  -5  -4  129.73    4.77
  -3  -5  -4  130.47    4.88
   3  -5   4  117.77    4.16
  -3   5  -4  127.96    4.47
   3  -5  -4  131.57    4.41
  -4  -5  -4    8.85    1.39
  -4  -5  -4    6.57    1.14
   4  -5   4    8.21    1.10
   4   5  -4    8.58    1.26
  -4   5  -4    6.69    1.03
   4  -5  -4    6.03    0.95
  -5  -5  -4   18.78    1.92
   5  -5   4   19.96    1.53
   5   5  -4   19.95    1.78
  -5  -5  -4   19.73    1.78
  -5   5  -4   20.94    1.76
   5  -5  -4   18.34    1.45
   6   5  -4    2.39    0.83
  -6  -5  -4    2.94    1.06
  -6  -5  -4    2.10    0.83
   6  -5   4    1.59    0.66
  -6   5  -4    1.14    0.69
   6  -5  -4    0.98    0.55
   6  -5  -4    1.45    0.59
   7  -5   4    5.96    1.17
   7   5  -4    6.67    1.44
  -7  -5  -4    5.29    1.56
  -7   5  -4    4.87    1.31
   7  -5  -4    5.19    1.05
   0  -6   4   13.82    1.14
   0  -6   4   10.89    1.00
   0  -6  -4   12.66    1.14
   0   6  -4   13.35    1.03
   0   6   4   12.36    0.60
   1  -6   4   27.94    1.42
   1   6  -4   25.82    1.57
  -1  -6  -4   24.71    1.67
   1  -6   4   28.59    1.64
  -1  -6  -4   25.73    1.38
  -1   6  -4   24.92    1.45
  -1  -6   4   23.97    1.63
  -1  -6   4   27.49    1.55
   1  -6  -4   24.90    1.58
   2  -6   4    5.59    0.56
  -2  -6  -4    5.00    0.97
   2  -6   4    4.06    0.77
  -2  -6  -4    4.68    0.80
   2   6  -4    4.37    0.77
  -2   6  -4    4.01    0.68
  -2  -6   4    3.21    0.77
   2  -6  -4    2.80    0.63
   3  -6   4   59.19    2.69
  -3  -6  -4   62.04    3.07
  -3  -6  -4   64.81    3.17
   3   6  -4   63.54    2.98
   3  -6  -4   61.16    2.72
  -3   6  -4   61.63    2.71
   4   6  -4   17.85    1.61
   4  -6   4   19.54    1.53
  -4  -6  -4   16.68    1.68
  -4  -6  -4   18.26    1.74
   4  -6  -4   20.64    1.49
  -4   6  -4   20.25    1.56
   5   6  -4   92.80    4.36
   5  -6   4   91.68    3.84
  -5  -6  -4   90.87    4.69
  -5  -6  -4   88.82    4.36
   5  -6  -4  100.06    3.83
  -5   6  -4  102.47    4.32
   5  -6  -4  102.49    3.91
   6  -6   4    4.36    0.98
  -6  -6  -4    2.58    1.02
  -6  -6  -4    3.61    1.15
   6   6  -4    5.37    1.27
  -6   6  -4    2.81    0.93
   6  -6  -4    3.13    0.80
   6  -6  -4    2.66    0.81
  -7  -6  -4   45.32    3.64
  -7  -6  -4   34.85    2.85
   7  -6   4   41.08    2.63
   7   6  -4   40.00    3.01
   7  -6  -4   37.18    2.45
   0  -7   4   22.80    1.55
   0  -7   4   23.22    1.55
   0   7  -4   23.19    1.45
   0  -7  -4   23.24    1.68
  -1  -7  -4  298.86    7.77
   1  -7   4  293.89    8.44
   1   7  -4  296.83    9.05
   1  -7   4  298.34    8.55
  -1  -7  -4  289.97    9.14
  -1  -7   4  301.87    9.09
  -1   7  -4  304.12    8.86
  -1  -7   4  294.26    8.27
   1  -7  -4  307.52    9.01
  -2  -7  -4   25.52    1.65
   2   7  -4   25.37    1.69
   2  -7   4   23.77    1.64
  -2  -7  -4   23.61    1.89
  -2   7  -4   23.65    1.47
  -2  -7   4   25.02    1.91
   2  -7  -4   23.68    1.64
  -3  -7  -4   50.20    2.88
   3   7  -4   52.66    2.68
   3  -7   4   47.35    2.44
  -3  -7  -4   50.66    2.73
   3  -7  -4   44.22    2.36
  -3   7  -4   45.00    2.27
   3  -7  -4   41.47    2.21
   4  -7   4   14.73    1.65
   4   7  -4   15.09    1.52
  -4  -7  -4   16.94    1.77
  -4  -7  -4   16.01    1.66
  -4   7  -4   15.19    1.38
   4  -7  -4   15.38    1.36
   4  -7  -4   12.35    1.47
  -5  -7  -4    7.43    1.49
  -5  -7  -4    9.30    1.68
   5  -7   4   10.37    1.46
   5   7  -4    8.56    1.44
   5  -7  -4   10.98    1.39
   5  -7  -4    9.34    1.26
   6  -7   4   10.64    1.55
  -6  -7  -4   12.37    2.16
   6   7  -4   12.15    1.86
  -6  -7  -4   11.67    1.89
   6  -7  -4   13.35    1.69
  -7  -7  -4    0.68    0.74
   0  -8   4    9.54    1.25
   0   8  -4    8.39    0.94
   0  -8  -4    7.21    0.88
   0  -8   4    7.75    1.12
   0  -8  -4    7.14    1.18
   1  -8   4   13.59    1.21
  -1  -8  -4   11.93    1.56
   1   8  -4   12.51    1.19
  -1  -8  -4   14.54    1.01
   1  -8   4   16.51    1.43
   1  -8  -4   16.30    1.22
   1  -8  -4   17.61    1.52
  -1  -8   4   14.51    1.30
  -1  -8   4   17.06    1.55
  -1   8  -4   15.65    1.20
   2   8  -4   30.13    1.91
   2  -8   4   29.07    1.90
  -2  -8  -4   27.29    2.13
   2  -8  -4   28.44    1.92
  -2  -8   4   27.84    2.13
  -2   8  -4   25.00    1.58
   2  -8  -4   25.49    1.64
   3  -8   4  100.44    4.00
  -3  -8  -4   90.78    4.43
   3   8  -4  104.14    4.24
   3  -8  -4   90.34    3.68
   3   8   4   97.90    3.95
   3  -8  -4   93.75    3.95
   4  -8   4    2.07    0.78
   4   8  -4    3.58    0.91
  -4  -8  -4    4.70    1.25
  -4  -8  -4    3.02    0.94
   4  -8  -4    4.61    0.96
   4   8   4    4.54    0.97
   4  -8  -4    3.49    0.81
   5  -8   4   46.40    2.81
  -5  -8  -4   48.58    3.35
  -5  -8  -4   48.79    3.32
   5   8  -4   48.72    3.06
   5  -8  -4   48.26    2.71
   5  -8  -4   49.89    2.71
  -6  -8  -4    0.67    0.77
  -6  -8  -4    0.48    0.76
   6  -8   4    0.08    0.72
   6   8  -4   -0.05    0.56
   6  -8  -4    0.60    0.63
   6   8   4    0.35    0.55
   0  -9  -4    8.77    1.38
   0  -9   4    8.55    1.25
   0  -9   4    7.27    1.18
   0   9  -4    7.34    1.04
   0  -9  -4   10.81    1.02
   1   9  -4   51.24    2.65
   1  -9   4   54.43    2.80
  -1  -9   4   53.85    2.66
  -1   9  -4   58.94    2.64
   1  -9  -4   56.84    2.57
   1  -9  -4   59.07    3.10
  -1  -9   4   55.62    3.07
   2  -9   4   52.42    2.83
   2   9  -4   54.26    2.84
  -2  -9  -4   54.70    3.35
   2  -9  -4   57.73    3.03
  -2  -9   4   56.46    3.27
   2  -9  -4   56.76    2.68
  -3  -9  -4   39.55    2.89
   3   9  -4   38.70    2.45
   3  -9   4   37.55    2.43
   3  -9  -4   40.32    2.32
  -3  -9   4   40.46    2.88
   3  -9  -4   38.11    2.40
   4   9  -4    9.36    1.45
   4  -9   4   11.74    1.67
  -4  -9  -4   10.00    1.88
   4  -9  -4    8.89    1.42
   4  -9  -4    7.31    1.22
   5  -9   4    1.66    0.90
   5   9  -4    2.76    0.95
  -5  -9  -4    2.95    1.15
   5  -9  -4    1.75    0.77
   0 -10   4   72.74    3.36
   0 -10   4   72.20    3.55
   0 -10  -4   73.95    3.92
   0 -10  -4   70.18    2.96
  -1 -10  -4    3.60    1.13
   1 -10   4    5.29    1.11
   1  10  -4    5.68    1.00
  -1 -10   4    6.46    1.33
   1 -10  -4    5.96    1.28
   1 -10  -4    5.63    0.96
  -2 -10  -4   42.88    3.12
   2  10  -4   40.15    2.53
   2 -10   4   43.89    2.71
  -2 -10   4   53.76    3.28
   2 -10  -4   47.13    2.87
   2 -10  -4   48.85    2.56
   3 -10   4    2.09    0.88
  -3 -10  -4    0.95    0.89
   3  10  -4    2.42    0.83
   3 -10  -4    1.58    0.75
   3 -10  -4    2.86    0.83
  -3 -10   4    2.03    1.00
   4 -10   4   13.15    1.85
  -4 -10  -4   10.90    1.94
   4  10  -4   14.36    1.91
   4 -10  -4   12.82    1.69
   0 -11  -4    1.65    0.95
   0 -11   4    0.95    0.72
   1 -11   4    6.36    1.29
  -1 -11  -4    6.28    1.53
  -1 -11   4    7.31    1.49
   1 -11  -4    3.61    1.12
   1 -11  -4    4.05    0.92
  -2 -11  -4    2.19    1.06
   2 -11   4    2.92    1.01
   2 -11  -4    2.28    0.79
   2 -11  -4    2.94    1.02
  -2 -11   4    2.47    1.05
   3 -11   4   23.26    2.55
  -3 -11  -4   24.93    2.66
   3 -11  -4   22.79    2.12
   3 -11  -4   19.84    1.85
   0 -12  -4   55.89    3.81
  -1 -12  -4    2.53    1.26
   1 -12   4    1.97    0.94
  -1 -12   4    1.17    0.88
   1 -12  -4    1.18    0.91
  -1   0  -5   61.82    1.97
   1   0  -5   60.66    2.22
  -1   0  -5   58.25    2.24
   1   0  -5   61.18    2.21
  -2   0  -5   43.12    1.55
   2   0  -5   44.88    1.88
  -2   0  -5   47.97    2.09
   3   0  -5    3.16    0.59
  -3   0  -5    3.39    0.47
   3   0   5    3.60    0.58
  -3   0  -5    2.40    0.60
   4   0   5  104.82    3.47
  -4   0  -5  111.45    3.49
  -4   0  -5  110.52    4.48
   4   0  -5  115.14    4.09
  -5   0  -5    7.59    1.36
   5   0  -5    6.59    1.00
   5   0   5    7.36    0.90
   6   0  -5  223.94    7.75
  -6   0  -5  235.58    8.66
  -7   0  -5   24.50    2.51
   7   0  -5   28.22    2.16
  -8   0  -5   53.83    4.08
   8   0  -5   57.56    3.43
   0  -1  -5  194.34    5.44
   0   1  -5  173.36    5.51
   0   1  -5  196.08    5.23
   0  -1  -5  187.35    5.31
   1   1  -5   26.92    1.37
  -1  -1  -5   28.06    1.35
  -1  -1  -5   26.15    1.20
   1  -1  -5   29.03    1.24
  -1   1  -5   30.54    1.09
  -1   1  -5   31.14    1.45
   1  -1  -5   28.58    1.37
   2  -1   5  294.47    7.82
  -2  -1  -5  289.40    7.96
  -2  -1  -5  304.34    8.77
   2   1  -5  296.65    8.60
   2  -1  -5  301.49    8.36
  -2   1  -5  299.48    8.69
  -2   1  -5  299.92    7.58
  -3  -1  -5   23.93    1.57
   3   1  -5   23.01    1.40
  -3  -1  -5   23.62    1.22
   3  -1   5   24.55    1.32
   3  -1  -5   20.23    1.20
   3  -1  -5   18.86    1.29
  -3   1  -5   19.17    1.41
  -3   1  -5   22.27    0.86
   4   1  -5  133.01    4.67
  -4  -1  -5  129.99    4.17
  -4  -1  -5  126.23    5.01
   4  -1   5  125.85    4.01
   4  -1  -5  125.97    4.48
   4  -1  -5  125.79    4.39
  -4   1  -5  125.93    4.87
  -5  -1  -5    9.27    0.92
  -5  -1  -5    7.86    1.39
   5   1  -5    7.83    1.11
   5  -1   5    8.19    1.02
  -5   1  -5    7.56    1.36
   5  -1  -5    6.34    1.03
   5  -1  -5    6.14    0.94
   6  -1   5    7.89    1.02
  -6  -1  -5    5.95    1.33
   6   1  -5    7.81    1.27
  -6   1  -5    6.63    1.41
   6  -1  -5    5.83    1.03
   6  -1  -5    5.39    1.05
  -7  -1  -5   13.09    2.17
   7   1  -5    9.60    1.50
   7  -1  -5   12.75    1.63
   7  -1  -5   12.80    1.44
  -7   1  -5   14.24    2.22
   8   1  -5    5.65    1.30
  -8  -1  -5    7.09    1.85
   8  -1  -5    8.29    1.48
   8  -1  -5    8.17    1.49
  -8   1  -5    7.71    1.82
   0  -2  -5  438.69   11.70
   0  -2  -5  429.42   11.48
   0   2  -5  439.01   12.04
  -1  -2  -5  141.59    4.13
  -1  -2  -5  138.85    4.26
   1  -2   5  131.69    4.06
   1   2  -5  136.92    4.38
   1  -2  -5  134.36    4.21
   1  -2  -5  129.56    3.91
  -1   2  -5  134.88    3.68
  -1   2  -5  130.67    4.31
   2   2  -5   44.33    2.02
  -2  -2  -5   48.59    2.11
  -2  -2  -5   45.01    1.83
   2  -2   5   47.30    1.94
  -2   2  -5   38.91    1.91
   2  -2  -5   41.17    1.62
   2  -2  -5   41.74    1.92
  -3  -2  -5   73.46    2.75
   3   2  -5   73.22    3.00
  -3  -2  -5   74.64    3.18
   3  -2   5   75.72    2.74
   3  -2  -5   65.87    2.54
   3  -2  -5   73.86    2.89
  -3   2  -5   68.38    2.99
  -4  -2  -5  148.38    4.95
   4  -2   5  143.01    4.68
   4   2  -5  147.54    5.34
  -4  -2  -5  148.97    5.73
   4  -2  -5  154.37    4.96
   4  -2  -5  162.74    5.21
  -4   2  -5  160.24    5.62
  -5  -2  -5   25.12    1.63
   5   2  -5   23.98    1.79
  -5  -2  -5   23.53    2.03
   5  -2   5   24.55    1.55
   5  -2  -5   24.57    1.57
   5  -2  -5   23.19    1.65
  -5   2  -5   23.15    1.93
   6  -2   5   79.44    3.23
   6   2  -5   78.46    3.82
  -6  -2  -5   77.04    4.36
   6  -2  -5   85.16    3.67
  -6   2  -5   83.28    4.31
   6  -2  -5   82.59    3.57
   7   2  -5   21.67    2.02
  -7  -2  -5   22.66    2.48
   7  -2  -5   21.64    1.79
  -7   2  -5   22.16    2.31
   7  -2  -5   21.45    1.83
  -8  -2  -5   75.43    4.92
   8   2  -5   68.33    3.99
   8  -2  -5   66.63    3.61
  -8   2  -5   71.60    4.63
   0  -3  -5  416.70   11.24
   0  -3  -5  429.33   11.25
   0   3  -5  408.82   11.67
  -1  -3  -5   29.23    1.38
  -1  -3  -5   28.11    1.42
   1   3  -5   29.05    1.51
   1  -3   5   26.69    1.45
   1  -3  -5   23.92    1.37
   1  -3  -5   26.29    1.02
  -1   3  -5   24.40    1.37
   2   3  -5  104.64    3.95
   2  -3   5  111.49    3.74
  -2  -3  -5  111.83    3.81
  -2  -3  -5  115.92    4.07
   2  -3  -5  122.55    3.95
  -2   3  -5  115.20    3.94
   2  -3  -5  115.02    3.35
  -3  -3  -5   45.53    2.40
   3  -3   5   42.36    2.04
   3   3  -5   43.30    2.23
  -3  -3  -5   48.34    2.21
   3  -3  -5   46.94    1.77
  -3   3  -5   43.37    2.19
   3  -3  -5   43.92    2.11
  -4  -3  -5   38.53    2.44
   4   3  -5   37.81    2.20
   4  -3   5   40.79    2.01
  -4  -3  -5   37.86    2.08
   4  -3  -5   39.15    1.77
  -4   3  -5   37.99    2.25
   4  -3  -5   38.98    2.08
  -5  -3  -5  101.51    4.72
   5  -3   5   95.10    3.63
  -5  -3  -5   95.66    3.93
   5   3  -5   97.06    4.24
   5  -3  -5   99.01    3.66
  -5   3  -5   95.08    4.33
   5  -3  -5  104.73    3.98
  -6  -3  -5    5.33    1.32
  -6  -3  -5    6.70    1.16
   6  -3   5    5.17    0.96
   6   3  -5    6.69    1.31
   6  -3  -5    3.44    0.83
  -6   3  -5    5.08    1.25
  -7  -3  -5   42.83    3.45
   7   3  -5   46.19    3.03
   7  -3   5   41.03    2.41
  -7   3  -5   42.79    3.19
   7  -3  -5   44.24    2.39
   7  -3  -5   42.50    2.61
  -8  -3  -5    1.86    1.15
   8   3  -5    3.06    1.12
   8  -3  -5    5.18    1.05
  -8   3  -5    3.45    1.26
   0   4  -5  158.81    5.05
   0  -4   5  158.05    4.77
   0  -4  -5  154.38    4.93
   0  -4  -5  153.84    4.52
  -1  -4  -5  213.16    6.35
  -1  -4  -5  209.27    6.28
   1   4  -5  203.41    6.51
   1  -4   5  204.74    6.06
   1  -4  -5  209.70    6.30
   1  -4  -5  214.95    5.61
  -1   4  -5  215.16    6.46
   2   4  -5  102.59    3.88
   2  -4   5  101.40    3.62
  -2  -4  -5  107.72    3.90
  -2  -4  -5  108.77    3.84
  -2   4  -5  105.45    3.78
   2  -4  -5  105.51    2.93
   2  -4  -5  107.68    3.78
  -3  -4  -5  126.09    4.52
   3   4  -5  126.09    4.63
   3  -4   5  123.53    4.22
  -3  -4  -5  131.62    4.84
  -3   4  -5  125.03    4.49
   3  -4  -5  120.59    3.68
   3  -4  -5  128.34    4.39
  -4  -4  -5   40.57    2.30
  -4  -4  -5   41.91    2.60
   4  -4   5   43.36    2.18
   4   4  -5   42.43    2.40
   4  -4  -5   40.62    2.18
  -4   4  -5   41.55    2.37
   5  -4   5   30.11    1.87
  -5  -4  -5   30.85    2.42
   5   4  -5   27.76    2.07
  -5  -4  -5   30.61    2.06
  -5   4  -5   26.10    2.03
   5  -4  -5   22.68    1.71
  -6  -4  -5   23.59    1.95
  -6  -4  -5   24.54    2.41
   6  -4   5   23.99    1.82
   6   4  -5   23.18    2.06
  -6   4  -5   25.79    2.25
   6  -4  -5   27.32    1.91
   7   4  -5    3.39    1.15
  -7  -4  -5    3.59    1.35
   7  -4   5    2.10    0.78
  -7   4  -5    3.81    1.13
   7  -4  -5    3.56    0.93
   7  -4  -5    3.52    0.86
   0   5  -5   14.86    1.11
   0  -5   5   15.40    1.22
   0  -5  -5   14.84    1.18
   0  -5  -5   15.14    0.79
   1   5  -5   48.83    2.33
  -1  -5  -5   50.12    2.11
  -1  -5  -5   47.87    2.33
   1  -5   5   50.42    2.30
  -1   5  -5   53.12    2.29
   1  -5  -5   55.09    2.40
  -2  -5  -5   56.74    2.53
   2   5  -5   53.77    2.53
   2  -5   5   57.82    2.51
  -2  -5  -5   56.73    2.62
  -2   5  -5   50.29    2.34
   2  -5  -5   47.35    2.34
  -3  -5  -5   92.79    3.84
   3  -5   5   92.86    3.54
   3   5  -5   91.00    3.80
  -3  -5  -5   95.19    3.97
  -3   5  -5   88.22    3.58
   3  -5  -5   94.41    3.61
  -4  -5  -5    0.03    0.45
   4  -5   5    0.17    0.43
   4   5  -5    0.47    0.42
  -4  -5  -5    0.20    0.43
   4  -5  -5    0.44    0.40
  -4   5  -5    0.91    0.47
  -5  -5  -5  104.02    4.94
  -5  -5  -5  101.41    4.45
   5  -5   5  101.77    4.00
   5   5  -5  105.72    4.59
   5  -5  -5  101.40    4.06
  -5   5  -5   97.42    4.41
   6   5  -5    0.09    0.44
  -6  -5  -5   -0.04    0.46
   6  -5   5    0.04    0.52
  -6  -5  -5   -0.23    0.55
   6  -5  -5    0.22    0.41
   6  -5  -5    0.21    0.44
  -6   5  -5    0.59    0.58
   7  -5   5   70.43    3.51
  -7  -5  -5   69.74    3.87
   7   5  -5   74.18    4.15
  -7  -5  -5   66.65    4.50
  -7   5  -5   66.76    4.08
   7  -5  -5   69.67    3.34
   0   6  -5   35.10    1.85
   0  -6   5   31.17    1.81
   0  -6  -5   32.32    1.90
   1  -6   5  191.32    6.12
  -1  -6  -5  202.45    6.17
  -1  -6  -5  199.71    6.59
   1   6  -5  206.03    6.59
   1  -6  -5  202.13    6.47
  -1   6  -5  210.39    6.45
  -1  -6   5  205.01    6.03
  -2  -6  -5   25.77    1.64
   2   6  -5   26.13    1.72
   2  -6   5   26.44    1.73
  -2  -6  -5   26.38    1.86
   2  -6  -5   26.38    1.69
  -2   6  -5   26.48    1.61
  -3  -6  -5   86.02    3.83
   3  -6   5   82.78    3.43
  -3  -6  -5   84.66    3.74
   3   6  -5   84.03    3.68
  -3   6  -5   84.76    3.44
   3  -6  -5   82.60    3.43
  -4  -6  -5   12.42    1.69
  -4  -6  -5   14.37    1.84
   4   6  -5   10.56    1.44
  -4   6  -5   11.41    1.24
   4  -6  -5   12.15    1.24
  -5  -6  -5   29.03    2.44
  -5  -6  -5   27.20    2.24
   5   6  -5   28.93    2.24
   5  -6   5   27.87    1.99
  -5   6  -5   28.11    2.11
   5  -6  -5   27.57    1.90
   6  -6   5    2.90    0.92
  -6  -6  -5    4.10    1.27
   6   6  -5    2.69    0.88
  -6  -6  -5    3.15    1.01
   6  -6  -5    3.42    0.88
  -6   6  -5    3.57    1.06
   6  -6  -5    3.22    0.87
   7  -6   5    2.48    0.96
   7   6  -5    2.76    1.05
  -7  -6  -5    4.93    1.28
  -7  -6  -5    3.39    1.34
   7  -6  -5    2.69    0.88
   0   7  -5    9.89    1.02
   0  -7   5   11.16    1.09
   0  -7   5   11.53    1.35
   0  -7  -5   12.00    1.25
   1  -7   5    5.23    0.81
  -1  -7  -5    4.86    1.02
   1   7  -5    5.96    0.95
   1  -7   5    3.13    0.76
  -1  -7   5    4.69    0.84
  -1   7  -5    4.60    0.80
   1  -7  -5    5.28    0.95
  -2  -7  -5    7.32    1.33
   2  -7   5    7.24    1.15
  -2  -7  -5    6.41    0.99
   2   7  -5    7.91    1.20
  -2   7  -5    7.34    1.00
   2  -7  -5    8.03    1.18
   3   7  -5   55.24    2.90
  -3  -7  -5   55.20    2.96
  -3  -7  -5   51.36    3.06
   3  -7   5   52.85    2.75
  -3   7  -5   60.01    2.73
   3  -7  -5   61.43    2.88
   4  -7   5    1.69    0.72
   4   7  -5    1.06    0.59
  -4  -7  -5    2.34    0.93
  -4  -7  -5    1.87    0.78
  -4   7  -5    3.38    0.80
   4  -7  -5    2.50    0.74
  -5  -7  -5   59.15    3.58
  -5  -7  -5   64.16    3.83
   5   7  -5   61.21    3.46
   5  -7   5   61.58    3.20
   5  -7  -5   62.47    3.04
  -5   7  -5   59.97    3.28
   5  -7  -5   66.16    3.14
  -6  -7  -5    4.60    1.32
   6   7  -5    5.21    1.29
   6  -7   5    4.58    1.19
  -6  -7  -5    6.15    1.45
   6  -7  -5    5.46    1.14
   0  -8  -5   15.33    1.54
   0  -8   5   16.47    1.46
   0   8  -5   17.77    1.37
   0  -8   5   14.55    1.36
   0  -8  -5   15.58    1.15
  -1  -8  -5  141.63    5.57
   1  -8   5  147.87    5.16
   1   8  -5  145.66    5.26
  -1  -8  -5  142.93    4.40
   1  -8  -5  146.45    5.44
  -1  -8   5  147.84    4.98
  -1   8  -5  145.01    5.10
  -1  -8   5  144.41    5.40
  -2  -8  -5   11.12    1.73
   2   8  -5    9.63    1.30
   2  -8   5    8.47    1.25
   2  -8  -5   11.18    1.43
   2  -8  -5   12.26    1.15
  -2   8  -5   11.67    1.12
   3  -8   5   33.38    2.25
   3   8  -5   35.76    2.32
  -3  -8  -5   32.33    2.52
  -3   8  -5   39.44    2.16
   3  -8  -5   37.02    2.29
   3  -8  -5   36.29    2.11
  -4  -8  -5   29.85    2.33
  -4  -8  -5   30.63    2.52
   4   8  -5   25.72    2.11
   4  -8   5   27.18    2.13
   4  -8  -5   28.53    1.97
   4  -8  -5   31.57    2.10
  -5  -8  -5   19.28    2.46
   5  -8   5   23.21    2.08
   5   8  -5   19.35    1.97
  -5  -8  -5   20.46    2.17
   5  -8  -5   23.77    1.89
   5  -8  -5   22.08    1.84
   6  -8   5    4.04    1.21
  -6  -8  -5    4.57    1.39
  -6  -8  -5    6.41    1.54
   6   8  -5    5.07    1.26
   6  -8  -5    7.90    1.40
   0   9  -5   70.88    3.15
   0  -9  -5   68.82    2.81
   0  -9  -5   68.74    3.59
   0  -9   5   70.65    3.27
   0  -9   5   68.11    3.29
   1  -9   5    1.43    0.68
  -1  -9  -5    0.97    0.68
   1   9  -5    0.86    0.49
   1  -9  -5    0.26    0.49
  -1  -9   5    0.51    0.56
   1  -9  -5    0.24    0.34
  -1   9  -5    0.33    0.38
  -1  -9   5    0.61    0.49
  -2  -9  -5   26.40    2.33
   2  -9   5   26.13    2.04
   2   9  -5   25.97    1.94
   2  -9  -5   29.04    1.85
   2  -9  -5   28.44    2.13
   3   9  -5   30.18    2.17
   3  -9   5   30.55    2.27
  -3  -9  -5   32.25    2.62
   3  -9  -5   26.60    1.91
   3  -9  -5   27.44    2.09
   4  -9   5    6.93    1.36
  -4  -9  -5    6.66    1.55
   4   9  -5    7.59    1.39
   4  -9  -5    4.76    1.04
   4  -9  -5    4.86    1.07
   5   9  -5   20.82    2.08
  -5  -9  -5   19.17    2.53
   5  -9   5   21.60    2.15
   5  -9  -5   19.59    1.83
   0 -10   5   16.20    1.88
   0 -10  -5   19.15    2.34
   1  10  -5   30.58    2.03
   1 -10   5   27.70    2.16
  -1 -10  -5   27.42    2.46
  -1 -10   5   24.12    2.11
   1 -10  -5   27.58    1.84
   1 -10  -5   30.64    2.41
  -1 -10   5   29.69    2.09
  -2 -10  -5   40.18    3.05
   2  10  -5   38.89    2.46
   2 -10   5   37.44    2.57
   2 -10  -5   39.16    2.69
   2 -10  -5   37.77    2.29
   3  10  -5    8.33    1.40
  -3 -10  -5   12.76    2.12
   3 -10   5   10.02    1.59
   3 -10  -5   12.66    1.64
   3 -10  -5   12.18    1.75
   4 -10   5   28.04    2.43
  -4 -10  -5   30.54    2.85
   4  10  -5   24.96    2.16
   4 -10  -5   20.67    1.95
   4 -10  -5   20.88    1.93
   0 -11   5    9.20    1.52
   0 -11  -5    6.10    1.46
   1 -11   5   11.09    1.70
  -1 -11  -5   13.27    2.21
  -1 -11   5   12.96    1.99
   1 -11  -5   12.81    1.94
   1 -11  -5   14.93    1.44
  -2 -11  -5   75.52    4.57
   2 -11   5   85.14    4.12
   2 -11  -5   72.68    4.06
   2 -11  -5   79.66    3.62
  -3 -11  -5    2.70    1.22
   3  11  -5    2.29    0.89
   3 -11   5    1.49    0.94
   3 -11  -5    2.38    1.00
   3 -11  -5    3.72    1.00
   0   0  -6  983.01   26.87
   0   0  -6 1000.00   24.99
   1   0  -6  130.21    4.19
   1   0  -6  134.45    4.18
  -1   0  -6  131.57    4.29
  -1   0  -6  133.06    3.86
  -2   0  -6  315.60    9.44
   2   0  -6  329.38    9.13
  -2   0  -6  324.69    8.49
   2   0  -6  325.06    9.24
   3   0  -6    0.41    0.29
  -3   0  -6    0.46    0.34
  -3   0  -6    0.26    0.23
   4   0  -6  113.68    4.18
  -4   0  -6  114.58    3.56
  -4   0  -6  109.19    4.56
   5   0   6   11.55    1.03
  -5   0  -6   10.97    1.66
   5   0  -6   13.47    1.26
  -6   0  -6    1.48    0.70
   6   0  -6    3.06    0.79
   7   0  -6    4.17    1.05
  -7   0  -6    4.01    1.26
   8   0  -6   15.08    2.06
   8   0  -6   14.98    2.04
  -8   0  -6   15.84    2.65
   0  -1  -6   50.55    1.96
   0   1  -6   51.14    1.89
   0  -1  -6   48.70    1.94
  -1  -1  -6   77.19    2.54
  -1  -1  -6   78.55    2.77
   1   1  -6   78.48    2.81
  -1   1  -6   73.60    2.34
  -1   1  -6   73.22    2.79
   1  -1  -6   70.97    2.58
   1  -1  -6   71.04    2.70
  -2  -1  -6   72.61    2.52
   2   1  -6   74.12    2.87
  -2  -1  -6   75.71    3.00
  -2   1  -6   73.74    2.94
   2  -1  -6   75.60    2.88
   2  -1  -6   75.38    2.69
  -2   1  -6   76.71    2.23
   3   1  -6   78.71    3.15
  -3  -1  -6   80.58    3.41
  -3  -1  -6   81.25    2.80
   3  -1   6   82.83    2.94
   3  -1  -6   75.96    2.92
  -3   1  -6   79.07    2.36
   3  -1  -6   80.08    3.15
  -3   1  -6   79.92    3.35
  -4  -1  -6  101.35    4.30
  -4  -1  -6   93.18    3.34
   4  -1   6   95.99    3.42
   4   1  -6   98.83    3.86
  -4   1  -6   93.98    4.09
   4  -1  -6  101.25    3.83
   4  -1  -6   96.12    3.63
   5   1  -6   16.58    1.46
  -5  -1  -6   19.85    1.88
   5  -1   6   20.02    1.38
   5  -1  -6   16.91    1.37
   5  -1  -6   15.14    1.39
  -5   1  -6   16.42    1.69
   6  -1   6   55.09    2.54
   6   1  -6   56.32    3.05
  -6  -1  -6   58.56    3.65
   6  -1  -6   49.96    2.77
   6  -1  -6   57.19    2.98
  -6   1  -6   58.96    3.60
   7   1  -6   13.44    1.85
  -7  -1  -6   12.43    2.15
   7  -1  -6   16.36    1.66
   7  -1  -6   16.24    1.62
  -7   1  -6   17.15    2.43
   8   1  -6   57.70    3.55
  -8  -1  -6   59.35    4.38
  -8   1  -6   57.33    4.23
   8  -1  -6   56.89    3.40
   0  -2  -6  307.05    8.42
   0   2  -6  298.58    8.72
   0  -2  -6  298.99    8.33
  -1  -2  -6   44.48    1.81
   1   2  -6   43.96    1.96
  -1  -2  -6   44.29    1.87
   1  -2  -6   37.07    1.80
   1  -2  -6   38.91    1.58
  -1   2  -6   40.52    1.89
  -1   2  -6   39.72    1.45
  -2  -2  -6  337.24    9.83
   2   2  -6  335.85    9.76
  -2  -2  -6  343.74    9.16
   2  -2   6  338.55    8.96
  -2   2  -6  325.35    8.37
   2  -2  -6  320.07    9.22
  -2   2  -6  340.73    9.78
   2  -2  -6  330.08    9.39
   3   2  -6   38.71    2.07
  -3  -2  -6   43.01    1.95
   3  -2   6   41.44    1.99
  -3  -2  -6   43.02    2.31
   3  -2  -6   42.14    2.10
   3  -2  -6   39.72    1.76
  -3   2  -6   39.88    2.16
  -4  -2  -6   59.70    3.10
   4  -2   6   57.93    2.49
   4   2  -6   55.16    2.72
  -4  -2  -6   55.47    2.43
  -4   2  -6   51.71    2.81
   4  -2  -6   53.78    2.60
   4  -2  -6   51.00    2.31
  -5  -2  -6   58.54    3.42
   5   2  -6   62.93    3.10
  -5  -2  -6   61.73    2.74
   5  -2   6   60.38    2.65
   5  -2  -6   59.32    2.69
  -5   2  -6   56.23    3.21
   5  -2  -6   57.38    2.87
  -6  -2  -6    3.07    1.09
   6   2  -6    1.64    0.70
   6  -2   6    3.17    0.77
  -6   2  -6    2.23    0.88
   6  -2  -6    2.30    0.70
   6  -2  -6    1.36    0.63
   7   2  -6   32.19    2.48
  -7  -2  -6   34.16    3.08
  -7   2  -6   28.52    2.68
   7  -2  -6   30.39    2.25
  -8  -2  -6   13.86    2.59
   8   2  -6   15.27    2.12
   8  -2  -6   13.78    1.89
  -8   2  -6   13.55    2.34
   0  -3  -6    9.89    0.84
   0   3  -6    9.38    0.84
   0  -3  -6    9.12    0.66
   1   3  -6   78.93    3.15
   1  -3   6   75.33    2.98
  -1  -3  -6   82.93    3.02
  -1  -3  -6   79.74    2.98
   1  -3  -6   89.10    3.16
  -1   3  -6   88.72    3.19
   1  -3  -6   86.56    2.65
   2   3  -6   13.74    1.13
   2  -3   6   17.43    1.27
  -2  -3  -6   14.62    1.16
  -2  -3  -6   15.06    1.11
   2  -3  -6   16.31    0.83
   2  -3  -6   17.33    1.21
  -2   3  -6   15.72    1.17
  -3  -3  -6   37.69    2.18
   3  -3   6   34.91    1.88
   3   3  -6   32.80    1.94
  -3  -3  -6   36.05    1.91
  -3   3  -6   33.11    1.93
   3  -3  -6   36.62    1.95
   3  -3  -6   33.66    1.49
   4   3  -6   58.39    2.87
   4  -3   6   55.02    2.56
  -4  -3  -6   59.97    3.15
  -4  -3  -6   55.33    2.61
   4  -3  -6   53.40    2.25
  -4   3  -6   55.68    2.90
   4  -3  -6   55.10    2.66
   5  -3   6   18.61    1.50
  -5  -3  -6   18.39    1.87
  -5  -3  -6   17.24    1.47
   5   3  -6   16.11    1.56
  -5   3  -6   16.45    1.66
   5  -3  -6   16.66    1.31
   5  -3  -6   16.62    1.47
   6  -3   6  100.71    3.95
   6   3  -6  103.88    4.63
  -6  -3  -6  105.76    5.29
  -6   3  -6   94.15    4.77
   6  -3  -6   93.74    4.15
   7   3  -6    9.47    1.61
  -7  -3  -6    7.18    1.71
   7  -3   6    7.84    1.27
  -7   3  -6    8.06    1.69
   7  -3  -6    9.03    1.43
   0  -4  -6   59.13    2.16
   0  -4  -6   63.75    2.61
   0   4  -6   61.43    2.62
  -1  -4  -6    3.19    0.55
   1  -4   6    3.44    0.70
  -1  -4  -6    3.18    0.63
   1   4  -6    3.89    0.70
   1  -4  -6    2.44    0.60
  -1   4  -6    2.09    0.54
   1  -4  -6    1.96    0.29
  -2  -4  -6   57.07    2.57
   2  -4   6   56.99    2.56
   2   4  -6   57.49    2.65
  -2  -4  -6   56.28    2.61
  -2   4  -6   61.40    2.63
   2  -4  -6   60.65    1.85
   2  -4  -6   55.37    2.54
  -3  -4  -6   77.81    3.29
   3  -4   6   81.25    3.23
   3   4  -6   77.91    3.40
  -3  -4  -6   77.29    3.50
  -3   4  -6   77.84    3.31
   3  -4  -6   78.79    3.23
   4  -4   6   20.70    1.58
  -4  -4  -6   22.22    1.88
  -4  -4  -6   21.17    1.65
  -4   4  -6   19.70    1.63
   4  -4  -6   22.66    1.63
  -5  -4  -6  129.34    5.79
  -5  -4  -6  133.86    5.12
   5  -4   6  130.77    4.75
   5   4  -6  128.71    5.34
  -5   4  -6  133.03    5.47
   5  -4  -6  139.95    5.06
  -6  -4  -6    7.30    1.29
   6   4  -6    4.95    1.14
  -6  -4  -6    5.45    1.40
   6  -4   6    4.58    1.01
   6  -4  -6    3.90    0.93
  -6   4  -6    3.86    1.10
  -7  -4  -6   74.18    4.77
   7  -4   6   78.14    3.63
   7   4  -6   76.12    4.19
   7  -4  -6   77.70    3.79
  -7   4  -6   70.34    4.36
   0  -5  -6   16.72    0.90
   0  -5   6   17.30    1.33
   0   5  -6   17.24    1.28
   0  -5  -6   15.14    1.23
   1   5  -6  161.05    5.49
   1  -5   6  155.49    5.17
  -1  -5  -6  161.63    5.13
  -1  -5  -6  154.81    5.37
  -1   5  -6  167.24    5.44
   1  -5  -6  168.26    5.41
  -2  -5  -6   31.77    1.85
  -2  -5  -6   30.59    1.93
   2   5  -6   31.61    1.91
   2  -5   6   33.72    1.93
  -2   5  -6   32.35    1.84
   2  -5  -6   34.70    1.94
   3  -5   6   81.38    3.48
  -3  -5  -6   85.13    3.84
  -3  -5  -6   92.05    3.83
   3   5  -6   89.28    3.79
  -3   5  -6   93.29    3.69
   3  -5  -6   92.69    3.65
  -4  -5  -6    7.00    1.26
   4   5  -6    7.27    1.15
  -4  -5  -6    8.25    1.34
   4  -5   6    7.61    1.19
  -4   5  -6    8.53    1.29
   4  -5  -6    8.50    1.20
   5   5  -6   20.16    1.85
   5  -5   6   23.97    1.86
  -5  -5  -6   26.87    2.06
  -5  -5  -6   21.32    2.11
   5  -5  -6   20.97    1.69
  -5   5  -6   18.89    1.78
  -6  -5  -6   12.10    2.03
  -6  -5  -6   12.87    1.77
   6  -5   6   14.19    1.73
   6   5  -6   10.63    1.66
   6  -5  -6   14.08    1.73
  -6   5  -6   14.87    2.08
  -7  -5  -6    9.99    2.11
   7   5  -6    8.16    1.56
   7  -5   6    8.37    1.43
  -7   5  -6   12.34    2.03
   7  -5  -6   11.75    1.63
   7  -5  -6    9.84    1.43
   0  -6   6    3.97    0.88
   0  -6  -6    3.31    0.77
   0   6  -6    3.70    0.71
  -1  -6  -6   59.27    2.41
   1   6  -6   59.79    2.75
  -1  -6  -6   59.63    2.87
   1  -6   6   57.44    2.72
   1  -6  -6   57.17    2.73
  -1   6  -6   54.81    2.59
  -2  -6  -6    3.80    0.84
   2  -6   6    2.87    0.79
  -2  -6  -6    3.23    0.70
   2   6  -6    2.85    0.71
  -2   6  -6    2.08    0.58
   2  -6  -6    2.08    0.59
   3   6  -6   86.72    3.86
  -3  -6  -6   88.22    3.92
  -3  -6  -6   86.21    3.94
   3  -6   6   89.37    3.71
  -3   6  -6   91.49    3.72
   3  -6  -6   93.00    3.76
   4  -6   6    7.29    1.19
  -4  -6  -6    6.32    1.22
   4   6  -6    9.85    1.50
  -4  -6  -6    6.07    1.20
  -4   6  -6    9.20    1.38
   4  -6  -6    9.81    1.35
  -5  -6  -6   66.23    3.65
  -5  -6  -6   63.89    3.89
   5   6  -6   71.20    3.73
   5  -6   6   73.11    3.48
   5  -6  -6   72.88    3.43
  -5   6  -6   74.55    3.72
  -6  -6  -6   14.93    2.09
  -6  -6  -6   15.91    2.35
   6  -6   6   11.68    1.66
   6   6  -6   17.02    1.88
   6  -6  -6   19.67    1.70
  -6   6  -6   14.03    1.96
   6  -6  -6   15.44    1.61
  -7  -6  -6   62.76    3.75
   7  -6   6   57.89    3.37
  -7  -6  -6   58.23    4.27
   7   6  -6   57.40    3.76
  -7   6  -6   54.16    3.84
   7  -6  -6   56.93    3.13
   0  -7   6   35.47    2.14
   0   7  -6   37.60    2.10
   0  -7  -6   37.13    2.28
  -1  -7  -6  148.41    5.45
   1  -7   6  141.64    5.03
   1   7  -6  150.25    5.27
  -1   7  -6  139.42    5.06
   1  -7  -6  137.35    5.18
   2  -7   6   30.13    2.02
   2   7  -6   28.87    1.96
  -2  -7  -6   29.71    2.16
   2  -7  -6   28.28    1.95
  -2   7  -6   28.01    1.81
  -3  -7  -6   44.09    2.62
   3  -7   6   49.07    2.68
   3   7  -6   43.97    2.61
  -3  -7  -6   45.67    2.85
   3  -7  -6   48.56    2.61
  -3   7  -6   45.10    2.43
   4   7  -6   16.78    1.70
  -4  -7  -6   22.42    1.98
  -4  -7  -6   17.91    1.87
   4  -7   6   20.32    1.83
   4  -7  -6   19.43    1.64
  -4   7  -6   19.09    1.66
  -5  -7  -6   22.81    2.20
  -5  -7  -6   22.39    2.25
   5  -7   6   27.68    2.20
   5   7  -6   23.95    2.13
  -5   7  -6   23.32    2.00
   5  -7  -6   24.55    1.91
   6  -7   6    1.29    0.83
  -6  -7  -6    1.67    0.89
  -6  -7  -6    1.50    0.95
   6   7  -6    0.97    0.75
   6  -7  -6    0.66    0.62
   6  -7  -6    1.11    0.66
   0  -8   6   24.74    1.87
   0   8  -6   23.32    1.67
   0  -8  -6   23.49    1.93
   1  -8   6    4.06    0.97
  -1  -8  -6    4.60    1.12
   1   8  -6    3.07    0.77
   1  -8  -6    2.85    0.84
  -1   8  -6    3.01    0.72
   2  -8   6   23.36    1.91
  -2  -8  -6   21.51    2.03
   2   8  -6   21.93    1.78
  -2   8  -6   26.85    1.77
   2  -8  -6   25.65    1.94
   3   8  -6   66.00    3.36
  -3  -8  -6   64.35    3.66
   3  -8   6   64.06    3.28
   3  -8  -6   61.73    3.20
  -3   8  -6   62.30    3.03
   4  -8   6    6.84    1.29
   4   8  -6    8.11    1.41
  -4  -8  -6    6.92    1.45
   4  -8  -6    6.89    1.25
  -4   8  -6    7.98    1.28
   4  -8  -6    8.80    1.33
   5   8  -6   74.12    4.00
   5  -8   6   71.21    3.77
  -5  -8  -6   70.57    4.15
  -5  -8  -6   76.59    4.31
   5  -8  -6   67.04    3.49
   5  -8  -6   72.87    3.51
   0  -9  -6   65.50    3.54
   0   9  -6   64.06    3.10
   0  -9   6   62.26    3.19
   0  -9  -6   65.59    2.73
  -1  -9  -6   46.40    3.02
   1   9  -6   48.17    2.65
   1  -9   6   46.18    2.76
   1  -9  -6   47.46    2.37
   1  -9  -6   48.96    2.95
  -1   9  -6   49.80    2.58
   2   9  -6    7.33    1.20
  -2  -9  -6    6.83    1.40
   2  -9   6    7.04    1.30
   2  -9  -6    7.13    1.28
   2  -9  -6    7.81    1.15
  -2   9  -6    9.38    1.28
   3  -9   6   17.79    2.05
  -3  -9  -6   17.39    2.25
   3   9  -6   18.96    1.78
   3  -9  -6   15.85    1.53
   3  -9  -6   17.85    1.74
   4  -9   6    7.27    1.44
  -4  -9  -6    6.70    1.59
   4   9  -6    8.87    1.53
   4  -9  -6    9.61    1.54
   4  -9  -6   10.05    1.47
  -5  -9  -6   19.02    2.58
   5  -9   6   20.92    2.39
   5   9  -6   19.14    2.03
   5  -9  -6   17.52    1.81
   5  -9  -6   20.65    1.88
   0 -10  -6   29.17    2.47
   0 -10   6   31.44    2.32
   0  10  -6   29.24    2.04
   1  10  -6   10.81    1.47
   1 -10   6   12.98    1.81
  -1 -10  -6   10.39    1.77
   1 -10  -6   18.68    1.96
   1 -10  -6   15.60    1.39
   2 -10   6   65.54    3.57
  -2 -10  -6   66.61    4.05
   2  10  -6   64.12    3.41
   2 -10  -6   70.02    3.75
   2 -10  -6   66.27    3.15
   3  10  -6   15.54    1.70
   3 -10   6   12.13    1.81
  -3 -10  -6   17.93    2.52
   3 -10  -6   16.19    2.12
   3 -10  -6   14.39    1.72
  -4 -10  -6   15.40    2.40
   4 -10   6   14.83    2.07
   4  10  -6   13.46    1.88
   4 -10  -6   14.07    1.89
   4 -10  -6   17.70    2.05
   0 -11  -6    0.11    0.70
   0 -11   6    0.76    0.77
   1 -11   6   14.23    1.97
  -1 -11  -6   12.84    2.23
   1 -11  -6   11.82    1.91
   1 -11  -6   12.70    1.52
   2 -11   6   23.40    2.26
   2  11  -6   20.88    1.93
  -2 -11  -6   19.71    2.66
   2 -11  -6   21.56    1.87
   2 -11  -6   20.68    2.19
  -1   0  -7   34.96    1.75
   1   0  -7   34.30    1.69
   1   0  -7   37.56    1.73
  -1   0  -7   34.99    1.49
   2   0  -7  136.12    4.55
  -2   0  -7  136.07    3.99
   2   0  -7  138.23    4.53
  -2   0  -7  132.12    4.68
   3   0  -7    1.13    0.41
  -3   0  -7    1.58    0.56
  -3   0  -7    1.21    0.32
   3   0  -7    0.91    0.42
  -4   0  -7   95.22    4.26
   4   0  -7  100.90    3.86
  -5   0  -7    8.85    1.54
   5   0  -7    9.21    1.27
   6   0  -7   92.09    4.07
  -6   0  -7   89.14    4.78
   7   0  -7   14.16    1.57
  -7   0  -7   12.58    2.22
   7   0  -7   13.14    1.86
   0   1  -7  445.03   12.48
   0  -1  -7  436.59   11.86
   0   1  -7  446.19   11.77
   0  -1  -7  455.31   12.33
   1   1  -7   44.78    1.94
   1   1  -7   44.15    2.00
  -1  -1  -7   43.19    1.78
  -1  -1  -7   44.18    1.97
   1  -1  -7   42.49    1.95
  -1   1  -7   40.08    1.60
  -1   1  -7   40.23    1.98
   1  -1  -7   42.52    1.82
   2   1  -7  271.98    8.41
  -2  -1  -7  274.07    7.76
  -2  -1  -7  288.90    8.65
  -2   1  -7  281.41    8.54
   2  -1  -7  286.82    8.21
  -2   1  -7  286.33    7.44
   2  -1  -7  293.29    8.31
   3   1  -7   29.03    1.69
  -3  -1  -7   30.09    1.45
  -3  -1  -7   32.36    1.97
  -3   1  -7   24.72    1.74
   3  -1  -7   24.35    1.61
   3  -1  -7   26.09    1.48
  -4  -1  -7   51.47    2.96
   4   1  -7   57.02    2.74
  -4  -1  -7   57.75    2.34
   4  -1   7   53.88    2.45
   4  -1  -7   60.13    2.81
   4  -1  -7   57.97    2.57
  -4   1  -7   59.80    3.08
  -5  -1  -7    8.73    1.52
   5   1  -7    8.87    1.27
   5  -1   7   11.63    1.32
  -5   1  -7   10.65    1.57
   5  -1  -7   12.32    1.29
   5  -1  -7   10.84    1.12
   6   1  -7    7.26    1.25
  -6  -1  -7    8.46    1.66
   6  -1   7    7.89    1.14
  -6   1  -7    7.58    1.57
   6  -1  -7   10.92    1.44
   6  -1  -7    6.58    1.19
  -7  -1  -7    2.85    1.12
   7   1  -7    2.42    0.86
   7  -1  -7    2.22    0.78
   7  -1  -7    2.51    0.90
  -7   1  -7    3.33    1.20
   0  -2  -7   12.35    0.86
   0   2  -7   11.97    0.84
   0  -2  -7   11.45    0.92
   0   2  -7   11.06    0.96
  -1  -2  -7  105.60    3.54
   1   2  -7  104.28    3.79
  -1  -2  -7  109.31    3.70
   1  -2  -7  103.14    3.67
   1  -2  -7  103.28    3.41
  -1   2  -7  107.22    3.18
  -1   2  -7  102.25    3.78
   2   2  -7   48.98    2.29
  -2  -2  -7   52.04    2.38
  -2  -2  -7   48.96    2.05
  -2   2  -7   47.09    1.51
   2  -2  -7   44.63    1.88
  -2   2  -7   45.90    2.26
   2  -2  -7   44.25    2.18
  -3  -2  -7   39.28    1.86
  -3  -2  -7   40.53    2.29
   3  -2   7   39.04    2.03
   3   2  -7   36.93    2.05
   3  -2  -7   36.38    1.74
   3  -2  -7   38.34    2.07
  -4  -2  -7   63.25    2.71
   4  -2   7   62.43    2.81
   4   2  -7   60.38    2.99
  -4  -2  -7   60.43    3.29
   4  -2  -7   68.33    2.74
  -4   2  -7   67.78    3.30
   4  -2  -7   73.23    3.15
   5   2  -7    2.50    0.74
   5  -2   7    1.19    0.59
  -5  -2  -7    1.70    0.79
   5  -2  -7    2.58    0.64
   5  -2  -7    2.82    0.81
  -5   2  -7    2.39    0.86
   6  -2   7   64.52    3.03
   6   2  -7   65.82    3.51
  -6  -2  -7   62.80    4.00
  -6   2  -7   72.13    4.05
   6  -2  -7   66.22    3.42
   6  -2  -7   69.97    3.45
  -7  -2  -7    8.64    1.89
   7   2  -7    9.60    1.64
  -7   2  -7   10.11    1.98
   7  -2  -7   11.66    1.72
   0   3  -7  186.35    5.96
   0  -3  -7  185.51    5.53
   0  -3  -7  182.51    5.70
  -1  -3  -7   39.48    1.86
  -1  -3  -7   37.10    1.79
  -1   3  -7   34.77    1.87
   1  -3  -7   34.45    1.47
   1  -3  -7   34.04    1.82
  -1   3  -7   35.08    1.40
  -2  -3  -7  266.83    8.44
  -2  -3  -7  277.00    8.03
   2   3  -7  274.00    8.51
   2  -3   7  261.68    7.84
  -2   3  -7  287.52    8.50
   2  -3  -7  274.47    8.20
   2  -3  -7  289.78    7.77
   3  -3   7   57.15    2.65
   3   3  -7   55.15    2.71
  -3  -3  -7   59.15    2.93
  -3  -3  -7   55.84    2.54
  -3   3  -7   56.27    2.74
   3  -3  -7   57.24    2.20
   3  -3  -7   60.25    2.73
   4   3  -7   44.49    2.51
  -4  -3  -7   45.67    2.80
  -4  -3  -7   45.45    2.32
   4  -3   7   43.32    2.31
  -4   3  -7   44.60    2.60
   4  -3  -7   44.35    2.42
   4  -3  -7   43.54    1.97
   5  -3   7   41.26    2.36
  -5  -3  -7   46.54    2.47
  -5  -3  -7   42.01    2.96
   5   3  -7   43.03    2.62
   5  -3  -7   44.48    2.54
  -5   3  -7   43.79    2.82
   6  -3   7    2.57    0.84
   6   3  -7    2.62    0.89
  -6  -3  -7    2.29    1.06
  -6   3  -7    2.40    0.96
   6  -3  -7    2.88    0.89
   7  -3   7   24.97    2.02
   7   3  -7   31.18    2.51
  -7  -3  -7   20.02    2.80
  -7   3  -7   29.89    2.78
   7  -3  -7   29.45    2.29
   0  -4  -7   63.03    2.67
   0   4  -7   57.06    2.64
   0  -4  -7   61.87    2.28
  -1  -4  -7  177.89    5.57
   1  -4   7  179.98    5.61
  -1  -4  -7  183.18    5.69
   1   4  -7  182.73    5.92
  -1   4  -7  166.20    5.76
   1  -4  -7  169.58    5.65
   1  -4  -7  169.44    5.02
  -2  -4  -7   37.79    2.02
  -2  -4  -7   36.99    2.03
   2   4  -7   35.93    2.06
   2  -4   7   36.72    2.09
   2  -4  -7   34.70    1.37
   2  -4  -7   33.23    1.95
  -2   4  -7   34.35    1.96
   3  -4   7   38.00    2.16
   3   4  -7   35.78    2.14
  -3  -4  -7   38.40    2.32
  -3  -4  -7   38.25    2.14
  -3   4  -7   34.80    2.09
   3  -4  -7   36.30    2.09
  -4  -4  -7    2.01    0.74
  -4  -4  -7    1.48    0.63
   4   4  -7    1.66    0.62
   4  -4   7    1.55    0.65
   4  -4  -7    1.63    0.63
  -4   4  -7    1.25    0.58
   5   4  -7   31.73    2.28
   5  -4   7   34.25    2.20
  -5  -4  -7   33.53    2.22
  -5  -4  -7   37.11    2.77
   5  -4  -7   30.61    2.13
  -5   4  -7   32.60    2.39
   6  -4   7   35.36    2.34
  -6  -4  -7   36.96    3.07
   6   4  -7   34.06    2.57
   6  -4  -7   35.90    2.40
  -6   4  -7   35.28    2.76
   7  -4   7    3.10    1.00
   7   4  -7    4.18    1.26
  -7  -4  -7    3.31    1.36
   7  -4  -7    3.95    1.05
  -7   4  -7    4.21    1.33
   0   5  -7   -0.05    0.27
   0  -5  -7    0.19    0.20
   0  -5  -7    0.65    0.39
  -1  -5  -7    2.88    0.67
   1  -5   7    2.28    0.69
  -1  -5  -7    3.55    0.64
   1   5  -7    3.26    0.75
   1  -5  -7    3.25    0.73
  -1   5  -7    3.41    0.70
  -2  -5  -7   61.00    2.85
   2   5  -7   60.68    2.88
   2  -5   7   61.45    2.85
  -2  -5  -7   57.86    2.72
  -2   5  -7   53.69    2.66
   2  -5  -7   53.81    2.69
  -3  -5  -7  153.04    5.62
  -3  -5  -7  147.95    5.42
   3   5  -7  142.71    5.45
   3  -5   7  140.00    5.10
   3  -5  -7  149.09    5.29
  -3   5  -7  147.32    5.35
  -4  -5  -7   40.36    2.69
  -4  -5  -7   38.18    2.42
   4   5  -7   42.46    2.56
   4  -5   7   40.69    2.39
   4  -5  -7   38.44    2.32
  -4   5  -7   36.31    2.39
  -5  -5  -7  115.09    5.39
   5   5  -7  115.83    4.98
   5  -5   7  107.21    4.42
  -5  -5  -7  110.86    4.73
  -5   5  -7  102.10    4.80
   5  -5  -7  105.01    4.46
  -6  -5  -7   11.01    1.99
   6  -5   7   10.65    1.56
   6   5  -7    8.50    1.49
  -6  -5  -7   11.40    1.68
   6  -5  -7   11.02    1.57
  -6   5  -7    9.79    1.67
  -7  -5  -7   63.22    4.48
   7   5  -7   66.61    3.93
   7  -5   7   63.62    3.45
  -7   5  -7   56.19    3.89
   7  -5  -7   56.45    3.32
   0   6  -7   29.52    1.86
   1  -6   7   77.23    3.37
   1   6  -7   77.95    3.36
  -1  -6  -7   73.46    3.35
   1  -6  -7   71.47    3.27
  -1   6  -7   74.14    3.25
  -2  -6  -7   12.16    1.58
   2  -6   7   10.64    1.41
  -2  -6  -7   11.73    1.15
   2   6  -7   10.89    1.21
  -2   6  -7    8.87    1.20
   2  -6  -7    6.33    1.04
   3  -6   7   52.67    2.77
  -3  -6  -7   49.73    2.87
   3   6  -7   52.28    2.82
  -3  -6  -7   52.43    2.86
   3  -6  -7   44.56    2.57
  -3   6  -7   50.56    2.65
   4  -6   7   17.56    1.73
  -4  -6  -7   18.37    1.80
  -4  -6  -7   19.66    1.91
   4   6  -7   19.42    1.78
  -4   6  -7   19.43    1.71
   4  -6  -7   19.01    1.65
   5  -6   7   54.99    3.06
  -5  -6  -7   52.09    3.50
  -5  -6  -7   52.43    3.20
   5   6  -7   52.51    3.21
   5  -6  -7   55.29    3.01
  -5   6  -7   54.97    3.23
   6  -6   7    1.93    0.91
  -6  -6  -7    1.37    0.95
   6   6  -7    1.54    0.78
  -6  -6  -7    1.71    0.85
   6  -6  -7    1.23    0.74
  -6   6  -7    1.64    0.87
   0  -7   7    7.24    1.22
   0   7  -7    6.32    1.01
   0  -7  -7    5.15    0.98
  -1  -7  -7    4.71    1.05
   1   7  -7    4.17    0.87
   1  -7   7    4.47    1.02
   1  -7  -7    4.50    0.94
  -1   7  -7    5.53    0.96
  -2  -7  -7   26.42    2.06
   2  -7   7   26.51    2.02
   2   7  -7   28.24    2.02
  -2   7  -7   32.44    2.00
   2  -7  -7   31.64    2.10
  -3  -7  -7   55.10    3.20
   3   7  -7   60.59    3.18
  -3  -7  -7   53.99    3.20
   3  -7   7   58.15    3.05
   3  -7  -7   57.57    3.02
  -3   7  -7   55.81    2.89
  -4  -7  -7   11.12    1.69
   4   7  -7   10.49    1.59
  -4  -7  -7    9.83    1.66
   4  -7   7   10.76    1.63
  -4   7  -7   10.45    1.52
   4  -7  -7   10.43    1.49
   5  -7   7  144.83    5.78
   5   7  -7  154.79    6.31
  -5  -7  -7  149.09    6.31
  -5  -7  -7  146.88    6.55
  -5   7  -7  149.13    6.13
   5  -7  -7  156.84    5.89
  -6  -7  -7    8.26    1.87
   6  -7   7    5.01    1.27
   6   7  -7    5.78    1.35
  -6  -7  -7    5.22    1.35
  -6   7  -7    6.55    1.39
   6  -7  -7    5.96    1.22
   6  -7  -7    6.22    1.29
   0  -8   7    1.38    0.72
   0  -8  -7    0.93    0.65
   0   8  -7    0.37    0.41
   1   8  -7   61.94    3.14
  -1  -8  -7   59.98    3.38
   1  -8   7   65.94    3.29
  -1   8  -7   70.35    3.21
   1  -8  -7   66.70    3.39
  -2  -8  -7    1.56    0.80
   2   8  -7    0.98    0.59
   2  -8   7    0.50    0.65
  -2   8  -7    0.67    0.51
   2  -8  -7    0.63    0.56
   3  -8   7   27.45    2.19
  -3  -8  -7   27.89    2.40
   3   8  -7   26.05    2.10
  -3   8  -7   28.87    1.99
   3  -8  -7   27.18    2.12
   4  -8   7    5.47    1.31
  -4  -8  -7    4.30    1.22
   4   8  -7    2.57    0.90
  -4   8  -7    5.00    1.11
   4  -8  -7    4.44    1.07
   5  -8   7    3.55    1.16
  -5  -8  -7    2.63    1.05
   5   8  -7    2.91    1.04
   5  -8  -7    4.03    1.08
   5  -8  -7    3.14    0.91
   0  -9  -7   72.30    3.86
   0  -9   7   77.26    3.65
   0   9  -7   72.60    3.47
   1   9  -7   18.24    1.67
   1  -9   7   18.12    2.09
  -1  -9  -7   17.96    2.21
  -1   9  -7   17.29    1.55
   1  -9  -7   18.71    1.87
   2   9  -7   41.78    2.62
   2  -9   7   40.99    2.72
  -2  -9  -7   44.10    3.08
   2  -9  -7   41.72    2.74
  -2   9  -7   38.01    2.38
  -3  -9  -7   33.15    2.80
   3   9  -7   35.95    2.52
   3  -9   7   33.81    2.55
   3  -9  -7   31.69    2.43
   3  -9  -7   31.32    2.14
  -4  -9  -7   21.16    2.64
   4   9  -7   21.88    2.10
   4  -9   7   19.05    2.27
   4  -9  -7   18.55    1.91
   4  -9  -7   19.11    1.76
   0 -10  -7   -0.48    0.56
   0 -10   7    0.00    0.62
   0  10  -7   -0.05    0.40
   1  10  -7   18.18    1.73
   1 -10   7   19.14    2.24
  -1 -10  -7   17.56    2.36
   1 -10  -7   17.11    2.15
  -1  10  -7   17.14    1.72
  -2 -10  -7    6.21    1.53
   2  10  -7    5.68    1.19
   2 -10   7    6.08    1.37
   2 -10  -7    7.12    1.51
   2 -10  -7    6.74    1.14
   3 -10   7   12.79    1.94
  -3 -10  -7   17.47    2.53
   3  10  -7   13.79    1.85
   3 -10  -7   13.43    1.99
   3 -10  -7   16.25    1.90
   0 -11  -7   31.62    2.84
   0 -11   7   36.80    2.68
  -1 -11  -7   13.50    2.18
   1 -11   7   13.91    2.01
   1 -11  -7   16.25    1.61
   1 -11  -7   15.20    2.28
   2 -11   7   75.32    4.13
   2  11  -7   77.84    3.94
  -2 -11  -7   83.99    4.86
   2 -11  -7   68.94    4.14
   2 -11  -7   71.75    3.53
   0   0  -8  264.61    7.85
   0   0  -8  260.66    7.46
  -1   0  -8   90.10    3.46
   1   0  -8   91.18    3.37
   1   0  -8   96.69    3.41
  -1   0  -8   92.01    3.08
   2   0  -8  347.39   10.01
   2   0  -8  351.49   10.17
  -2   0  -8  350.03   10.42
  -2   0  -8  351.45    9.36
   3   0  -8    7.84    0.89
   3   0  -8    9.99    1.06
  -3   0  -8    8.79    0.71
  -3   0  -8    9.13    1.27
   4   0  -8   53.93    2.59
  -4   0  -8   52.13    2.98
   4   0  -8   50.81    2.67
   5   0  -8    2.60    0.75
  -5   0  -8    3.10    1.01
   5   0  -8    2.37    0.81
   6   0  -8    0.13    0.41
  -6   0  -8   -0.15    0.50
   6   0  -8    0.27    0.53
   7   0  -8    3.56    0.99
  -7   0  -8    2.84    1.19
   7   0  -8    2.31    0.86
   0  -1  -8    2.80    0.53
   0   1  -8    3.50    0.57
   0   1  -8    3.26    0.64
   0  -1  -8    3.08    0.59
  -1  -1  -8   13.21    0.94
   1   1  -8   13.35    1.03
   1   1  -8   13.80    1.09
  -1  -1  -8   13.45    1.05
   1  -1  -8   12.91    1.04
  -1   1  -8   10.29    0.98
   1  -1  -8   12.87    0.95
  -1   1  -8   10.55    0.77
  -2  -1  -8   78.92    2.85
  -2  -1  -8   81.73    3.37
   2   1  -8   84.71    3.30
   2   1  -8   84.25    3.28
   2  -1  -8   82.43    3.26
   2  -1  -8   81.16    3.05
  -2   1  -8   79.01    2.58
  -2   1  -8   79.39    3.33
  -3  -1  -8   50.75    2.11
   3   1  -8   56.16    2.57
  -3  -1  -8   54.83    2.79
   3  -1  -8   52.25    2.56
  -3   1  -8   50.04    2.68
   3  -1  -8   47.69    2.27
   4   1  -8   22.21    1.64
  -4  -1  -8   21.94    1.89
   4  -1  -8   24.21    1.77
   4  -1  -8   26.53    1.62
  -4   1  -8   24.25    1.92
   5   1  -8   12.75    1.34
  -5  -1  -8   10.85    1.68
  -5   1  -8   13.24    1.82
   5  -1  -8   12.40    1.21
   5  -1  -8   13.54    1.42
  -6  -1  -8   85.36    4.80
   6   1  -8   89.51    4.10
   6  -1  -8   87.59    4.10
   6  -1  -8   85.40    3.84
  -6   1  -8   83.15    4.64
  -7  -1  -8   12.66    2.27
   7   1  -8   11.08    1.70
  -7   1  -8    9.05    1.89
   7  -1  -8    7.69    1.40
   0  -2  -8  246.64    7.23
   0   2  -8  247.37    7.00
   0  -2  -8  239.79    7.25
   0   2  -8  249.58    7.63
  -1  -2  -8   45.28    2.14
  -1  -2  -8   49.85    2.13
   1  -2  -8   46.88    1.99
   1  -2  -8   47.35    2.22
  -1   2  -8   47.04    2.29
  -1   2  -8   47.67    1.80
   2   2  -8  277.18    8.22
  -2  -2  -8  273.42    7.58
  -2  -2  -8  265.41    8.22
  -2   2  -8  265.60    7.01
   2  -2  -8  247.91    7.82
   2  -2  -8  255.73    7.62
  -2   2  -8  241.64    8.08
  -3  -2  -8  170.36    6.12
  -3  -2  -8  169.11    5.31
   3   2  -8  165.77    5.79
   3  -2  -8  164.20    5.70
   3  -2  -8  169.50    5.37
  -3   2  -8  169.55    5.98
   4   2  -8   18.19    1.49
   4  -2  -8   12.42    1.06
   4  -2  -8   11.73    1.27
  -4   2  -8   11.79    1.58
   5   2  -8   23.64    1.86
  -5  -2  -8   22.10    2.14
   5  -2   8   23.39    1.75
   5  -2  -8   22.82    1.58
  -5   2  -8   22.51    2.05
   5  -2  -8   22.76    1.84
   6  -2   8   11.46    1.50
   6   2  -8   11.50    1.60
  -6  -2  -8   13.67    2.18
  -6   2  -8   10.39    1.80
   6  -2  -8   13.07    1.79
  -7  -2  -8   14.65    2.49
   7   2  -8   16.65    1.82
   7  -2  -8   12.57    1.86
  -7   2  -8    9.48    1.92
   0  -3  -8    0.78    0.31
   0  -3  -8    0.39    0.32
   0   3  -8    0.32    0.31
   1   3  -8  168.30    5.79
  -1  -3  -8  167.00    5.56
  -1  -3  -8  171.60    5.50
   1  -3  -8  178.67    5.26
  -1   3  -8  171.03    5.82
   1  -3  -8  175.41    5.65
  -1   3  -8  174.68    4.95
  -2  -3  -8   22.22    1.47
   2   3  -8   22.85    1.63
  -2  -3  -8   25.96    1.70
  -2   3  -8   24.52    1.64
   2  -3  -8   25.28    1.27
   2  -3  -8   24.64    1.65
  -3  -3  -8    2.40    0.72
  -3  -3  -8    3.19    0.72
   3   3  -8    3.40    0.80
   3  -3   8    3.12    0.81
  -3   3  -8    7.25    1.12
   3  -3  -8    4.73    0.87
   4  -3   8   59.54    2.87
  -4  -3  -8   54.67    3.20
  -4  -3  -8   57.08    2.71
   4   3  -8   55.73    2.92
  -4   3  -8   52.21    2.97
   4  -3  -8   52.75    2.79
  -5  -3  -8   21.35    2.12
   5   3  -8   22.19    1.88
   5  -3   8   20.63    1.79
  -5   3  -8   21.29    2.00
   5  -3  -8   23.98    1.88
  -6  -3  -8   54.54    3.80
   6   3  -8   60.24    3.40
   6  -3   8   58.27    3.03
   6  -3  -8   53.81    3.11
  -6   3  -8   52.57    3.52
  -7  -3  -8    3.98    1.38
   7   3  -8    2.68    0.98
   7  -3  -8    4.83    1.20
  -7   3  -8    2.67    1.13
   0   4  -8   26.26    1.70
   0  -4  -8   24.43    1.33
  -1  -4  -8   26.74    1.72
  -1  -4  -8   27.62    1.63
   1   4  -8   27.36    1.81
   1  -4  -8   34.07    1.41
   1  -4  -8   31.91    1.88
  -1   4  -8   31.59    1.87
   2  -4   8   16.95    1.52
   2   4  -8   21.80    1.60
  -2  -4  -8   18.44    1.45
  -2  -4  -8   20.97    1.50
   2  -4  -8   18.41    1.47
  -2   4  -8   16.70    1.40
   3  -4   8  115.99    4.53
   3   4  -8  122.50    4.82
  -3  -4  -8  127.69    4.61
  -3  -4  -8  121.50    4.96
  -3   4  -8  123.90    4.79
   3  -4  -8  123.91    4.67
  -4  -4  -8  105.22    4.80
  -4  -4  -8  113.92    4.37
   4   4  -8  103.26    4.46
   4  -4   8  103.82    4.20
   4  -4  -8   98.27    4.24
  -4   4  -8  101.86    4.53
  -5  -4  -8   86.78    4.64
   5  -4   8   94.89    3.97
   5   4  -8   88.89    4.25
  -5  -4  -8   91.20    3.99
   5  -4  -8   85.60    4.00
  -5   4  -8   88.36    4.40
   6   4  -8   23.13    2.14
   6  -4   8   20.57    1.89
  -6  -4  -8   19.17    2.66
   6  -4  -8   27.24    2.17
  -6   4  -8   24.94    2.34
  -7  -4  -8   41.55    3.65
   7   4  -8   41.21    3.05
   7  -4   8   42.98    2.80
   7  -4  -8   40.61    2.85
  -7   4  -8   41.61    3.37
   0   5  -8   23.65    1.67
   0  -5  -8   22.86    1.65
  -1  -5  -8   95.36    3.84
  -1  -5  -8   89.36    3.51
   1   5  -8   93.49    3.89
   1  -5  -8   98.17    3.90
  -1   5  -8   97.54    3.89
   2  -5   8    1.49    0.72
   2   5  -8    0.58    0.48
  -2  -5  -8    1.35    0.53
  -2  -5  -8    0.35    0.42
  -2   5  -8    0.36    0.41
   2  -5  -8    1.08    0.52
  -3  -5  -8   75.77    3.52
   3  -5   8   81.61    3.60
   3   5  -8   69.06    3.49
  -3  -5  -8   78.21    3.71
  -3   5  -8   82.02    3.61
   3  -5  -8   80.81    3.57
   4  -5   8   34.37    2.32
  -4  -5  -8   35.33    2.57
  -4  -5  -8   34.61    2.38
   4   5  -8   34.01    2.37
   4  -5  -8   40.28    2.43
  -4   5  -8   41.62    2.58
  -5  -5  -8   21.51    1.92
   5  -5   8   18.76    1.83
   5   5  -8   21.39    1.97
  -5  -5  -8   19.50    2.16
   5  -5  -8   21.90    1.87
  -5   5  -8   22.71    2.09
   6   5  -8    8.59    1.59
  -6  -5  -8    8.29    1.83
   6  -5   8    6.37    1.31
   6  -5  -8    6.13    1.24
  -6   5  -8    4.92    1.31
   0  -6  -8    2.60    0.77
   0   6  -8    2.84    0.74
  -1  -6  -8    8.19    1.27
   1  -6   8   10.07    1.41
   1   6  -8   10.74    1.41
  -1   6  -8    6.48    1.02
   1  -6  -8    8.49    1.28
   2   6  -8   46.60    2.64
   2  -6   8   43.65    2.62
  -2  -6  -8   45.45    2.45
  -2  -6  -8   45.75    2.66
   2  -6  -8   47.19    2.63
  -2   6  -8   47.71    2.57
   3   6  -8   25.01    1.97
  -3  -6  -8   25.05    1.97
   3  -6   8   26.35    2.04
  -3  -6  -8   26.20    2.07
  -3   6  -8   23.74    1.83
   3  -6  -8   22.20    1.82
   4  -6   8   41.80    2.65
  -4  -6  -8   41.60    2.74
  -4  -6  -8   41.00    2.83
   4   6  -8   38.60    2.60
   4  -6  -8   40.13    2.53
  -4   6  -8   43.40    2.68
   5   6  -8  116.27    5.27
  -5  -6  -8  126.31    5.33
   5  -6   8  118.84    4.96
  -5  -6  -8  115.29    5.67
  -5   6  -8  114.95    5.25
   5  -6  -8  122.04    5.05
  -6  -6  -8   13.83    2.32
   6   6  -8   12.89    1.95
   6  -6   8   13.56    1.95
  -6  -6  -8   13.77    1.96
   6  -6  -8   10.61    1.62
  -6   6  -8    9.06    1.68
   0  -7  -8   11.79    1.56
   0   7  -8   10.59    1.40
   1   7  -8  116.00    4.69
  -1  -7  -8  117.78    4.87
   1  -7   8  110.27    4.59
  -1   7  -8  121.66    4.69
   1  -7  -8  114.99    4.74
   2  -7   8    6.81    1.25
  -2  -7  -8    8.35    1.43
   2   7  -8    8.79    1.36
   2  -7  -8    5.81    1.09
  -2   7  -8    7.83    1.23
   3   7  -8   45.37    2.81
   3  -7   8   48.11    2.87
  -3  -7  -8   49.40    3.07
   3  -7  -8   45.81    2.77
  -3   7  -8   48.37    2.74
   4  -7   8    1.93    0.90
   4   7  -8    1.00    0.65
  -4  -7  -8    0.95    0.73
  -4  -7  -8    1.06    0.68
  -4   7  -8    1.48    0.68
   4  -7  -8    1.55    0.72
  -5  -7  -8   18.06    2.44
   5   7  -8   14.46    2.01
  -5  -7  -8   16.45    2.19
   5  -7   8   16.93    2.15
  -5   7  -8   13.64    1.93
   5  -7  -8   10.67    1.64
   0  -8  -8    9.69    1.54
   0   8  -8   10.27    1.43
   1   8  -8    8.85    1.36
   1  -8   8    8.91    1.44
  -1  -8  -8   11.24    1.76
   1  -8  -8    7.87    1.40
  -1   8  -8    7.63    1.20
   2  -8   8   36.81    2.58
   2   8  -8   33.67    2.34
  -2  -8  -8   33.95    2.56
  -2   8  -8   33.27    2.22
   2  -8  -8   32.95    2.40
   3   8  -8   35.82    2.50
   3  -8   8   31.94    2.46
  -3  -8  -8   35.45    2.73
  -3   8  -8   26.36    2.05
   3  -8  -8   27.68    2.22
  -4  -8  -8   20.49    2.57
   4   8  -8   18.54    1.93
   4  -8   8   18.15    2.22
   4  -8  -8   18.13    1.88
  -4   8  -8   19.99    1.84
  -5  -8  -8   42.55    3.25
   5  -8   8   43.27    3.07
   5   8  -8   46.95    3.19
  -5   8  -8   44.77    3.40
   5  -8  -8   44.70    2.95
   0  -9  -8    4.21    1.13
   0   9  -8    3.83    0.99
   1   9  -8   40.59    2.57
   1  -9   8   36.53    2.61
  -1  -9  -8   37.73    2.82
   1  -9  -8   37.37    2.71
  -1   9  -8   34.48    2.34
  -2  -9  -8   15.83    2.16
   2   9  -8   16.81    1.71
   2  -9   8   19.57    2.22
   2  -9  -8   18.04    1.90
  -2   9  -8   20.23    1.75
  -3  -9  -8   40.91    3.12
   3   9  -8   39.06    2.70
   3  -9   8   33.75    2.67
   3  -9  -8   31.84    2.54
  -3   9  -8   31.66    2.29
   4  -9   8    8.41    1.62
   4   9  -8    7.74    1.44
  -4  -9  -8    8.08    1.77
   4  -9  -8    7.24    1.43
   0 -10  -8   13.94    2.07
   0  10  -8   15.53    1.61
  -1 -10  -8   26.41    2.53
   1  10  -8   22.39    2.01
   1 -10   8   21.49    2.16
   1 -10  -8   24.54    1.83
  -1  10  -8   31.27    2.20
   1 -10  -8   25.41    2.40
   2 -10   8   42.19    3.01
   2  10  -8   44.70    2.85
  -2 -10  -8   49.51    3.53
   2 -10  -8   40.54    2.49
   2 -10  -8   35.58    2.84
  -3 -10  -8    8.78    1.91
   3 -10   8    7.61    1.64
   3  10  -8    8.02    1.49
   3 -10  -8    8.07    1.55
   3 -10  -8    7.60    1.33
   0   0  -9    0.19    0.25
   0   0  -9    0.33    0.26
   1   0  -9    0.14    0.23
  -1   0  -9    0.55    0.29
  -1   0  -9    0.37    0.31
   1   0  -9    0.26    0.29
   2   0  -9  333.84    9.72
  -2   0  -9  336.40    9.05
   2   0  -9  330.58    9.84
  -2   0  -9  327.26   10.09
  -3   0  -9   31.67    2.11
   3   0  -9   32.09    1.88
   3   0  -9   30.07    1.95
   4   0  -9   20.87    1.56
  -4   0  -9   20.48    1.87
   4   0  -9   21.20    1.70
   5   0  -9    1.31    0.56
  -5   0  -9    0.58    0.67
   5   0  -9    1.22    0.60
   6   0  -9   97.22    4.56
  -6   0  -9  100.78    5.32
   6   0  -9  104.67    4.49
  -7   0  -9   13.06    2.35
   7   0  -9   10.35    1.62
   7   0  -9    9.45    1.65
   0   1  -9  106.61    3.62
   0   1  -9  104.84    3.95
   0  -1  -9  105.04    3.70
   0  -1  -9  102.96    3.78
  -1  -1  -9   45.28    2.23
  -1  -1  -9   45.48    2.03
   1   1  -9   44.48    2.24
   1   1  -9   44.01    2.14
  -1   1  -9   46.27    2.32
   1  -1  -9   45.23    2.21
   1  -1  -9   48.92    2.16
  -1   1  -9   47.89    1.92
  -2  -1  -9  267.88    7.48
   2   1  -9  249.10    7.86
  -2  -1  -9  264.00    8.29
   2   1  -9  259.68    8.10
  -2   1  -9  255.33    8.24
   2  -1  -9  260.91    7.88
  -2   1  -9  259.56    7.12
   2  -1  -9  265.83    8.00
   3   1  -9  136.55    5.04
   3   1  -9  145.01    5.10
  -3  -1  -9  138.19    4.44
  -3  -1  -9  142.00    5.40
   3  -1  -9  137.82    4.79
   3  -1  -9  134.76    5.03
  -3   1  -9  134.99    5.28
   4   1  -9   63.66    3.15
  -4  -1  -9   60.97    3.49
   4  -1  -9   77.20    3.17
   4  -1  -9   71.30    3.35
  -4   1  -9   76.53    3.74
   5   1  -9    7.95    1.26
  -5  -1  -9   10.73    1.83
   5  -1  -9   11.08    1.16
   5  -1  -9   11.22    1.55
  -5   1  -9    8.07    1.49
  -6  -1  -9    3.98    1.25
   6   1  -9    4.36    1.03
  -6   1  -9    5.82    1.50
   6  -1  -9    7.19    1.37
   6  -1  -9    6.21    1.11
   7   1  -9    3.91    1.15
   7   1  -9    4.45    1.14
  -7  -1  -9    3.57    1.32
  -7   1  -9    2.38    1.18
   7  -1  -9    2.69    0.94
   0   2  -9    6.86    0.97
   0   2  -9    9.17    0.82
   0  -2  -9    7.50    0.79
   0  -2  -9    8.16    0.87
  -1  -2  -9   78.93    3.08
  -1  -2  -9   78.99    3.21
   1   2  -9   76.44    3.08
   1   2  -9   77.61    3.33
   1  -2  -9   84.53    3.06
  -1   2  -9   83.20    3.40
   1  -2  -9   81.82    3.26
  -1   2  -9   82.12    2.78
  -2  -2  -9   20.30    1.59
   2   2  -9   21.73    1.60
  -2  -2  -9   21.72    1.41
   2  -2  -9   29.44    1.51
   2  -2  -9   29.15    1.79
  -2   2  -9   28.93    1.84
  -3  -2  -9    4.33    0.91
  -3  -2  -9    3.61    0.69
   3   2  -9    3.52    0.78
   3  -2  -9    1.52    0.47
   3  -2  -9    0.84    0.50
  -3   2  -9    1.74    0.68
  -4  -2  -9   84.71    4.15
   4   2  -9   82.88    3.72
   4  -2  -9   80.20    3.67
   4  -2  -9   84.46    3.33
  -4   2  -9   79.43    3.95
   5   2  -9   31.27    2.23
  -5  -2  -9   30.40    2.61
  -5   2  -9   36.19    2.64
   5  -2  -9   34.26    2.33
  -6  -2  -9   98.26    5.35
   6   2  -9  101.76    4.66
  -6   2  -9  102.88    5.28
   6  -2  -9   97.54    4.53
   7   2  -9    4.00    1.12
  -7  -2  -9    2.47    1.22
   7  -2  -9    3.20    1.04
  -7   2  -9    4.50    1.51
   0  -3  -9   87.06    3.43
   0  -3  -9   83.32    3.19
   0   3  -9   90.82    3.18
   0   3  -9   88.71    3.64
  -1  -3  -9   66.99    2.91
  -1  -3  -9   64.75    2.85
   1   3  -9   63.28    3.04
   1  -3  -9   69.41    3.03
   1  -3  -9   74.09    2.69
  -1   3  -9   73.13    2.48
  -1   3  -9   69.26    3.12
  -2  -3  -9   52.16    2.47
   2   3  -9   52.54    2.70
  -2  -3  -9   53.70    2.73
   2  -3  -9   57.22    2.73
   2  -3  -9   55.39    2.22
  -2   3  -9   55.85    2.75
   3   3  -9   15.65    1.43
  -3  -3  -9   13.50    1.42
  -3  -3  -9   15.36    1.28
  -3   3  -9   11.56    1.30
   3  -3  -9   12.40    1.31
   4  -3   9  105.36    4.26
  -4  -3  -9  102.49    4.87
  -4  -3  -9  110.88    4.22
   4   3  -9  106.23    4.54
  -4   3  -9  114.69    4.85
   4  -3  -9  108.26    4.48
   5   3  -9   85.11    4.07
  -5  -3  -9   87.00    4.64
   5  -3   9   85.57    3.79
   5  -3  -9   87.42    4.02
  -5   3  -9   78.69    4.26
  -6  -3  -9   36.85    3.17
   6   3  -9   36.06    2.64
   6  -3   9   36.56    2.47
   6  -3  -9   35.35    2.57
  -6   3  -9   38.81    3.01
   7   3  -9   10.15    1.76
  -7  -3  -9   10.81    2.21
   7  -3  -9   13.66    1.94
  -7   3  -9   10.39    2.03
   0  -4  -9   11.33    1.14
   0  -4  -9   11.25    0.94
   0   4  -9   10.45    1.12
   1   4  -9  146.99    5.43
  -1  -4  -9  153.12    5.23
  -1  -4  -9  146.54    5.11
   1  -4  -9  149.77    5.28
  -1   4  -9  149.48    5.45
  -2  -4  -9   23.80    1.67
  -2  -4  -9   21.78    1.64
   2   4  -9   23.43    1.75
   2  -4  -9   23.69    1.73
  -2   4  -9   21.94    1.69
   3  -4   9   83.39    3.64
  -3  -4  -9   77.90    3.78
  -3  -4  -9   88.27    3.57
   3   4  -9   82.97    3.74
   3  -4  -9   69.96    3.43
  -3   4  -9   72.04    3.55
  -4  -4  -9   25.22    2.20
  -4  -4  -9   25.09    1.92
   4  -4   9   26.50    2.05
   4   4  -9   25.01    2.00
  -4   4  -9   27.45    2.15
   4  -4  -9   29.95    2.12
   5   4  -9   34.27    2.49
  -5  -4  -9   36.27    2.89
   5  -4   9   35.61    2.47
   5  -4  -9   33.00    2.39
  -5   4  -9   35.88    2.69
   6   4  -9   10.03    1.61
  -6  -4  -9   10.13    1.95
   6  -4   9   10.86    1.65
  -6   4  -9   10.65    1.80
   6  -4  -9   11.49    1.68
   0   5  -9   19.62    1.57
   0  -5  -9   17.06    1.47
  -1  -5  -9   14.94    1.22
   1   5  -9   12.88    1.32
  -1  -5  -9   17.32    1.48
   1  -5  -9   16.02    1.46
  -1   5  -9   17.73    1.50
   2   5  -9   20.22    1.69
  -2  -5  -9   18.54    1.55
  -2  -5  -9   18.80    1.62
  -2   5  -9   21.82    1.72
   2  -5  -9   24.83    1.80
   3  -5   9   65.69    3.32
   3   5  -9   66.03    3.37
  -3  -5  -9   65.53    3.41
  -3  -5  -9   66.87    3.27
   3  -5  -9   64.87    3.26
  -3   5  -9   61.90    3.22
   4   5  -9    9.33    1.51
  -4  -5  -9    9.47    1.45
   4  -5   9   11.52    1.70
  -4  -5  -9    9.46    1.62
   4  -5  -9    9.19    1.41
  -4   5  -9    8.25    1.45
   5   5  -9   43.55    2.86
  -5  -5  -9   40.26    2.65
  -5  -5  -9   42.61    3.18
   5  -5   9   35.24    2.60
   5  -5  -9   37.11    2.55
  -5   5  -9   38.90    2.82
   6   5  -9   28.06    2.47
   6  -5   9   33.91    2.58
  -6  -5  -9   32.80    3.07
  -6   5  -9   25.12    2.48
   6  -5  -9   29.55    2.37
   0  -6  -9    3.02    0.88
   0   6  -9    4.03    0.89
  -1  -6  -9  144.90    5.47
   1   6  -9  151.65    5.63
  -1   6  -9  142.47    5.45
   1  -6  -9  140.77    5.42
   2   6  -9   61.39    3.15
   2  -6   9   57.99    3.11
  -2  -6  -9   60.49    3.16
  -2   6  -9   54.09    2.95
   2  -6  -9   52.57    2.96
   3   6  -9   65.50    3.43
  -3  -6  -9   65.56    3.42
  -3  -6  -9   65.61    3.43
   3  -6   9   63.36    3.39
   3  -6  -9   63.04    3.31
  -3   6  -9   59.39    3.22
  -4  -6  -9   12.93    1.94
  -4  -6  -9   11.75    1.71
   4  -6   9   15.51    2.03
   4   6  -9   13.89    1.88
  -4   6  -9   15.83    1.67
   4  -6  -9   12.23    1.67
  -5  -6  -9   14.29    1.97
  -5  -6  -9   17.67    2.43
   5  -6   9   13.50    1.90
   5   6  -9   17.01    1.88
   5  -6  -9   16.04    2.04
  -5   6  -9   13.69    1.89
  -6  -6  -9    0.55    0.84
   6   6  -9    0.74    0.73
   6  -6   9    1.04    0.92
   6  -6  -9    0.46    0.71
  -6   6  -9    0.76    0.72
   0  -7  -9    2.62    0.88
   0   7  -9    2.94    0.86
  -1  -7  -9    5.92    1.21
   1   7  -9    5.89    1.10
   1  -7  -9    6.22    1.20
  -1   7  -9    5.39    1.03
   2  -7   9   27.77    2.25
   2   7  -9   27.86    2.12
  -2  -7  -9   28.33    2.27
   2  -7  -9   30.06    2.22
  -2   7  -9   30.10    2.13
  -3  -7  -9   17.45    2.18
   3  -7   9   19.84    2.00
   3   7  -9   18.16    1.81
   3  -7  -9   19.53    1.86
  -3   7  -9   18.26    1.71
  -4  -7  -9    0.43    0.71
   4   7  -9    0.49    0.62
   4  -7   9    0.62    0.82
   4  -7  -9    1.94    0.82
  -4   7  -9    1.09    0.66
   5  -7   9   75.77    4.04
   5   7  -9   78.18    4.22
  -5  -7  -9   83.38    4.38
  -5   7  -9   69.53    4.03
   5  -7  -9   70.73    3.88
   0  -8  -9    2.39    0.95
   0   8  -9    2.54    0.83
   1   8  -9   59.67    3.23
  -1  -8  -9   56.63    3.37
  -1   8  -9   60.10    3.19
   1  -8  -9   54.37    3.25
   2  -8   9    9.93    1.62
   2   8  -9    9.17    1.44
  -2  -8  -9   11.47    1.84
   2  -8  -9   10.88    1.64
  -2   8  -9   10.01    1.51
   3  -8   9   78.64    4.10
  -3  -8  -9   79.84    4.36
   3   8  -9   77.66    4.04
  -3   8  -9   81.66    3.96
   3  -8  -9   79.86    4.04
   4  -8   9    9.66    1.74
   4   8  -9   10.55    1.78
  -4  -8  -9    9.35    1.83
  -4   8  -9    7.52    1.37
   4  -8  -9    6.34    1.33
   0  -9  -9   21.05    2.16
   0   9  -9   24.28    2.01
  -1  -9  -9   41.09    3.05
   1   9  -9   47.54    2.93
  -1   9  -9   46.21    2.84
   1  -9  -9   48.68    3.16
   2   9  -9   15.85    1.71
   2  -9   9   16.90    2.21
  -2  -9  -9   16.43    2.27
  -2   9  -9   14.97    1.61
   2  -9  -9   13.72    1.94
  -3  -9  -9   18.68    2.57
   3   9  -9   18.33    1.92
   3  -9   9   19.23    2.44
  -3   9  -9   23.07    1.97
   3  -9  -9   25.47    2.30
   0 -10  -9    1.83    1.02
   0  10  -9    2.47    0.91
  -1 -10  -9   15.22    2.22
   1  10  -9   18.44    1.88
  -1  10  -9   14.01    1.85
   1 -10  -9   14.34    2.15
   2  10  -9    5.78    1.32
   2 -10   9    6.49    1.51
  -2 -10  -9    6.10    1.55
   2 -10  -9    4.25    1.25
  -2  10  -9    5.00    1.24
   0   0 -10   10.70    0.97
   0   0 -10   11.80    1.09
  -1   0 -10   28.18    1.54
   1   0 -10   30.81    1.80
   1   0 -10   30.22    1.79
  -1   0 -10   30.51    1.84
  -2   0 -10   45.43    1.92
  -2   0 -10   43.88    2.41
   2   0 -10   40.48    2.19
   2   0 -10   39.57    2.25
   3   0 -10   16.44    1.40
   3   0 -10   19.80    1.61
  -3   0 -10   20.74    1.74
  -4   0 -10  141.04    5.82
   4   0 -10  138.92    5.32
   4   0 -10  131.03    5.07
   5   0 -10    9.48    1.49
  -5   0 -10   11.49    1.81
   5   0 -10   10.02    1.39
   6   0 -10    0.41    0.51
  -6   0 -10    0.08    0.67
   6   0 -10   -0.26    0.48
   7   0 -10    2.06    0.94
  -7   0 -10    2.14    1.21
   0   1 -10    6.52    0.96
   0  -1 -10    9.58    0.97
   0  -1 -10    7.02    0.94
   0   1 -10    8.48    0.84
   1   1 -10   14.58    1.28
   1   1 -10   15.05    1.24
  -1  -1 -10   17.76    1.37
  -1  -1 -10   16.31    1.19
  -1   1 -10   18.48    1.15
  -1   1 -10   18.43    1.45
   1  -1 -10   17.31    1.36
   1  -1 -10   17.45    1.27
  -2  -1 -10   64.86    3.09
   2   1 -10   64.68    2.95
   2   1 -10   65.71    2.97
  -2  -1 -10   65.94    2.62
   2  -1 -10   62.36    2.75
  -2   1 -10   63.87    3.08
   2  -1 -10   61.03    2.93
  -3  -1 -10   59.98    3.21
   3   1 -10   57.87    2.88
   3   1 -10   57.05    2.92
  -3   1 -10   59.64    3.16
   3  -1 -10   65.70    2.82
   3  -1 -10   61.04    3.01
   4   1 -10  118.23    4.65
  -4  -1 -10  112.47    5.08
   4   1 -10  118.03    4.72
  -4   1 -10  104.72    4.93
   4  -1 -10  114.20    4.37
   4  -1 -10  105.89    4.58
  -5  -1 -10   69.87    4.07
   5   1 -10   70.58    3.59
   5   1 -10   69.50    3.42
   5  -1 -10   61.13    3.40
   5  -1 -10   67.32    3.21
  -5   1 -10   62.75    3.80
  -6  -1 -10   89.13    5.16
   6   1 -10   92.63    4.53
   6   1 -10   92.06    4.33
  -6   1 -10   89.26    5.07
   6  -1 -10  101.76    4.63
   7   1 -10    9.86    1.74
   7   1 -10    6.43    1.35
  -7  -1 -10    8.19    1.94
  -7   1 -10    6.69    1.71
   7  -1 -10    6.82    1.43
   0  -2 -10   61.12    2.63
   0  -2 -10   61.62    2.71
   0   2 -10   60.44    2.52
   0   2 -10   59.02    2.86
   1   2 -10   69.34    3.01
   1   2 -10   71.91    3.25
  -1  -2 -10   70.43    3.12
  -1  -2 -10   74.45    3.04
   1  -2 -10   75.42    3.19
   1  -2 -10   75.91    2.99
  -1   2 -10   78.03    2.75
  -1   2 -10   75.94    3.36
  -2  -2 -10   99.96    3.62
   2   2 -10  100.78    4.03
  -2  -2 -10   97.45    4.05
   2   2 -10   99.56    3.88
   2  -2 -10   88.14    3.50
  -2   2 -10   91.69    4.00
   2  -2 -10   93.97    3.91
   3   2 -10    2.57    0.74
  -3  -2 -10    2.30    0.78
  -3  -2 -10    2.05    0.58
   3  -2 -10    2.95    0.84
  -3   2 -10    3.06    0.81
   3  -2 -10    3.17    0.66
  -4  -2 -10   12.81    1.86
   4   2 -10   11.30    1.55
   4  -2 -10    6.17    1.15
  -4   2 -10    4.99    1.12
  -5  -2 -10   33.20    2.78
   5   2 -10   36.75    2.46
  -5   2 -10   31.15    2.58
   5  -2 -10   32.89    2.39
   6   2 -10    9.80    1.57
  -6  -2 -10    9.73    1.97
   6  -2 -10    6.50    1.37
  -6   2 -10    9.31    1.90
   0   3 -10    4.76    0.90
   0   3 -10    5.86    0.85
   0  -3 -10    5.41    0.95
   0  -3 -10    4.68    0.76
   1   3 -10  240.57    7.88
  -1  -3 -10  235.44    7.38
   1   3 -10  233.79    7.32
  -1  -3 -10  242.67    7.68
   1  -3 -10  232.69    7.53
  -1   3 -10  240.47    7.90
   1  -3 -10  248.35    7.28
  -2  -3 -10   49.43    2.72
  -2  -3 -10   51.63    2.52
   2   3 -10   53.03    2.78
  -2   3 -10   52.10    2.77
   2  -3 -10   52.80    2.71
   2  -3 -10   53.65    2.27
  -3  -3 -10   15.23    1.57
   3   3 -10   16.70    1.55
  -3  -3 -10   16.14    1.38
   3  -3 -10   13.69    1.42
  -3   3 -10   15.18    1.51
  -4  -3 -10   54.36    2.77
   4   3 -10   55.66    3.05
  -4  -3 -10   52.54    3.27
  -4   3 -10   51.99    3.15
   4  -3 -10   45.24    2.79
   5   3 -10    5.14    1.13
  -5  -3 -10    5.88    1.42
   5  -3 -10    8.29    1.45
  -5   3 -10    7.52    1.53
   6   3 -10   57.13    3.40
  -6  -3 -10   52.21    3.88
  -6   3 -10   56.53    3.79
   6  -3 -10   52.94    3.26
   0   4 -10   68.75    2.73
   0  -4 -10   65.35    2.78
   0   4 -10   64.62    3.18
   0  -4 -10   66.40    3.08
  -1  -4 -10   17.51    1.40
  -1  -4 -10   16.16    1.44
   1   4 -10   17.52    1.55
   1  -4 -10   20.64    1.63
  -1   4 -10   22.12    1.70
   2   4 -10   50.27    2.77
  -2  -4 -10   49.36    2.69
  -2  -4 -10   51.77    2.65
   2  -4 -10   49.90    2.73
  -2   4 -10   48.71    2.73
  -3  -4 -10   42.80    2.76
   3   4 -10   44.86    2.70
  -3  -4 -10   46.23    2.55
  -3   4 -10   47.48    2.78
   3  -4 -10   47.44    2.70
  -4  -4 -10   12.83    1.59
   4   4 -10   10.50    1.58
  -4  -4 -10    9.26    1.59
   4  -4 -10   10.05    1.53
  -4   4 -10    6.72    1.29
   5   4 -10   43.02    2.91
  -5  -4 -10   47.42    3.42
  -5   4 -10   51.61    3.33
   5  -4 -10   48.06    2.99
   6  -4  10   15.03    1.99
   6   4 -10   12.60    1.85
  -6  -4 -10   15.30    2.42
  -6   4 -10   13.18    2.13
   6  -4 -10   16.34    2.13
   0  -5 -10    1.26    0.60
   0   5 -10    0.71    0.51
   1   5 -10  121.93    5.02
  -1  -5 -10  125.87    4.90
   1  -5 -10  134.23    5.06
  -1   5 -10  129.15    5.11
   2   5 -10   30.71    2.15
  -2  -5 -10   27.31    1.97
  -2  -5 -10   28.58    2.03
  -2   5 -10   26.41    2.01
   2  -5 -10   27.33    2.02
   3   5 -10   70.12    3.62
  -3  -5 -10   75.18    3.54
  -3  -5 -10   66.09    3.60
   3  -5 -10   66.54    3.44
  -3   5 -10   73.34    3.62
  -4  -5 -10   25.31    2.30
   4   5 -10   23.78    2.10
   4  -5  10   23.43    2.11
  -4  -5 -10   25.26    2.09
  -4   5 -10   26.47    2.21
   4  -5 -10   25.70    2.13
   5  -5  10   27.17    2.34
   5   5 -10   27.01    2.34
  -5  -5 -10   25.42    2.55
   5  -5 -10   32.08    2.41
  -5   5 -10   29.17    2.51
   6  -5  10    2.83    1.08
   6   5 -10    1.13    0.78
  -6  -5 -10    2.72    1.21
   6  -5 -10    3.84    1.13
  -6   5 -10    4.22    1.29
   0   6 -10   37.41    2.41
   0  -6 -10   34.61    2.35
   1   6 -10    6.30    1.22
  -1  -6 -10    5.89    1.16
   1  -6 -10    4.18    0.97
  -1   6 -10    5.34    1.14
   2   6 -10   44.74    2.79
  -2  -6 -10   50.63    2.91
   2  -6 -10   46.10    2.80
  -2   6 -10   46.39    2.78
   3   6 -10   32.29    2.35
  -3  -6 -10   31.62    2.34
   3  -6  10   28.92    2.34
  -3   6 -10   30.79    2.29
   3  -6 -10   29.84    2.25
  -4  -6 -10   18.12    1.97
   4  -6  10   17.06    2.09
  -4  -6 -10   17.39    2.15
   4   6 -10   16.32    1.81
  -4   6 -10   19.55    1.92
   4  -6 -10   19.14    1.88
   5  -6  10   40.84    2.93
   5   6 -10   39.29    2.94
  -5  -6 -10   41.91    2.90
  -5  -6 -10   40.50    3.23
  -5   6 -10   40.47    3.01
   5  -6 -10   41.40    2.86
   0  -7 -10   36.49    2.53
   0   7 -10   38.15    2.51
  -1  -7 -10   93.75    4.35
   1   7 -10   95.29    4.31
   1  -7 -10   91.32    4.27
  -1   7 -10   83.68    4.10
   2   7 -10   20.43    1.88
  -2  -7 -10   21.51    2.03
  -2   7 -10   20.38    1.85
   2  -7 -10   18.51    1.86
   3   7 -10   35.13    2.58
   3  -7  10   36.78    2.71
  -3  -7 -10   33.92    2.68
  -3   7 -10   38.92    2.63
   3  -7 -10   34.62    2.57
   4   7 -10    2.35    0.97
   4  -7  10    2.22    1.07
  -4  -7 -10    1.54    0.90
  -4   7 -10    1.17    0.66
   4  -7 -10    2.26    0.94
   5  -7  10   13.45    2.11
  -5  -7 -10   10.64    1.87
   5   7 -10   18.03    2.38
  -5   7 -10   11.14    1.85
   5  -7 -10   12.66    1.84
   0   8 -10    9.96    1.53
   0  -8 -10   12.53    1.81
   1   8 -10   27.73    2.21
  -1  -8 -10   27.86    2.38
   1  -8 -10   25.55    2.23
  -1   8 -10   26.61    2.15
  -2  -8 -10   28.31    2.43
   2   8 -10   24.42    2.12
   2  -8 -10   23.71    2.20
  -2   8 -10   22.16    1.98
   3  -8  10   19.02    2.41
   3   8 -10   20.43    2.03
  -3  -8 -10   20.67    2.57
   3  -8 -10   19.97    2.03
  -3   8 -10   22.90    2.04
   4   8 -10   14.27    2.04
   4  -8  10   16.77    2.31
  -4  -8 -10   14.02    2.18
   4  -8 -10   10.24    1.70
  -4   8 -10   12.17    1.85
   0  -9 -10   14.81    2.05
   0   9 -10   14.05    1.87
   1   9 -10   27.62    2.28
  -1  -9 -10   25.05    2.41
  -1   9 -10   24.65    2.13
   1  -9 -10   22.23    2.25
   2   9 -10   20.07    2.04
  -2  -9 -10   18.34    2.41
  -2   9 -10   20.40    1.93
   2  -9 -10   17.76    2.32
   3   9 -10   44.77    3.07
  -3  -9 -10   42.08    3.33
   3  -9  10   45.59    3.30
   3  -9 -10   45.33    3.16
  -3   9 -10   38.93    2.79
   0  10 -10   45.62    3.01
   0 -10 -10   41.47    3.28
   0   0 -11    0.80    0.43
   0   0 -11    0.56    0.35
   1   0 -11   11.14    1.13
   1   0 -11   10.90    1.10
  -1   0 -11   11.23    1.00
  -1   0 -11   10.31    1.13
  -2   0 -11   21.95    1.72
   2   0 -11   20.01    1.59
   2   0 -11   17.98    1.46
  -2   0 -11   17.86    1.36
  -3   0 -11   21.15    1.87
   3   0 -11   20.21    1.59
   3   0 -11   19.94    1.69
   4   0 -11   96.70    4.04
   4   0 -11   91.02    4.19
  -4   0 -11   90.73    4.56
  -5   0 -11   31.90    2.71
   5   0 -11   29.55    2.33
   5   0 -11   32.05    2.20
   6   0 -11   68.35    3.56
  -6   0 -11   68.45    4.41
   6   0 -11   59.73    3.63
   0  -1 -11  189.05    6.15
   0   1 -11  192.48    6.03
   0  -1 -11  189.46    6.35
   0   1 -11  189.79    6.54
   1   1 -11   45.10    2.32
   1   1 -11   45.56    2.45
  -1  -1 -11   44.03    2.40
  -1  -1 -11   42.96    2.15
   1  -1 -11   45.73    2.31
   1  -1 -11   46.40    2.41
  -1   1 -11   45.29    2.49
  -1   1 -11   44.09    2.05
   2   1 -11  129.29    4.91
  -2  -1 -11  130.90    4.51
   2   1 -11  129.74    5.01
  -2  -1 -11  127.15    5.13
   2  -1 -11  137.23    5.03
  -2   1 -11  142.94    5.30
   2  -1 -11  139.96    4.88
  -3  -1 -11    3.57    0.98
   3   1 -11    4.56    0.93
   3   1 -11    5.10    1.03
   3  -1 -11    1.57    0.57
  -3   1 -11    2.24    0.83
   3  -1 -11    1.89    0.71
  -4  -1 -11   39.00    2.79
   4   1 -11   40.77    2.56
   4   1 -11   37.85    2.41
   4  -1 -11   35.58    2.44
  -4   1 -11   38.78    2.77
   4  -1 -11   35.82    2.18
   5   1 -11   30.40    2.35
  -5  -1 -11   28.63    2.63
   5   1 -11   28.26    2.19
  -5   1 -11   34.15    2.77
   5  -1 -11   32.31    2.42
  -6  -1 -11    0.84    0.86
   6   1 -11    0.99    0.70
   6   1 -11    0.43    0.62
  -6   1 -11    0.19    0.68
   6  -1 -11    0.56    0.66
   0   2 -11    1.01    0.51
   0  -2 -11    1.70    0.54
   0   2 -11    1.35    0.48
   0  -2 -11    1.68    0.60
   1   2 -11    6.66    1.12
  -1  -2 -11    7.87    1.09
   1   2 -11    6.98    1.05
  -1  -2 -11    8.23    1.17
   1  -2 -11   10.29    1.29
  -1   2 -11   10.98    1.46
   1  -2 -11   11.16    1.04
  -2  -2 -11   51.71    2.81
  -2  -2 -11   52.31    2.46
   2   2 -11   53.70    2.69
   2   2 -11   55.88    2.85
   2  -2 -11   46.63    2.34
   2  -2 -11   49.38    2.70
  -2   2 -11   47.89    2.76
  -3  -2 -11   44.72    2.86
   3   2 -11   48.43    2.73
  -3  -2 -11   49.14    2.42
   3   2 -11   48.02    2.71
   3  -2 -11   50.70    2.43
  -3   2 -11   45.85    2.82
   3  -2 -11   54.94    2.89
   4   2 -11  105.17    4.58
  -4  -2 -11   95.63    4.82
   4   2 -11  102.46    4.51
  -4   2 -11  104.32    4.88
   4  -2 -11  104.99    4.55
   5   2 -11   68.70    3.75
   5   2 -11   67.89    3.63
  -5  -2 -11   68.34    4.19
  -5   2 -11   71.09    4.13
   5  -2 -11   70.25    3.72
  -6  -2 -11   51.62    3.94
   6   2 -11   46.90    3.26
   6   2 -11   49.91    3.21
   6  -2 -11   59.26    3.50
  -6   2 -11   61.84    4.05
   0  -3 -11   58.56    2.70
   0   3 -11   60.59    2.61
   0   3 -11   61.50    3.10
   0  -3 -11   61.97    2.91
  -1  -3 -11   18.83    1.50
  -1  -3 -11   19.33    1.49
   1   3 -11   15.99    1.33
   1   3 -11   15.56    1.49
   1  -3 -11   14.24    1.18
  -1   3 -11   15.96    1.50
   1  -3 -11   17.76    1.51
   2   3 -11   37.77    2.26
  -2  -3 -11   34.33    2.29
   2   3 -11   34.43    2.29
  -2  -3 -11   37.10    2.15
  -2   3 -11   41.08    2.46
   2  -3 -11   42.66    2.44
   3   3 -11    5.70    1.14
  -3  -3 -11    5.85    1.26
  -3  -3 -11    6.06    1.04
   3  -3 -11   10.46    1.52
  -3   3 -11   11.30    1.62
   4   3 -11   11.43    1.66
  -4  -3 -11   11.41    1.81
  -4   3 -11    6.72    1.35
   4  -3 -11    8.63    1.47
  -5  -3 -11   48.02    3.51
   5   3 -11   46.74    3.01
  -5   3 -11   44.05    3.23
   5  -3 -11   49.02    3.05
   6   3 -11   40.42    2.91
  -6  -3 -11   43.21    3.55
  -6   3 -11   36.25    3.13
   6  -3 -11   37.03    2.78
   0   4 -11   16.13    1.53
   0   4 -11   15.86    1.36
   0  -4 -11   13.92    1.39
  -1  -4 -11  115.96    4.41
   1   4 -11  115.85    4.70
  -1  -4 -11  116.26    4.46
   1  -4 -11  102.72    4.40
  -1   4 -11   99.16    4.50
  -2  -4 -11   98.58    4.34
  -2  -4 -11  102.43    4.20
   2   4 -11  107.21    4.52
   2  -4 -11  105.34    4.41
  -2   4 -11   97.72    4.40
  -3  -4 -11   86.11    4.29
  -3  -4 -11   95.17    4.00
   3   4 -11   90.98    4.23
  -3   4 -11   87.65    4.21
   3  -4 -11   92.59    4.17
  -4  -4 -11   26.05    2.37
   4   4 -11   25.32    2.17
  -4  -4 -11   27.32    2.10
  -4   4 -11   25.13    2.24
   4  -4 -11   23.38    2.02
   5   4 -11    2.86    0.97
  -5  -4 -11    3.61    1.23
   5  -4 -11    3.50    1.07
  -5   4 -11    4.66    1.27
   0   5 -11    7.51    1.26
   0  -5 -11    5.21    1.07
   1   5 -11    8.54    1.41
  -1  -5 -11    8.27    1.31
  -1   5 -11    9.91    1.52
   1  -5 -11   10.42    1.52
   2   5 -11   24.56    2.01
  -2  -5 -11   24.94    1.96
   2  -5 -11   24.93    2.01
  -2   5 -11   25.50    2.05
  -3  -5 -11   33.81    2.51
   3   5 -11   35.40    2.51
  -3  -5 -11   34.56    2.39
   3  -5 -11   37.61    2.54
  -3   5 -11   37.11    2.57
   4   5 -11    1.84    0.84
  -4  -5 -11    2.56    0.90
  -4  -5 -11    1.33    0.77
   4  -5 -11    2.70    0.98
  -4   5 -11    2.87    0.95
  -5  -5 -11   24.41    2.52
   5   5 -11   22.35    2.17
   5  -5 -11   19.57    2.02
  -5   5 -11   15.61    2.23
   0   6 -11   80.50    3.89
   0  -6 -11   73.06    3.71
   1   6 -11  172.31    6.51
  -1  -6 -11  172.95    6.37
  -1   6 -11  169.11    6.47
   1  -6 -11  160.36    6.27
  -2  -6 -11   25.93    2.12
   2   6 -11   23.98    2.06
   2  -6 -11   21.56    1.99
  -2   6 -11   26.71    2.15
  -3  -6 -11   43.03    2.83
   3   6 -11   41.07    2.80
   3  -6 -11   41.03    2.78
  -3   6 -11   41.86    2.80
  -4  -6 -11    9.31    1.61
   4   6 -11   10.55    1.76
   4  -6 -11    8.43    1.49
  -4   6 -11    8.92    1.61
   5   6 -11    9.51    1.76
  -5  -6 -11    7.70    1.80
  -5   6 -11   11.21    1.94
   5  -6 -11    8.47    1.58
   0   7 -11    1.94    0.81
   0  -7 -11    1.14    0.72
  -1  -7 -11    2.18    0.88
   1   7 -11    4.69    1.11
  -1   7 -11    2.30    0.82
   1  -7 -11    2.87    0.94
  -2  -7 -11    1.80    0.88
   2   7 -11    2.04    0.86
  -2   7 -11    3.68    1.03
   2  -7 -11    1.84    0.83
   3   7 -11   28.08    2.37
  -3  -7 -11   30.11    2.52
  -3   7 -11   30.31    2.42
   3  -7 -11   33.28    2.57
  -4  -7 -11    6.24    1.49
   4   7 -11    8.84    1.60
  -4   7 -11    8.46    1.54
   4  -7 -11    7.80    1.48
   0   8 -11   10.25    1.64
   0  -8 -11   11.25    1.79
   1   8 -11  103.33    4.90
  -1  -8 -11  104.21    5.05
  -1   8 -11  110.27    4.97
   1  -8 -11  108.80    5.04
  -2  -8 -11   20.34    2.19
   2   8 -11   20.06    2.02
  -2   8 -11   19.67    1.96
   2  -8 -11   16.48    2.14
  -3  -8 -11   24.26    2.49
   3   8 -11   20.73    2.15
   3  -8 -11   23.85    2.28
  -3   8 -11   24.03    2.19
   0   9 -11   18.15    1.94
   0  -9 -11   17.70    2.33
   1   9 -11   11.89    1.81
  -1  -9 -11   11.99    2.01
  -1   9 -11    9.70    1.68
   1  -9 -11    8.37    1.68
   0   0 -12  123.89    4.86
   0   0 -12  128.34    4.56
  -1   0 -12   36.87    2.26
   1   0 -12   33.98    2.13
  -1   0 -12   34.22    1.89
   1   0 -12   34.24    2.10
   2   0 -12   18.49    1.54
   2   0 -12   20.45    1.67
  -2   0 -12   18.39    1.68
   3   0 -12    7.90    1.25
   3   0 -12    7.07    1.29
  -3   0 -12    8.50    1.49
   4   0 -12   33.70    2.43
   4   0 -12   32.47    2.18
  -4   0 -12   30.13    2.55
  -5   0 -12   14.96    2.22
   5   0 -12   14.19    1.54
   5   0 -12   15.85    2.08
   6   0 -12   29.75    2.54
  -6   0 -12   25.33    2.77
   0   1 -12    0.26    0.36
   0   1 -12    0.98    0.56
   0  -1 -12    1.43    0.54
   0  -1 -12    1.19    0.52
  -1  -1 -12   12.31    1.15
   1   1 -12   12.79    1.32
  -1  -1 -12   13.35    1.35
   1   1 -12   12.37    1.23
  -1   1 -12   12.87    1.37
   1  -1 -12   13.68    1.28
  -1   1 -12   12.13    1.08
   1  -1 -12   12.79    1.29
   2   1 -12   12.97    1.34
  -2  -1 -12   13.32    1.71
   2   1 -12   12.29    1.31
  -2  -1 -12   13.08    1.15
   2  -1 -12    8.95    1.22
  -2   1 -12    8.16    1.35
   2  -1 -12    9.04    1.35
   3   1 -12   73.24    3.49
  -3  -1 -12   72.25    3.81
   3   1 -12   66.63    3.44
   3  -1 -12   74.03    3.59
   3  -1 -12   71.80    3.28
  -3   1 -12   74.78    3.84
   4   1 -12   88.20    4.24
   4   1 -12   96.23    4.22
  -4  -1 -12   93.80    4.73
  -4   1 -12   88.61    4.61
   4  -1 -12   91.47    4.31
   4  -1 -12   90.72    3.94
   5   1 -12   34.58    2.45
   5   1 -12   32.34    2.51
  -5  -1 -12   31.48    2.81
  -5   1 -12   30.28    2.74
   5  -1 -12   29.18    2.40
  -6  -1 -12   71.63    4.74
   6   1 -12   71.30    4.09
   6   1 -12   73.72    3.93
   6  -1 -12   75.05    4.13
  -6   1 -12   77.06    4.80
   0   2 -12   74.38    3.61
   0  -2 -12   78.62    3.41
   0   2 -12   79.84    3.20
   0  -2 -12   76.76    3.39
  -1  -2 -12   60.43    2.99
   1   2 -12   58.90    2.83
  -1  -2 -12   60.85    2.83
   1   2 -12   61.97    3.13
   1  -2 -12   57.19    2.94
  -1   2 -12   58.02    3.10
   1  -2 -12   55.71    2.73
  -2  -2 -12   58.37    2.78
  -2  -2 -12   59.12    3.20
   2   2 -12   63.06    3.09
   2   2 -12   62.28    3.19
  -2   2 -12   62.35    3.30
   2  -2 -12   64.44    2.89
   2  -2 -12   60.07    3.12
   3   2 -12    8.19    1.32
   3   2 -12    6.52    1.19
  -3  -2 -12    8.61    1.52
   3  -2 -12    7.39    1.34
  -3   2 -12    5.85    1.27
   4   2 -12   21.36    1.90
   4   2 -12   21.34    1.94
  -4  -2 -12   22.20    2.19
   4  -2 -12   19.90    1.89
  -4   2 -12   19.40    1.99
  -5  -2 -12    4.24    1.34
   5   2 -12    3.24    0.97
   5   2 -12    2.71    0.95
  -5   2 -12    4.82    1.39
   5  -2 -12    4.01    1.13
   0   3 -12   32.20    2.20
   0  -3 -12   32.88    1.96
   0   3 -12   30.68    1.82
   0  -3 -12   30.80    2.02
  -1  -3 -12   46.48    2.52
   1   3 -12   44.72    2.41
  -1  -3 -12   47.11    2.62
   1   3 -12   45.64    2.73
  -1   3 -12   45.02    2.74
   1  -3 -12   46.24    2.61
   2   3 -12   42.06    2.45
   2   3 -12   43.46    2.64
  -2  -3 -12   40.47    2.57
  -2  -3 -12   41.40    2.36
  -2   3 -12   38.05    2.56
   2  -3 -12   38.27    2.48
  -3  -3 -12   89.56    4.48
  -3  -3 -12   98.16    4.01
   3   3 -12   92.18    4.17
   3   3 -12   90.27    4.29
   3  -3 -12   96.94    4.34
  -3   3 -12   98.42    4.57
   4   3 -12   26.00    2.14
   4   3 -12   22.72    2.08
  -4  -3 -12   22.87    2.30
  -4   3 -12   26.51    2.35
   4  -3 -12   26.24    2.19
   5   3 -12   21.80    2.15
   5   3 -12   22.91    2.15
  -5  -3 -12   24.90    2.57
  -5   3 -12   18.09    2.44
   5  -3 -12   21.06    2.10
   0   4 -12  103.96    4.62
   0  -4 -12  104.12    4.36
   1   4 -12   16.28    1.63
   1   4 -12   15.27    1.35
  -1  -4 -12   14.73    1.47
   1  -4 -12   10.56    1.49
  -1   4 -12   13.62    1.79
   2   4 -12   39.92    2.62
  -2  -4 -12   39.00    2.40
   2   4 -12   36.32    2.32
  -2  -4 -12   35.20    2.44
  -2   4 -12   40.24    2.62
   2  -4 -12   38.06    2.50
  -3  -4 -12   31.39    2.47
  -3  -4 -12   34.10    2.29
   3   4 -12   32.18    2.42
  -3   4 -12   31.91    2.42
   3  -4 -12   34.51    2.48
   4   4 -12    7.70    1.43
  -4  -4 -12    8.49    1.70
   4  -4 -12    5.12    1.22
  -4   4 -12    6.07    1.42
   5   4 -12   32.93    2.64
  -5  -4 -12   31.42    2.91
  -5   4 -12   32.95    2.84
   5  -4 -12   31.01    2.52
   0   5 -12    7.47    1.35
   0  -5 -12    7.56    1.31
   1   5 -12   52.62    2.84
  -1  -5 -12   61.90    3.19
   1   5 -12   57.74    3.26
  -1   5 -12   57.02    3.24
   1  -5 -12   55.12    3.14
   2   5 -12   89.70    4.39
  -2  -5 -12   89.06    4.17
  -2   5 -12   99.95    4.54
   2  -5 -12   95.01    4.38
  -3  -5 -12   58.21    3.24
   3   5 -12   52.08    3.23
   3  -5 -12   56.76    3.30
  -3   5 -12   55.20    3.34
  -4  -5 -12   18.70    2.52
   4   5 -12   19.32    1.99
   4  -5 -12   15.69    2.12
  -4   5 -12   18.91    2.05
   0  -6 -12    3.16    0.94
   0   6 -12    3.92    0.99
   1   6 -12   25.84    2.19
  -1  -6 -12   31.02    2.32
  -1   6 -12   27.10    2.22
   1  -6 -12   25.39    2.17
   2   6 -12   27.65    2.28
  -2  -6 -12   26.19    2.21
  -2   6 -12   23.71    2.15
   2  -6 -12   24.21    2.17
   3   6 -12   28.03    2.35
  -3  -6 -12   21.21    2.08
  -3   6 -12   24.42    2.22
   3  -6 -12   23.66    2.18
   4   6 -12    3.71    1.14
  -4  -6 -12    2.72    1.07
   4  -6 -12    3.92    1.15
  -4   6 -12    2.48    1.00
   0  -7 -12   67.40    3.79
   0   7 -12   71.40    3.87
   1   7 -12   67.37    3.70
  -1  -7 -12   70.66    3.82
   1  -7 -12   57.73    3.51
  -1   7 -12   55.41    3.42
   2   7 -12   28.09    2.39
  -2  -7 -12   28.62    2.51
   2  -7 -12   32.01    2.56
  -2   7 -12   31.54    2.51
  -3  -7 -12   10.98    1.82
   3   7 -12    9.93    1.68
   3  -7 -12   12.96    1.95
  -3   7 -12   16.05    2.16
   0  -8 -12   42.80    3.06
   0   8 -12   37.45    2.82
  -1  -8 -12   15.75    2.21
   1   8 -12   17.73    1.93
  -1   8 -12   10.72    1.73
   1  -8 -12   10.46    1.78
  -2  -8 -12    3.52    1.26
   2   8 -12    3.56    1.09
   2  -8 -12    5.60    1.38
  -2   8 -12    7.69    1.53
   0   0 -13    1.22    0.52
   0   0 -13    0.72    0.53
   1   0 -13   25.73    1.92
  -1   0 -13   28.98    1.78
   1   0 -13   26.25    1.91
  -1   0 -13   27.12    2.03
   2   0 -13    5.66    1.12
   2   0 -13    6.80    1.18
  -2   0 -13    5.55    1.14
   3   0 -13   45.66    2.60
   3   0 -13   39.49    2.61
  -3   0 -13   36.22    2.72
   4   0 -13   51.10    3.15
   4   0 -13   54.45    3.01
  -4   0 -13   52.83    3.50
  -5   0 -13   15.34    2.37
   5   0 -13   14.87    2.07
   0   1 -13  192.12    6.85
   0  -1 -13  189.25    6.66
   0   1 -13  190.56    6.26
   0  -1 -13  187.77    6.38
   1   1 -13   25.04    1.94
  -1  -1 -13   21.73    1.63
   1   1 -13   23.07    1.75
  -1  -1 -13   22.07    1.82
   1  -1 -13   27.83    1.90
   1  -1 -13   25.94    1.88
  -1   1 -13   25.82    1.99
  -2  -1 -13   92.39    4.29
   2   1 -13   89.39    4.00
   2   1 -13   89.03    4.06
   2  -1 -13   91.16    4.09
  -2   1 -13   93.05    4.31
   2  -1 -13   88.51    3.88
   3   1 -13   17.31    1.71
   3   1 -13   16.20    1.61
  -3  -1 -13   17.10    1.86
   3  -1 -13   14.04    1.78
   3  -1 -13   15.84    1.48
  -3   1 -13   16.55    2.14
   4   1 -13   23.55    2.11
   4   1 -13   25.68    2.07
  -4  -1 -13   23.55    2.33
  -4   1 -13   24.31    2.36
   4  -1 -13   24.56    2.14
  -5  -1 -13    9.33    1.91
   5   1 -13   10.66    1.75
   5   1 -13    9.70    1.59
   5  -1 -13    7.67    1.45
  -5   1 -13    7.17    1.64
   0   2 -13   61.34    2.81
   0  -2 -13   60.68    3.01
   0  -2 -13   60.27    2.99
   0   2 -13   54.53    3.10
  -1  -2 -13    0.54    0.53
   1   2 -13    1.28    0.64
   1   2 -13    0.85    0.52
  -1  -2 -13    0.43    0.43
   1  -2 -13    0.39    0.48
   1  -2 -13    0.31    0.42
  -1   2 -13    0.56    0.54
   2   2 -13   24.24    1.90
   2   2 -13   24.44    1.99
  -2  -2 -13   24.70    1.74
  -2  -2 -13   24.64    2.04
  -2   2 -13   23.63    2.04
   2  -2 -13   24.16    1.96
   3   2 -13   47.79    2.92
   3   2 -13   50.47    2.93
  -3  -2 -13   47.30    3.12
  -3   2 -13   43.90    2.99
   3  -2 -13   46.86    2.92
  -4  -2 -13   40.35    3.09
   4   2 -13   42.33    2.79
   4   2 -13   37.68    2.73
   4  -2 -13   41.49    2.84
  -4   2 -13   47.92    3.26
   5   2 -13   29.97    2.53
   5   2 -13   29.66    2.40
  -5  -2 -13   26.64    2.75
  -5   2 -13   29.56    2.82
   5  -2 -13   31.97    2.58
   0   3 -13   60.45    3.32
   0  -3 -13   57.15    3.01
   1   3 -13   31.21    2.04
  -1  -3 -13   34.92    2.30
  -1  -3 -13   34.21    2.20
   1   3 -13   31.72    2.32
   1  -3 -13   29.08    2.14
  -1   3 -13   29.38    2.28
  -2  -3 -13   29.84    2.04
  -2  -3 -13   30.38    2.28
   2   3 -13   26.34    2.13
   2   3 -13   30.09    2.12
  -2   3 -13   27.18    2.24
   2  -3 -13   25.26    2.11
   3   3 -13    6.15    1.32
  -3  -3 -13    8.20    1.52
   3   3 -13    7.74    1.33
  -3   3 -13    5.90    1.36
   3  -3 -13    6.82    1.34
   4   3 -13   13.97    1.93
   4   3 -13   14.90    1.97
  -4  -3 -13   16.26    2.29
   4  -3 -13   13.14    1.87
  -4   3 -13   13.79    2.09
  -5  -3 -13   23.23    2.60
   5   3 -13   23.01    2.18
   5   3 -13   21.52    2.18
   5  -3 -13   25.93    2.37
  -5   3 -13   24.57    2.57
   0  -4 -13   62.36    3.27
   0   4 -13   63.38    3.47
   1   4 -13   30.38    2.34
   1   4 -13   30.68    2.04
  -1  -4 -13   32.31    2.24
  -1   4 -13   30.95    2.39
   1  -4 -13   31.29    2.27
   2   4 -13   54.30    3.20
   2   4 -13   52.88    2.90
  -2  -4 -13   55.85    3.01
  -2   4 -13   51.76    3.19
   2  -4 -13   46.83    2.96
   3   4 -13   33.16    2.39
  -3  -4 -13   37.41    2.50
  -3  -4 -13   32.22    2.61
   3   4 -13   32.71    2.53
   3  -4 -13   35.24    2.61
  -3   4 -13   37.78    2.76
  -4  -4 -13    2.80    1.09
   4   4 -13    3.20    1.05
   4   4 -13    3.48    1.07
   4  -4 -13    4.14    1.17
  -4   4 -13    5.54    1.40
   0  -5 -13   -0.20    0.40
   0   5 -13   -0.06    0.49
   1   5 -13    4.90    1.17
  -1  -5 -13    4.01    1.05
   1  -5 -13    4.22    1.05
  -1   5 -13    3.60    0.99
   2   5 -13   13.92    1.73
  -2  -5 -13   12.50    1.72
   2   5 -13   11.77    1.72
  -2   5 -13    9.64    1.55
   2  -5 -13   12.65    1.82
  -3  -5 -13   31.11    2.44
   3   5 -13   38.74    2.81
   3  -5 -13   38.40    2.75
  -3   5 -13   35.51    2.73
   4   5 -13   10.17    1.72
   4  -5 -13    4.07    1.19
  -4   5 -13    7.16    1.51
   0  -6 -13    7.81    1.50
   0   6 -13    6.22    1.29
   1   6 -13   62.62    3.62
  -1  -6 -13   57.94    3.42
  -1   6 -13   64.65    3.68
   1  -6 -13   58.88    3.48
   2   6 -13   37.02    2.76
  -2  -6 -13   39.43    2.80
  -2   6 -13   37.61    2.77
   2  -6 -13   34.30    2.69
   3   6 -13   29.90    2.59
  -3  -6 -13   33.40    2.65
  -3   6 -13   39.01    2.88
   3  -6 -13   34.42    2.69
   0  -7 -13    0.51    0.68
   0   7 -13    0.06    0.52
   1   7 -13   17.74    1.98
  -1  -7 -13   16.82    2.24
   1  -7 -13   21.42    2.16
  -1   7 -13   20.93    2.11
   2   7 -13    5.04    1.26
  -2  -7 -13    3.83    1.21
   2  -7 -13    6.06    1.40
  -2   7 -13    5.68    1.35
   0   0 -14  108.29    4.66
   0   0 -14  106.93    4.31
   1   0 -14   64.55    3.34
  -1   0 -14   67.39    3.51
   1   0 -14   62.96    3.21
   2   0 -14   56.01    3.05
   2   0 -14   55.14    3.07
  -2   0 -14   51.25    3.17
  -3   0 -14   12.97    1.95
   3   0 -14   13.09    1.46
   3   0 -14    9.14    1.53
  -4   0 -14   35.54    2.99
   4   0 -14   38.99    2.79
   4   0 -14   40.35    2.77
   0  -1 -14    1.85    0.67
   0  -1 -14    2.02    0.72
   0   1 -14    3.44    0.91
   0   1 -14    2.14    0.66
  -1  -1 -14   17.54    1.54
   1   1 -14   18.56    1.77
   1   1 -14   17.61    1.60
  -1  -1 -14   17.23    1.68
   1  -1 -14   20.77    1.74
   1  -1 -14   19.45    1.70
  -1   1 -14   20.59    1.86
   2   1 -14   13.84    1.53
   2   1 -14   14.09    1.75
  -2  -1 -14   13.09    1.81
  -2   1 -14   12.33    1.81
   2  -1 -14   15.15    1.90
   2  -1 -14   11.61    1.50
   3   1 -14   22.94    1.98
  -3  -1 -14   22.49    2.19
   3   1 -14   20.53    1.92
  -3   1 -14   18.56    2.04
   3  -1 -14   19.93    1.95
   4   1 -14   12.15    1.75
   4   1 -14   13.06    1.97
  -4  -1 -14   11.58    2.03
   4  -1 -14   15.08    2.04
  -4   1 -14   18.31    2.51
   0   2 -14   53.64    3.13
   0  -2 -14   53.28    2.87
   0  -2 -14   52.77    2.90
   1   2 -14   39.91    2.40
  -1  -2 -14   44.82    2.53
   1   2 -14   39.93    2.67
  -1  -2 -14   39.75    2.58
   1  -2 -14   37.85    2.49
  -1   2 -14   37.79    2.65
   2   2 -14   85.48    4.19
  -2  -2 -14   84.92    4.27
   2   2 -14   83.03    3.93
   2  -2 -14   96.72    4.27
  -2   2 -14   85.15    4.32
   3   2 -14   41.47    2.78
  -3  -2 -14   45.32    3.15
   3   2 -14   46.19    2.89
  -3   2 -14   43.13    3.05
   3  -2 -14   39.96    2.80
   4   2 -14   21.36    2.08
  -4  -2 -14   20.18    2.29
   4   2 -14   21.44    2.09
   4  -2 -14   20.39    2.09
  -4   2 -14   24.74    2.46
   0  -3 -14   36.95    2.46
   0   3 -14   39.40    2.72
   1   3 -14   35.30    2.28
  -1  -3 -14   38.86    2.46
   1   3 -14   35.65    2.60
   1  -3 -14   39.66    2.60
  -1   3 -14   39.19    2.74
   2   3 -14   13.87    1.74
   2   3 -14   10.82    1.62
  -2  -3 -14   12.37    1.81
  -2  -3 -14   13.67    1.47
   2  -3 -14   13.25    1.81
  -2   3 -14   13.19    1.96
   3   3 -14    0.95    0.66
   3   3 -14    3.04    1.03
  -3  -3 -14    1.20    0.82
  -3   3 -14    3.23    1.06
   3  -3 -14    2.00    0.90
  -4  -3 -14   11.40    2.05
   4   3 -14   13.05    1.91
   4   3 -14   12.81    1.97
  -4   3 -14   11.71    2.02
   4  -3 -14   10.15    1.69
   0   4 -14   76.81    4.02
   0  -4 -14   69.90    3.66
  -1  -4 -14   10.56    1.58
   1   4 -14    9.01    1.61
   1  -4 -14   10.62    1.64
  -1   4 -14    8.51    1.53
   2   4 -14   16.03    2.10
   2   4 -14   13.03    1.70
  -2  -4 -14   13.03    1.73
   2  -4 -14   14.00    1.91
  -2   4 -14   15.30    2.14
   3   4 -14   67.20    3.82
   3   4 -14   64.48    3.55
   3  -4 -14   64.47    3.74
  -3   4 -14   69.61    4.01
   0  -5 -14   24.38    2.15
   0   5 -14   24.88    2.28
   1   5 -14   21.04    2.11
  -1  -5 -14   22.58    2.02
  -1   5 -14   19.19    2.04
   1  -5 -14   18.83    1.95
   2   5 -14   15.16    2.05
  -2  -5 -14   17.41    1.84
  -2   5 -14   14.45    2.12
   2  -5 -14   13.41    1.99
   3   5 -14   22.77    2.26
   3   5 -14   24.48    2.11
   3  -5 -14   16.81    2.20
  -3   5 -14   23.12    2.30
   0  -6 -14    0.11    0.61
   0   6 -14   -0.11    0.53
   1   6 -14   10.66    1.76
  -1  -6 -14   12.26    1.82
   1  -6 -14   10.16    1.73
  -1   6 -14   13.39    2.08
  -2  -6 -14    9.53    1.68
   2   6 -14    9.49    1.69
  -2   6 -14   13.20    2.08
   2  -6 -14    8.40    1.62
   0   0 -15    1.03    0.62
   0   0 -15    1.00    0.56
  -1   0 -15    5.17    1.19
   1   0 -15    7.12    1.26
   1   0 -15    8.40    1.40
   2   0 -15   45.02    2.77
   2   0 -15   44.54    2.84
  -2   0 -15   41.53    2.94
   3   0 -15    4.45    1.08
   3   0 -15    3.47    1.05
  -3   0 -15    3.60    1.14
   0  -1 -15  104.22    4.39
   0  -1 -15  100.31    4.56
   0   1 -15  103.12    4.75
   1   1 -15   70.30    3.49
  -1  -1 -15   69.88    3.74
   1   1 -15   70.11    3.74
  -1   1 -15   74.58    3.94
   1  -1 -15   72.97    3.66
   1  -1 -15   73.49    3.65
   2   1 -15   62.54    3.41
  -2  -1 -15   64.31    3.75
   2   1 -15   62.94    3.53
  -2   1 -15   66.20    3.80
   2  -1 -15   66.07    3.53
   3   1 -15   40.94    2.79
   3   1 -15   40.63    2.81
  -3  -1 -15   40.37    3.07
   3  -1 -15   39.63    2.82
  -3   1 -15   39.70    3.09
   0   2 -15    2.15    0.88
   0  -2 -15    2.79    0.88
  -1  -2 -15   13.16    1.66
   1   2 -15   13.34    1.67
   1   2 -15   10.90    1.67
  -1  -2 -15   12.92    1.74
  -1   2 -15   15.76    1.77
   1  -2 -15   14.75    1.81
   2   2 -15    9.35    1.51
  -2  -2 -15    5.04    1.25
   2   2 -15    8.33    1.46
  -2   2 -15    8.40    1.58
   2  -2 -15   10.34    1.62
   3   2 -15    7.16    1.40
  -3  -2 -15    9.08    1.76
   3   2 -15    8.42    1.56
   3  -2 -15    4.47    1.20
  -3   2 -15    5.53    1.44
   0  -3 -15   28.17    2.20
   0   3 -15   26.50    2.32
   1   3 -15   26.48    2.28
  -1  -3 -15   26.73    2.12
  -1   3 -15   26.65    2.35
   1  -3 -15   25.48    2.16
   2   3 -15   14.71    1.91
   2   3 -15   16.69    1.86
  -2   3 -15   16.89    2.20
   2  -3 -15   17.00    2.17
   3   3 -15   20.00    2.01
   3   3 -15   20.69    2.08
  -3  -3 -15   19.78    2.17
  -3   3 -15   21.39    2.27
   3  -3 -15   21.09    2.15
   0   4 -15   25.34    2.31
   0  -4 -15   22.57    2.06
  -1  -4 -15   28.48    2.27
   1   4 -15   28.00    2.43
  -1   4 -15   25.60    2.37
   1  -4 -15   24.36    2.24
   2   4 -15    9.67    1.74
   2  -4 -15    5.38    1.31
  -2   4 -15    7.45    1.56
   0  -5 -15    3.18    1.01
   0   5 -15    1.83    0.92
   1   5 -15    5.16    1.35
  -1  -5 -15    3.18    1.03
  -1   5 -15    2.65    1.04
   1  -5 -15    4.29    1.23
   0   0 -16   73.66    3.89
   1   0 -16   16.50    1.70
  -1   0 -16   20.02    2.00
   1   0 -16   17.93    1.88
  -2   0 -16    5.36    1.31
   2   0 -16    6.34    1.32
   2   0 -16    6.07    1.27
   0  -1 -16    2.62    0.89
   0  -1 -16    2.14    0.77
   0   1 -16    2.43    0.93
  -1  -1 -16   14.09    1.94
   1   1 -16   13.35    1.92
   1   1 -16   13.47    1.89
  -1   1 -16   14.41    2.05
   1  -1 -16   16.09    1.71
   2   1 -16    4.22    1.10
  -2  -1 -16    5.17    1.38
   2   1 -16    5.18    1.21
   2  -1 -16    7.25    1.41
  -2   1 -16    5.38    1.35
   0  -2 -16   28.88    2.25
   0   2 -16   30.99    2.54
   1   2 -16   53.44    3.32
  -1   2 -16   47.17    3.25
   1  -2 -16   48.03    3.05
   0   3 -16   54.60    3.52
   0  -3 -16   53.04    3.21
   1   3 -16   34.27    2.76
   1  -3 -16   35.22    2.61
  -1   3 -16   34.77    2.77
   0   0   0    0.00    0.00


;
_shelx_hkl_checksum              68851
loop_
_space_group_symop_operation_xyz
'x, y, z'
'-x+1/2, -y, z+1/2'
'-x, y+1/2, -z+1/2'
'x+1/2, -y+1/2, -z'
loop_
_atom_site_label
_atom_site_type_symbol
_atom_site_fract_x
_atom_site_fract_y
_atom_site_fract_z
_atom_site_U_iso_or_equiv
_atom_site_adp_type
_atom_site_occupancy
_atom_site_site_symmetry_order
_atom_site_calc_flag
_atom_site_refinement_flags_posn
_atom_site_refinement_flags_adp
Cu1 Cu 0.71245(4) 0.70968(3) 0.49248(2) 0.00710(8) Uani 1 1 d . .
F1 F 0.6605(2) 0.85152(18) -0.03596(12) 0.0196(4) Uani 1 1 d . .
O1 O 0.7954(3) 0.79528(18) 0.35456(12) 0.0112(3) Uani 1 1 d . .
O2 O 1.1220(3) 0.86214(18) 0.36899(13) 0.0110(4) Uani 1 1 d . .
N1 N 1.1145(3) 1.0146(2) 0.05896(17) 0.0106(4) Uani 1 1 d . .
N2 N 0.9361(3) 0.8107(2) 0.56858(16) 0.0088(4) Uani 1 1 d . .
N3 N 0.9219(3) 0.8315(2) 0.66477(18) 0.0106(5) Uani 1 1 d . .
N4 N 0.9065(4) 0.8542(3) 0.75352(18) 0.0189(5) Uani 1 1 d . .
C1 C 0.9577(4) 0.8458(3) 0.31993(19) 0.0082(5) Uani 1 1 d . .
C2 C 0.9570(4) 0.8892(2) 0.2036(2) 0.0086(5) Uani 1 1 d . .
C3 C 1.1108(4) 0.9722(3) 0.1617(2) 0.0104(5) Uani 1 1 d . .
H3 H 1.218196 1.000235 0.207375 0.012 Uiso 1 1 calc R U
C4 C 0.7992(4) 0.8474(2) 0.13746(19) 0.0110(5) Uani 1 1 d . .
H4 H 0.689350 0.792785 0.163811 0.013 Uiso 1 1 calc R U
C5 C 0.8093(4) 0.8886(3) 0.0318(2) 0.0117(5) Uani 1 1 d . .
C6 C 0.9662(3) 0.9715(2) -0.0055(2) 0.0103(5) Uani 1 1 d . .
H6 H 0.968643 0.998339 -0.078639 0.012 Uiso 1 1 calc R U
loop_
_atom_site_aniso_label
_atom_site_aniso_U_11
_atom_site_aniso_U_22
_atom_site_aniso_U_33
_atom_site_aniso_U_23
_atom_site_aniso_U_13
_atom_site_aniso_U_12
Cu1 0.00638(13) 0.01107(13) 0.00386(13) 0.00098(12) 0.00002(11) -0.00025(11)
F1 0.0201(9) 0.0286(8) 0.0101(7) 0.0027(7) -0.0066(6) -0.0114(7)
O1 0.0109(8) 0.0162(8) 0.0066(7) 0.0023(7) -0.0008(7) -0.0028(9)
O2 0.0090(9) 0.0168(8) 0.0072(8) 0.0028(7) -0.0007(7) 0.0006(8)
N1 0.0113(11) 0.0124(10) 0.0082(10) 0.0018(8) 0.0014(9) -0.0007(9)
N2 0.0073(10) 0.0148(11) 0.0044(9) -0.0017(8) -0.0003(7) 0.0000(9)
N3 0.0059(10) 0.0133(11) 0.0126(11) -0.0001(9) 0.0000(9) 0.0018(8)
N4 0.0162(12) 0.0315(13) 0.0091(11) -0.0069(11) -0.0014(9) 0.0028(11)
C1 0.0114(12) 0.0075(11) 0.0058(11) 0.0004(9) -0.0001(10) 0.0017(10)
C2 0.0112(13) 0.0078(11) 0.0069(11) 0.0015(10) 0.0005(10) 0.0018(10)
C3 0.0104(12) 0.0135(11) 0.0073(11) 0.0004(10) -0.0022(10) -0.0006(10)
C4 0.0115(12) 0.0110(10) 0.0105(11) 0.0019(9) 0.0018(11) -0.0026(10)
C5 0.0128(13) 0.0118(11) 0.0103(11) -0.0028(9) -0.0044(10) -0.0004(10)
C6 0.0152(12) 0.0103(9) 0.0054(11) -0.0017(11) 0.0016(11) 0.0012(9)
loop_
_atom_type_symbol
_atom_type_description
_atom_type_scat_dispersion_real
_atom_type_scat_dispersion_imag
_atom_type_scat_source
C C 0.0033 0.0016 'International Tables Vol C Tables 4.2.6.8 and 6.1.1.4'
H H 0.0000 0.0000 'International Tables Vol C Tables 4.2.6.8 and 6.1.1.4'
N N 0.0061 0.0033 'International Tables Vol C Tables 4.2.6.8 and 6.1.1.4'
O O 0.0106 0.0060 'International Tables Vol C Tables 4.2.6.8 and 6.1.1.4'
F F 0.0171 0.0103 'International Tables Vol C Tables 4.2.6.8 and 6.1.1.4'
Cu Cu 0.3201 1.2651 'International Tables Vol C Tables 4.2.6.8 and 6.1.1.4'
loop_
_geom_angle_atom_site_label_1
_geom_angle_atom_site_label_2
_geom_angle_atom_site_label_3
_geom_angle
_geom_angle_site_symmetry_1
_geom_angle_site_symmetry_3
O2 Cu1 O1 176.03(7) 4_466 .
O2 Cu1 N2 91.46(8) 4_466 4_466
O1 Cu1 N2 87.69(8) . 4_466
O2 Cu1 N2 88.23(8) 4_466 .
O1 Cu1 N2 90.92(8) . .
N2 Cu1 N2 155.22(5) 4_466 .
O2 Cu1 N1 97.28(7) 4_466 3_745
O1 Cu1 N1 86.67(8) . 3_745
N2 Cu1 N1 106.16(8) 4_466 3_745
N2 Cu1 N1 98.44(8) . 3_745
C1 O1 Cu1 133.89(16) . .
C1 O2 Cu1 130.92(17) . 4_566
C6 N1 C3 118.3(2) . .
C6 N1 Cu1 116.66(16) . 3_755
C3 N1 Cu1 121.52(17) . 3_755
N3 N2 Cu1 117.61(18) . 4_566
N3 N2 Cu1 119.17(18) . .
Cu1 N2 Cu1 116.83(10) 4_566 .
N4 N3 N2 178.2(3) . .
O1 C1 O2 128.3(2) . .
O1 C1 C2 115.7(2) . .
O2 C1 C2 116.0(2) . .
C3 C2 C4 119.1(2) . .
C3 C2 C1 121.0(2) . .
C4 C2 C1 119.9(2) . .
N1 C3 C2 122.8(2) . .
N1 C3 H3 118.6 . .
C2 C3 H3 118.6 . .
C5 C4 C2 117.0(2) . .
C5 C4 H4 121.5 . .
C2 C4 H4 121.5 . .
F1 C5 C4 119.7(2) . .
F1 C5 C6 118.9(2) . .
C4 C5 C6 121.3(2) . .
N1 C6 C5 121.4(2) . .
N1 C6 H6 119.3 . .
C5 C6 H6 119.3 . .
loop_
_geom_bond_atom_site_label_1
_geom_bond_atom_site_label_2
_geom_bond_distance
_geom_bond_site_symmetry_2
Cu1 O2 1.9556(17) 4_466
Cu1 O1 1.9833(16) .
Cu1 N2 1.993(2) 4_466
Cu1 N2 2.002(2) .
Cu1 N1 2.259(2) 3_745
F1 C5 1.347(3) .
O1 C1 1.253(3) .
O2 C1 1.259(3) .
N1 C6 1.335(3) .
N1 C3 1.347(3) .
N2 N3 1.224(3) .
N3 N4 1.136(3) .
C1 C2 1.513(3) .
C2 C3 1.387(3) .
C2 C4 1.391(4) .
C3 H3 0.9500 .
C4 C5 1.380(3) .
C4 H4 0.9500 .
C5 C6 1.381(3) .
C6 H6 0.9500 .
loop_
_geom_torsion_atom_site_label_1
_geom_torsion_atom_site_label_2
_geom_torsion_atom_site_label_3
_geom_torsion_atom_site_label_4
_geom_torsion
_geom_torsion_site_symmetry_1
Cu1 O1 C1 O2 -3.5(4) .
Cu1 O1 C1 C2 174.90(15) .
Cu1 O2 C1 O1 11.7(4) 4_566
Cu1 O2 C1 C2 -166.70(15) 4_566
O1 C1 C2 C3 166.7(2) .
O2 C1 C2 C3 -14.7(4) .
O1 C1 C2 C4 -12.5(3) .
O2 C1 C2 C4 166.1(2) .
C6 N1 C3 C2 -1.9(4) .
Cu1 N1 C3 C2 156.15(19) 3_755
C4 C2 C3 N1 0.1(4) .
C1 C2 C3 N1 -179.1(2) .
C3 C2 C4 C5 1.8(3) .
C1 C2 C4 C5 -179.0(2) .
C2 C4 C5 F1 -179.8(2) .
C2 C4 C5 C6 -1.9(4) .
C3 N1 C6 C5 1.7(4) .
Cu1 N1 C6 C5 -157.37(18) 3_755
F1 C5 C6 N1 178.0(2) .
C4 C5 C6 N1 0.2(4) .
