#------------------------------------------------------------------------------
#$Date: 2022-01-01 06:19:30 +0200 (Sat, 01 Jan 2022) $
#$Revision: 271667 $
#$URL: file:///home/coder/svn-repositories/cod/cif/2/10/89/2108924.cif $
#------------------------------------------------------------------------------
#
# This file is available in the Crystallography Open Database (COD),
# http://www.crystallography.net/. The original data for this entry
# were provided by IUCr Journals, http://journals.iucr.org/.
#
# The file may be used within the scientific community so long as
# proper attribution is given to the journal article from which the
# data were obtained.
#
data_2108924
loop_
_publ_author_name
'Rejnhardt, Piotr'
'Drozd, Marek'
'Daszkiewicz, Marek'
_publ_section_title
;
 Low-temperature phase transition and high-pressure phase stability of
 1<i>H</i>-pyrazole-1-carboxamidine nitrate
;
_journal_issue                   6
_journal_name_full               'Acta Crystallographica Section B'
_journal_page_first              996
_journal_page_last               1002
_journal_paper_doi               10.1107/S2052520621010970
_journal_volume                  77
_journal_year                    2021
_chemical_formula_moiety         'N O3, C4 H7 N4'
_chemical_formula_sum            'C4 H7 N5 O3'
_chemical_formula_weight         173.15
_space_group_crystal_system      monoclinic
_space_group_IT_number           14
_space_group_name_Hall           '-P 2ybc'
_space_group_name_H-M_alt        'P 1 21/c 1'
_atom_sites_solution_hydrogens   geom
_atom_sites_solution_primary     dual
_audit_creation_date             2020-12-15
_audit_creation_method
;
Olex2 1.2
(compiled 2018.05.29 svn.r3508 for OlexSys, GUI svn.r5506)
;
_cell_angle_alpha                90
_cell_angle_beta                 100.401(5)
_cell_angle_gamma                90
_cell_formula_units_Z            4
_cell_length_a                   5.1532(2)
_cell_length_b                   10.2613(4)
_cell_length_c                   14.0623(7)
_cell_measurement_reflns_used    2944
_cell_measurement_temperature    300.00(10)
_cell_measurement_theta_max      28.7380
_cell_measurement_theta_min      3.5430
_cell_volume                     731.38(6)
_computing_cell_refinement       'CrysAlisPro 1.171.39.46 (Rigaku OD, 2018)'
_computing_data_collection       'CrysAlisPro 1.171.39.46 (Rigaku OD, 2018)'
_computing_data_reduction        'CrysAlisPro 1.171.39.46 (Rigaku OD, 2018)'
_computing_molecular_graphics    'Olex2 (Dolomanov et al., 2009)'
_computing_publication_material  'Olex2 (Dolomanov et al., 2009)'
_computing_structure_refinement  'ShelXL (Sheldrick, 2015)'
_computing_structure_solution    'ShelXT (Sheldrick, 2015)'
_diffrn_ambient_environment      air
_diffrn_ambient_temperature      300.00(10)
_diffrn_detector                 'CCD plate'
_diffrn_detector_area_resol_mean 10.6249
_diffrn_detector_type            Atlas
_diffrn_measured_fraction_theta_full 0.998
_diffrn_measured_fraction_theta_max 0.906
_diffrn_measurement_details
;
List of Runs (angles in degrees, time in seconds):

  # Type    Start    End  Width  t~exp~   \w     \q     \k     \f   Frames
--------------------------------------------------------------------------
  1  \w    -65.00  45.40   0.80   10.00    --   13.31 -57.00   0.00  138
  2  \w    -65.00  45.40   0.80   10.00    --   13.31 -57.00-120.00  138
  3  \w     35.00 105.40   0.80   10.00    --   13.31 178.00-120.00   88
  4  \w    -78.00 -38.00   0.80   10.00    --   13.31 178.00  60.00   50
  5  \w    -19.00  90.60   0.80   10.00    --   13.31  57.00   0.00  137
;
_diffrn_measurement_device       'four-circle diffractometer'
_diffrn_measurement_device_type  'Xcalibur, Atlas'
_diffrn_measurement_method       '\w scans'
_diffrn_orient_matrix_type
'CrysAlisPro convention (1999,Acta A55,543-557)'
_diffrn_orient_matrix_UB_11      0.0802586000
_diffrn_orient_matrix_UB_12      0.0540285000
_diffrn_orient_matrix_UB_13      -0.0071016000
_diffrn_orient_matrix_UB_21      0.0462844000
_diffrn_orient_matrix_UB_22      0.0037113000
_diffrn_orient_matrix_UB_23      0.0505791000
_diffrn_orient_matrix_UB_31      0.1049137000
_diffrn_orient_matrix_UB_32      -0.0429418000
_diffrn_orient_matrix_UB_33      -0.0045510000
_diffrn_radiation_monochromator  graphite
_diffrn_radiation_probe          x-ray
_diffrn_radiation_type           MoK\a
_diffrn_radiation_wavelength     0.71073
_diffrn_reflns_av_R_equivalents  0.0183
_diffrn_reflns_av_unetI/netI     0.0143
_diffrn_reflns_Laue_measured_fraction_full 0.998
_diffrn_reflns_Laue_measured_fraction_max 0.906
_diffrn_reflns_limit_h_max       6
_diffrn_reflns_limit_h_min       -7
_diffrn_reflns_limit_k_max       13
_diffrn_reflns_limit_k_min       -14
_diffrn_reflns_limit_l_max       19
_diffrn_reflns_limit_l_min       -19
_diffrn_reflns_number            7849
_diffrn_reflns_point_group_measured_fraction_full 0.998
_diffrn_reflns_point_group_measured_fraction_max 0.906
_diffrn_reflns_theta_full        25.242
_diffrn_reflns_theta_max         29.232
_diffrn_reflns_theta_min         3.553
_diffrn_source                   'fine-focus sealed X-ray tube'
_diffrn_source_type              'Enhance (Mo) X-ray Source'
_exptl_absorpt_coefficient_mu    0.134
_exptl_absorpt_correction_T_max  1.00000
_exptl_absorpt_correction_T_min  0.82032
_exptl_absorpt_correction_type   multi-scan
_exptl_absorpt_process_details
;
CrysAlisPro 1.171.39.46 (Rigaku Oxford Diffraction, 2018)
Empirical absorption correction using spherical harmonics,
 implemented in SCALE3 ABSPACK scaling algorithm.
;
_exptl_crystal_colour            colourless
_exptl_crystal_density_diffrn    1.572
_exptl_crystal_description       prism
_exptl_crystal_F_000             360
_exptl_crystal_size_max          0.492
_exptl_crystal_size_mid          0.357
_exptl_crystal_size_min          0.315
_refine_diff_density_max         0.120
_refine_diff_density_min         -0.215
_refine_diff_density_rms         0.040
_refine_ls_extinction_method     none
_refine_ls_goodness_of_fit_ref   1.031
_refine_ls_hydrogen_treatment    mixed
_refine_ls_matrix_type           full
_refine_ls_number_parameters     114
_refine_ls_number_reflns         1792
_refine_ls_number_restraints     0
_refine_ls_restrained_S_all      1.031
_refine_ls_R_factor_all          0.0589
_refine_ls_R_factor_gt           0.0402
_refine_ls_shift/su_max          0.000
_refine_ls_shift/su_mean         0.000
_refine_ls_structure_factor_coef Fsqd
_refine_ls_weighting_details
'w=1/[\s^2^(Fo^2^)+(0.0613P)^2^+0.1088P] where P=(Fo^2^+2Fc^2^)/3'
_refine_ls_weighting_scheme      calc
_refine_ls_wR_factor_gt          0.1062
_refine_ls_wR_factor_ref         0.1198
_reflns_Friedel_coverage         0.000
_reflns_number_gt                1313
_reflns_number_total             1792
_reflns_threshold_expression     'I > 2\s(I)'
_cod_data_source_file            xk5086sup1.cif
_cod_data_source_block           300K
_cod_database_code               2108924
_shelx_shelxl_version_number     2018/3
_chemical_oxdiff_formula         C4N4NO3H7
_shelx_space_group_comment
;
The symmetry employed for this shelxl refinement is uniquely defined
by the following loop, which should always be used as a source of
symmetry information in preference to the above space-group names.
They are only intended as comments.
;
_reflns_odcompleteness_completeness 99.87
_reflns_odcompleteness_iscentric 1
_reflns_odcompleteness_theta     26.32
_olex2_refinement_description
;
1. Fixed Uiso
 At 1.2 times of:
  All H(H) groups
2.a Aromatic/amide H refined with riding coordinates:
 C1(H1), C2(H2), C3(H3)
2.b X=CH2 refined with riding coordinates:
 N3(H3A,H3B), N4(H4A,H4B)
;
_shelx_res_file
;
TITL po_abs_a.res in P2(1)/c
    po_abs.res
    created by SHELXL-2018/3 at 15:32:23 on 15-Dec-2020
REM Old TITL po_abs in P2(1)/c
REM SHELXT solution in P2(1)/c: R1 0.206, Rweak 0.120, Alpha 0.026
REM <I/s> 0.368 for 94 systematic absences, Orientation as input
REM Formula found by SHELXT: C7 N O4
CELL 0.71073 5.1532 10.2613 14.0623 90 100.401 90
ZERR 4 0.0002 0.0004 0.0007 0 0.005 0
LATT 1
SYMM -X,0.5+Y,0.5-Z
SFAC C H N O
UNIT 16 28 20 12
EQIV $1 1-X,0.5+Y,0.5-Z
EQIV $2 -1+X,+Y,+Z
EQIV $3 1-X,-0.5+Y,0.5-Z
EQIV $4 2-X,1-Y,1-Z

L.S. 99
PLAN  20
HTAB C2 O1_$1
HTAB C3 O3_$2
HTAB N3 O1_$3
HTAB N3 N2_$4
HTAB N4 O3_$3
HTAB N4 O2_$2
HTAB N4 O3_$2
HTAB N4 N5_$2
BOND
list 4
htab
fmap 2 53
acta
OMIT 0 0 2
OMIT 0 1 1
REM <olex2.extras>
REM <HklSrc "%.\\po_abs.hkl">
REM </olex2.extras>

WGHT    0.061300    0.108800
FVAR       0.48525
C1    1    0.887464    0.786774    0.461725    11.00000    0.05648    0.04781 =
         0.05911   -0.00303    0.00197   -0.00131
AFIX  43
H1    2    1.035698    0.826486    0.497597    11.00000    0.06814
AFIX   0
C2    1    0.669425    0.855832    0.412034    11.00000    0.06577    0.04562 =
         0.06049    0.00322    0.00869    0.00818
AFIX  43
H2    2    0.646725    0.945745    0.409058    11.00000    0.06177
AFIX   0
C3    1    0.500599    0.764535    0.369713    11.00000    0.05068    0.05496 =
         0.05177    0.00904    0.00526    0.01424
AFIX  43
H3    2    0.336254    0.778945    0.331375    11.00000    0.07354
AFIX   0
C4    1    0.521422    0.522047    0.370958    11.00000    0.03744    0.05161 =
         0.04148    0.00064    0.00161    0.00052
N1    3    0.616914    0.645806    0.393841    11.00000    0.03834    0.04793 =
         0.04463    0.00346   -0.00028    0.00346
N2    3    0.859522    0.660179    0.452090    11.00000    0.04287    0.04846 =
         0.05544   -0.00102   -0.00636    0.00133
N3    3    0.660757    0.423480    0.408718    11.00000    0.04816    0.04538 =
         0.06977   -0.00014   -0.01423   -0.00232
AFIX  93
H3A   2    0.603281    0.345436    0.396687    11.00000    0.07263
H3B   2    0.810606    0.436180    0.445781    11.00000   -1.20000
AFIX   0
N4    3    0.293294    0.507378    0.314394    11.00000    0.04380    0.06563 =
         0.05849   -0.00128   -0.00899   -0.00125
AFIX  93
H4A   2    0.230762    0.430492    0.301066    11.00000    0.07187
H4B   2    0.205343    0.574588    0.290410    11.00000   -1.20000
AFIX   0

N5    3    0.751470    0.648333    0.175544    11.00000    0.04331    0.06029 =
         0.04970    0.00393   -0.00173    0.00355
O1    4    0.515829    0.673492    0.142311    11.00000    0.04122    0.05550 =
         0.08153    0.00617   -0.00792    0.00550
O2    4    0.829069    0.535933    0.178549    11.00000    0.06621    0.05869 =
         0.14208    0.00415   -0.02697    0.01860
O3    4    0.908550    0.737895    0.206967    11.00000    0.05000    0.07477 =
         0.07234   -0.01121   -0.00264   -0.00789
HKLF 4




REM  po_abs_a.res in P2(1)/c
REM wR2 = 0.1198, GooF = S = 1.031, Restrained GooF = 1.031 for all data
REM R1 = 0.0402 for 1313 Fo > 4sig(Fo) and 0.0589 for all 1792 data
REM 114 parameters refined using 0 restraints

END

WGHT      0.0613      0.1088

REM Instructions for potential hydrogen bonds
HTAB C2 O1_$1
HTAB C3 O3_$2
HTAB N3 O1_$3
HTAB N3 N2_$4
HTAB N4 O3_$3
HTAB N4 O2_$2
HTAB N4 O3_$2
HTAB N4 N5_$2

REM Highest difference peak  0.120,  deepest hole -0.215,  1-sigma level  0.040
Q1    1   0.9451  0.5824  0.4856  11.00000  0.05    0.12
Q2    1   0.2887  0.7406  0.3235  11.00000  0.05    0.12
Q3    1   0.8269  0.5413  0.1406  11.00000  0.05    0.11
Q4    1   1.1391  0.7974  0.4950  11.00000  0.05    0.10
Q5    1   0.8638  0.7969  0.1640  11.00000  0.05    0.10
Q6    1   0.8487  0.7160  0.2055  11.00000  0.05    0.10
Q7    1   0.7132  0.6451  0.4197  11.00000  0.05    0.10
Q8    1   0.4093  0.5347  0.2382  11.00000  0.05    0.09
Q9    1   0.8906  0.8117  0.1895  11.00000  0.05    0.09
Q10   1   0.2393  0.5856  0.2548  11.00000  0.05    0.09
Q11   1   0.5151  0.7778  0.1594  11.00000  0.05    0.09
Q12   1   0.8723  0.4439  0.4152  11.00000  0.05    0.09
Q13   1   0.7780  0.5452  0.5240  11.00000  0.05    0.08
Q14   1   0.7878  0.6428  0.4432  11.00000  0.05    0.08
Q15   1   0.5878  0.5774  0.0391  11.00000  0.05    0.08
Q16   1   0.1984  0.8804  0.2199  11.00000  0.05    0.08
Q17   1   0.6616  0.4409  0.5110  11.00000  0.05    0.08
Q18   1   1.1337  0.7811  0.2011  11.00000  0.05    0.08
Q19   1   0.3784  0.6767  0.4652  11.00000  0.05    0.08
Q20   1  -0.0288  0.6443  0.3392  11.00000  0.05    0.08
;
_shelx_res_checksum              97405
_shelx_hkl_file
;
   0   0  -2   36.41    0.55
   0   0   3   -0.03    0.07
   0   0  -3   -0.04    0.08
   0   0  -4 1366.26   13.54
   0   0   4 1322.63   13.55
   0   0   5    0.13    0.11
   0   0  -5   -0.06    0.12
   0   0   6   53.30    1.03
   0   0  -6   53.40    1.01
   0   0  -7   -0.12    0.11
   0   0   7   -0.11    0.14
   0   0  -7   -0.19    0.14
   0   0  -8   52.80    1.10
   0   0  -8   53.28    1.14
   0   0   8   53.21    1.14
   0   0  -9   -0.24    0.15
   0   0   9   -0.03    0.14
   0   0   9    0.05    0.14
   0   0  -9   -0.02    0.14
   0   0  10   15.56    0.62
   0   0 -10   14.78    0.65
   0   0 -10   14.47    0.60
   0   0 -11    0.20    0.14
   0   0  11   -0.15    0.15
   0   0 -11   -0.17    0.17
   0   0  12   16.71    0.71
   0   0 -12   17.03    0.76
   0   0 -13   -0.24    0.18
   0   0  13    0.10    0.15
   0   0  13    0.10    0.18
   0   0  14    6.68    0.50
   0   0  14    6.78    0.47
   0   0 -14    7.40    0.56
   0   0  15    0.43    0.20
   0   0 -15    0.17    0.24
   0   0  15   -0.17    0.19
   0   0 -16    0.30    0.25
   0   0  16    0.20    0.19
   0   0  17   -0.37    0.26
   0   0 -17    0.16    0.27
   0   0  18    0.44    0.29
   0   0 -18    1.00    0.33
   0   0 -19   -0.70    0.33
   0  -1  -1   98.70    1.16
   0  -1   2   12.79    0.22
   0   1   2   11.19    0.29
   0  -1  -2   13.02    0.31
   0  -1   2   12.95    0.23
   0   1  -3   17.27    0.36
   0  -1  -3   16.58    0.31
   0  -1   3   17.11    0.36
   0   1   3   17.13    0.44
   0  -1  -3   17.13    0.43
   0   1  -3   17.84    0.36
   0  -1   3   18.12    0.35
   0  -1  -4 1456.13   14.59
   0  -1  -4 1410.96   14.34
   0   1   4 1461.07   14.61
   0  -1   4 1409.35   14.43
   0   1  -4 1461.58   14.43
   0  -1   4 1476.76   14.41
   0  -1   5  140.82    1.83
   0  -1   5  141.11    1.79
   0  -1  -5  139.80    1.96
   0  -1  -5  139.38    1.74
   0   1   5  142.76    1.97
   0   1  -5  144.02    1.83
   0  -1   6   14.42    0.45
   0  -1  -6   14.01    0.41
   0   1   6   15.06    0.53
   0   1  -6   14.50    0.46
   0  -1   6   14.36    0.44
   0  -1  -6   14.21    0.51
   0  -1  -7   18.35    0.62
   0  -1   7   18.31    0.54
   0   1   7   17.88    0.62
   0   1  -7   17.96    0.55
   0  -1   7   17.72    0.56
   0  -1  -7   17.41    0.51
   0  -1  -8    2.76    0.22
   0   1   8    3.11    0.30
   0  -1   8    3.12    0.27
   0  -1  -8    2.69    0.28
   0  -1   8    3.34    0.25
   0  -1   9   27.06    0.75
   0   1  -9   25.93    0.78
   0  -1  -9   26.68    0.73
   0  -1   9   26.59    0.80
   0   1   9   27.19    0.87
   0  -1  -9   26.89    0.85
   0  -1 -10   22.40    0.71
   0  -1  10   23.55    0.79
   0   1 -10   24.65    0.84
   0   1 -10   23.17    0.77
   0  -1  10   24.04    0.75
   0  -1 -10   23.93    0.84
   0  -1 -11    0.25    0.13
   0  -1  11    0.29    0.17
   0  -1 -11    0.54    0.22
   0   1 -11    0.36    0.18
   0  -1 -12    0.31    0.15
   0   1 -12    0.37    0.18
   0   1  12    0.23    0.18
   0  -1  12    0.48    0.18
   0  -1 -12    0.49    0.22
   0  -1  12    0.38    0.20
   0   1 -13    9.56    0.58
   0   1  13    9.71    0.49
   0  -1 -13    9.81    0.64
   0   1  13    9.72    0.60
   0  -1  13    8.71    0.53
   0  -1  13    9.07    0.54
   0  -1 -14    1.69    0.33
   0  -1  14    1.78    0.28
   0   1  14    2.14    0.31
   0   1  14    2.05    0.27
   0   1 -14    1.74    0.29
   0  -1  14    2.29    0.30
   0  -1 -15    0.59    0.25
   0   1  15    0.21    0.20
   0   1 -15    0.69    0.23
   0  -1  15    0.20    0.18
   0  -1  15    0.56    0.24
   0  -1 -16    1.84    0.36
   0  -1  16    1.83    0.32
   0  -1  16    1.79    0.32
   0   1 -16    1.70    0.31
   0   1  16    1.89    0.33
   0  -1  17    0.39    0.22
   0   1 -17    0.75    0.30
   0   1  17   -0.17    0.29
   0  -1 -17    0.06    0.23
   0   1  18    0.05    0.26
   0   1 -18    0.27    0.22
   0  -1 -18    0.56    0.29
   0  -2   0  153.93    1.66
   0  -2   0  151.79    1.76
   0   2   0  150.47    1.74
   0   2   0  156.34    1.77
   0  -2   0  154.93    1.74
   0  -2  -1  533.19    5.44
   0  -2   1  535.68    5.58
   0  -2  -1  532.95    5.50
   0  -2  -1  537.45    5.51
   0  -2   1  526.79    5.44
   0   2   1  536.14    5.44
   0   2   1  537.40    5.42
   0   2   1  532.06    5.51
   0   2   1  539.79    5.50
   0   2   2   93.07    1.02
   0  -2   2   91.73    1.09
   0  -2   2   92.32    1.02
   0  -2  -2   94.07    1.04
   0   2   2   92.64    1.24
   0   2   2   92.02    1.05
   0   2  -2   90.64    1.09
   0   2   2   92.75    1.14
   0  -2  -2   91.59    1.25
   0   2   3   17.07    0.47
   0  -2  -3   16.81    0.46
   0  -2   3   16.97    0.35
   0  -2  -3   14.11    0.27
   0   2  -3   17.05    0.35
   0   2  -3   18.05    0.33
   0   2   3   16.83    0.29
   0   2   3   14.00    0.27
   0  -2   3   17.05    0.33
   0   2   4   28.53    0.44
   0   2   4   28.89    0.48
   0   2  -4   30.91    0.54
   0   2  -4   29.54    0.55
   0  -2  -4   29.86    0.47
   0  -2  -4   30.49    0.70
   0   2   4   30.80    0.72
   0  -2   4   29.99    0.54
   0  -2   4   29.96    0.55
   0  -2   5  198.74    2.33
   0   2   5  205.51    2.64
   0  -2   5  194.47    2.33
   0   2  -5  197.59    2.35
   0  -2  -5  200.83    2.60
   0   2  -5  199.33    2.34
   0  -2  -5  195.17    2.22
   0  -2   6    3.23    0.21
   0  -2   6    3.46    0.22
   0   2   6    3.66    0.29
   0  -2  -6    3.22    0.27
   0   2  -6    3.39    0.21
   0  -2  -6    3.08    0.17
   0   2   7   87.15    1.59
   0  -2  -7   82.72    1.25
   0  -2  -7   83.47    1.55
   0  -2   7   84.81    1.35
   0  -2   7   86.01    1.33
   0   2  -7   84.70    1.36
   0   2   8    9.13    0.50
   0   2  -8    9.37    0.41
   0  -2   8    8.74    0.39
   0  -2  -8    8.57    0.48
   0  -2  -8    8.42    0.35
   0  -2   8    9.03    0.40
   0  -2  -9   19.71    0.58
   0  -2  -9   21.15    0.78
   0  -2   9   22.66    0.67
   0   2  -9   22.10    0.68
   0  -2   9   21.36    0.67
   0  -2  10   11.54    0.50
   0   2 -10   11.88    0.53
   0  -2 -10   10.42    0.45
   0  -2 -10   11.08    0.61
   0  -2  10   11.26    0.52
   0  -2  11    0.00    0.21
   0  -2  11    0.40    0.19
   0  -2 -11    0.09    0.20
   0  -2  11    0.19    0.15
   0  -2 -11    0.16    0.12
   0   2 -11    0.38    0.18
   0  -2  12   14.90    0.63
   0  -2 -12   13.39    0.57
   0   2 -12   14.71    0.66
   0  -2  12   12.69    0.66
   0  -2 -12   14.56    0.75
   0  -2 -13    0.95    0.26
   0  -2  13    0.89    0.23
   0   2 -13    1.40    0.26
   0  -2 -13    1.12    0.19
   0   2  13    1.00    0.17
   0  -2  13    0.89    0.19
   0   2  14    0.04    0.14
   0  -2  14    0.53    0.25
   0  -2  14    0.22    0.16
   0   2 -14    0.31    0.17
   0   2  14    0.52    0.24
   0  -2 -14    0.33    0.24
   0  -2  15    7.86    0.54
   0  -2  15    6.38    0.52
   0  -2 -15    6.93    0.60
   0   2  15    7.52    0.60
   0   2 -15    8.07    0.58
   0   2 -16    2.62    0.38
   0  -2  16    1.95    0.35
   0   2  16    2.31    0.38
   0  -2 -16    2.25    0.40
   0  -2  16    2.00    0.30
   0   2  17    0.91    0.30
   0  -2 -17    0.57    0.25
   0   2 -17    0.96    0.27
   0   2  18    0.00    0.25
   0   3   0    0.00    0.12
   0  -3   0    0.02    0.09
   0  -3   0    0.01    0.07
   0  -3   0    0.10    0.10
   0   3   0    0.05    0.08
   0  -3  -1  179.61    2.14
   0   3   1  178.86    2.13
   0  -3   1  178.14    2.11
   0  -3   1  179.49    2.25
   0   3   1  180.95    2.20
   0  -3  -1  181.51    2.12
   0   3   1  178.23    2.15
   0  -3  -1  179.82    2.18
   0  -3   1  183.53    2.26
   0   3  -1  176.66    2.12
   0   3   2   74.39    0.98
   0  -3  -2   75.90    1.01
   0  -3  -2   76.15    1.17
   0   3   2   76.62    1.18
   0   3  -2   73.83    1.04
   0  -3   2   77.53    1.24
   0   3   2   75.03    1.02
   0  -3   2   73.87    1.04
   0  -3  -2   77.50    1.12
   0   3   2   74.59    1.11
   0  -3  -3  475.51    5.18
   0  -3   3  469.92    4.80
   0  -3   3  477.71    5.26
   0   3   3  464.89    4.84
   0  -3   3  466.52    4.92
   0  -3  -3  462.18    4.81
   0   3  -3  464.90    4.92
   0   3   3  466.29    4.79
   0  -3  -3  472.52    4.83
   0   3   3  474.90    5.01
   0   3   3  472.07    5.18
   0  -3   4   31.34    0.59
   0  -3  -4   31.17    0.77
   0   3   4   30.36    0.62
   0   3   4   30.15    0.76
   0   3   4   30.76    0.49
   0   3   4   29.99    0.49
   0  -3   4   31.38    0.53
   0   3  -4   30.97    0.58
   0  -3  -4   31.64    0.50
   0   3  -5   29.11    0.60
   0   3   5   29.03    0.50
   0  -3   5   29.55    0.57
   0   3  -5   30.62    0.57
   0  -3  -5   30.01    0.50
   0   3   5   29.04    0.47
   0   3   5   30.29    0.80
   0  -3  -5   29.89    0.80
   0  -3   5   29.26    0.60
   0   3   6    7.34    0.21
   0  -3   6    7.78    0.31
   0  -3  -6    7.36    0.24
   0   3  -6    7.35    0.30
   0  -3   6    7.58    0.29
   0   3  -6    7.11    0.28
   0   3   6    6.81    0.40
   0  -3  -6    7.04    0.41
   0   3   7   39.06    0.62
   0  -3  -7   39.43    1.02
   0  -3  -7   39.18    0.69
   0   3  -7   41.05    0.81
   0  -3   7   40.87    0.83
   0  -3   7   39.44    0.80
   0   3   7   41.28    1.06
   0  -3   8   35.04    0.79
   0  -3   8   36.67    0.82
   0  -3  -8   35.64    1.04
   0  -3  -8   35.11    0.69
   0   3  -8   37.16    0.82
   0  -3  -9    1.98    0.30
   0  -3   9    1.91    0.22
   0  -3   9    2.22    0.30
   0  -3  -9    1.85    0.18
   0   3  -9    2.26    0.22
   0  -3   9    2.15    0.22
   0  -3 -10    3.10    0.22
   0  -3  10    2.39    0.35
   0  -3 -10    2.81    0.35
   0  -3  10    2.68    0.26
   0  -3  10    2.48    0.24
   0   3 -10    3.05    0.27
   0  -3  11    0.61    0.19
   0  -3 -11    0.44    0.22
   0  -3  11    0.65    0.16
   0  -3 -11    0.47    0.14
   0  -3  11    0.67    0.24
   0   3 -11    0.62    0.17
   0  -3 -12    0.24    0.12
   0  -3  12    0.02    0.20
   0  -3  12    0.05    0.14
   0   3 -12   -0.01    0.16
   0  -3 -12    0.03    0.20
   0   3  13    0.24    0.10
   0   3 -13    0.21    0.17
   0  -3  13    0.32    0.17
   0  -3  13    0.22    0.23
   0  -3 -13    0.43    0.24
   0  -3  14    0.72    0.21
   0  -3  14    0.31    0.23
   0  -3 -14    0.70    0.27
   0   3 -14    0.51    0.19
   0  -3  15    1.96    0.35
   0   3 -15    1.94    0.32
   0  -3 -15    1.87    0.39
   0   3  15    2.42    0.39
   0  -3  15    2.35    0.31
   0  -3 -16    0.01    0.25
   0   3 -16    0.11    0.19
   0  -3  16    0.05    0.21
   0   3  16    0.03    0.23
   0   3  17   -0.56    0.31
   0  -3 -17   -0.62    0.35
   0  -3  17   -0.04    0.24
   0   3  18    0.63    0.33
   0  -4   0   41.26    0.74
   0  -4   0   43.56    0.86
   0  -4   0   41.12    0.87
   0   4   0   41.08    0.82
   0   4  -1   44.50    0.85
   0  -4   1   46.60    0.94
   0   4   1   45.85    0.91
   0  -4  -1   44.27    0.83
   0  -4  -1   44.62    0.89
   0  -4   1   44.95    0.73
   0   4   1   46.01    0.92
   0  -4  -1   45.99    0.85
   0  -4   1   47.37    0.96
   0   4   2  308.27    3.45
   0  -4  -2  320.56    3.64
   0   4  -2  304.95    3.53
   0   4   2  309.12    3.51
   0   4   2  311.98    3.64
   0  -4   2  305.93    3.52
   0   4   2  316.60    3.66
   0  -4  -2  310.80    3.49
   0  -4   2  320.32    3.80
   0  -4  -2  316.25    3.65
   0  -4   2  320.06    3.78
   0  -4  -3   78.19    1.35
   0   4   3   77.35    1.26
   0   4   3   80.24    1.36
   0  -4   3   82.07    1.45
   0   4   3   77.48    1.13
   0   4  -3   79.81    1.17
   0  -4   3   77.25    1.17
   0  -4   3   78.36    1.03
   0   4   3   78.03    1.07
   0  -4  -3   80.14    1.12
   0   4   4   30.70    0.70
   0  -4   4   31.73    0.54
   0  -4   4   31.92    0.87
   0  -4  -4   31.94    0.57
   0  -4   4   31.43    0.65
   0   4   4   31.72    0.83
   0   4   4   30.27    0.57
   0   4   4   30.63    0.53
   0  -4  -4   31.78    0.82
   0   4  -4   32.81    0.65
   0  -4   5    0.91    0.10
   0  -4   5    1.06    0.22
   0   4   5    0.90    0.09
   0   4  -5    0.90    0.13
   0   4   5    0.82    0.15
   0  -4  -5    0.63    0.16
   0   4   5    0.82    0.18
   0  -4  -5    0.77    0.09
   0   4   5    0.91    0.10
   0  -4   5    0.85    0.13
   0   4   6  132.85    2.16
   0   4  -6  131.33    1.76
   0  -4  -6  129.63    1.56
   0   4   6  125.02    1.52
   0  -4   6  133.31    1.78
   0  -4   6  128.31    2.15
   0  -4   6  126.60    1.65
   0   4   6  130.34    1.82
   0  -4  -6  130.26    2.12
   0   4   6  127.90    1.55
   0  -4   7    5.49    0.26
   0   4  -7    5.77    0.29
   0  -4  -7    5.57    0.40
   0  -4  -7    5.86    0.22
   0  -4   7    5.41    0.41
   0   4  -7    5.63    0.27
   0   4   7    5.72    0.19
   0  -4   7    5.54    0.29
   0   4  -8    0.09    0.10
   0  -4  -8    0.16    0.08
   0  -4   8    0.09    0.10
   0  -4   8    0.06    0.12
   0  -4   8   -0.04    0.20
   0   4   8    0.13    0.06
   0  -4  -8    0.05    0.17
   0   4  -8    0.04    0.11
   0   4  -9    3.29    0.25
   0  -4  -9    3.14    0.37
   0   4   9    2.10    0.12
   0  -4   9    3.05    0.40
   0  -4   9    3.32    0.26
   0  -4  -9    3.42    0.20
   0  -4   9    3.14    0.24
   0  -4  10   -0.12    0.15
   0  -4  10    0.35    0.16
   0  -4 -10    0.22    0.11
   0  -4  10   -0.09    0.24
   0  -4 -10    0.13    0.19
   0   4 -10    0.18    0.13
   0  -4  11    1.50    0.32
   0  -4 -11    1.48    0.29
   0  -4  11    1.59    0.21
   0  -4 -11    1.41    0.17
   0   4 -11    1.73    0.22
   0  -4  11    1.71    0.22
   0   4  12   22.07    0.43
   0  -4  12   23.05    1.00
   0  -4 -12   26.30    1.07
   0  -4  12   24.68    0.80
   0   4 -12   27.67    0.85
   0  -4  12   27.77    0.84
   0  -4  13    0.40    0.16
   0  -4  13    0.64    0.26
   0   4 -13    0.66    0.21
   0  -4 -13    0.40    0.26
   0  -4 -14    4.18    0.50
   0   4 -14    4.64    0.40
   0  -4  14    3.55    0.45
   0  -4  14    4.70    0.39
   0  -4 -15    0.96    0.33
   0  -4  15    0.12    0.26
   0  -4 -16    3.83    0.53
   0  -4  16    3.44    0.49
   0   4  17    1.96    0.42
   0  -4  17    1.77    0.39
   0  -5   0   -0.07    0.13
   0   5   0    0.11    0.12
   0  -5   0    0.04    0.11
   0  -5   0   -0.02    0.10
   0  -5   1   84.27    1.47
   0   5   1   80.17    1.43
   0  -5  -1   84.40    1.43
   0  -5  -1   83.22    1.33
   0   5   1   81.37    1.42
   0  -5   1   82.85    1.48
   0  -5   1   82.55    1.21
   0   5  -1   83.64    1.37
   0  -5  -1   81.54    1.36
   0  -5   2   33.47    0.89
   0   5   2   30.60    0.67
   0  -5  -2   30.96    0.71
   0  -5   2   31.86    0.61
   0   5   2   30.33    0.82
   0  -5  -2   31.79    0.77
   0  -5  -2   32.00    0.79
   0  -5   2   31.86    0.86
   0   5  -2   31.62    0.73
   0   5   3    0.79    0.17
   0  -5  -3    1.06    0.14
   0  -5   3    1.08    0.20
   0   5  -3    1.26    0.16
   0  -5   3    1.24    0.22
   0   5   3    1.07    0.19
   0  -5   3    0.87    0.15
   0  -5  -3    0.79    0.17
   0   5   3    0.86    0.12
   0   5   3    1.02    0.15
   0   5  -4  100.47    1.48
   0  -5   4   99.42    1.28
   0   5   4  103.37    1.74
   0   5   4   98.44    1.33
   0   5   4   97.35    1.58
   0  -5  -4  100.29    1.73
   0  -5   4   99.90    1.81
   0   5   4   95.57    1.41
   0  -5  -4  100.71    1.40
   0  -5   4  101.85    1.80
   0  -5   4  100.21    1.48
   0   5   5    2.75    0.24
   0   5   5    2.86    0.16
   0  -5   5    2.51    0.15
   0  -5   5    2.66    0.21
   0   5  -5    2.88    0.21
   0   5   5    2.58    0.18
   0  -5   5    2.62    0.31
   0   5   5    2.49    0.28
   0  -5  -5    2.88    0.30
   0   5   6   76.02    1.10
   0   5   6   79.72    1.07
   0  -5  -6   81.34    1.62
   0   5   6   81.07    1.39
   0  -5   6   77.03    1.12
   0  -5   6   81.64    1.30
   0  -5   6   78.89    1.67
   0   5  -6   83.48    1.31
   0   5   7   -0.01    0.13
   0  -5   7    0.10    0.11
   0  -5   7    0.08    0.09
   0  -5  -7    0.06    0.18
   0   5   7    0.09    0.07
   0   5  -7    0.21    0.12
   0   5   7    0.14    0.09
   0  -5   7   -0.08    0.20
   0  -5  -7    0.00    0.07
   0  -5   8  109.55    1.66
   0   5   8  108.53    1.71
   0  -5  -8   98.45    1.32
   0  -5   8  102.11    2.10
   0   5  -8  109.51    1.64
   0  -5  -8  105.65    2.05
   0  -5   8  101.78    1.50
   0  -5  -9    1.61    0.30
   0  -5  -9    1.81    0.14
   0  -5   9    2.11    0.23
   0   5   9    1.85    0.22
   0  -5   9    1.65    0.18
   0  -5   9    1.62    0.34
   0  -5  10    4.43    0.46
   0  -5 -10    4.15    0.44
   0  -5  10    4.47    0.29
   0  -5 -10    4.81    0.22
   0  -5  10    5.21    0.34
   0   5  10    4.81    0.33
   0  -5 -11    1.21    0.29
   0   5 -11    1.50    0.21
   0  -5  11    1.42    0.33
   0  -5  11    1.69    0.23
   0   5  11    1.68    0.22
   0  -5  11    1.26    0.18
   0  -5  12    5.38    0.37
   0   5  12    4.50    0.34
   0  -5  12    4.90    0.51
   0  -5 -12    5.54    0.52
   0   5 -12    5.91    0.38
   0  -5  13    0.23    0.26
   0   5  13    0.31    0.17
   0  -5 -13    0.75    0.30
   0  -5  13    0.43    0.17
   0   5 -13    0.46    0.17
   0  -5 -14    1.99    0.40
   0  -5  14    1.35    0.33
   0  -5 -15    1.30    0.36
   0  -5  15    1.00    0.36
   0  -5 -16    0.09    0.28
   0  -5  16    0.32    0.31
   0  -5  17    0.89    0.33
   0  -6   0  184.20    2.63
   0   6   0  179.26    2.56
   0  -6   0  179.40    2.36
   0  -6   0  178.41    2.56
   0  -6  -1   18.14    0.64
   0  -6  -1   17.81    0.57
   0   6   1   17.53    0.58
   0  -6   1   17.08    0.49
   0  -6   1   16.96    0.65
   0   6   1   16.57    0.62
   0   6  -1   17.02    0.60
   0  -6  -1   17.55    0.60
   0  -6   1   18.52    0.68
   0  -6   2    2.04    0.17
   0   6  -2    1.78    0.21
   0   6   2    1.70    0.18
   0  -6   2    2.13    0.27
   0  -6  -2    1.64    0.21
   0   6   2    1.91    0.25
   0   6   2    1.49    0.23
   0  -6   2    2.40    0.29
   0  -6  -2    1.82    0.20
   0  -6  -2    2.03    0.24
   0  -6   3   43.04    0.76
   0  -6  -3   41.55    1.01
   0  -6  -3   41.31    0.88
   0  -6  -3   42.91    1.01
   0  -6   3   42.90    1.13
   0   6   3   41.41    1.03
   0   6   3   42.52    0.85
   0   6  -3   43.05    0.93
   0  -6   4   43.42    1.18
   0   6   4   44.12    0.82
   0  -6  -4   43.71    0.87
   0  -6   4   44.49    0.93
   0   6   4   43.73    1.04
   0   6  -4   44.83    0.94
   0  -6  -4   44.49    1.10
   0   6   4   45.19    1.13
   0  -6   4   42.83    0.74
   0   6   5   15.79    0.61
   0  -6   5   17.23    0.76
   0  -6  -5   16.85    0.49
   0   6  -5   17.48    0.55
   0  -6  -5   17.35    0.71
   0  -6   5   16.50    0.40
   0  -6   5   17.15    0.54
   0   6   5   17.19    0.44
   0  -6   6   24.03    0.65
   0  -6   6   22.72    0.90
   0   6   6   23.06    0.49
   0   6  -6   23.63    0.64
   0  -6  -6   21.88    0.84
   0  -6   6   21.90    0.48
   0   6   6   22.10    0.71
   0  -6   7    0.06    0.08
   0  -6   7    0.14    0.12
   0   6   7    0.16    0.08
   0  -6  -7    0.12    0.19
   0   6   7    0.01    0.15
   0  -6   7    0.24    0.27
   0   6  -7    0.15    0.11
   0  -6   8    2.31    0.38
   0  -6  -8    2.09    0.35
   0   6   8    2.32    0.27
   0  -6   8    2.15    0.22
   0   6  -8    2.17    0.22
   0  -6   8    2.14    0.18
   0   6  -9    3.67    0.27
   0  -6  -9    3.11    0.40
   0   6   9    3.40    0.30
   0  -6   9    3.53    0.22
   0  -6   9    3.92    0.45
   0  -6   9    4.26    0.30
   0  -6  10    3.40    0.24
   0  -6 -10    3.88    0.45
   0   6  10    3.37    0.31
   0  -6  10    4.00    0.48
   0  -6  10    3.80    0.30
   0  -6  11    0.89    0.19
   0  -6 -11    1.14    0.30
   0   6  11    0.63    0.18
   0  -6  11    0.87    0.29
   0  -6 -12   -0.17    0.23
   0  -6  12    0.58    0.27
   0  -6  12    0.24    0.14
   0   6  12    0.39    0.16
   0  -6 -13    1.98    0.40
   0  -6  13    1.26    0.32
   0  -6 -14    5.39    0.59
   0  -6  14    4.32    0.54
   0  -6  15    1.87    0.38
   0  -6 -15    1.79    0.38
   0  -6  16    0.43    0.34
   0   7   0   -0.07    0.15
   0  -7   0   -0.06    0.12
   0  -7   0   -0.31    0.16
   0  -7  -1   19.41    0.64
   0   7  -1   19.10    0.69
   0  -7  -1   19.02    0.67
   0  -7   1   19.78    0.75
   0  -7   1   19.23    0.57
   0   7   1   17.74    0.70
   0   7   1   19.48    0.68
   0  -7  -2    4.90    0.34
   0   7  -2    4.83    0.34
   0   7   2    4.80    0.32
   0  -7   2    5.01    0.27
   0  -7   2    5.21    0.43
   0  -7  -2    4.75    0.34
   0  -7   3   -0.26    0.21
   0   7   3    0.26    0.20
   0   7   3    0.01    0.13
   0  -7   3    0.03    0.10
   0  -7  -3   -0.08    0.15
   0  -7  -3    0.09    0.16
   0  -7  -3    0.16    0.13
   0   7  -3    0.09    0.13
   0  -7  -4   27.20    0.72
   0  -7   4   27.97    0.99
   0   7   4   26.28    0.66
   0  -7  -4   28.04    0.90
   0  -7   4   27.31    0.59
   0  -7   4   27.03    0.59
   0   7  -4   27.26    0.77
   0   7   4   25.97    0.86
   0  -7  -5    6.48    0.47
   0   7  -5    6.72    0.37
   0  -7   5    6.08    0.52
   0   7   5    5.86    0.43
   0   7   5    6.72    0.30
   0  -7   5    6.58    0.37
   0  -7  -5    6.65    0.34
   0  -7   5    6.01    0.25
   0  -7   6   17.81    0.43
   0  -7  -6   18.65    0.80
   0  -7   6   17.89    0.86
   0   7  -6   18.96    0.61
   0   7   6   17.73    0.70
   0   7   6   19.25    0.48
   0  -7   6   19.28    0.63
   0   7  -7    1.00    0.18
   0  -7   7    1.07    0.30
   0  -7   7    0.74    0.11
   0  -7  -7    0.87    0.24
   0  -7   7    0.86    0.17
   0   7   7    0.87    0.11
   0   7   7    1.37    0.25
   0  -7   8   11.24    0.73
   0   7   8   10.23    0.54
   0   7  -8   11.05    0.48
   0   7   8    9.20    0.25
   0  -7   8   11.19    0.49
   0  -7  -8   10.06    0.64
   0  -7   8   10.69    0.33
   0  -7  -9    1.59    0.32
   0  -7   9    1.41    0.33
   0  -7   9    1.56    0.20
   0   7   9    1.63    0.25
   0  -7  10    0.28    0.14
   0   7  10    0.41    0.19
   0  -7  10    0.46    0.28
   0  -7 -10    0.42    0.23
   0   7  11   17.08    0.71
   0  -7  11   20.15    0.69
   0  -7  11   17.82    0.98
   0  -7 -11   18.59    0.96
   0  -7  12    0.93    0.34
   0  -7 -12    1.10    0.31
   0  -7 -13   12.61    0.87
   0  -7  13   11.61    0.84
   0  -7 -14    0.82    0.35
   0  -7  14    0.69    0.31
   0  -7  15    0.67    0.33
   0  -8   0    7.13    0.40
   0  -8   0    6.71    0.46
   0  -8  -1  109.15    1.86
   0   8  -1  109.53    1.98
   0  -8   1  109.86    1.73
   0  -8   1  106.47    2.06
   0  -8  -1  107.99    1.97
   0   8   1  110.21    1.95
   0   8  -2   14.31    0.63
   0  -8  -2   13.67    0.60
   0  -8   2   15.12    0.73
   0  -8   2   14.97    0.50
   0   8   2   14.06    0.59
   0  -8  -2   14.00    0.61
   0  -8  -3   60.64    1.28
   0  -8   3   61.90    1.08
   0  -8  -3   59.65    1.40
   0  -8   3   62.49    1.59
   0   8  -3   62.10    1.35
   0   8   3   62.08    1.25
   0  -8  -4    1.84    0.30
   0  -8  -4    1.61    0.23
   0   8  -4    1.57    0.23
   0   8   4    1.41    0.20
   0   8   4    1.14    0.27
   0  -8   4    1.37    0.17
   0  -8   4    1.43    0.32
   0   8   5   11.87    0.44
   0  -8   5   11.93    0.37
   0   8   5   11.96    0.63
   0   8  -5   13.37    0.57
   0  -8  -5   11.35    0.63
   0  -8  -5   12.97    0.51
   0  -8   5   12.82    0.39
   0  -8   5   12.69    0.75
   0   8   6    1.09    0.26
   0   8  -6    1.38    0.22
   0  -8  -6    1.10    0.27
   0  -8   6    1.25    0.12
   0  -8   6    1.36    0.13
   0  -8   6    1.41    0.32
   0  -8  -6    1.45    0.19
   0   8   6    1.27    0.15
   0  -8   7    8.74    0.67
   0   8   7    8.79    0.54
   0   8   7    8.57    0.30
   0   8  -7    8.98    0.44
   0  -8  -7    8.26    0.58
   0  -8   7    8.81    0.46
   0  -8   8    0.06    0.13
   0  -8  -8    0.04    0.23
   0  -8   8   -0.01    0.27
   0   8   8    0.38    0.22
   0  -8  -9    6.16    0.56
   0   8   9    5.84    0.44
   0  -8   9    6.74    0.40
   0  -8   9    5.88    0.61
   0  -8 -10    3.86    0.47
   0  -8  10    3.78    0.50
   0   8  10    3.27    0.34
   0  -8 -11    0.72    0.31
   0  -8  11    0.16    0.25
   0   8  11    0.74    0.22
   0  -8 -12    0.55    0.26
   0  -8  12    0.78    0.34
   0  -8  13   -0.62    0.33
   0  -8 -13   -0.72    0.39
   0  -9   0    0.09    0.19
   0   9   0   -0.22    0.21
   0  -9   0    0.17    0.15
   0   9   1    4.74    0.39
   0  -9  -1    5.08    0.38
   0  -9   1    4.55    0.43
   0  -9   1    5.03    0.34
   0  -9  -1    4.66    0.40
   0   9   2   29.63    0.91
   0  -9  -2   31.87    0.98
   0  -9   2   32.49    0.82
   0  -9   2   31.34    1.11
   0  -9  -2   30.77    0.96
   0  -9  -3   24.41    0.89
   0  -9  -3   25.07    0.84
   0  -9   3   25.00    1.03
   0  -9   3   26.24    0.69
   0   9   3   25.33    0.81
   0  -9   4   30.95    0.71
   0   9  -4   32.25    0.97
   0  -9   4   30.69    1.19
   0   9   4   29.80    0.82
   0  -9  -4   30.52    0.89
   0  -9  -4   30.07    1.04
   0   9   5    1.68    0.20
   0  -9  -5    1.66    0.22
   0  -9  -5    1.82    0.31
   0  -9   5    1.51    0.15
   0  -9   5    1.82    0.35
   0   9   6   27.98    1.02
   0   9   6   27.27    0.68
   0  -9  -6   27.31    1.06
   0  -9  -6   29.00    0.81
   0  -9  -7    5.31    0.51
   0   9   7    5.47    0.47
   0  -9   7    6.48    0.60
   0  -9  -8    7.53    0.61
   0   9   8    6.99    0.54
   0  -9   8    7.52    0.66
   0   9   9    0.62    0.25
   0  -9   9    0.62    0.31
   0  -9  -9    0.26    0.24
   0  -9  10    1.39    0.39
   0   9  10    1.19    0.26
   0  -9 -10    1.13    0.29
   0  -9 -11    3.43    0.50
   0  -9  11    3.13    0.49
   0  -9  12   -0.45    0.35
   0  -9 -12   -0.52    0.32
   0 -10   0   35.30    1.18
   0  10   0   34.20    1.15
   0 -10   0   36.38    1.01
   0 -10   1    2.35    0.36
   0 -10  -1    2.57    0.34
   0 -10   1    3.23    0.29
   0 -10  -1    3.43    0.35
   0  10  -1    2.78    0.37
   0  10   1    2.85    0.34
   0 -10   2   -0.03    0.13
   0  10   2   -0.24    0.17
   0 -10   2   -0.23    0.23
   0 -10  -2    0.16    0.17
   0 -10  -2    0.04    0.16
   0  10   3    1.88    0.26
   0 -10   3    1.62    0.20
   0 -10  -3    1.50    0.25
   0 -10   3    1.89    0.35
   0 -10  -3    1.65    0.28
   0 -10   4    8.73    0.67
   0  10   4    7.80    0.45
   0 -10  -4    7.44    0.47
   0 -10  -4    7.65    0.54
   0 -10  -5    0.70    0.24
   0 -10   5    0.91    0.29
   0 -10  -5    0.81    0.18
   0 -10  -6    0.48    0.27
   0 -10   6    0.57    0.32
   0 -10   7    0.51    0.28
   0 -10  -7    1.51    0.33
   0 -10   8    0.35    0.26
   0 -10  -8   -0.43    0.29
   0 -10  -9    4.58    0.53
   0 -10   9    5.53    0.62
   0 -10 -10    0.83    0.31
   0 -10  10   -0.41    0.34
   0 -10 -11    0.58    0.28
   0 -11   0   -0.09    0.21
   0  11   0   -0.20    0.22
   0 -11   0   -0.05    0.17
   0 -11   1    5.44    0.39
   0 -11  -1    4.70    0.45
   0 -11  -1    5.76    0.44
   0  11   1    4.74    0.45
   0  11  -1    4.29    0.46
   0 -11   1    4.94    0.50
   0 -11  -2    1.24    0.26
   0 -11  -2    1.01    0.25
   0 -11   2    1.60    0.33
   0  11  -2    1.13    0.32
   0  11   2    0.66    0.21
   0 -11  -3    1.82    0.30
   0 -11  -3    2.04    0.33
   0  11   3    1.77    0.26
   0 -11   3    1.89    0.36
   0 -11  -4    1.76    0.30
   0 -11  -4    1.10    0.24
   0 -11   4    1.49    0.37
   0 -11  -5    1.12    0.29
   0 -11   5    1.16    0.34
   0 -11  -6    0.23    0.23
   0 -11   6    0.26    0.26
   0 -11  -7    2.18    0.37
   0 -11   7    2.50    0.45
   0 -11   8   -0.12    0.27
   0 -11  -8    0.10    0.25
   0 -11  -9    0.16    0.25
   0 -11 -10    0.16    0.25
   0 -12   0    3.90    0.43
   0  12   0    2.98    0.38
   0  12  -1    0.80    0.28
   0 -12   1    0.51    0.21
   0 -12  -1    1.12    0.29
   0  12   1    1.13    0.26
   0 -12  -2   -0.06    0.19
   0  12  -2    0.23    0.23
   0 -12   2   -0.09    0.27
   0 -12  -2   -0.36    0.20
   0 -12  -3    2.21    0.34
   0 -12  -3    2.72    0.37
   0 -12   3    2.57    0.44
   0  12  -3    2.14    0.42
   0 -12  -4    1.64    0.33
   0 -12   4    1.24    0.35
   0  12  -4    0.79    0.31
   0 -12  -5    0.82    0.27
   0 -12   5    0.64    0.29
   0 -12   6   -0.21    0.34
   0 -12  -6    0.36    0.25
   0 -12  -7    0.65    0.32
   0 -12  -8   -0.22    0.32
   0 -13   0    0.14    0.26
   0 -13   1    1.15    0.34
   0 -13  -1    0.63    0.26
   0  13  -1    0.87    0.29
   0 -13   2    0.47    0.26
   0  13  -2    0.69    0.32
   0  13  -3    0.06    0.27
   0 -13   3    1.03    0.32
   0  13  -4    0.39    0.29
   0 -13   4    0.72    0.30
   0  13  -5    0.40    0.33
   0 -13  -6    0.19    0.23
   0 -13  -7    0.82    0.28
   0 -14   1    0.79    0.35
  -1   0  19   -0.07    0.23
  -1   0  18    0.75    0.30
   1   0 -18    1.59    0.36
  -1   0  17   -0.06    0.24
   1   0 -17   -0.12    0.25
  -1   0  16    2.89    0.40
   1   0 -16    2.41    0.41
  -1   0  15   -0.03    0.20
   1   0 -15   -0.26    0.23
  -1   0  14    0.20    0.19
   1   0 -14    0.37    0.23
   1   0 -13    0.22    0.19
  -1   0  13   -0.06    0.18
  -1   0  12    3.69    0.37
   1   0 -12    3.16    0.37
  -1   0  11    0.28    0.20
   1   0 -11   -0.07    0.19
   1   0 -10   15.64    0.67
  -1   0  10   15.18    0.66
  -1   0   9    0.22    0.16
   1   0  -9   -0.23    0.20
  -1   0   9   -0.35    0.21
   1   0  -8  533.30    6.18
  -1   0   8  526.80    6.14
  -1   0   8  540.12    6.17
   1   0  -7   -0.13    0.15
  -1   0   7   -0.11    0.15
  -1   0   6   45.71    0.97
  -1   0   6   45.84    0.97
   1   0  -6   44.54    0.97
   1   0  -5   -0.11    0.13
  -1   0   5    0.01    0.12
   1   0  -5   -0.08    0.14
  -1   0   5   -0.04    0.14
   1   0  -4 9769.88   93.98
  -1   0   4 9833.19   93.96
  -1   0   4 9999.00   93.96
   1   0  -4 9609.53   93.96
   1   0  -3    0.02    0.10
  -1   0   3    0.02    0.10
  -1   0   3    0.03    0.09
   1   0  -3   -0.04    0.08
   1   0  -3    0.05    0.09
  -1   0   3   -0.02    0.10
   1   0  -2    1.77    0.15
   1   0  -2    2.15    0.14
   1   0  -2    1.86    0.16
  -1   0   2    2.00    0.15
  -1   0   2    1.93    0.14
  -1   0   2    1.67    0.13
  -1   0   1    0.17    0.08
   1   0  -1    0.04    0.07
   1   0  -1    0.13    0.07
  -1   0   1    0.09    0.08
  -1   0   1    0.13    0.08
   1   0   0  466.74    4.83
  -1   0   0  470.47    4.84
  -1   0   0  462.24    4.76
  -1   0  -1    0.02    0.07
   1   0   1    0.10    0.07
  -1   0  -1    0.13    0.08
   1   0   1    0.01    0.08
   1   0   1    0.12    0.07
  -1   0  -1    0.10    0.07
  -1   0  -2    4.62    0.19
   1   0   2    4.38    0.19
   1   0   2    4.25    0.18
  -1   0  -2    4.26    0.22
   1   0   2    4.34    0.22
  -1   0  -2    4.44    0.14
   1   0   3    0.11    0.09
   1   0   3    0.00    0.05
  -1   0  -3    0.18    0.09
  -1   0  -3    0.10    0.07
  -1   0  -3    0.07    0.10
   1   0   3    0.03    0.07
   1   0   3   -0.01    0.07
  -1   0  -4  140.09    1.89
   1   0   4  136.78    1.69
  -1   0  -4  137.61    1.79
  -1   0  -4  135.22    1.71
   1   0   4  131.65    1.55
   1   0   4  139.84    1.90
  -1   0  -5    0.05    0.12
   1   0   5   -0.02    0.11
   1   0   5   -0.02    0.09
   1   0   5    0.07    0.13
  -1   0  -5   -0.02    0.10
  -1   0  -6  221.45    2.84
  -1   0  -6  224.53    2.92
   1   0   6  222.38    2.66
   1   0   6  217.07    2.84
   1   0   7   -0.04    0.10
   1   0   7   -0.11    0.14
  -1   0  -7   -0.19    0.13
  -1   0  -7   -0.09    0.13
   1   0   8   87.43    1.59
   1   0   8   87.02    1.41
  -1   0  -8   86.58    1.62
  -1   0  -8   85.92    1.56
   1   0   9   -0.01    0.12
  -1   0  -9    0.16    0.16
  -1   0  -9   -0.29    0.16
   1   0   9    0.18    0.18
   1   0  10   44.17    1.00
  -1   0 -10   43.40    1.14
  -1   0 -11   -0.04    0.18
   1   0  11    0.04    0.15
  -1   0 -12    0.42    0.21
   1   0  12    0.16    0.15
  -1   0 -13    0.04    0.19
   1   0  13    0.19    0.16
   1   0  13   -0.05    0.15
   1   0  14    3.88    0.36
  -1   0 -14    4.25    0.44
   1   0  14    4.56    0.35
   1   0  15    0.16    0.17
  -1   0 -15    0.33    0.22
  -1   0 -16    0.78    0.26
   1   0  16    1.07    0.25
  -1   0 -17   -0.18    0.24
  -1   0 -18    5.23    0.58
   1   1 -19   -0.77    0.38
  -1  -1  19    0.51    0.29
   1   1 -18    0.56    0.27
   1  -1 -18    1.13    0.33
  -1   1  18    1.36    0.37
  -1  -1  18    0.69    0.25
  -1   1  17    1.93    0.38
   1  -1 -17    1.66    0.35
   1   1 -17    1.13    0.31
  -1  -1  17    1.40    0.30
  -1  -1  16   -0.01    0.21
  -1   1  16    0.12    0.24
   1  -1 -16   -0.19    0.25
   1   1 -16   -0.06    0.22
  -1  -1  15    0.31    0.20
   1   1 -15    0.57    0.26
  -1   1  15    0.67    0.25
   1  -1 -15    0.65    0.27
   1   1 -14    7.39    0.57
   1  -1 -14    8.17    0.61
  -1  -1  14    8.21    0.57
  -1   1  14    8.04    0.59
   1  -1 -13    4.29    0.34
   1  -1 -13    4.53    0.45
   1   1 -13    4.65    0.44
  -1   1  13    5.54    0.48
  -1  -1  13    4.79    0.42
   1  -1 -12    0.30    0.21
   1   1 -12    0.10    0.21
  -1   1  12    0.53    0.21
   1  -1 -12    0.67    0.17
  -1  -1  11    2.82    0.32
  -1   1  11    2.64    0.33
   1   1 -11    2.68    0.33
   1  -1 -11    2.68    0.34
  -1  -1  10    3.84    0.34
   1  -1 -10    3.33    0.34
   1   1 -10    3.59    0.34
  -1   1  10    3.52    0.34
  -1   1   9    8.18    0.48
   1  -1  -9    7.65    0.48
   1   1  -9    7.84    0.45
  -1  -1   9    8.41    0.46
  -1  -1   9    7.64    0.44
   1   1  -8  302.92    3.85
  -1   1   8  308.76    3.92
  -1  -1   8  297.97    3.84
  -1   1   8  305.22    3.96
   1  -1  -8  301.96    3.93
  -1  -1   8  302.60    3.82
   1  -1  -7    1.30    0.20
  -1   1   7    1.31    0.21
   1   1  -7    1.75    0.22
  -1  -1   7    1.71    0.21
  -1   1   7    1.59    0.21
   1   1  -7    1.19    0.18
  -1  -1   7    1.54    0.20
  -1  -1   6    4.16    0.28
   1  -1  -6    3.90    0.29
  -1   1   6    4.09    0.30
  -1  -1   6    4.09    0.27
   1   1  -6    4.18    0.29
   1   1  -6    4.34    0.29
  -1   1   6    4.12    0.30
   1   1  -5    0.48    0.14
   1  -1  -5    0.30    0.09
  -1  -1   5    0.25    0.13
  -1   1   5    0.23    0.12
   1   1  -5    0.38    0.13
  -1   1   5    0.35    0.15
  -1  -1   5    0.29    0.14
   1  -1  -5    0.30    0.15
   1   1  -4  156.64    2.00
   1   1  -4  150.80    1.99
  -1   1   4  158.48    2.05
  -1  -1   4  153.39    1.99
  -1  -1   4  156.01    2.00
  -1   1   4  156.23    2.05
   1  -1  -4  156.00    2.04
  -1   1   3  485.76    5.04
   1  -1  -3  476.68    5.04
  -1   1   3  475.26    5.05
  -1  -1   3  475.84    5.02
   1   1  -3  471.06    5.03
  -1  -1   3  477.89    5.03
   1   1  -3  479.90    5.03
   1   1  -3  470.13    5.06
   1  -1  -2   47.87    0.77
   1   1  -2   46.32    0.79
   1   1  -2   47.36    0.80
  -1  -1   2   47.61    0.79
  -1   1   2   45.73    0.67
   1  -1  -2   45.47    0.65
  -1   1   2   46.12    0.77
  -1  -1   2   47.57    0.80
   1  -1  -2   47.05    0.78
  -1  -1   2   47.87    0.81
  -1   1   2   46.45    0.78
  -1  -1   1    4.12    0.20
   1   1  -1    4.06    0.21
   1   1  -1    3.90    0.20
   1  -1  -1    4.09    0.17
   1  -1  -1    4.25    0.19
  -1   1   1    3.44    0.19
  -1  -1   1    3.89    0.20
  -1   1   1    4.02    0.16
  -1   1   1    3.73    0.17
  -1   1   1    3.96    0.18
   1  -1  -1    4.02    0.17
  -1  -1   0 1360.25   13.50
  -1   1   0 1351.86   13.53
   1   1   0 1361.26   13.52
  -1  -1   0 1363.64   13.53
   1  -1   0 1379.80   13.53
   1  -1   0 1339.68   13.34
  -1   1   0 1346.01   13.47
  -1   1   0 1332.83   13.38
   1   1   0 1327.12   13.49
   1  -1   0 1339.92   13.46
  -1   1   0 1345.66   13.33
  -1   1  -1  372.01    3.30
   1  -1   1  387.75    3.62
  -1   1  -1  388.78    3.61
   1   1   1  389.25    3.61
  -1  -1  -1  388.30    3.62
   1   1   1  381.18    3.59
   1  -1   1  385.71    3.59
  -1   1  -1  383.35    3.50
  -1   1  -1  389.27    3.63
  -1  -1  -1  385.23    3.60
   1  -1   2   25.80    0.58
  -1  -1  -2   25.18    0.55
   1  -1   2   24.96    0.54
   1   1   2   25.85    0.56
  -1  -1  -2   24.65    0.42
   1   1   2   23.93    0.53
  -1   1  -2   25.54    0.49
  -1   1  -2   25.59    0.55
   1  -1   2   25.05    0.48
  -1   1  -2   25.91    0.58
  -1  -1  -3   -0.07    0.08
  -1   1  -3   -0.04    0.08
   1   1   3    0.02    0.09
   1   1   3   -0.02    0.08
  -1   1  -3    0.00    0.09
   1  -1   3    0.05    0.09
   1  -1   3   -0.04    0.10
  -1  -1  -3    0.04    0.05
   1  -1   3    0.02    0.07
  -1  -1  -3   -0.05    0.11
  -1   1  -3    0.09    0.10
   1  -1   3    0.09    0.05
  -1   1  -4  112.08    1.66
   1  -1   4  107.59    1.54
   1   1   4  111.24    1.57
   1  -1   4  108.24    1.43
  -1   1  -4  108.55    1.43
  -1   1  -4  107.23    1.54
   1   1   4  107.15    1.28
  -1  -1  -4  109.25    1.56
  -1  -1  -4  108.11    1.59
  -1  -1  -4  102.61    1.29
   1  -1   5   15.31    0.45
   1  -1   5   16.32    0.50
   1   1   5   16.24    0.35
  -1   1  -5   16.37    0.57
   1   1   5   17.04    0.53
  -1  -1  -5   15.86    0.53
   1   1   5   15.27    0.53
   1  -1   5   14.99    0.43
  -1   1  -5   15.62    0.45
  -1  -1  -5   16.45    0.51
   1   1   6   20.84    0.44
   1  -1   6   20.60    0.57
  -1   1  -6   22.30    0.69
   1  -1   6   21.58    0.61
  -1  -1  -6   20.76    0.61
   1   1   6   22.17    0.66
  -1  -1  -6   21.38    0.66
  -1   1  -6   21.22    0.57
   1   1   6   22.44    0.68
  -1  -1  -7   -0.06    0.12
   1   1   7   -0.05    0.13
  -1   1  -7    0.26    0.12
   1  -1   7    0.00    0.11
  -1   1  -7    0.11    0.15
   1  -1   7    0.02    0.12
  -1  -1  -7    0.07    0.14
   1   1   7    0.17    0.08
   1   1   7   -0.01    0.12
  -1   1  -8   19.06    0.62
  -1   1  -8   20.97    0.74
   1  -1   8   18.15    0.61
   1   1   8   18.96    0.49
  -1  -1  -8   18.58    0.68
  -1  -1  -8   19.70    0.66
   1  -1   8   20.05    0.64
   1   1   8   19.69    0.72
   1  -1   9   15.29    0.60
  -1   1  -9   14.88    0.58
   1   1   9   15.59    0.46
   1  -1   9   15.68    0.60
  -1  -1  -9   15.39    0.65
  -1  -1  -9   14.80    0.60
   1  -1  10    0.92    0.20
  -1   1 -10    0.75    0.19
   1  -1  10    1.02    0.18
  -1  -1 -10    1.19    0.22
   1   1  10    0.80    0.15
  -1  -1 -10    0.71    0.23
   1  -1  10    0.85    0.21
   1   1  11    1.49    0.19
  -1   1 -11    1.34    0.25
   1  -1  11    0.95    0.20
   1  -1  11    1.35    0.21
  -1  -1 -11    1.16    0.25
  -1  -1 -12   11.61    0.66
   1   1  12   13.24    0.49
  -1   1 -12   11.91    0.61
   1  -1  12   12.49    0.60
   1  -1  12   12.50    0.56
   1  -1  13    0.96    0.21
  -1  -1 -13    0.92    0.28
   1  -1  13    1.06    0.24
   1   1  13    0.80    0.15
  -1   1 -13    0.86    0.24
  -1   1 -14    1.65    0.29
   1  -1  14    1.88    0.27
   1  -1  14    1.86    0.27
  -1  -1 -14    1.67    0.32
   1   1  15    0.35    0.22
  -1   1 -15   -0.33    0.25
   1  -1  15   -0.21    0.17
  -1  -1 -15   -0.20    0.25
  -1  -1 -16    1.33    0.31
   1   1  16    1.14    0.28
  -1   1 -16    1.06    0.27
  -1   1 -17    0.55    0.25
   1   1  17    0.60    0.24
  -1  -1 -18   -0.67    0.32
  -1   2  18    0.27    0.31
  -1  -2  18    0.25    0.26
   1   2 -18   -0.24    0.30
   1   2 -17   -0.37    0.27
   1  -2 -17    0.08    0.23
  -1   2  17    0.20    0.25
  -1  -2  17    0.04    0.25
   1   2 -16    0.41    0.23
  -1   2  16    0.21    0.25
   1  -2 -16    0.61    0.25
  -1  -2  16    0.71    0.25
  -1  -2  15   -0.19    0.19
   1  -2 -15   -0.27    0.25
   1   2 -15    0.11    0.20
  -1   2  15   -0.13    0.27
  -1  -2  14    1.91    0.30
   1  -2 -14    2.00    0.35
  -1   2  14    1.38    0.29
   1   2 -14    1.72    0.31
   1  -2 -13    3.73    0.29
  -1  -2  13    3.67    0.38
  -1   2  13    3.99    0.42
   1  -2 -13    3.91    0.44
   1   2 -13    3.34    0.37
   1   2 -12    0.74    0.23
  -1   2  12    0.86    0.25
   1  -2 -12    0.91    0.26
  -1  -2  12    1.15    0.24
   1  -2 -12    1.04    0.16
   1  -2 -11   11.54    0.66
   1   2 -11   12.23    0.60
   1  -2 -11   11.02    0.43
  -1   2  11   12.11    0.65
  -1  -2  11   11.90    0.59
  -1  -2  10    0.81    0.21
   1  -2 -10    0.71    0.23
   1  -2 -10    0.56    0.12
   1   2 -10    0.56    0.18
  -1  -2  10    0.56    0.18
  -1   2  10    0.84    0.23
  -1   2   9   53.30    1.27
   1   2  -9   51.52    1.17
  -1  -2   9   52.02    1.17
   1  -2  -9   52.75    1.28
  -1  -2   9   51.56    1.16
   1   2  -8    0.06    0.13
   1  -2  -8   -0.10    0.16
  -1  -2   8   -0.01    0.12
   1   2  -8    0.08    0.14
  -1   2   8    0.18    0.16
  -1  -2   8    0.40    0.16
   1   2  -7    0.12    0.13
  -1   2   7   -0.09    0.13
   1   2  -7    0.05    0.12
  -1  -2   7    0.09    0.10
  -1  -2   7   -0.07    0.13
   1  -2  -7    0.16    0.15
  -1  -2   6   10.00    0.41
   1   2  -6   10.07    0.42
   1  -2  -6    9.12    0.25
   1   2  -6    8.93    0.40
   1  -2  -6    8.90    0.44
  -1  -2   6    9.73    0.42
  -1   2   6   10.08    0.46
   1  -2  -5  170.56    2.34
   1   2  -5  169.91    2.24
   1  -2  -5  166.44    1.81
  -1  -2   5  172.28    2.25
   1   2  -5  169.70    2.25
  -1   2   5  172.30    2.36
  -1  -2   5  169.99    2.22
  -1  -2   4   94.49    1.38
  -1   2   4   93.95    1.45
   1  -2  -4   91.35    1.03
   1  -2  -4   94.16    1.45
   1   2  -4   92.58    1.40
  -1  -2   4   94.28    1.41
  -1  -2   3  247.49    2.81
   1  -2  -3  235.37    2.47
   1  -2  -3  243.91    2.83
  -1  -2   3  238.67    2.83
  -1   2   3  243.78    2.84
   1   2  -3  237.86    2.83
  -1   2   3  225.72    2.46
  -1   2   3  237.38    2.79
   1   2  -3  246.27    2.93
   1  -2  -2  102.93    1.24
  -1   2   2  106.51    1.46
  -1  -2   2  106.17    1.47
   1   2  -2  105.34    1.47
  -1   2   2  103.32    1.24
   1   2  -2  108.98    1.53
   1  -2  -2  106.30    1.42
  -1   2   2  106.84    1.43
  -1   2   1   58.00    0.85
   1  -2  -1   58.43    0.85
  -1  -2   1   59.63    0.96
   1   2  -1   59.83    0.99
  -1  -2   1   60.62    0.99
  -1   2   1   56.59    0.95
   1  -2  -1   58.86    0.95
  -1   2   1   57.02    0.84
   1   2  -1   58.62    0.96
   1  -2  -1   57.26    0.83
  -1  -2   0   72.52    1.11
   1  -2   0   71.47    1.10
  -1   2   0   71.00    1.04
   1  -2   0   70.09    0.91
  -1   2   0   70.63    0.91
  -1   2   0   70.67    0.91
  -1   2   0   71.49    1.09
   1   2   0   71.94    1.11
   1   2   0   72.51    1.10
  -1   2   0   71.66    1.11
   1  -2   0   71.26    1.04
  -1  -2   0   73.45    1.12
  -1  -2  -1  152.18    1.93
   1   2   1  151.64    1.89
  -1   2  -1  146.30    1.57
  -1   2  -1  150.05    1.88
  -1  -2  -1  152.53    1.90
  -1   2  -1  149.75    1.90
  -1   2  -1  144.61    1.60
   1  -2   1  147.50    1.87
   1   2   1  152.22    1.95
   1  -2   1  145.95    1.93
  -1   2  -1  148.79    1.95
   1   2   2   24.59    0.59
  -1   2  -2   25.62    0.61
   1  -2   2   24.36    0.59
  -1   2  -2   25.66    0.61
  -1   2  -2   24.96    0.57
   1   2   2   25.62    0.55
   1  -2   2   24.86    0.55
  -1  -2  -2   25.38    0.56
  -1  -2  -3  149.94    2.04
  -1   2  -3  145.17    1.65
   1  -2   3  150.47    2.03
  -1  -2  -3  151.74    1.93
  -1  -2  -3  145.86    1.58
   1   2   3  155.46    1.95
  -1   2  -3  151.91    2.05
   1   2   3  151.28    2.03
   1  -2   3  145.87    1.91
  -1   2  -3  154.23    2.08
  -1  -2  -4  255.90    3.20
   1  -2   4  257.41    2.64
  -1   2  -4  267.11    3.27
   1  -2   4  255.48    3.06
  -1  -2  -4  252.40    3.05
   1   2   4  259.61    3.07
   1  -2   4  257.53    3.18
  -1   2  -4  262.35    3.20
  -1   2  -4  255.14    2.80
   1   2   5   61.66    1.10
  -1   2  -5   65.17    1.26
  -1  -2  -5   61.16    1.08
  -1  -2  -5   62.43    1.22
   1   2   5   60.36    1.21
   1  -2   5   60.25    1.08
   1  -2   5   61.98    0.81
  -1   2  -5   60.34    0.93
   1  -2   5   61.25    1.17
   1   2   6   92.36    1.64
   1  -2   6   88.66    1.45
  -1   2  -6   92.25    1.33
   1  -2   6   86.37    1.31
   1  -2   6   92.37    1.58
   1  -2   6   90.77    1.20
  -1  -2  -6   90.46    1.61
  -1  -2  -6   91.51    1.47
  -1   2  -6   94.81    1.69
   1   2   6   94.33    1.50
  -1  -2  -7   28.61    0.86
   1  -2   7   29.22    0.83
  -1   2  -7   30.30    0.91
   1   2   7   29.96    0.89
  -1   2  -7   29.56    0.68
   1   2   7   30.45    0.80
  -1  -2  -7   28.39    0.75
   1  -2   7   30.39    0.60
   1  -2   7   27.49    0.67
   1   2   7   28.58    0.44
  -1  -2  -8   89.38    1.73
  -1  -2  -8   87.97    1.55
   1  -2   8   91.20    1.34
   1  -2   8   86.07    1.45
   1  -2   8   90.97    1.67
   1   2   8   88.21    1.10
  -1   2  -8   88.82    1.46
   1   2   8   90.80    1.59
   1  -2   9    6.93    0.32
   1  -2   9    6.47    0.37
  -1  -2  -9    6.53    0.39
  -1  -2  -9    6.50    0.47
  -1   2  -9    6.84    0.37
   1  -2   9    6.35    0.42
   1   2   9    6.22    0.22
  -1  -2 -10   11.88    0.55
   1  -2  10   13.36    0.49
  -1  -2 -10   13.00    0.66
   1  -2  10   12.91    0.61
  -1   2 -10   12.16    0.53
   1  -2  10   11.32    0.52
   1   2  10   12.65    0.34
   1  -2  11   36.67    1.01
   1  -2  11   38.30    0.92
   1   2  11   36.67    0.68
   1  -2  11   37.84    1.10
  -1  -2 -11   38.03    1.19
  -1   2 -11   35.76    0.99
  -1   2 -12   17.71    0.71
  -1  -2 -12   17.91    0.85
   1   2  12   16.55    0.44
   1  -2  12   17.01    0.74
   1  -2  12   17.24    0.63
   1  -2  13    1.89    0.24
  -1  -2 -13    1.72    0.31
  -1   2 -13    1.70    0.26
   1  -2  13    1.35    0.26
  -1  -2 -14   -0.07    0.22
  -1   2 -14    0.24    0.20
   1  -2  14    0.36    0.18
   1  -2  14   -0.17    0.20
  -1   2 -15    0.90    0.24
   1  -2  15    0.78    0.27
  -1  -2 -15    0.74    0.29
  -1  -2 -16    0.56    0.31
   1   2  16    0.55    0.24
  -1  -2 -17    0.36    0.29
   1   2  17   -0.13    0.28
  -1  -3  18   -0.01    0.28
  -1  -3  17    0.25    0.21
   1  -3 -17    0.11    0.27
  -1   3  17   -0.23    0.24
   1   3 -17   -0.12    0.26
  -1  -3  17   -0.07    0.30
  -1  -3  16   -0.05    0.18
   1  -3 -16    0.06    0.24
  -1   3  16    0.45    0.29
   1   3 -16    0.43    0.23
   1   3 -15    0.47    0.23
  -1  -3  15    0.58    0.24
  -1   3  15    0.06    0.24
   1  -3 -15    0.20    0.22
  -1   3  14    0.03    0.23
  -1  -3  14    0.09    0.17
   1   3 -14    0.08    0.18
   1  -3 -14    0.21    0.24
   1  -3 -13    2.21    0.35
  -1  -3  13    2.41    0.33
  -1   3  13    2.25    0.35
   1   3 -13    2.14    0.30
   1  -3 -12    3.86    0.24
  -1   3  12    4.45    0.45
   1  -3 -12    3.96    0.43
  -1  -3  12    4.51    0.39
   1   3 -12    4.47    0.39
   1  -3 -11    5.75    0.26
   1  -3 -11    5.58    0.49
  -1  -3  11    5.90    0.43
   1   3 -11    6.02    0.42
   1   3 -10    2.42    0.29
  -1  -3  10    2.43    0.29
   1  -3 -10    2.59    0.16
   1  -3 -10    2.69    0.36
  -1  -3  10    2.23    0.27
   1  -3  -9   26.98    0.92
   1   3  -9   27.14    0.83
   1   3  -9   27.25    0.81
  -1  -3   9   27.97    0.84
   1  -3  -9   26.69    0.50
   1  -3  -9   26.25    0.48
  -1  -3   9   27.51    0.80
   1  -3  -8   19.95    0.76
  -1  -3   8   20.96    0.69
   1   3  -8   20.89    0.68
   1   3  -8   21.71    0.68
   1  -3  -8   20.25    0.35
  -1  -3   8   20.54    0.66
  -1  -3   7  150.42    2.16
   1   3  -7  152.89    2.23
  -1   3   7  157.24    2.43
   1  -3  -7  150.44    2.37
   1   3  -7  153.99    2.20
  -1  -3   7  152.64    2.23
  -1  -3   6   12.04    0.47
   1   3  -6   11.95    0.46
  -1   3   6   11.74    0.42
   1  -3  -6   12.08    0.53
  -1   3   6   12.26    0.54
  -1  -3   6   11.77    0.44
   1   3  -5   27.63    0.71
  -1   3   5   27.45    0.77
   1  -3  -5   29.11    0.78
  -1  -3   5   29.92    0.73
  -1  -3   5   29.18    0.68
  -1   3   5   27.18    0.65
  -1   3   4    0.38    0.15
   1   3  -4    0.23    0.12
  -1  -3   4    0.31    0.12
  -1   3   4    0.32    0.12
  -1  -3   4    0.22    0.13
   1  -3  -4    0.28    0.14
  -1   3   3  233.95    2.49
   1   3  -3  241.57    2.91
   1  -3  -3  239.44    2.89
  -1   3   3  237.20    2.86
  -1   3   3  241.82    2.91
  -1  -3   3  240.71    2.91
   1   3  -2   40.90    0.82
   1  -3  -2   39.35    0.74
  -1   3   2   39.41    0.75
  -1   3   2   39.17    0.82
  -1   3   2   38.79    0.80
   1   3  -2   42.52    0.90
   1  -3  -2   40.46    0.80
  -1  -3   2   38.65    0.80
  -1   3   2   38.29    0.61
   1  -3  -1  544.00    5.70
   1   3  -1  554.20    5.94
  -1   3   1  543.86    5.92
  -1   3   1  544.29    5.71
  -1   3   1  543.29    5.72
   1   3  -1  548.17    5.96
   1  -3  -1  542.58    5.90
  -1   3   1  548.70    5.93
  -1  -3   1  548.51    5.95
  -1   3   0    7.36    0.23
   1   3   0    7.33    0.33
   1   3   0    7.46    0.34
  -1  -3   0    7.18    0.33
   1  -3   0    7.15    0.32
   1  -3   0    7.14    0.33
  -1   3   0    7.24    0.34
   1  -3   0    7.17    0.22
  -1   3   0    7.11    0.33
  -1  -3   0    7.37    0.33
  -1   3   0    7.44    0.29
   1  -3   1    1.31    0.08
  -1  -3  -1    1.04    0.18
  -1   3  -1    1.32    0.08
  -1  -3  -1    1.27    0.15
   1  -3   1    1.32    0.17
  -1   3  -1    1.31    0.18
   1  -3   1    1.30    0.17
  -1   3  -1    1.11    0.18
  -1   3  -1    1.59    0.16
   1   3   1    1.09    0.14
   1   3   1    1.24    0.17
   1  -3   2    0.99    0.18
  -1  -3  -2    0.94    0.15
   1  -3   2    0.87    0.15
  -1   3  -2    0.72    0.16
  -1  -3  -2    0.76    0.10
  -1   3  -2    0.77    0.15
   1   3   2    0.76    0.17
  -1   3  -2    0.87    0.17
  -1  -3  -2    0.55    0.16
   1   3   2    0.67    0.12
   1   3   3  181.57    2.26
  -1  -3  -3  178.83    2.45
  -1  -3  -3  171.60    2.01
   1   3   3  181.69    2.45
   1  -3   3  180.21    2.45
  -1   3  -3  184.95    2.49
  -1  -3  -3  180.18    2.28
   1  -3   3  178.97    2.37
  -1   3  -3  183.18    2.47
  -1  -3  -4   69.07    1.32
   1   3   4   70.99    1.33
  -1  -3  -4   70.35    1.17
  -1   3  -4   70.28    0.83
  -1   3  -4   74.88    1.38
   1  -3   4   71.31    1.35
  -1   3  -4   72.37    1.35
   1  -3   4   72.24    1.27
   1   3   4   73.27    1.19
   1  -3   5    0.88    0.17
   1   3   5    0.99    0.15
   1   3   5    0.83    0.09
  -1   3  -5    0.86    0.09
  -1  -3  -5    1.03    0.20
  -1   3  -5    1.02    0.19
   1  -3   5    0.86    0.19
  -1  -3  -5    0.86    0.14
   1  -3   6   34.29    0.53
  -1  -3  -6   33.07    0.78
   1   3   6   32.23    0.52
   1   3   6   34.41    0.96
  -1   3  -6   34.60    0.62
  -1  -3  -6   34.81    0.96
   1  -3   6   34.08    0.86
   1  -3   6   34.40    0.94
   1   3   6   34.14    0.79
  -1   3  -6   36.55    1.00
   1  -3   7    0.29    0.17
   1  -3   7    0.11    0.07
   1  -3   7    0.12    0.15
   1   3   7    0.10    0.06
  -1   3  -7    0.54    0.10
  -1  -3  -7    0.28    0.13
  -1  -3  -7   -0.06    0.17
   1  -3   7    0.07    0.09
   1   3   7    0.20    0.11
   1  -3   8   17.23    0.44
   1   3   8   17.03    0.60
  -1  -3  -8   16.15    0.70
  -1  -3  -8   15.07    0.55
   1  -3   8   15.72    0.63
  -1   3  -8   16.61    0.49
   1   3   8   16.24    0.37
   1  -3   8   16.52    0.69
   1  -3   8   15.33    0.48
  -1  -3  -9    2.27    0.33
   1  -3   9    2.63    0.23
  -1  -3  -9    2.69    0.26
  -1   3  -9    2.73    0.23
   1  -3   9    2.94    0.34
   1  -3   9    2.89    0.21
   1  -3  10    0.13    0.11
  -1  -3 -10    0.25    0.16
  -1   3 -10    0.02    0.14
  -1  -3 -10    0.22    0.24
   1  -3  10    0.12    0.19
   1  -3  10    0.26    0.13
  -1   3 -11   14.49    0.57
   1  -3  11   14.45    0.71
   1  -3  11   13.43    0.56
   1  -3  11   15.46    0.53
  -1  -3 -11   14.04    0.75
  -1  -3 -11   13.39    0.59
  -1   3 -12    0.45    0.18
   1  -3  12    0.05    0.19
  -1  -3 -12    0.36    0.23
   1  -3  12    0.21    0.12
   1  -3  13    0.26    0.13
  -1  -3 -13    0.45    0.25
  -1   3 -13    0.30    0.15
   1  -3  13    0.40    0.22
  -1  -3 -14    1.17    0.31
  -1   3 -14    1.05    0.23
   1  -3  14    0.85    0.25
   1  -3  15   19.95    0.94
  -1  -3 -15   21.47    1.08
  -1  -3 -16    2.89    0.47
   1  -3  16    1.61    0.34
   1   3  17   -0.03    0.26
  -1  -4  18    0.76    0.32
  -1   4  17    0.43    0.28
  -1  -4  17    0.19    0.30
  -1   4  16    5.86    0.60
   1  -4 -16    4.97    0.58
  -1  -4  16    4.56    0.57
  -1  -4  16    5.04    0.48
   1   4 -16    5.50    0.50
  -1   4  15    0.61    0.31
  -1  -4  15    0.29    0.18
   1   4 -15    0.67    0.25
   1  -4 -15    0.23    0.27
  -1   4  14    0.05    0.22
   1  -4 -14    0.17    0.23
  -1  -4  14    0.36    0.20
   1   4 -14    0.28    0.18
   1   4 -13    2.63    0.32
  -1  -4  13    2.28    0.30
   1  -4 -13    2.72    0.41
   1  -4 -12    0.01    0.04
   1   4 -12   -0.03    0.17
   1  -4 -12   -0.23    0.24
  -1   4  12    0.20    0.12
  -1  -4  12    0.21    0.17
  -1  -4  11   -0.08    0.17
   1   4 -11    0.14    0.16
   1  -4 -11   -0.13    0.23
  -1   4  11    0.15    0.13
  -1  -4  10   30.68    0.93
  -1  -4  10   29.33    0.87
  -1   4  10   29.04    0.77
   1  -4 -10   28.86    1.06
   1   4 -10   30.75    0.90
   1  -4  -9    0.73    0.20
  -1  -4   9    0.76    0.21
  -1  -4   9    0.53    0.16
   1   4  -9    1.13    0.21
  -1   4   9    0.80    0.17
  -1  -4   8    7.45    0.43
  -1   4   8    6.83    0.34
  -1  -4   8    6.79    0.38
   1  -4  -8    7.20    0.49
   1   4  -8    7.31    0.41
  -1  -4   7    5.27    0.35
   1   4  -7    5.66    0.35
  -1  -4   7    5.31    0.32
   1  -4  -7    5.11    0.40
  -1   4   7    5.05    0.29
   1  -4  -6   41.23    1.07
  -1   4   6   42.38    0.88
  -1   4   6   44.63    1.09
  -1  -4   6   42.47    0.91
   1   4  -6   44.00    0.98
  -1  -4   6   44.04    0.98
  -1  -4   5   59.79    1.16
   1   4  -5   58.58    1.15
   1  -4  -5   59.62    1.23
  -1   4   5   58.55    1.08
  -1  -4   5   60.27    1.09
  -1   4   5   60.86    1.26
  -1  -4   4    7.78    0.38
   1  -4  -4    7.72    0.40
  -1   4   4    7.72    0.35
   1   4  -4    7.66    0.38
  -1  -4   4    8.13    0.35
  -1   4   4    7.26    0.40
  -1   4   4    8.30    0.40
  -1   4   3   10.41    0.46
  -1  -4   3   11.43    0.45
  -1   4   3   11.04    0.43
   1  -4  -3   11.54    0.42
  -1   4   3   10.78    0.28
  -1   4   3   11.40    0.43
   1  -4  -3   10.88    0.42
   1   4  -3   11.53    0.46
  -1   4   2  334.22    4.03
   1  -4  -2  336.07    3.93
   1  -4  -2  333.90    3.83
  -1  -4   2  344.73    4.01
   1   4  -2  350.86    4.14
  -1   4   2  331.99    3.84
  -1   4   2  339.69    3.97
   1   4  -2  335.53    3.99
  -1   4   2  329.01    3.66
  -1   4   1  164.30    2.33
  -1   4   1  167.48    2.32
   1  -4  -1  167.20    2.06
   1   4  -1  176.27    2.37
   1  -4  -1  170.28    2.29
   1   4  -1  173.51    2.33
  -1   4   1  165.27    2.06
  -1  -4   1  172.54    2.32
  -1   4   1  164.84    2.10
  -1   4   0   51.45    1.08
   1   4   0   54.93    1.09
   1   4   0   55.56    1.06
  -1  -4   0   53.50    1.07
   1  -4   0   53.41    0.79
  -1   4   0   51.39    0.80
   1  -4   0   55.10    1.08
   1  -4   0   53.83    1.07
  -1   4   0   55.38    1.10
  -1   4  -1    2.23    0.11
  -1  -4  -1    2.23    0.20
   1   4   1    2.50    0.24
  -1   4  -1    2.70    0.26
   1  -4   1    2.30    0.23
   1   4   1    2.42    0.22
  -1  -4  -1    2.59    0.23
  -1   4  -1    2.42    0.26
   1  -4   1    2.38    0.24
   1  -4   1    2.34    0.11
  -1  -4  -2  168.96    2.25
  -1   4  -2  168.55    2.39
   1  -4   2  172.12    2.42
  -1  -4  -2  166.67    2.10
   1  -4   2  169.43    2.36
   1   4   2  170.69    2.23
  -1   4  -2  162.62    1.90
  -1   4  -2  173.84    2.45
   1   4   2  168.69    2.43
  -1  -4  -2  168.93    2.35
   1  -4   3   33.44    0.88
   1  -4   3   32.64    0.83
  -1  -4  -3   33.65    0.87
  -1  -4  -3   33.91    0.76
   1   4   3   33.01    0.74
  -1   4  -3   32.10    0.47
   1   4   3   33.92    0.89
  -1  -4  -3   31.30    0.54
  -1   4  -3   34.15    0.90
  -1  -4  -3   31.87    0.64
  -1  -4  -4    3.06    0.23
   1  -4   4    2.91    0.27
  -1  -4  -4    2.65    0.10
   1   4   4    2.70    0.21
  -1   4  -4    3.08    0.29
  -1  -4  -4    2.76    0.28
   1  -4   4    2.74    0.29
   1   4   4    2.84    0.28
  -1  -4  -5    1.05    0.22
   1  -4   5    1.03    0.21
  -1  -4  -5    0.87    0.15
   1  -4   5    0.55    0.18
   1   4   5    0.76    0.14
   1   4   6    0.10    0.11
  -1  -4  -6    0.09    0.10
   1  -4   6    0.18    0.16
   1   4   6    0.07    0.09
  -1   4  -6    0.11    0.05
   1  -4   6    0.13    0.17
   1  -4   6    0.17    0.05
  -1  -4  -6   -0.06    0.17
  -1   4  -7    8.71    0.27
   1  -4   7    8.38    0.24
   1  -4   7    8.54    0.48
   1  -4   7    8.73    0.53
   1   4   7    8.21    0.28
  -1  -4  -7    8.72    0.39
  -1  -4  -7    8.91    0.54
   1   4   7    8.51    0.39
  -1   4  -8   77.21    1.14
  -1  -4  -8   75.50    1.68
   1  -4   8   71.48    1.11
   1  -4   8   76.42    1.05
   1   4   8   76.04    1.39
  -1  -4  -8   73.45    1.35
   1   4   8   71.21    1.06
   1  -4   8   75.99    1.68
  -1   4  -9    0.04    0.11
   1   4   9    0.00    0.09
  -1  -4  -9   -0.06    0.15
   1  -4   9    0.10    0.10
   1   4   9   -0.14    0.14
   1  -4   9   -0.10    0.23
   1  -4   9    0.01    0.10
  -1  -4  -9    0.40    0.26
  -1  -4 -10    8.23    0.59
   1  -4  10    8.45    0.34
   1  -4  10    7.82    0.36
  -1   4 -10    8.36    0.38
  -1  -4 -10    7.54    0.41
   1   4  10    7.70    0.29
   1  -4  10    7.91    0.56
   1  -4  11    2.48    0.22
  -1  -4 -11    1.82    0.35
  -1  -4 -11    2.39    0.26
  -1   4 -11    2.62    0.24
   1   4  11    2.27    0.17
   1  -4  11    2.08    0.34
   1  -4  11    2.52    0.23
   1  -4  12   12.34    0.47
  -1  -4 -12   11.54    0.75
  -1   4 -12   12.56    0.53
   1  -4  12   11.36    0.70
   1  -4  13    3.18    0.42
  -1  -4 -13    3.13    0.43
   1  -4  14    1.61    0.33
  -1  -4 -14    1.89    0.37
  -1  -4 -15    1.00    0.35
   1  -4  15    0.90    0.29
  -1  -4 -16    3.17    0.51
   1  -4  16    3.09    0.44
  -1  -5  17   -0.82    0.37
   1  -5 -16    1.74    0.42
  -1  -5  16    2.12    0.45
  -1   5  16    2.17    0.45
  -1  -5  15    0.24    0.18
   1  -5 -15   -0.02    0.26
  -1   5  15   -0.22    0.30
  -1  -5  15    0.40    0.29
  -1  -5  14    0.24    0.18
   1  -5 -14    0.88    0.32
  -1  -5  13   -0.14    0.20
   1  -5 -13    0.42    0.31
  -1  -5  12   29.45    1.00
   1  -5 -12   28.60    1.16
  -1  -5  11    0.30    0.20
   1  -5 -11    0.03    0.19
  -1   5  11   -0.07    0.14
  -1  -5  10    5.05    0.39
  -1  -5  10    4.53    0.34
   1  -5 -10    4.60    0.45
  -1   5  10    4.49    0.29
  -1  -5   9    1.15    0.23
  -1  -5   9    0.95    0.18
  -1   5   9    1.26    0.18
   1  -5  -9    1.13    0.28
   1   5  -9    1.34    0.24
   1   5  -8   49.13    1.15
   1  -5  -8   46.29    1.28
  -1  -5   8   45.41    1.02
  -1   5   8   44.65    0.96
  -1  -5   8   49.73    1.16
   1   5  -7    0.70    0.18
  -1  -5   7    0.68    0.15
  -1   5   7    0.60    0.14
  -1  -5   7    0.37    0.15
   1  -5  -7    0.84    0.23
  -1   5   6   26.82    0.71
   1   5  -6   27.72    0.79
  -1   5   6   27.34    0.83
  -1   5   6   26.83    0.88
  -1  -5   6   27.52    0.71
  -1  -5   6   27.24    0.79
   1  -5  -6   27.57    0.87
  -1  -5   5   38.05    0.94
   1  -5  -5   38.32    0.98
  -1   5   5   37.47    0.87
  -1   5   5   39.18    1.02
  -1   5   5   39.28    1.00
  -1  -5   5   38.81    0.86
   1   5  -5   40.02    0.96
   1  -5  -4    9.03    0.40
  -1   5   4    8.50    0.23
  -1   5   4    8.93    0.45
  -1  -5   4    9.30    0.44
  -1   5   4    8.29    0.43
   1   5  -4    8.32    0.42
  -1   5   4    8.22    0.40
   1  -5  -4    8.88    0.43
  -1   5   3   25.73    0.71
   1  -5  -3   25.16    0.70
  -1  -5   3   26.35    0.76
   1   5  -3   27.64    0.77
  -1   5   3   27.01    0.78
   1  -5  -3   25.37    0.69
  -1   5   3   25.51    0.72
  -1   5   3   24.88    0.52
  -1  -5   2    7.61    0.40
   1  -5  -2    7.34    0.38
  -1   5   2    7.04    0.34
  -1   5   2    7.00    0.38
  -1   5   2    7.18    0.41
   1   5  -2    7.06    0.39
   1   5  -2    7.18    0.42
   1  -5  -2    7.26    0.34
   1  -5  -1    3.96    0.23
  -1  -5   1    3.37    0.29
  -1   5   1    3.66    0.22
   1  -5  -1    3.62    0.28
  -1   5   1    4.07    0.30
  -1   5   1    3.54    0.32
   1  -5  -1    3.98    0.30
   1   5  -1    4.02    0.30
   1   5  -1    3.65    0.29
  -1   5   0  139.28    1.79
  -1  -5   0  142.95    2.10
   1  -5   0  144.84    2.19
  -1   5   0  146.57    2.23
   1   5   0  147.83    2.15
   1  -5   0  143.08    1.79
  -1   5   0  143.95    2.24
   1  -5   0  144.96    2.17
  -1  -5   0  145.93    2.18
   1  -5   1    4.24    0.17
   1  -5   1    4.17    0.33
  -1  -5  -1    4.91    0.33
  -1   5  -1    4.17    0.35
   1  -5   1    4.08    0.31
   1   5   1    4.41    0.30
   1   5   1    4.56    0.34
  -1   5  -1    4.10    0.33
  -1  -5  -1    4.55    0.29
  -1   5  -1    3.71    0.22
   1   5   2  331.02    4.06
  -1  -5  -2  305.57    3.57
  -1  -5  -2  311.94    3.90
  -1  -5  -2  303.88    3.67
   1   5   2  317.53    3.77
   1  -5   2  316.55    3.97
   1  -5   2  314.30    4.03
  -1   5  -2  322.46    4.06
  -1  -5  -2  311.75    3.80
  -1   5  -2  303.63    3.46
   1   5   3    1.95    0.26
   1   5   3    1.89    0.20
  -1   5  -3    1.99    0.13
   1  -5   3    1.78    0.25
  -1  -5  -3    1.81    0.18
  -1  -5  -3    1.62    0.24
  -1  -5  -3    1.88    0.21
   1  -5   3    1.94    0.26
  -1  -5  -3    1.69    0.15
  -1   5  -3    1.35    0.24
  -1   5  -4  277.13    2.94
   1  -5   4  281.85    3.78
  -1  -5  -4  272.32    3.67
   1   5   4  274.61    3.36
   1  -5   4  283.09    3.71
  -1  -5  -4  270.46    2.98
  -1  -5  -4  275.26    3.41
  -1   5  -5   20.05    0.35
   1   5   5   20.55    0.60
   1  -5   5   20.09    0.74
   1  -5   5   19.93    0.77
  -1  -5  -5   19.37    0.60
  -1  -5  -5   19.87    0.77
  -1  -5  -6   16.54    0.56
   1  -5   6   15.52    0.72
   1   5   6   15.96    0.54
  -1  -5  -6   15.09    0.69
   1  -5   7    6.61    0.50
   1   5   7    5.83    0.28
  -1  -5  -7    6.91    0.50
  -1  -5  -7    6.11    0.35
   1  -5   7    5.85    0.18
   1   5   7    6.41    0.35
   1  -5   8   10.14    0.28
  -1  -5  -8   10.03    0.45
   1  -5   8   10.25    0.62
   1   5   8   10.27    0.45
   1   5   8    9.96    0.37
  -1  -5  -8    9.54    0.61
   1  -5   9    2.01    0.15
  -1  -5  -9    2.08    0.24
  -1  -5  -9    2.45    0.36
   1   5   9    2.20    0.19
   1  -5   9    2.30    0.35
   1   5   9    2.18    0.24
  -1   5  -9    2.42    0.17
  -1  -5 -10   14.79    0.80
  -1   5 -10   15.09    0.45
   1  -5  10   14.72    0.40
   1   5  10   13.72    0.43
  -1  -5 -10   14.27    0.57
   1  -5  10   14.18    0.77
   1   5  10   14.33    0.57
  -1   5 -11    1.60    0.18
   1  -5  11    1.38    0.31
   1  -5  11    1.25    0.15
  -1  -5 -11    1.64    0.34
   1  -5  12    0.92    0.29
  -1  -5 -12    0.50    0.28
  -1  -5 -13    5.39    0.56
   1  -5  13    5.27    0.53
   1  -5  14   21.40    1.06
  -1  -5 -14   22.47    1.14
  -1  -5 -15    0.31    0.26
   1  -5  15    0.76    0.32
   1  -5  16    1.14    0.36
  -1  -6  16   -0.64    0.36
   1  -6 -15    0.17    0.24
  -1  -6  15    0.17    0.28
  -1  -6  14    0.78    0.24
   1  -6 -14    0.66    0.29
  -1  -6  14    0.71    0.33
   1  -6 -13    1.17    0.33
  -1  -6  13    0.96    0.26
  -1  -6  13    0.78    0.28
   1  -6 -12    0.29    0.24
  -1  -6  12    0.47    0.19
  -1  -6  11    0.29    0.18
   1  -6 -11    0.13    0.21
  -1   6  11    0.51    0.21
  -1  -6  10    2.03    0.28
  -1  -6  10    1.98    0.24
  -1   6  10    2.20    0.30
   1  -6 -10    2.41    0.37
  -1   6  10    2.12    0.21
   1  -6  -9    3.00    0.38
  -1  -6   9    3.74    0.35
  -1   6   9    2.93    0.32
  -1   6   9    3.24    0.26
  -1  -6   9    3.68    0.29
   1  -6  -8   10.36    0.61
  -1  -6   8    9.72    0.45
  -1  -6   8   11.38    0.55
  -1   6   8   10.88    0.57
  -1   6   8    9.42    0.43
   1   6  -8   10.11    0.51
  -1   6   7    8.08    0.42
   1   6  -7    8.58    0.46
  -1  -6   7    9.98    0.51
  -1   6   7    8.81    0.51
   1  -6  -7    9.18    0.56
  -1  -6   7    8.29    0.40
  -1  -6   6    2.28    0.23
   1   6  -6    2.49    0.28
  -1   6   6    1.99    0.28
   1  -6  -6    2.17    0.29
  -1   6   6    2.02    0.23
   1  -6  -5   -0.08    0.15
  -1   6   5   -0.14    0.17
  -1   6   5    0.05    0.04
   1   6  -5    0.02    0.14
  -1  -6   5    0.13    0.12
  -1   6   5   -0.14    0.17
  -1  -6   5    0.05    0.15
   1  -6  -5   -0.12    0.14
  -1   6   5   -0.19    0.15
  -1   6   5    0.08    0.05
   1  -6  -4  101.33    1.74
   1   6  -4  106.04    1.81
  -1   6   4   98.78    1.75
  -1   6   4  101.20    1.84
  -1  -6   4  103.79    1.78
  -1   6   4  102.04    1.72
   1  -6  -4  101.85    1.69
  -1   6   4   97.59    1.34
  -1   6   4   96.11    1.31
   1  -6  -3   15.64    0.58
  -1   6   3   15.88    0.58
   1  -6  -3   16.69    0.59
  -1  -6   3   16.96    0.64
  -1   6   3   16.17    0.66
  -1   6   3   17.01    0.63
   1   6  -3   17.25    0.72
   1   6  -3   16.87    0.64
   1  -6  -2   15.76    0.53
  -1   6   2   15.58    0.53
   1   6  -2   15.76    0.62
   1  -6  -2   15.26    0.58
  -1   6   2   16.15    0.66
  -1   6   2   16.02    0.63
   1   6  -2   16.95    0.69
  -1  -6   2   16.14    0.63
   1  -6  -1   56.88    1.03
  -1   6   1   56.11    1.04
  -1  -6   1   59.19    1.28
  -1   6   1   59.74    1.35
   1  -6  -1   59.78    1.30
   1   6  -1   60.59    1.30
   1  -6  -1   56.53    1.25
  -1   6   1   59.91    1.30
   1   6  -1   59.53    1.31
  -1  -6   1   57.93    1.26
  -1   6   0   61.20    1.34
   1  -6   0   58.22    0.97
  -1   6   0   55.44    1.11
   1   6   0   59.82    1.27
  -1  -6   0   61.56    1.28
   1   6   0   61.79    1.34
  -1   6   0   59.83    1.36
   1  -6   0   59.43    1.31
   1  -6   0   59.80    1.30
  -1  -6   0   56.17    1.20
  -1  -6   0   60.80    1.23
  -1   6  -1    5.50    0.40
   1   6   1    5.56    0.40
  -1  -6  -1    5.45    0.36
  -1  -6  -1    4.96    0.34
  -1   6  -1    5.49    0.43
  -1   6  -1    4.67    0.28
   1  -6   1    4.91    0.38
   1   6   1    5.08    0.36
  -1  -6  -1    4.80    0.31
   1  -6   1    5.43    0.21
  -1   6  -2   63.97    1.09
   1  -6   2   62.73    0.78
   1   6   2   63.24    1.25
   1  -6   2   63.52    1.42
  -1  -6  -2   62.01    1.21
  -1  -6  -2   62.25    1.13
  -1  -6  -2   65.47    1.36
  -1   6  -3    1.38    0.14
   1  -6   3    1.35    0.27
  -1  -6  -3    1.79    0.21
   1   6   3    1.32    0.19
  -1  -6  -3    1.27    0.25
  -1  -6  -3    1.27    0.16
  -1  -6  -4    4.27    0.29
   1  -6   4    4.92    0.42
  -1  -6  -4    4.41    0.38
   1   6   4    4.73    0.31
  -1  -6  -4    4.45    0.23
  -1  -6  -4    4.34    0.32
  -1   6  -4    4.53    0.21
  -1  -6  -5   11.21    0.60
   1   6   5   11.94    0.47
  -1  -6  -5   11.99    0.30
   1  -6   5   11.89    0.65
  -1  -6  -5   11.17    0.48
  -1   6  -5   12.26    0.32
  -1   6  -6    5.04    0.19
  -1  -6  -6    4.70    0.44
   1   6   6    4.68    0.30
  -1  -6  -6    4.80    0.33
   1  -6   6    5.52    0.47
   1   6   7    1.15    0.17
  -1  -6  -7    1.52    0.31
  -1  -6  -7    1.14    0.20
   1  -6   7    1.01    0.26
   1   6   8   -0.01    0.12
  -1  -6  -8   -0.02    0.12
  -1  -6  -8   -0.02    0.21
   1  -6   8    0.16    0.22
  -1  -6  -9    7.62    0.41
   1  -6   9    7.65    0.59
   1   6   9    8.43    0.42
   1   6   9    7.56    0.36
  -1  -6  -9    8.38    0.61
  -1  -6 -10   24.03    1.05
   1  -6  10   23.78    1.05
   1   6  10   24.54    0.74
  -1  -6 -11    3.69    0.46
   1  -6  11    3.70    0.46
  -1  -6 -12    4.74    0.55
   1  -6  12    4.89    0.55
  -1  -6 -13    4.62    0.56
   1  -6  13    3.81    0.50
  -1  -6 -14    0.13    0.25
   1  -6  14    0.23    0.26
   1  -6  15    0.12    0.26
   1  -6  16    0.16    0.29
  -1  -7  15    4.59    0.60
   1  -7 -14    0.26    0.26
  -1  -7  14    0.01    0.29
  -1  -7  13    0.14    0.20
   1  -7 -13    0.35    0.24
  -1   7  13    0.37    0.21
  -1  -7  13    0.37    0.29
   1  -7 -12    1.76    0.37
  -1   7  12    2.21    0.34
  -1  -7  12    1.17    0.36
  -1  -7  12    2.24    0.32
  -1  -7  11    0.06    0.17
  -1   7  11   -0.08    0.20
   1  -7 -11   -0.15    0.23
  -1  -7  11    0.31    0.26
  -1  -7  10    4.50    0.40
   1  -7 -10    4.04    0.46
  -1   7  10    4.28    0.42
  -1  -7  10    3.58    0.48
  -1   7   9    1.86    0.29
   1  -7  -9    1.61    0.33
  -1  -7   9    1.61    0.21
  -1  -7   9    1.84    0.27
  -1   7   9    1.67    0.21
   1  -7  -8    4.47    0.44
  -1  -7   8    3.88    0.29
  -1  -7   8    4.97    0.40
  -1   7   8    3.83    0.30
  -1   7   8    4.48    0.40
   1  -7  -7    0.48    0.22
  -1  -7   7    0.79    0.21
  -1   7   7    0.37    0.19
  -1  -7   7    0.53    0.15
  -1   7   7    0.52    0.18
  -1  -7   6   -0.05    0.17
  -1  -7   6    0.00    0.12
  -1   7   6   -0.04    0.20
   1  -7  -6    0.10    0.19
  -1   7   6    0.04    0.16
  -1  -7   5    4.73    0.39
   1   7  -5    5.47    0.40
   1  -7  -5    4.76    0.39
  -1   7   5    4.57    0.19
  -1   7   5    4.45    0.36
   1  -7  -5    4.77    0.34
  -1   7   5    4.61    0.41
  -1   7   5    5.04    0.20
  -1  -7   5    4.63    0.32
  -1   7   4    1.04    0.14
   1  -7  -4    1.00    0.21
   1  -7  -4    1.13    0.21
  -1  -7   4    0.81    0.21
  -1   7   4    1.02    0.14
  -1   7   4    1.30    0.24
  -1   7   4    0.73    0.20
   1   7  -4    1.37    0.23
  -1   7   4    1.28    0.28
   1   7  -3   21.68    0.78
   1  -7  -3   19.30    0.67
  -1  -7   3   21.38    0.77
   1  -7  -3   20.55    0.72
  -1   7   3   20.34    0.74
  -1  -7   3   20.04    0.82
   1   7  -3   20.37    0.86
  -1   7   3   20.70    0.80
  -1   7   3   19.24    0.69
  -1  -7   2    4.33    0.37
  -1   7   2    3.93    0.30
   1  -7  -2    4.10    0.30
  -1   7   2    4.01    0.40
   1   7  -2    3.73    0.38
   1  -7  -2    3.78    0.33
  -1   7   2    3.82    0.37
  -1  -7   2    3.79    0.38
  -1   7   1    3.29    0.37
   1  -7  -1    3.53    0.25
  -1  -7   1    3.82    0.31
   1  -7  -1    3.59    0.33
  -1   7   1    3.04    0.25
  -1  -7   1    3.73    0.35
   1   7  -1    3.93    0.37
   1  -7   0   30.17    0.68
  -1  -7   0   30.47    0.89
  -1   7   0   27.33    0.80
  -1  -7   0   32.45    0.94
  -1  -7   0   31.50    0.89
   1   7   0   31.81    0.94
  -1   7   0   29.28    0.99
   1  -7   0   29.83    0.94
  -1   7  -1    5.75    0.35
  -1  -7  -1    6.34    0.40
  -1  -7  -1    6.64    0.43
  -1  -7  -1    6.77    0.42
   1  -7   1    6.72    0.27
   1   7   1    6.49    0.43
   1  -7   1    5.82    0.44
   1  -7   2   17.96    0.36
  -1  -7  -2   17.79    0.71
  -1  -7  -2   17.67    0.64
   1   7   2   17.79    0.65
   1  -7   2   18.40    0.77
  -1  -7  -2   18.11    0.61
  -1   7  -2   17.78    0.57
  -1  -7  -3    9.81    0.55
  -1  -7  -3    9.43    0.48
   1   7   3    9.86    0.48
   1  -7   3    9.50    0.58
  -1  -7  -3    9.64    0.41
  -1   7  -3    9.93    0.40
  -1  -7  -4    8.93    0.45
   1   7   4    9.65    0.46
  -1  -7  -4    9.30    0.37
   1  -7   4    9.73    0.60
  -1  -7  -4    9.34    0.56
  -1   7  -4    9.56    0.36
  -1   7  -5    7.74    0.30
   1   7   5    7.10    0.39
  -1  -7  -5    6.64    0.51
  -1  -7  -5    6.45    0.28
   1  -7   5    6.62    0.52
  -1   7  -6    1.41    0.13
   1   7   6    1.00    0.17
  -1  -7  -6    0.86    0.25
   1  -7   6    0.98    0.29
  -1  -7  -7   39.61    1.29
   1   7   7   41.87    0.98
   1  -7   7   42.72    1.37
  -1  -7  -7   37.93    0.97
   1   7   8    0.39    0.14
  -1  -7  -8    0.11    0.13
  -1  -7  -8    0.12    0.21
   1  -7   8   -0.09    0.25
  -1  -7  -9   30.74    1.20
   1   7   9   30.24    0.81
   1  -7   9   28.90    1.19
  -1  -7 -10    0.03    0.24
   1  -7  10   -0.16    0.22
  -1  -7 -11    0.59    0.28
   1  -7  11    0.39    0.25
  -1  -7 -12    1.56    0.37
   1  -7  12    0.78    0.30
  -1  -7 -13    1.01    0.33
   1  -7  13    1.09    0.33
   1  -7  14    0.71    0.29
  -1   8  13    3.22    0.41
   1  -8 -13    3.43    0.50
  -1  -8  13    2.33    0.47
  -1  -8  12    0.28    0.19
   1  -8 -12   -0.18    0.26
  -1   8  12    0.13    0.22
  -1  -8  12   -0.36    0.30
  -1  -8  11    0.77    0.23
   1  -8 -11    0.92    0.28
  -1   8  11    0.81    0.25
  -1  -8  11    0.94    0.32
  -1   8  10    1.36    0.30
  -1  -8  10    1.26    0.26
   1  -8 -10    1.34    0.34
  -1  -8  10    1.66    0.38
   1  -8  -9    5.52    0.52
  -1   8   9    4.75    0.44
  -1  -8   9    5.85    0.47
  -1  -8   9    5.31    0.57
  -1  -8   8    2.30    0.32
   1  -8  -8    2.00    0.34
  -1   8   8    1.91    0.33
  -1  -8   8    2.96    0.46
  -1  -8   7   32.18    0.85
  -1  -8   7   33.41    1.05
  -1  -8   7   30.73    1.24
  -1   8   7   29.67    1.05
  -1   8   7   31.08    0.92
   1  -8  -7   33.10    1.12
  -1  -8   6    4.89    0.54
  -1   8   6    4.75    0.45
   1  -8  -6    4.89    0.43
  -1  -8   6    4.67    0.40
  -1   8   6    4.65    0.38
  -1  -8   6    5.11    0.35
  -1   8   5   64.75    1.05
   1  -8  -5   68.62    1.55
  -1   8   5   70.08    1.67
  -1  -8   5   72.29    1.57
  -1  -8   5   72.11    1.80
   1  -8  -5   70.33    1.47
  -1  -8   5   73.40    1.40
  -1   8   5   67.79    1.51
  -1   8   5   69.14    1.07
  -1   8   4    6.87    0.53
  -1  -8   4    8.35    0.52
   1  -8  -4    7.34    0.45
  -1   8   4    7.12    0.35
   1  -8  -4    7.57    0.47
  -1  -8   4    7.39    0.57
   1   8  -4    7.70    0.59
  -1   8   4    6.71    0.32
   1  -8  -3   42.91    1.08
  -1   8   3   41.60    1.09
  -1  -8   3   43.89    1.20
   1  -8  -3   43.76    1.15
  -1   8   3   43.41    1.28
  -1  -8   3   43.61    1.30
   1   8  -3   46.02    1.37
   1  -8  -2   13.76    0.55
  -1   8   2   14.42    0.75
  -1  -8   2   14.76    0.61
  -1  -8   2   14.71    0.72
   1  -8  -2   14.72    0.67
   1   8  -2   14.91    0.74
  -1  -8   1   40.70    1.06
   1   8  -1   39.98    1.18
   1  -8  -1   38.58    1.12
  -1  -8   1   40.33    1.15
  -1   8   1   37.38    1.05
   1  -8  -1   37.97    0.90
  -1   8   1   37.61    1.21
   1  -8   0    1.36    0.26
   1   8   0    1.33    0.25
  -1   8   0    1.05    0.23
   1  -8   0    1.21    0.17
  -1  -8   0    1.42    0.25
  -1  -8   0    1.16    0.24
  -1   8  -1    3.46    0.31
  -1  -8  -1    3.89    0.37
   1   8   1    4.34    0.38
  -1  -8  -1    4.50    0.37
   1  -8   1    3.75    0.22
   1  -8   1    3.92    0.38
  -1   8  -2    0.68    0.18
   1   8   2    0.61    0.20
   1  -8   2    0.76    0.10
  -1  -8  -2    0.49    0.21
   1  -8   2    0.56    0.24
  -1  -8  -2    0.63    0.19
   1  -8   3   19.11    0.86
  -1   8  -3   18.43    0.61
  -1  -8  -3   19.54    0.64
   1   8   3   18.30    0.70
  -1  -8  -3   19.48    0.81
   1   8   4    0.71    0.19
  -1   8  -4    0.63    0.14
  -1  -8  -4    0.35    0.20
  -1  -8  -4    0.69    0.16
   1  -8   4    0.62    0.24
  -1   8  -5    3.36    0.24
   1   8   5    3.20    0.28
  -1  -8  -5    2.91    0.22
  -1  -8  -5    3.24    0.40
   1  -8   5    2.94    0.39
  -1  -8  -6    6.35    0.53
   1   8   6    5.92    0.37
  -1  -8  -6    6.11    0.25
   1  -8   6    5.77    0.55
  -1  -8  -7   10.72    0.70
   1   8   7   11.48    0.50
   1  -8   7   11.76    0.76
   1   8   8    0.01    0.13
  -1  -8  -8    0.08    0.25
   1  -8   8    0.28    0.23
  -1  -8  -9    0.68    0.31
   1  -8   9    1.16    0.33
  -1  -8 -10    0.49    0.29
   1  -8  10    0.89    0.30
  -1  -8 -11   14.98    0.94
   1  -8  11   15.81    0.97
  -1  -8 -12    2.03    0.43
   1  -8  12    1.36    0.34
   1  -8  13   -0.55    0.35
   1  -9 -12    2.35    0.43
  -1  -9  12    1.69    0.43
  -1   9  12    2.23    0.35
   1  -9 -11    1.87    0.39
  -1   9  11    1.87    0.33
  -1  -9  11    2.51    0.49
   1  -9 -10    7.27    0.63
  -1  -9  10    7.62    0.55
  -1   9  10    7.37    0.59
  -1  -9  10    7.77    0.72
  -1   9   9    1.24    0.28
  -1  -9   9    2.05    0.32
   1  -9  -9    1.38    0.32
  -1  -9   9    1.72    0.42
   1  -9  -8    3.04    0.41
  -1   9   8    2.83    0.39
  -1  -9   8    3.25    0.37
  -1  -9   8    3.12    0.46
   1  -9  -7    4.63    0.46
  -1  -9   7    5.25    0.45
  -1   9   7    4.77    0.49
  -1  -9   7    4.77    0.53
  -1  -9   6   14.33    0.70
   1  -9  -6   12.93    0.70
   1  -9  -6   14.56    0.64
  -1   9   6   13.27    0.75
  -1  -9   6   13.03    0.83
   1  -9  -5    3.34    0.36
  -1   9   5    3.28    0.42
  -1   9   5    3.63    0.23
   1   9  -5    4.13    0.49
   1  -9  -5    3.59    0.34
  -1  -9   5    3.33    0.37
  -1  -9   5    3.92    0.46
  -1  -9   5    3.32    0.29
  -1  -9   4   12.33    0.55
  -1   9   4   11.73    0.71
   1  -9  -4   11.28    0.60
   1  -9  -4   11.33    0.59
  -1   9   4   11.30    0.47
  -1  -9   4   11.28    0.72
   1   9  -4   12.22    0.76
   1  -9  -3    4.32    0.35
  -1  -9   3    4.89    0.38
   1  -9  -3    4.20    0.39
   1   9  -3    4.43    0.46
  -1   9   3    4.94    0.35
  -1  -9   3    4.68    0.48
  -1   9   3    4.34    0.45
   1  -9  -2   47.12    1.13
  -1  -9   2   50.56    1.24
  -1   9   2   46.75    1.43
   1  -9  -2   45.33    1.29
  -1  -9   2   49.89    1.41
   1   9  -2   48.42    1.42
   1  -9  -1   30.41    0.83
  -1  -9   1   32.58    0.99
   1  -9  -1   32.72    1.09
   1   9  -1   32.17    1.11
  -1  -9   1   30.62    1.08
  -1  -9   0   54.52    1.34
   1   9   0   53.14    1.42
   1  -9   0   52.99    1.44
  -1  -9   0   54.78    1.40
   1  -9   0   53.89    1.07
  -1   9  -1    0.21    0.17
   1   9   1    0.21    0.20
   1  -9   1    0.29    0.11
  -1  -9  -1    0.34    0.20
   1  -9   1    0.11    0.22
  -1  -9  -1    0.17    0.16
  -1   9  -2   49.72    1.21
   1  -9   2   52.12    1.50
  -1  -9  -2   51.14    1.37
   1  -9   2   50.82    0.82
   1   9   2   50.56    1.30
  -1  -9  -2   51.22    1.24
   1   9   3    4.68    0.38
  -1  -9  -3    4.78    0.44
  -1   9  -3    5.20    0.36
   1  -9   3    4.83    0.49
  -1  -9  -3    4.54    0.34
   1   9   4    7.04    0.44
   1  -9   4    7.19    0.58
  -1  -9  -4    7.20    0.39
  -1  -9  -4    7.40    0.56
  -1  -9  -5    0.63    0.25
  -1  -9  -5    0.95    0.16
   1   9   5    0.69    0.16
   1  -9   5    0.55    0.25
   1   9   6    1.20    0.19
  -1  -9  -6    0.54    0.25
   1  -9   6    0.83    0.29
  -1  -9  -7    7.11    0.60
   1  -9   7    7.83    0.66
  -1  -9  -8    0.09    0.25
   1  -9   8    0.28    0.27
   1  -9   9    0.95    0.32
  -1  -9  -9    0.14    0.24
   1  -9  10    0.36    0.24
  -1  -9 -10    0.10    0.25
  -1  -9 -11    2.27    0.44
   1  -9  11    2.40    0.45
  -1  10  11    0.34    0.25
   1 -10 -11    1.13    0.30
  -1  10  10   -0.21    0.24
   1 -10 -10    0.05    0.25
  -1 -10  10   -0.09    0.30
  -1 -10   9    0.84    0.25
  -1  10   9    0.54    0.26
   1 -10  -9    1.27    0.30
  -1 -10   9    0.98    0.35
   1 -10  -8    8.75    0.66
  -1  10   8    8.23    0.63
  -1 -10   8    8.71    0.59
  -1 -10   8    9.16    0.77
  -1  10   7    0.03    0.23
   1 -10  -7   -0.13    0.23
  -1 -10   7    0.23    0.19
  -1 -10   7    0.35    0.32
   1  10  -6   -0.01    0.26
  -1  10   6    0.08    0.25
   1 -10  -6   -0.11    0.18
   1 -10  -6    0.07    0.20
  -1 -10   6    0.12    0.25
  -1 -10   6    0.15    0.16
   1 -10  -5   -0.07    0.18
   1  10  -5   -0.04    0.28
  -1  10   5    0.09    0.25
   1 -10  -5    0.13    0.17
  -1 -10   5    0.19    0.16
  -1 -10   5    0.19    0.26
   1 -10  -4   19.62    0.81
  -1 -10   4   19.42    0.97
  -1 -10   4   20.74    0.76
  -1  10   4   18.09    0.94
   1 -10  -4   18.50    0.81
   1  10  -4   18.91    0.99
  -1 -10   3    4.45    0.38
  -1  10   3    3.50    0.44
  -1  10   3    3.32    0.31
   1 -10  -3    3.34    0.33
   1 -10  -3    3.81    0.39
   1  10  -3    3.53    0.44
  -1 -10   3    3.73    0.45
   1  10  -2   -0.14    0.26
   1 -10  -2    0.16    0.14
   1 -10  -2    0.04    0.19
  -1  10   2    0.17    0.16
  -1 -10   2   -0.09    0.19
  -1 -10   2    0.21    0.19
   1 -10  -1    3.93    0.32
  -1 -10   1    3.94    0.37
   1  10  -1    3.28    0.41
   1 -10  -1    4.00    0.41
  -1 -10   1    4.01    0.44
   1  10   0    0.87    0.26
   1 -10   0    0.99    0.18
  -1 -10   0    0.61    0.22
   1 -10   0    0.64    0.21
  -1 -10   0    0.80    0.23
   1 -10   1    0.02    0.10
  -1 -10  -1    0.15    0.19
   1 -10   1   -0.27    0.25
  -1 -10  -1    0.35    0.19
   1  10   1    0.03    0.19
  -1 -10  -2    4.70    0.39
  -1 -10  -2    5.21    0.47
   1 -10   2    4.89    0.49
   1  10   2    5.26    0.44
   1  10   3    1.64    0.27
  -1 -10  -3    1.48    0.28
  -1 -10  -3    1.59    0.25
   1 -10   3    1.43    0.34
   1  10   4    0.51    0.18
  -1 -10  -4    0.94    0.28
  -1 -10  -4    0.92    0.19
   1 -10   4    1.10    0.34
   1  10   5   19.82    0.76
   1 -10   5   21.53    1.08
  -1 -10  -5   20.68    0.97
  -1 -10  -6    2.79    0.43
   1 -10   6    3.94    0.51
  -1 -10  -7    0.31    0.24
   1 -10   7    0.44    0.31
  -1 -10  -8    0.03    0.26
   1 -10   8    0.12    0.24
  -1 -10  -9    1.43    0.36
   1 -10   9    2.80    0.50
  -1 -10 -10    0.36    0.28
   1 -10  10    0.78    0.33
  -1  11  10   -0.54    0.36
   1 -11 -10    0.23    0.30
  -1  11   9   -0.68    0.31
   1 -11  -9    0.16    0.26
   1  11  -9    0.49    0.38
  -1 -11   9   -0.12    0.37
   1  11  -8    1.57    0.40
   1 -11  -8    1.24    0.32
  -1  11   8    1.36    0.34
  -1 -11   8    1.74    0.39
   1 -11  -7    0.74    0.26
  -1 -11   7    1.03    0.36
   1  11  -7    0.96    0.34
  -1  11   7    0.67    0.37
   1 -11  -6    0.84    0.26
  -1  11   6    0.29    0.29
  -1 -11   6    0.60    0.29
   1  11  -6    0.78    0.36
   1 -11  -5    4.80    0.46
  -1  11   5    5.72    0.59
   1 -11  -5    5.29    0.46
  -1 -11   5    5.93    0.63
   1  11  -5    6.24    0.67
   1  11  -4    0.20    0.29
   1 -11  -4   -0.04    0.19
   1 -11  -4    0.01    0.18
  -1 -11   4    0.19    0.26
   1  11  -3    0.66    0.30
   1 -11  -3    1.21    0.24
   1 -11  -3    1.39    0.28
  -1 -11   3    1.21    0.25
  -1 -11   3    1.27    0.33
  -1 -11   2    1.73    0.29
   1 -11  -2    0.89    0.21
   1  11  -2    1.56    0.34
   1 -11  -2    1.65    0.31
  -1 -11   2    1.32    0.34
  -1  11   2    1.32    0.26
  -1 -11   1    1.17    0.26
   1  11  -1    0.80    0.27
   1 -11  -1    0.66    0.24
  -1 -11   1    0.65    0.27
  -1 -11   0    1.01    0.26
   1 -11   0    1.00    0.28
  -1 -11   0    0.57    0.23
   1  11   0    0.86    0.26
  -1 -11  -1    3.81    0.43
  -1 -11  -1    3.62    0.41
   1 -11   1    3.48    0.44
   1  11   1    2.62    0.35
   1  11   2    0.68    0.24
  -1 -11  -2    0.35    0.23
   1 -11   2    0.35    0.23
  -1 -11  -2    0.57    0.20
  -1 -11  -3    5.60    0.52
   1  11   3    4.73    0.42
   1 -11   3    5.25    0.54
  -1 -11  -4   -0.18    0.21
   1 -11   4   -0.28    0.28
  -1 -11  -5    0.79    0.31
   1 -11   5    0.20    0.25
  -1 -11  -6   -0.10    0.25
   1 -11   6   -0.12    0.29
  -1 -11  -7    2.06    0.42
   1 -11   7    2.21    0.44
  -1 -11  -8    0.20    0.26
  -1 -11  -9    0.24    0.28
   1 -12  -9    0.15    0.26
  -1  12   9    0.07    0.28
   1 -12  -8    0.56    0.27
  -1  12   8    0.07    0.31
   1 -12  -7    0.54    0.29
   1  12  -7    0.58    0.35
  -1 -12   7    0.46    0.31
   1  12  -6    0.75    0.34
   1 -12  -6    0.40    0.24
  -1 -12   6   -0.28    0.31
   1  12  -5    0.16    0.28
   1 -12  -5    1.20    0.30
  -1 -12   5    1.13    0.36
   1  12  -4    2.72    0.46
   1 -12  -4    3.30    0.39
  -1 -12   4    3.35    0.49
   1 -12  -3    0.18    0.22
   1  12  -3    0.51    0.28
  -1 -12   3    0.02    0.25
   1  12  -2    0.00    0.25
   1 -12  -2    0.23    0.20
  -1 -12   2    0.00    0.26
   1  12  -1    3.31    0.44
  -1 -12   1    5.01    0.45
   1 -12  -1    4.63    0.49
  -1 -12   1    4.44    0.51
  -1  12   0    2.16    0.35
  -1 -12   0    3.96    0.43
   1 -12   0    3.09    0.44
  -1 -12   0    3.11    0.41
   1  12   0    3.42    0.45
   1  12   1    1.13    0.28
  -1 -12  -1    1.65    0.32
   1 -12   1    1.85    0.38
  -1 -12  -1    1.61    0.29
  -1 -12  -2    0.42    0.22
   1 -12   2    0.36    0.25
  -1 -12  -3    0.59    0.26
   1 -12   3    0.51    0.26
  -1 -12  -4   -0.07    0.29
   1 -12   4    0.33    0.30
  -1 -12  -5    0.52    0.31
   1 -12   5    0.99    0.34
  -1 -12  -6    0.40    0.34
  -1 -12  -7   -0.26    0.27
   1  13  -5    0.55    0.30
   1  13  -4    0.74    0.39
  -1 -13   4   -0.18    0.25
   1  13  -3    0.81    0.33
   1 -13  -3    0.74    0.26
  -1 -13   3    0.41    0.27
   1 -13  -2    0.39    0.23
  -1 -13   2    0.05    0.27
   1  13  -1    0.62    0.30
   1 -13  -1    0.09    0.22
  -1 -13   1    0.86    0.30
   1 -13   0    1.21    0.33
  -1 -13   0    0.65    0.25
   1 -13   1    0.11    0.25
   1 -13   2   -0.28    0.31
  -1 -13  -3    0.87    0.31
  -1 -13  -4   -0.33    0.33
  -1 -13  -5    1.07    0.35
  -2   0  18   -0.19    0.27
   2   0 -18    0.18    0.25
  -2   0  17    0.02    0.23
   2   0 -17    0.50    0.30
  -2   0  16   -0.09    0.24
   2   0 -16    0.23    0.21
   2   0 -16    0.34    0.27
  -2   0  15    0.14    0.21
   2   0 -15   -0.18    0.22
   2   0 -15   -0.14    0.19
  -2   0  14    1.66    0.32
   2   0 -14    1.78    0.27
   2   0 -14    1.84    0.35
  -2   0  13    0.08    0.22
   2   0 -13   -0.25    0.24
   2   0 -13   -0.06    0.17
  -2   0  12   92.79    2.03
   2   0 -12   95.08    1.83
   2   0 -12   90.06    2.03
   2   0 -11    0.01    0.16
  -2   0  11    0.11    0.22
   2   0 -11    0.03    0.21
  -2   0  10   14.38    0.70
   2   0 -10   12.79    0.67
   2   0 -10   13.87    0.60
  -2   0   9   -0.06    0.20
   2   0  -9   -0.50    0.25
   2   0  -9   -0.24    0.16
   2   0  -8 1044.86   11.10
   2   0  -8 1061.00   11.42
  -2   0   8 1049.11   11.42
  -2   0   7   -0.12    0.19
   2   0  -7   -0.06    0.13
   2   0  -7    0.04    0.16
  -2   0   7    0.06    0.14
   2   0  -7    0.01    0.13
   2   0  -6   82.89    1.54
  -2   0   6   83.45    1.53
   2   0  -6   80.55    1.50
   2   0  -6   83.82    1.39
  -2   0   6   81.77    1.54
  -2   0   5   -0.19    0.12
  -2   0   5   -0.08    0.14
   2   0  -5   -0.07    0.13
  -2   0   5    0.16    0.12
   2   0  -5    0.02    0.11
   2   0  -5    0.09    0.13
  -2   0   4   11.44    0.47
  -2   0   4   12.50    0.49
   2   0  -4   12.20    0.48
   2   0  -4   11.80    0.43
  -2   0   4   11.13    0.43
   2   0  -4   11.58    0.49
   2   0  -3    0.13    0.12
   2   0  -3    0.04    0.11
  -2   0   3   -0.14    0.14
  -2   0   3    0.07    0.11
  -2   0   2  192.72    2.47
   2   0  -2  191.60    2.46
   2   0  -2  192.47    2.45
  -2   0   2  189.74    2.48
  -2   0   2  193.71    2.51
   2   0  -1    0.07    0.10
  -2   0   1   -0.11    0.11
  -2   0   1   -0.01    0.11
   2   0  -1    0.09    0.11
  -2   0   0    2.86    0.21
  -2   0   0    2.73    0.23
   2   0   0    2.82    0.20
   2   0   0    2.98    0.24
  -2   0   0    2.63    0.22
   2   0   1    0.05    0.13
  -2   0  -1   -0.01    0.11
  -2   0  -1   -0.01    0.11
  -2   0  -1    0.04    0.11
   2   0   1    0.04    0.09
   2   0   2  506.20    5.67
  -2   0  -2  501.45    5.65
   2   0   2  487.95    5.36
  -2   0  -2  498.80    5.49
  -2   0  -2  499.53    5.39
  -2   0  -3    0.08    0.11
   2   0   3   -0.05    0.09
   2   0   3    0.02    0.13
  -2   0  -3   -0.06    0.09
   2   0   3   -0.04    0.10
  -2   0  -3    0.01    0.11
  -2   0  -3   -0.01    0.11
  -2   0  -4  240.34    3.18
   2   0   4  236.17    3.16
  -2   0  -4  235.29    2.99
   2   0   4  232.24    2.85
   2   0   4  235.57    2.89
  -2   0  -4  235.36    2.93
   2   0   5    0.24    0.15
  -2   0  -5    0.19    0.13
   2   0   5    0.02    0.10
   2   0   5   -0.03    0.10
  -2   0  -5    0.10    0.15
  -2   0  -5    0.07    0.12
   2   0   6   95.20    1.51
  -2   0  -6   96.40    1.64
   2   0   6   97.76    1.79
   2   0   6   98.10    1.51
  -2   0  -6   97.12    1.79
  -2   0  -6   92.05    1.52
   2   0   7    0.04    0.11
   2   0   7   -0.11    0.11
  -2   0  -7    0.06    0.16
   2   0   7    0.21    0.17
  -2   0  -7    0.25    0.14
   2   0   8    0.28    0.14
   2   0   8    0.30    0.09
  -2   0  -8   -0.18    0.16
   2   0   8    0.15    0.11
   2   0   8    0.17    0.19
   2   0   9    0.09    0.14
   2   0   9   -0.10    0.10
  -2   0  -9    0.23    0.19
   2   0   9    0.12    0.14
  -2   0 -10   30.83    0.99
   2   0  10   28.82    0.60
   2   0  10   29.87    0.87
   2   0  10   32.23    0.83
  -2   0 -11   -0.12    0.18
   2   0  11    0.09    0.12
  -2   0 -12    7.96    0.55
   2   0  12    8.97    0.45
  -2   0 -13   -0.04    0.19
   2   0  14   35.11    1.09
  -2   0 -14   33.64    1.21
  -2   0 -15   -0.08    0.22
  -2   0 -16    2.22    0.39
  -2  -1  18    1.57    0.37
  -2   1  18    0.79    0.27
   2   1 -18    0.85    0.34
  -2  -1  17    0.78    0.30
  -2   1  17    0.44    0.28
   2  -1 -17    0.70    0.30
   2   1 -17    0.20    0.27
  -2  -1  16   -0.05    0.23
  -2   1  16    0.26    0.25
   2   1 -16    0.33    0.24
   2  -1 -16    0.07    0.23
   2   1 -16    0.19    0.20
  -2   1  15   -0.41    0.24
  -2  -1  15    0.02    0.22
   2   1 -15   -0.09    0.21
   2  -1 -15   -0.11    0.15
   2  -1 -15   -0.20    0.24
   2   1 -15    0.11    0.22
   2  -1 -14    1.13    0.22
   2   1 -14    1.04    0.27
  -2  -1  14    0.70    0.23
  -2   1  14    0.97    0.27
   2  -1 -14    0.82    0.28
   2   1 -14    0.78    0.27
  -2   1  13    0.20    0.20
  -2  -1  13   -0.05    0.22
   2   1 -13    0.39    0.20
   2  -1 -13   -0.13    0.26
   2   1 -13    0.49    0.24
   2  -1 -13    0.17    0.14
  -2  -1  12   23.77    0.95
   2  -1 -12   24.86    1.01
   2  -1 -12   26.39    0.81
   2   1 -12   25.12    1.00
   2   1 -12   26.17    0.95
  -2   1  12   25.09    1.00
   2   1 -11    5.06    0.45
   2  -1 -11    4.99    0.47
  -2   1  11    5.45    0.46
  -2  -1  11    5.02    0.45
   2  -1 -11    5.83    0.37
   2   1 -11    5.52    0.45
   2  -1 -10    7.51    0.52
  -2  -1  10    6.93    0.48
  -2   1  10    6.75    0.49
   2   1 -10    7.35    0.51
   2  -1 -10    7.08    0.38
   2   1 -10    6.62    0.46
  -2  -1   9    0.84    0.22
   2  -1  -9    0.63    0.19
   2   1  -9    0.37    0.18
   2  -1  -9    1.09    0.17
   2   1  -9    0.68    0.22
  -2   1   9    0.78    0.21
   2  -1  -8   80.23    1.64
  -2  -1   8   79.05    1.60
  -2   1   8   80.41    1.63
   2  -1  -8   81.31    1.35
   2   1  -8   80.71    1.54
   2   1  -8   81.20    1.63
  -2   1   7  152.68    2.38
   2   1  -7  149.17    2.34
  -2  -1   7  151.60    2.35
   2  -1  -7  152.32    2.39
   2  -1  -7  149.91    2.04
   2   1  -7  150.41    2.27
  -2  -1   7  152.71    2.35
  -2   1   7  149.58    2.37
   2   1  -7  152.06    2.35
   2  -1  -6   31.72    0.88
  -2   1   6   31.50    0.88
  -2  -1   6   31.54    0.86
  -2   1   6   31.01    0.87
   2   1  -6   31.79    0.87
   2  -1  -6   31.04    0.69
   2   1  -6   31.65    0.83
  -2  -1   6   30.96    0.86
   2   1  -6   32.07    0.87
   2  -1  -5    3.88    0.30
  -2  -1   5    3.62    0.30
  -2   1   5    3.81    0.31
   2   1  -5    3.54    0.29
   2  -1  -5    3.67    0.28
   2  -1  -5    3.49    0.22
  -2   1   5    3.88    0.29
   2   1  -5    3.66    0.28
  -2   1   5    3.29    0.23
  -2  -1   5    3.75    0.29
   2   1  -5    3.68    0.30
  -2  -1   4  181.56    2.51
  -2  -1   4  187.17    2.53
  -2   1   4  184.58    2.51
   2   1  -4  184.71    2.52
  -2   1   4  185.55    2.52
   2  -1  -4  187.42    2.49
   2  -1  -4  181.40    2.30
   2   1  -4  185.14    2.49
  -2   1   4  178.80    2.34
  -2  -1   4  180.48    2.51
   2  -1  -4  185.33    2.51
  -2  -1   3   97.20    1.54
   2   1  -3   96.08    1.53
  -2   1   3   97.94    1.52
   2  -1  -3   96.91    1.50
   2  -1  -3   95.15    1.40
  -2   1   3   90.85    1.42
   2   1  -3   94.76    1.53
  -2  -1   3   94.43    1.54
  -2   1   3   94.79    1.52
   2  -1  -3   93.97    1.52
  -2  -1   3   97.70    1.57
   2   1  -2    2.84    0.23
   2  -1  -2    3.36    0.23
   2  -1  -2    3.32    0.24
  -2   1   2    3.43    0.24
  -2   1   2    3.50    0.24
  -2   1   2    3.45    0.23
   2   1  -2    3.57    0.27
  -2  -1   2    3.08    0.25
  -2  -1   2    3.66    0.27
  -2   1   1   22.33    0.56
  -2  -1   1   22.66    0.61
   2  -1  -1   22.71    0.59
  -2   1   1   21.88    0.58
   2   1  -1   22.51    0.63
  -2   1   1   22.31    0.65
  -2  -1   1   24.12    0.66
  -2   1   1   21.15    0.59
   2   1  -1   21.96    0.60
   2  -1  -1   23.31    0.56
  -2   1   0  192.36    2.35
  -2  -1   0  196.60    2.61
   2  -1   0  192.07    2.35
   2  -1   0  197.01    2.53
  -2  -1   0  198.73    2.51
  -2   1   0  194.87    2.54
   2   1   0  194.77    2.50
   2   1   0  199.22    2.57
  -2   1   0  198.70    2.59
  -2   1  -1   24.20    0.53
   2  -1   1   23.59    0.52
   2   1   1   24.39    0.63
   2  -1   1   23.87    0.66
   2   1   1   25.40    0.69
  -2  -1  -1   25.13    0.64
  -2  -1  -1   24.38    0.70
   2  -1   1   24.88    0.65
  -2   1  -1   23.72    0.65
  -2   1  -1   25.20    0.69
   2  -1   2    0.04    0.13
  -2   1  -2    0.16    0.09
   2  -1   2    0.13    0.08
   2   1   2    0.06    0.13
  -2   1  -2    0.11    0.12
  -2  -1  -2    0.01    0.13
  -2   1  -2   -0.02    0.11
   2   1   2    0.03    0.11
  -2  -1  -2    0.30    0.11
  -2  -1  -2    0.17    0.15
  -2   1  -2   -0.03    0.11
   2  -1   2    0.26    0.12
   2   1   3   26.75    0.76
   2   1   3   27.74    0.70
   2  -1   3   25.87    0.54
  -2   1  -3   27.40    0.78
  -2  -1  -3   27.40    0.76
  -2   1  -3   28.18    0.61
  -2  -1  -3   27.45    0.44
   2  -1   3   28.29    0.79
  -2  -1  -3   27.73    0.70
   2  -1   3   28.97    0.72
  -2  -1  -3   27.75    0.63
  -2   1  -3   28.29    0.73
  -2   1  -3   27.02    0.56
   2   1   4  114.08    1.73
   2  -1   4  116.39    1.91
   2   1   4  115.34    1.87
   2  -1   4  106.58    1.46
  -2   1  -4  113.66    1.66
  -2   1  -4  113.79    1.90
  -2  -1  -4  114.85    1.82
   2  -1   4  113.35    1.73
  -2  -1  -4  115.04    1.86
  -2   1  -4  109.48    1.54
  -2   1  -4  114.90    1.77
  -2  -1  -4  110.21    1.57
   2  -1   5    3.91    0.34
   2  -1   5    3.19    0.19
   2   1   5    3.63    0.32
  -2   1  -5    3.82    0.32
  -2  -1  -5    3.47    0.30
  -2   1  -5    3.58    0.26
  -2  -1  -5    3.36    0.30
   2   1   5    3.39    0.26
   2  -1   5    3.55    0.26
  -2  -1  -5    3.44    0.22
  -2   1  -5    3.50    0.28
   2  -1   6    2.00    0.17
   2   1   6    2.17    0.18
   2  -1   6    2.02    0.22
   2  -1   6    1.93    0.17
  -2  -1  -6    2.11    0.26
  -2  -1  -6    2.25    0.25
   2   1   6    1.95    0.26
  -2   1  -6    1.86    0.21
   2  -1   6    2.01    0.27
   2   1   6    1.72    0.20
  -2  -1  -6    1.94    0.18
  -2   1  -6    1.74    0.22
   2   1   7   56.37    1.32
   2   1   7   52.84    1.16
  -2   1  -7   56.63    1.16
  -2  -1  -7   54.09    1.27
   2  -1   7   52.78    0.95
   2   1   7   56.72    0.99
   2  -1   7   54.98    1.17
  -2   1  -7   53.51    1.19
   2  -1   7   53.71    0.99
  -2   1  -8   35.25    0.94
  -2  -1  -8   36.17    1.05
   2  -1   8   35.25    0.75
   2   1   8   35.24    0.95
   2   1   8   36.66    0.77
   2  -1   8   36.07    0.94
   2   1   8   37.11    1.09
   2  -1   8   35.21    0.79
   2   1   9    1.99    0.26
   2  -1   9    2.16    0.20
  -2   1  -9    2.36    0.28
  -2  -1  -9    2.22    0.31
   2   1   9    2.22    0.20
   2  -1   9    2.62    0.27
   2   1   9    2.88    0.33
   2  -1   9    2.35    0.23
  -2  -1 -10    9.78    0.59
  -2   1 -10   10.52    0.54
   2  -1  10    9.74    0.40
   2   1  10   10.77    0.42
   2  -1  10   10.79    0.53
   2  -1  10    9.50    0.44
   2  -1  11    0.94    0.19
  -2   1 -11    1.12    0.25
  -2  -1 -11    1.00    0.26
   2   1  11    1.02    0.15
   2  -1  11    1.07    0.21
   2  -1  12    2.02    0.24
  -2   1 -12    2.31    0.30
  -2  -1 -12    2.02    0.33
   2  -1  12    2.04    0.27
  -2   1 -13    0.57    0.21
  -2  -1 -13    0.12    0.20
   2  -1  13    0.37    0.16
   2  -1  13    0.28    0.16
  -2  -1 -14    0.14    0.23
  -2   1 -14    0.24    0.23
  -2   1 -15    1.04    0.29
  -2  -1 -15    0.91    0.29
  -2  -1 -16    0.98    0.30
  -2  -1 -17    0.02    0.24
  -2  -2  18   -0.43    0.31
   2   2 -18    0.04    0.26
   2   2 -17    0.82    0.30
  -2   2  17    0.26    0.26
  -2  -2  17    0.44    0.27
   2   2 -17    0.28    0.24
   2  -2 -17    0.27    0.27
  -2  -2  16   -0.09    0.23
  -2   2  16    0.72    0.29
   2  -2 -16   -0.30    0.26
   2   2 -16    0.95    0.33
   2   2 -16    0.26    0.25
  -2  -2  15    0.91    0.28
  -2   2  15    1.15    0.31
   2  -2 -15    0.95    0.31
   2   2 -15    0.93    0.26
   2   2 -15    0.69    0.26
   2  -2 -14    0.17    0.13
   2   2 -14   -0.09    0.22
  -2  -2  14    0.32    0.22
  -2   2  14    0.02    0.22
   2   2 -14   -0.07    0.23
   2  -2 -14   -0.08    0.22
  -2  -2  13    7.03    0.55
  -2   2  13    7.47    0.59
   2   2 -13    7.20    0.57
   2  -2 -13    8.35    0.42
   2   2 -13    7.59    0.58
   2  -2 -13    6.53    0.56
  -2  -2  12    3.60    0.40
   2   2 -12    3.05    0.38
  -2   2  12    2.47    0.36
   2  -2 -12    3.58    0.43
   2  -2 -12    3.38    0.27
   2   2 -12    2.92    0.38
  -2  -2  11    0.17    0.22
  -2   2  11    0.33    0.23
   2  -2 -11    0.11    0.22
   2   2 -11    0.03    0.22
   2   2 -11   -0.17    0.19
   2  -2 -11   -0.05    0.11
   2   2 -10    2.69    0.36
  -2  -2  10    2.86    0.34
  -2   2  10    3.36    0.38
   2  -2 -10    2.91    0.36
   2  -2 -10    3.36    0.24
   2   2 -10    2.89    0.34
   2   2  -9   20.36    0.78
  -2  -2   9   20.70    0.80
   2  -2  -9   21.48    0.55
   2   2  -9   22.20    0.84
  -2   2   9   20.38    0.81
   2  -2  -8   17.50    0.73
  -2  -2   8   17.17    0.70
  -2   2   8   16.69    0.70
   2  -2  -8   18.14    0.48
   2   2  -8   17.48    0.71
   2   2  -8   17.22    0.69
  -2  -2   7   15.53    0.63
   2  -2  -7   14.38    0.62
  -2   2   7   14.74    0.63
   2   2  -7   14.92    0.63
  -2   2   7   15.46    0.64
   2  -2  -7   15.29    0.42
   2   2  -7   14.73    0.62
  -2  -2   7   15.08    0.60
   2   2  -7   15.60    0.63
   2   2  -6   10.42    0.49
  -2   2   6   10.74    0.51
  -2   2   6   10.88    0.51
  -2  -2   6   10.58    0.49
  -2  -2   6   10.44    0.51
   2  -2  -6   10.62    0.35
   2  -2  -6   11.61    0.55
   2   2  -6   10.52    0.51
  -2  -2   5   10.66    0.48
   2   2  -5   11.10    0.49
  -2   2   5   10.59    0.48
  -2  -2   5   10.89    0.48
   2  -2  -5   11.09    0.35
  -2   2   5   10.93    0.48
   2   2  -5   10.89    0.50
  -2   2   5    9.98    0.35
   2  -2  -5   10.35    0.48
  -2  -2   4   46.25    1.02
   2  -2  -4   45.59    1.00
  -2  -2   4   47.41    1.03
   2   2  -4   45.44    1.01
  -2   2   4   46.62    1.01
  -2   2   4   45.37    1.01
  -2   2   4   43.76    0.82
   2   2  -4   46.40    1.06
  -2  -2   4   44.13    1.04
   2  -2  -4   46.65    0.82
   2  -2  -3    9.14    0.40
   2   2  -3    8.71    0.41
  -2   2   3    8.85    0.39
  -2  -2   3    8.45    0.44
  -2   2   3    8.72    0.39
   2   2  -3    9.25    0.44
  -2  -2   3    8.77    0.41
  -2   2   3    8.24    0.33
  -2   2   3    8.22    0.43
   2  -2  -3    8.89    0.33
  -2   2   2    8.53    0.34
   2   2  -2    8.31    0.40
  -2   2   2    8.63    0.36
   2  -2  -2    9.00    0.36
   2  -2  -2    8.43    0.34
  -2  -2   2    8.65    0.42
   2   2  -2    8.62    0.41
  -2   2   2    9.19    0.43
  -2   2   2    9.00    0.37
  -2  -2   2    8.50    0.42
   2  -2  -2    8.89    0.37
   2   2  -1   17.90    0.57
  -2   2   1   16.77    0.47
   2  -2  -1   16.88    0.51
  -2   2   1   17.20    0.49
  -2   2   1   17.37    0.52
   2   2  -1   16.70    0.56
  -2  -2   1   17.39    0.57
  -2  -2   1   16.35    0.58
  -2   2   1   16.94    0.59
   2  -2  -1   17.41    0.47
  -2  -2   0  377.57    4.38
   2   2   0  376.36    4.38
   2  -2   0  369.82    4.04
  -2   2   0  370.74    4.32
   2   2   0  374.01    4.39
  -2   2   0  367.74    4.06
  -2  -2   0  375.56    4.42
  -2   2   0  365.56    4.14
   2  -2   0  372.38    4.39
  -2   2   0  385.41    4.43
   2  -2   0  370.51    4.30
   2  -2   1   63.41    1.20
   2  -2   1   62.71    0.92
   2   2   1   65.13    1.22
   2   2   1   63.60    1.19
  -2   2  -1   62.34    0.92
  -2   2  -1   65.96    1.22
  -2   2  -1   64.03    1.14
  -2  -2  -1   64.82    1.23
  -2  -2  -1   64.52    1.20
   2  -2   1   64.24    1.21
  -2   2  -1   64.28    1.24
  -2   2  -1   61.25    1.01
  -2  -2  -2  177.62    2.45
   2   2   2  174.37    2.40
   2  -2   2  170.62    1.96
  -2   2  -2  175.03    2.46
  -2   2  -2  172.34    2.29
  -2   2  -2  171.84    1.98
   2   2   2  175.20    2.43
  -2  -2  -2  172.19    2.39
   2  -2   2  175.37    2.42
  -2   2  -2  176.96    2.45
   2  -2   2  172.73    2.45
   2  -2   3  193.63    2.66
  -2   2  -3  195.99    2.71
   2   2   3  186.40    2.55
   2   2   3  191.82    2.58
  -2  -2  -3  188.18    2.58
  -2   2  -3  189.28    2.41
  -2  -2  -3  184.97    2.24
   2  -2   3  186.22    2.54
  -2   2  -3  193.86    2.60
  -2   2  -4  126.42    2.01
  -2  -2  -4  123.58    1.95
  -2  -2  -4  124.33    1.92
   2   2   4  122.46    1.91
   2   2   4  124.34    1.88
  -2   2  -4  121.30    1.60
   2  -2   4  120.75    1.67
  -2   2  -4  121.59    1.73
   2  -2   4  120.36    1.85
  -2  -2  -4  120.36    1.53
  -2   2  -4  127.10    1.94
   2  -2   4  125.29    2.00
  -2   2  -5   22.56    0.58
   2  -2   5   21.93    0.42
  -2   2  -5   23.34    0.79
   2   2   5   23.54    0.76
   2  -2   5   23.76    0.74
  -2  -2  -5   23.14    0.78
  -2  -2  -5   22.40    0.73
   2  -2   5   22.70    0.61
  -2  -2  -5   22.32    0.50
  -2   2  -5   24.73    0.77
   2   2   5   24.04    0.73
   2  -2   5   22.89    0.78
   2   2   6   28.96    0.86
   2  -2   6   28.56    0.53
  -2   2  -6   30.66    0.72
   2   2   6   30.88    0.89
  -2  -2  -6   30.67    0.92
  -2  -2  -6   30.45    0.88
   2  -2   6   30.17    0.73
   2  -2   6   31.71    0.88
  -2  -2  -6   27.81    0.57
  -2   2  -6   31.91    0.91
   2   2   7   99.13    1.79
   2  -2   7   96.88    1.33
  -2   2  -7  100.36    1.82
  -2  -2  -7  102.15    1.91
   2  -2   7  103.25    1.80
   2  -2   7   96.56    1.57
   2   2   7  102.77    1.87
  -2   2  -7  100.75    1.59
  -2  -2  -8   68.62    1.56
   2   2   8   69.34    1.53
   2  -2   8   64.41    1.21
  -2   2  -8   65.20    1.25
   2  -2   8   66.32    1.42
   2  -2   8   62.85    1.03
   2  -2   9    0.73    0.13
   2  -2   9    0.60    0.13
   2  -2   9    0.80    0.17
  -2   2  -9    0.71    0.18
  -2  -2  -9    0.67    0.21
   2  -2   9    0.90    0.21
   2   2   9    0.92    0.24
   2  -2  10    1.34    0.16
   2  -2  10    1.27    0.20
   2  -2  10    1.20    0.16
  -2   2 -10    1.55    0.23
  -2  -2 -10    1.50    0.30
   2   2  10    1.22    0.26
   2  -2  10    0.96    0.21
  -2   2 -11    0.30    0.16
  -2  -2 -11    0.15    0.22
   2  -2  11    0.31    0.12
   2  -2  11    0.29    0.17
  -2   2 -12    0.55    0.20
   2  -2  12    0.27    0.12
  -2  -2 -12    0.48    0.25
   2  -2  12    0.62    0.22
  -2   2 -13   -0.13    0.19
  -2  -2 -13    0.05    0.21
   2  -2  13   -0.20    0.19
  -2  -2 -14   -0.17    0.23
   2  -2  14    0.04    0.19
  -2  -2 -15    2.99    0.44
  -2  -2 -16    0.13    0.26
   2   3 -18   -0.43    0.33
   2   3 -18    0.40    0.25
  -2  -3  18   -0.26    0.27
  -2   3  17    0.63    0.26
   2   3 -17    0.96    0.31
   2   3 -17    0.79    0.33
   2  -3 -17    1.22    0.32
  -2  -3  17    0.88    0.29
  -2  -3  16    0.58    0.28
   2   3 -16    0.46    0.22
  -2   3  16    0.57    0.28
   2   3 -16    0.36    0.25
   2  -3 -16    0.87    0.29
   2   3 -15    1.05    0.33
   2   3 -15    0.73    0.26
   2  -3 -15    1.13    0.33
  -2   3  15    0.72    0.25
  -2  -3  15    1.02    0.28
   2   3 -14   -0.07    0.19
  -2  -3  14   -0.11    0.23
  -2   3  14    0.14    0.21
   2  -3 -14   -0.53    0.30
   2   3 -14    0.05    0.22
  -2  -3  13    4.46    0.45
   2   3 -13    4.14    0.43
  -2   3  13    5.18    0.51
   2  -3 -13    4.35    0.48
   2   3 -13    4.36    0.48
  -2  -3  12    2.85    0.36
   2   3 -12    2.75    0.35
  -2   3  12    3.09    0.40
   2  -3 -12    3.08    0.19
   2  -3 -12    3.23    0.42
   2   3 -12    2.94    0.40
   2  -3 -11   22.84    0.96
  -2  -3  11   22.16    0.89
   2  -3 -11   24.63    0.53
  -2   3  11   24.01    0.98
   2   3 -11   24.17    0.99
   2   3 -11   23.55    0.91
   2   3 -10    0.36    0.18
  -2   3  10    0.27    0.19
   2  -3 -10    0.33    0.21
   2   3 -10    0.62    0.26
  -2  -3  10    0.17    0.18
   2  -3 -10    0.60    0.11
   2  -3  -9    6.17    0.48
  -2  -3   9    6.27    0.45
   2  -3  -9    6.12    0.22
  -2   3   9    6.22    0.47
   2   3  -9    6.59    0.51
  -2   3   8    1.83    0.29
  -2  -3   8    1.57    0.26
   2  -3  -8    1.79    0.12
   2  -3  -8    1.57    0.29
   2   3  -8    1.46    0.27
  -2  -3   7   55.16    1.28
   2   3  -7   55.75    1.28
  -2   3   7   56.28    1.32
   2  -3  -7   55.06    1.30
   2  -3  -7   56.87    0.83
  -2  -3   7   57.39    1.28
   2   3  -7   56.46    1.37
  -2   3   7   56.39    1.25
  -2  -3   6    7.35    0.42
  -2   3   6    7.39    0.43
  -2   3   6    6.40    0.41
   2  -3  -6    6.54    0.23
  -2  -3   6    7.39    0.43
   2  -3  -6    6.44    0.42
  -2   3   6    6.61    0.41
   2   3  -6    7.22    0.47
   2   3  -6    6.85    0.42
  -2  -3   5  174.48    2.49
   2  -3  -5  168.91    2.48
  -2  -3   5  170.95    2.50
   2   3  -5  168.83    2.49
  -2   3   5  173.86    2.49
  -2   3   5  169.16    2.46
   2  -3  -5  166.54    2.03
  -2   3   5  159.85    2.03
  -2   3   5  167.47    2.47
   2   3  -5  180.96    2.62
   2  -3  -4   -0.02    0.07
  -2   3   4    0.08    0.08
  -2   3   4   -0.01    0.12
  -2   3   4   -0.04    0.12
  -2  -3   4    0.15    0.14
   2   3  -4    0.00    0.15
   2   3  -4    0.10    0.13
   2  -3  -4   -0.06    0.12
  -2  -3   4    0.17    0.12
  -2   3   4   -0.05    0.12
   2  -3  -3    8.83    0.39
  -2  -3   3    9.81    0.46
   2  -3  -3    8.92    0.33
  -2   3   3    8.58    0.39
  -2   3   3    9.46    0.41
  -2   3   3    9.26    0.34
   2   3  -3    9.57    0.47
  -2   3   3    9.24    0.45
  -2  -3   3    8.58    0.45
   2   3  -3    9.32    0.45
   2  -3  -2    7.64    0.34
  -2  -3   2    6.94    0.40
   2  -3  -2    7.33    0.32
  -2   3   2    7.77    0.35
  -2   3   2    7.01    0.34
   2   3  -2    7.40    0.40
  -2   3   2    7.31    0.32
   2   3  -2    7.56    0.41
  -2   3   2    7.53    0.41
  -2  -3   2    7.65    0.42
  -2  -3   1  128.26    1.99
   2   3  -1  132.42    1.99
  -2   3   1  124.78    1.72
  -2   3   1  126.71    1.74
  -2   3   1  123.92    1.82
  -2   3   1  127.30    1.96
   2   3  -1  127.49    1.99
   2  -3  -1  128.28    1.96
  -2   3   1  130.30    2.02
  -2  -3   1  127.14    2.01
   2  -3  -1  125.25    1.82
   2  -3  -1  123.75    1.72
  -2   3   0   21.94    0.50
  -2  -3   0   22.09    0.71
  -2   3   0   21.80    0.52
  -2   3   0   22.31    0.64
   2  -3   0   22.10    0.64
   2   3   0   23.34    0.70
  -2   3   0   22.91    0.68
   2   3   0   22.73    0.69
   2  -3   0   21.46    0.68
  -2  -3   0   23.86    0.72
  -2   3   0   22.12    0.71
  -2   3  -1    2.30    0.16
   2   3   1    2.39    0.24
  -2   3  -1    2.66    0.26
  -2  -3  -1    2.34    0.24
  -2   3  -1    2.75    0.28
  -2  -3  -1    2.39    0.26
  -2   3  -1    2.42    0.24
   2  -3   1    2.52    0.25
   2  -3   1    2.35    0.23
   2   3   1    2.45    0.24
  -2   3  -1    2.68    0.15
  -2  -3  -2   29.51    0.84
   2   3   2   30.49    0.84
  -2   3  -2   29.83    0.83
  -2   3  -2   28.62    0.56
   2   3   2   29.58    0.81
  -2   3  -2   29.76    0.79
  -2  -3  -2   30.00    0.82
   2  -3   2   29.41    0.82
  -2   3  -2   30.36    0.86
  -2   3  -2   29.00    0.45
   2  -3   2   30.34    0.82
  -2   3  -3    0.15    0.16
  -2   3  -3    0.17    0.14
   2   3   3    0.09    0.14
   2   3   3   -0.03    0.13
   2  -3   3    0.11    0.11
  -2  -3  -3    0.15    0.12
   2  -3   3   -0.05    0.13
  -2   3  -3    0.06    0.15
   2   3   4   70.95    1.41
  -2   3  -4   68.40    1.44
   2   3   4   66.49    1.35
  -2  -3  -4   68.46    1.43
  -2   3  -4   68.14    1.30
   2  -3   4   66.89    1.25
  -2  -3  -4   67.81    1.36
  -2  -3  -4   64.45    0.97
   2  -3   4   66.70    1.38
  -2   3  -4   70.75    1.45
  -2   3  -4   65.35    0.99
  -2   3  -5    4.61    0.23
   2   3   5    4.84    0.34
  -2  -3  -5    4.75    0.35
  -2  -3  -5    4.73    0.37
   2  -3   5    4.73    0.32
   2  -3   5    4.74    0.36
  -2  -3  -5    4.39    0.18
  -2   3  -5    5.12    0.38
   2   3   5    4.53    0.35
   2   3   6    6.86    0.42
  -2   3  -6    6.06    0.28
  -2  -3  -6    6.66    0.46
   2  -3   6    6.21    0.37
  -2  -3  -6    6.73    0.42
   2  -3   6    6.43    0.42
  -2  -3  -6    5.68    0.18
   2   3   7   37.04    1.03
  -2   3  -7   36.68    0.77
  -2  -3  -7   36.89    1.11
  -2  -3  -7   33.92    0.98
   2  -3   7   34.94    0.91
   2  -3   7   35.84    1.03
   2   3   8    1.80    0.27
   2  -3   8    1.38    0.09
   2  -3   8    1.48    0.23
  -2   3  -8    1.36    0.18
  -2  -3  -8    0.97    0.26
   2  -3   8    1.69    0.28
   2  -3   9   11.40    0.30
  -2   3  -9   11.00    0.45
  -2  -3  -9   10.72    0.65
   2  -3   9   11.23    0.30
   2   3   9   11.28    0.60
   2  -3   9   10.39    0.51
   2  -3   9   11.40    0.61
   2  -3  10    3.46    0.19
  -2   3 -10    3.33    0.28
   2  -3  10    2.88    0.30
  -2  -3 -10    3.09    0.40
   2  -3  10    3.59    0.37
   2   3  10    3.56    0.36
  -2   3 -11   66.12    1.35
  -2  -3 -11   64.83    1.76
   2  -3  11   65.16    1.61
  -2   3 -12   11.46    0.56
  -2  -3 -12   11.93    0.75
   2  -3  12   11.88    0.69
  -2  -3 -13    1.96    0.41
   2  -3  13    1.72    0.31
  -2  -3 -14    0.57    0.29
   2  -3  14    0.41    0.19
  -2  -3 -15    5.57    0.61
  -2  -3 -16    0.19    0.27
  -2  -4  18    0.10    0.25
   2   4 -18   -0.24    0.33
  -2  -4  17    0.80    0.31
   2   4 -17    0.05    0.27
  -2  -4  16   -0.42    0.25
  -2   4  16   -0.04    0.24
   2  -4 -16    0.36    0.30
   2   4 -16    0.41    0.26
   2   4 -15    0.33    0.29
  -2  -4  15    0.31    0.20
   2  -4 -15    0.08    0.26
  -2   4  15    0.19    0.22
  -2  -4  14    4.19    0.46
  -2   4  14    4.09    0.49
   2  -4 -14    4.06    0.52
  -2  -4  13    0.78    0.25
   2  -4 -13    0.85    0.31
  -2   4  13    0.94    0.32
  -2  -4  12    2.07    0.33
  -2   4  12    1.68    0.33
   2  -4 -12    1.46    0.31
   2   4 -12    2.61    0.39
  -2  -4  11    0.47    0.22
  -2   4  11    0.83    0.28
   2  -4 -11    0.52    0.22
   2   4 -11    0.31    0.24
   2   4 -10    2.97    0.42
  -2  -4  10    3.14    0.36
  -2   4  10    3.29    0.41
   2  -4 -10    2.82    0.39
  -2   4  10    2.66    0.29
   2  -4  -9    9.32    0.60
  -2  -4   9   11.06    0.61
  -2   4   9   10.46    0.64
  -2   4   9   10.31    0.53
   2   4  -9   11.79    0.69
  -2  -4   8    0.05    0.18
  -2   4   8    0.03    0.18
   2  -4  -8    0.21    0.18
  -2   4   8    0.16    0.17
   2   4  -8    0.01    0.20
  -2  -4   7    2.11    0.28
  -2   4   7    1.72    0.27
  -2  -4   7    2.46    0.27
   2   4  -7    2.75    0.35
   2  -4  -7    2.04    0.29
  -2   4   7    2.12    0.26
  -2  -4   6   54.16    1.20
   2  -4  -6   52.42    1.23
  -2   4   6   51.85    1.24
  -2  -4   6   53.00    1.24
  -2   4   6   53.75    1.25
  -2   4   6   51.93    1.19
   2   4  -6   54.01    1.35
  -2  -4   5   28.67    0.87
   2  -4  -5   28.73    0.85
   2   4  -5   27.98    0.86
  -2   4   5   29.58    0.87
  -2   4   5   29.86    0.86
  -2   4   5   27.62    0.54
  -2   4   5   28.04    0.85
   2   4  -5   28.68    0.94
  -2  -4   5   29.95    0.86
  -2  -4   4    6.52    0.40
   2   4  -4    6.33    0.39
  -2   4   4    5.40    0.34
  -2   4   4    5.88    0.25
  -2   4   4    5.73    0.37
   2  -4  -4    6.09    0.37
  -2   4   4    5.93    0.38
   2   4  -4    5.82    0.41
   2   4  -3    2.09    0.27
  -2  -4   3    2.18    0.26
   2  -4  -3    1.99    0.21
  -2   4   3    1.78    0.21
   2   4  -3    1.88    0.24
  -2   4   3    1.74    0.16
  -2   4   3    1.81    0.21
  -2   4   3    2.03    0.24
   2   4  -2   34.15    0.92
   2  -4  -2   32.78    0.75
  -2  -4   2   33.79    0.92
  -2   4   2   33.53    0.78
  -2   4   2   33.48    0.79
  -2   4   2   33.75    0.92
  -2   4   2   32.85    0.75
   2   4  -2   33.96    0.95
   2  -4  -2   33.59    0.91
  -2   4   2   35.23    0.93
  -2  -4   2   33.75    0.95
   2  -4  -1    7.20    0.31
  -2  -4   1    7.30    0.44
  -2   4   1    6.44    0.31
  -2   4   1    6.50    0.34
   2   4  -1    7.32    0.43
  -2   4   1    7.10    0.42
   2   4  -1    7.07    0.42
   2  -4  -1    7.22    0.41
  -2   4   1    7.42    0.43
  -2  -4   1    7.13    0.44
  -2   4   1    7.38    0.32
   2   4   0   58.55    1.27
  -2   4   0   56.59    0.94
  -2   4   0   55.34    1.14
  -2   4   0   55.64    0.94
  -2  -4   0   57.21    1.25
  -2   4   0   56.97    1.23
   2   4   0   58.09    1.23
   2  -4   0   57.62    1.23
  -2   4   0   58.34    1.29
  -2  -4   0   57.82    1.25
  -2   4  -1    2.40    0.16
  -2   4  -1    2.55    0.25
  -2   4  -1    2.40    0.15
   2   4   1    2.55    0.28
  -2  -4  -1    2.28    0.25
  -2   4  -1    2.48    0.26
   2   4   1    2.70    0.26
  -2  -4  -1    2.31    0.27
   2  -4   1    2.19    0.25
  -2   4  -1    2.56    0.28
  -2   4  -2    4.58    0.15
  -2   4  -2    4.81    0.19
  -2   4  -2    4.64    0.34
   2   4   2    4.70    0.36
  -2  -4  -2    4.28    0.36
   2   4   2    4.54    0.33
  -2   4  -2    4.42    0.35
  -2  -4  -2    4.69    0.34
   2  -4   2    5.18    0.37
  -2   4  -2    4.84    0.38
   2   4   3   22.49    0.79
  -2   4  -3   21.78    0.39
   2   4   3   22.43    0.72
  -2  -4  -3   23.23    0.80
  -2   4  -3   22.68    0.75
  -2  -4  -3   20.96    0.48
   2  -4   3   22.44    0.71
  -2  -4  -3   22.81    0.74
   2  -4   3   21.91    0.77
  -2   4  -3   23.06    0.81
  -2   4  -3   21.39    0.76
  -2   4  -4  113.20    1.30
  -2  -4  -4  116.82    1.95
   2   4   4  113.95    1.91
  -2  -4  -4  115.66    2.06
  -2  -4  -4  111.62    1.35
   2  -4   4  115.41    1.89
   2  -4   4  115.55    2.01
   2   4   5    0.74    0.18
  -2   4  -5    0.84    0.08
  -2  -4  -5    0.83    0.19
   2  -4   5    1.01    0.20
  -2  -4  -5    0.88    0.08
   2  -4   5    0.82    0.20
  -2  -4  -5    1.03    0.25
  -2   4  -6   10.23    0.28
   2   4   6    9.64    0.50
  -2  -4  -6    9.82    0.59
   2  -4   6   11.06    0.53
  -2  -4  -6   10.33    0.53
   2  -4   6   11.54    0.61
   2   4   7    8.04    0.47
  -2   4  -7    7.93    0.28
   2  -4   7    7.81    0.52
   2  -4   7    7.40    0.45
  -2  -4  -7    7.62    0.46
  -2  -4  -7    8.15    0.55
   2   4   8   23.82    0.84
  -2   4  -8   22.71    0.54
  -2  -4  -8   23.48    0.95
   2  -4   8   21.98    0.88
   2   4   9    6.36    0.45
  -2   4  -9    6.30    0.30
   2  -4   9    6.01    0.48
  -2  -4  -9    6.33    0.53
  -2   4 -10    0.26    0.13
  -2  -4 -10   -0.07    0.25
   2  -4  10    0.29    0.21
   2   4  10   -0.02    0.16
   2  -4  11    5.37    0.48
  -2  -4 -11    5.40    0.53
   2   4  11    5.61    0.46
  -2  -4 -12   14.57    0.87
   2  -4  12   14.11    0.79
  -2  -4 -13   -0.12    0.24
   2  -4  13    0.66    0.27
  -2  -4 -14    0.65    0.28
   2  -4  14    0.61    0.22
  -2  -4 -15    4.23    0.54
   2  -4  15    4.29    0.48
  -2  -5  17   -0.05    0.23
   2   5 -17   -0.44    0.36
   2   5 -16    5.19    0.61
  -2   5  16    5.76    0.64
  -2  -5  16    4.85    0.51
  -2  -5  15    0.14    0.24
  -2   5  15    0.69    0.32
   2  -5 -15    0.05    0.27
   2   5 -15   -0.37    0.35
   2   5 -14   -0.38    0.28
  -2  -5  14    0.38    0.24
   2  -5 -14    0.18    0.25
  -2   5  14    0.01    0.23
  -2   5  13    0.14    0.22
   2   5 -13    0.29    0.24
   2  -5 -13   -0.24    0.26
  -2  -5  13    0.04    0.21
  -2   5  12    8.88    0.68
  -2  -5  12    9.02    0.62
   2   5 -12    9.14    0.71
   2  -5 -12    9.39    0.70
  -2   5  11    0.17    0.21
  -2  -5  11    0.03    0.19
   2  -5 -11    0.13    0.21
   2   5 -11   -0.09    0.25
   2   5 -10    3.24    0.44
  -2  -5  10    3.34    0.37
  -2   5  10    3.40    0.41
   2  -5 -10    3.05    0.38
  -2  -5   9    4.69    0.43
   2  -5  -9    4.61    0.44
  -2   5   9    4.27    0.37
  -2   5   9    4.42    0.46
   2   5  -9    5.37    0.52
  -2  -5   8    0.21    0.19
   2  -5  -8    0.52    0.22
  -2   5   8    0.82    0.20
   2   5  -8    0.58    0.26
  -2  -5   7    1.23    0.25
   2  -5  -7    0.86    0.21
   2   5  -7    1.65    0.31
  -2   5   7    1.20    0.22
  -2  -5   6   25.18    0.82
  -2  -5   6   24.60    0.85
   2  -5  -6   23.80    0.83
  -2   5   6   24.45    0.81
   2   5  -6   24.33    0.94
  -2  -5   5   13.00    0.61
  -2   5   5   13.01    0.58
  -2   5   5   12.08    0.32
  -2   5   5   12.53    0.58
   2   5  -5   13.18    0.67
   2  -5  -5   12.87    0.57
  -2  -5   5   13.74    0.59
  -2  -5   4  108.76    1.93
  -2   5   4  106.00    1.81
  -2   5   4  103.58    1.45
   2  -5  -4  103.64    1.78
  -2   5   4  104.21    1.95
  -2   5   4  105.96    1.89
   2   5  -4  109.63    2.05
   2  -5  -3    3.53    0.28
  -2   5   3    3.96    0.29
  -2   5   3    3.31    0.23
  -2  -5   3    4.35    0.38
  -2   5   3    4.33    0.37
   2  -5  -3    3.98    0.33
   2   5  -3    4.34    0.39
  -2   5   3    3.61    0.33
  -2  -5   2  180.08    2.68
   2  -5  -2  165.89    2.30
   2   5  -2  174.31    2.65
  -2   5   2  169.69    2.33
  -2   5   2  170.25    2.34
  -2   5   2  172.08    2.65
   2   5  -2  176.81    2.70
   2  -5  -2  170.90    2.60
  -2   5   2  174.41    2.65
  -2  -5   1    6.04    0.43
   2  -5  -1    5.76    0.29
  -2   5   1    5.13    0.32
  -2   5   1    5.55    0.30
  -2   5   1    5.55    0.29
  -2   5   1    6.65    0.45
   2   5  -1    5.80    0.41
   2  -5  -1    5.84    0.41
  -2   5   1    6.54    0.43
  -2  -5   1    6.33    0.43
  -2  -5   0  222.79    3.13
  -2   5   0  214.54    2.94
  -2   5   0  216.45    2.65
  -2   5   0  217.51    2.59
  -2   5   0  223.22    3.15
   2   5   0  225.30    3.11
   2  -5   0  213.81    3.10
  -2  -5   0  224.49    3.16
   2  -5   0  208.43    2.55
  -2   5  -1   48.29    1.13
  -2   5  -1   47.45    1.19
   2   5   1   48.39    1.16
  -2  -5  -1   49.37    1.23
  -2   5  -1   46.58    0.75
   2  -5   1   47.20    1.19
  -2  -5  -1   50.06    1.20
  -2   5  -1   46.85    0.80
  -2   5  -2    8.43    0.48
  -2   5  -2    8.06    0.21
  -2  -5  -2    7.70    0.35
   2   5   2    8.42    0.46
  -2   5  -2    8.82    0.51
   2  -5   2    8.26    0.50
  -2  -5  -2    8.38    0.47
  -2   5  -2    8.23    0.23
  -2  -5  -3   12.98    0.63
   2   5   3   12.90    0.57
  -2  -5  -3   12.60    0.41
  -2   5  -3   12.85    0.62
  -2  -5  -3   12.76    0.58
   2  -5   3   11.85    0.59
  -2  -5  -4    1.53    0.24
  -2  -5  -4    1.43    0.14
   2   5   4    1.59    0.23
   2  -5   4    1.35    0.26
  -2  -5  -4    1.67    0.29
   2   5   5    3.68    0.34
  -2  -5  -5    3.39    0.13
   2  -5   5    3.81    0.38
  -2  -5  -5    3.13    0.13
  -2  -5  -5    3.40    0.33
  -2  -5  -5    3.50    0.40
   2   5   6   57.27    1.32
  -2  -5  -6   53.77    1.43
  -2  -5  -6   56.76    1.33
   2  -5   6   55.91    1.44
   2   5   7    0.01    0.17
  -2  -5  -7    0.10    0.23
   2  -5   7    0.12    0.19
   2   5   8    0.38    0.18
  -2  -5  -8    0.27    0.24
   2  -5   8    0.39    0.22
   2   5   9   20.24    0.80
  -2  -5  -9   20.09    0.94
   2  -5   9   20.54    0.93
   2   5  10   74.98    1.71
  -2  -5 -10   77.07    1.99
   2  -5  10   74.60    1.88
  -2  -5 -11   -0.28    0.28
   2  -5  11    0.17    0.25
   2   5  11    0.08    0.18
  -2  -5 -12    0.45    0.26
   2  -5  12    0.56    0.27
  -2  -5 -13    0.02    0.25
   2  -5  13    0.09    0.23
  -2  -5 -14    2.15    0.42
   2  -5  14    2.46    0.43
   2  -5  15    0.06    0.24
   2   6 -16   -0.64    0.44
  -2  -6  16   -0.60    0.33
  -2   6  15   -0.24    0.28
  -2  -6  15    0.03    0.24
   2  -6 -15    0.01    0.23
   2   6 -15   -0.08    0.27
   2   6 -14    0.37    0.26
  -2  -6  14    0.26    0.25
  -2   6  14    0.09    0.27
   2  -6 -14   -0.15    0.30
   2   6 -13   -0.06    0.25
  -2   6  13   -0.12    0.27
  -2  -6  13    0.01    0.20
   2  -6 -13    0.08    0.24
  -2  -6  12    2.18    0.36
  -2   6  12    1.40    0.33
   2  -6 -12    1.28    0.34
   2   6 -12    1.09    0.34
  -2  -6  11    2.74    0.36
   2   6 -11    3.15    0.47
  -2   6  11    2.74    0.40
   2  -6 -11    1.98    0.35
  -2  -6  10    3.31    0.38
   2  -6 -10    2.87    0.39
   2   6 -10    3.97    0.49
   2   6  -9    1.13    0.31
  -2  -6   9    1.13    0.25
   2  -6  -9    1.08    0.27
  -2  -6   8   23.69    0.90
   2   6  -8   24.20    1.06
   2  -6  -8   21.44    0.88
  -2  -6   7    1.17    0.28
   2   6  -7    1.27    0.35
   2  -6  -7    1.00    0.25
  -2   6   7    1.34    0.29
   2  -6  -6    9.58    0.54
  -2  -6   6   10.26    0.58
  -2   6   6   10.35    0.61
   2   6  -6   10.63    0.66
  -2  -6   5    6.21    0.46
   2  -6  -5    6.00    0.41
  -2   6   5    5.72    0.46
   2   6  -5    5.99    0.50
  -2   6   5    5.99    0.23
  -2  -6   4   16.11    0.72
  -2   6   4   15.94    0.64
  -2   6   4   15.63    0.46
  -2   6   4   15.83    0.72
   2  -6  -4   16.90    0.68
   2   6  -4   16.61    0.76
   2  -6  -4   15.84    0.61
  -2  -6   3    0.18    0.18
  -2   6   3    0.04    0.09
   2   6  -3    0.18    0.21
   2  -6  -3    0.05    0.12
  -2   6   3    0.00    0.20
  -2   6   3    0.17    0.13
   2  -6  -3    0.25    0.17
   2  -6  -2   34.59    0.82
  -2   6   2   33.16    0.83
  -2  -6   2   37.80    1.08
  -2   6   2   34.11    0.83
  -2   6   2   35.01    1.07
   2  -6  -2   34.43    1.01
   2   6  -2   36.29    1.10
  -2  -6   1   18.54    0.77
  -2   6   1   17.64    0.63
  -2   6   1   18.45    0.76
   2   6  -1   18.73    0.75
   2  -6  -1   18.44    0.72
   2  -6  -1   17.71    0.52
  -2   6   1   17.75    0.53
   2  -6   0    6.56    0.27
  -2   6   0    5.83    0.39
  -2   6   0    6.23    0.28
  -2  -6   0    6.63    0.47
  -2   6   0    6.25    0.48
   2   6   0    6.30    0.45
   2  -6   0    6.44    0.45
  -2   6  -1    4.57    0.20
  -2   6  -1    4.89    0.37
  -2  -6  -1    4.54    0.32
  -2   6  -1    4.61    0.42
   2   6   1    5.27    0.40
   2  -6   1    4.82    0.40
   2   6   2    0.60    0.19
  -2   6  -2    0.32    0.09
  -2   6  -2    0.27    0.09
  -2  -6  -2    0.24    0.13
  -2   6  -2    0.44    0.23
   2  -6   2    0.64    0.23
  -2  -6  -2    0.39    0.20
  -2   6  -3    0.25    0.25
  -2  -6  -3    0.15    0.12
   2  -6   3    0.26    0.20
   2   6   3    0.18    0.16
  -2  -6  -3    0.24    0.23
  -2  -6  -4    2.15    0.20
   2   6   4    2.00    0.26
   2  -6   4    1.82    0.32
  -2  -6  -4    1.86    0.31
  -2  -6  -4    1.94    0.18
   2   6   5   32.42    0.96
  -2  -6  -5   33.11    1.11
   2  -6   5   32.70    1.13
  -2  -6  -5   30.43    0.51
   2   6   6   59.73    1.38
  -2  -6  -6   60.22    1.59
   2  -6   6   59.56    1.58
   2   6   7    2.85    0.32
  -2  -6  -7    2.85    0.41
   2  -6   7    3.74    0.43
   2   6   8   18.44    0.74
  -2  -6  -8   18.93    0.93
   2  -6   8   18.80    0.90
  -2  -6  -9   10.53    0.73
   2   6   9   10.65    0.58
   2  -6   9    9.79    0.69
  -2  -6 -10    0.58    0.27
   2  -6  10   -0.10    0.22
   2   6  10    0.41    0.19
  -2  -6 -11    0.82    0.32
   2  -6  11    0.23    0.23
   2   6  11    0.56    0.21
  -2  -6 -12   -0.14    0.24
   2  -6  12    0.31    0.27
  -2  -6 -13   -0.23    0.30
   2  -6  13    0.33    0.28
   2  -6  14    4.63    0.55
   2  -6  15   -0.04    0.25
  -2  -7  15    0.01    0.23
  -2   7  15    0.58    0.32
  -2  -7  14   -0.11    0.22
  -2   7  14    0.37    0.27
   2  -7 -14    0.56    0.29
  -2   7  14   -0.30    0.26
   2   7 -14    0.13    0.28
   2   7 -13    0.59    0.31
  -2  -7  13    0.17    0.22
  -2   7  13    0.54    0.28
   2  -7 -13    0.29    0.25
  -2   7  13    0.76    0.28
  -2  -7  12    0.25    0.22
  -2   7  12    0.38    0.24
   2  -7 -12    0.54    0.28
  -2   7  12    0.52    0.24
   2   7 -12    0.62    0.31
  -2  -7  11    0.92    0.27
   2   7 -11    0.85    0.33
   2  -7 -11    0.88    0.32
  -2   7  11    0.58    0.25
  -2  -7  10    0.82    0.25
   2   7 -10    1.33    0.35
   2  -7 -10    1.13    0.30
  -2   7  10    1.61    0.33
  -2  -7   9    0.36    0.22
  -2   7   9    0.10    0.20
   2   7  -9   -0.12    0.28
  -2  -7   8    0.29    0.21
   2  -7  -8    0.13    0.21
  -2   7   8    0.10    0.22
   2   7  -8    0.14    0.23
  -2  -7   7   12.99    0.69
   2  -7  -7   11.76    0.64
  -2   7   7   11.70    0.68
   2   7  -7   12.94    0.79
   2   7  -6    1.28    0.35
  -2  -7   6    0.85    0.25
   2  -7  -6    0.86    0.21
  -2   7   6    0.96    0.28
   2  -7  -5    4.24    0.36
  -2   7   5    4.92    0.23
  -2   7   5    4.66    0.47
  -2  -7   5    4.83    0.44
   2   7  -5    5.29    0.52
  -2  -7   4    4.36    0.41
   2  -7  -4    4.83    0.37
  -2   7   4    4.26    0.26
  -2   7   4    4.14    0.43
   2   7  -4    4.76    0.46
   2  -7  -4    3.92    0.37
  -2   7   4    3.67    0.34
  -2   7   3    0.77    0.16
   2   7  -3    0.76    0.26
   2  -7  -3    0.73    0.18
  -2   7   3    1.28    0.30
   2  -7  -3    0.92    0.24
  -2   7   3    0.80    0.20
  -2  -7   3    0.58    0.24
  -2   7   2    7.46    0.40
   2  -7  -2    7.67    0.38
  -2   7   2    7.45    0.40
  -2   7   2    7.62    0.57
  -2  -7   2    8.57    0.54
   2  -7  -2    8.20    0.51
   2   7  -2    8.10    0.55
  -2  -7   1   24.11    0.91
   2  -7  -1   24.22    0.64
  -2   7   1   22.46    0.75
  -2   7   1   22.14    0.63
  -2   7   1   23.80    0.93
   2   7  -1   24.79    0.92
   2  -7  -1   24.21    0.89
  -2  -7   0   -0.27    0.23
   2  -7   0   -0.03    0.10
  -2  -7   0    0.01    0.18
  -2   7   0   -0.15    0.26
   2   7   0   -0.04    0.18
   2  -7   0   -0.13    0.19
  -2   7   0    0.03    0.10
  -2   7   0   -0.02    0.14
  -2   7  -1    9.92    0.42
  -2  -7  -1   10.73    0.60
  -2   7  -1   11.15    0.68
  -2  -7  -1   11.27    0.55
   2   7   1   11.26    0.60
   2  -7   1   11.59    0.63
   2   7   2    0.31    0.20
  -2   7  -2    0.15    0.11
  -2   7  -2    0.12    0.28
  -2  -7  -2   -0.01    0.15
   2  -7   2    0.12    0.20
  -2  -7  -2    0.21    0.23
  -2  -7  -3   47.50    1.35
   2   7   3   45.81    1.21
  -2   7  -3   44.71    0.71
  -2  -7  -3   45.92    1.03
   2  -7   3   47.34    1.36
  -2  -7  -3   47.18    0.98
  -2  -7  -4    0.33    0.15
   2   7   4    0.43    0.18
   2  -7   4    0.28    0.21
  -2  -7  -4   -0.18    0.21
  -2  -7  -4    0.10    0.11
  -2  -7  -5   32.49    1.16
   2   7   5   32.27    0.99
   2  -7   5   31.58    1.15
  -2  -7  -5   30.20    0.57
   2   7   6   11.55    0.60
   2  -7   6   11.97    0.73
  -2  -7  -6   12.24    0.73
   2   7   7    9.21    0.53
  -2  -7  -7    9.41    0.66
   2  -7   7    9.66    0.67
   2   7   8    9.87    0.57
  -2  -7  -8    9.58    0.69
   2  -7   8    9.33    0.68
   2   7   9    1.58    0.26
  -2  -7  -9    1.73    0.39
   2  -7   9    1.39    0.32
   2  -7  10    5.20    0.55
  -2  -7 -10    5.20    0.59
  -2  -7 -11    2.75    0.47
   2  -7  11    2.55    0.42
  -2  -7 -12    1.08    0.34
   2  -7  12    1.05    0.33
   2  -7  13    0.09    0.27
  -2   8  14    0.68    0.32
  -2  -8  13    1.02    0.27
   2   8 -13    1.26    0.39
  -2   8  13    0.68    0.33
   2  -8 -13    1.10    0.33
  -2   8  13    0.65    0.29
   2   8 -12    2.29    0.49
  -2  -8  12    1.94    0.34
   2  -8 -12    2.00    0.41
  -2   8  12    1.39    0.34
  -2  -8  11    6.04    0.55
   2  -8 -11    5.03    0.54
  -2   8  11    4.60    0.51
   2   8 -11    6.36    0.67
  -2  -8  10    1.12    0.29
   2  -8 -10    0.82    0.26
  -2   8  10    0.71    0.30
   2   8 -10    0.71    0.33
  -2  -8   9   26.10    1.05
   2  -8  -9   23.33    1.03
  -2   8   9   22.97    1.05
   2   8  -9   26.19    1.25
  -2  -8   8    3.95    0.43
   2  -8  -8    4.01    0.43
  -2   8   8    4.43    0.48
   2   8  -7    3.14    0.48
   2  -8  -7    2.06    0.33
  -2   8   7    2.51    0.36
  -2  -8   7    2.50    0.36
   2   8  -6    4.71    0.52
  -2  -8   6    4.50    0.44
   2  -8  -6    4.17    0.40
  -2   8   6    4.00    0.46
   2  -8  -5   14.45    0.67
  -2   8   5   14.31    0.77
   2  -8  -5   14.94    0.70
   2   8  -5   15.18    0.85
  -2  -8   5   15.62    0.77
   2  -8  -4    0.82    0.19
  -2  -8   4    0.50    0.23
  -2   8   4    0.94    0.15
  -2   8   4    0.57    0.28
   2   8  -4    0.98    0.29
   2  -8  -4    1.16    0.25
  -2   8   3    0.06    0.12
  -2  -8   3    0.00    0.20
  -2   8   3    0.03    0.24
   2   8  -3    0.23    0.23
   2  -8  -3    0.20    0.15
   2  -8  -3    0.05    0.16
  -2   8   3    0.03    0.15
   2   8  -2   -0.14    0.23
  -2  -8   2    0.36    0.22
   2  -8  -2    0.01    0.11
  -2   8   2   -0.04    0.14
  -2   8   2   -0.21    0.26
   2  -8  -2    0.11    0.17
  -2   8   2    0.02    0.14
  -2   8   1    4.48    0.36
  -2   8   1    5.01    0.31
  -2   8   1    5.47    0.52
  -2  -8   1    4.63    0.45
   2  -8  -1    5.48    0.31
   2   8  -1    5.75    0.48
   2  -8  -1    5.47    0.47
   2  -8   0    1.15    0.14
  -2   8   0    1.39    0.34
   2   8   0    0.96    0.26
   2  -8   0    1.21    0.27
  -2   8   0    0.99    0.19
  -2  -8   0    1.10    0.25
  -2   8  -1    0.41    0.15
   2   8   1    0.34    0.20
  -2   8  -1    0.75    0.27
   2  -8   1    0.31    0.21
  -2  -8  -1    0.46    0.20
  -2  -8  -1    0.27    0.17
  -2   8  -2    2.77    0.23
   2   8   2    3.34    0.36
   2  -8   2    2.81    0.37
  -2  -8  -2    3.20    0.40
  -2  -8  -2    3.19    0.29
  -2  -8  -3   47.98    1.42
   2   8   3   47.18    1.29
  -2  -8  -3   46.67    1.14
   2  -8   3   45.84    1.43
  -2  -8  -3   47.77    1.05
  -2  -8  -4    0.75    0.17
   2   8   4    0.53    0.20
   2  -8   4    0.32    0.20
  -2  -8  -4    0.68    0.26
  -2  -8  -4    0.69    0.14
   2   8   5    0.89    0.21
  -2  -8  -5    0.91    0.28
   2  -8   5    1.38    0.32
   2   8   6    2.43    0.31
  -2  -8  -6    2.41    0.40
   2  -8   6    2.75    0.40
   2   8   7   26.40    0.94
  -2  -8  -7   27.55    1.17
   2  -8   7   28.13    1.19
   2   8   8    2.13    0.29
  -2  -8  -8    2.55    0.41
   2  -8   8    2.87    0.43
  -2  -8  -9    1.54    0.38
   2  -8   9    1.71    0.36
  -2  -8 -10    2.27    0.42
   2  -8  10    2.01    0.40
  -2  -8 -11    1.32    0.37
   2  -8  11    2.17    0.39
   2  -8  12    1.28    0.36
  -2   9  14    1.18    0.34
  -2   9  13    0.63    0.31
  -2  -9  12    0.52    0.28
   2  -9 -12   -0.27    0.26
  -2   9  12   -0.32    0.30
   2   9 -12    0.36    0.32
  -2  -9  12    0.50    0.36
  -2  -9  11    0.36    0.22
   2  -9 -11    0.38    0.29
  -2   9  11   -0.33    0.27
   2   9 -11    0.13    0.31
   2  -9 -10    5.55    0.58
  -2  -9  10    5.15    0.51
  -2   9  10    4.51    0.51
   2   9 -10    5.44    0.65
  -2  -9   9    1.40    0.28
   2   9  -9    2.40    0.46
  -2   9   9    1.38    0.33
   2  -9  -9    1.55    0.32
  -2  -9   8   11.81    0.73
  -2   9   8   11.10    0.75
   2   9  -8   13.04    0.90
   2  -9  -8   10.26    0.68
  -2  -9   7    0.82    0.27
  -2   9   7    1.46    0.34
   2  -9  -7    1.09    0.27
  -2  -9   6   30.85    1.16
   2  -9  -6   28.74    1.04
  -2   9   6   29.45    1.19
   2   9  -6   32.64    1.34
  -2  -9   5   13.37    0.77
   2  -9  -5   13.61    0.67
  -2   9   5   13.74    0.83
   2  -9  -5   13.64    0.71
   2   9  -5   15.21    0.89
   2  -9  -4   27.89    0.92
  -2   9   4   29.87    1.19
  -2  -9   4   29.51    1.12
   2  -9  -4   28.31    1.05
   2   9  -4   30.37    1.21
  -2  -9   3    0.50    0.24
   2   9  -3    0.91    0.29
   2  -9  -3    0.75    0.19
  -2   9   3    0.22    0.27
   2  -9  -3    0.49    0.22
   2  -9  -2   29.41    0.82
  -2   9   2   29.97    1.21
   2  -9  -2   29.99    1.09
   2   9  -2   29.43    1.16
  -2  -9   2   29.98    1.10
   2  -9  -1    0.65    0.15
  -2   9   1    0.39    0.26
   2  -9  -1    0.56    0.24
   2   9  -1    0.60    0.24
  -2  -9   1    0.45    0.23
  -2  -9   1    0.65    0.24
  -2   9   0    2.87    0.42
   2  -9   0    2.30    0.19
   2   9   0    2.69    0.37
   2  -9   0    2.71    0.39
  -2  -9   0    3.22    0.38
  -2  -9   0    2.34    0.32
   2   9   1   -0.04    0.18
   2  -9   1    0.35    0.23
  -2  -9  -1    0.08    0.20
  -2  -9  -1    0.40    0.20
   2   9   2    0.28    0.17
   2  -9   2    0.45    0.25
  -2  -9  -2    0.41    0.23
  -2  -9  -2    0.37    0.16
  -2  -9  -3    5.12    0.49
   2   9   3    5.25    0.44
   2  -9   3    5.46    0.52
  -2  -9  -3    5.71    0.37
   2   9   4    0.30    0.16
   2  -9   4    0.76    0.27
  -2  -9  -4    0.59    0.25
   2   9   5    0.14    0.16
  -2  -9  -5    0.20    0.22
   2  -9   5   -0.15    0.22
   2   9   6    1.86    0.28
  -2  -9  -6    2.20    0.37
   2  -9   6    2.64    0.42
   2   9   7   11.45    0.63
  -2  -9  -7   11.87    0.83
   2  -9   7   12.27    0.82
  -2  -9  -8    0.85    0.30
   2  -9   8    1.09    0.32
  -2  -9  -9    2.84    0.48
   2  -9   9    2.21    0.40
  -2  -9 -10    0.43    0.33
   2  -9  10    0.25    0.27
  -2  10  13    0.67    0.33
  -2  10  12    2.02    0.42
  -2 -10  11    0.21    0.24
  -2  10  11    0.46    0.28
   2 -10 -11   -0.03    0.28
  -2 -10  10   -0.11    0.23
   2  10 -10    0.04    0.30
  -2  10  10    0.25    0.29
   2 -10 -10    0.39    0.28
  -2 -10  10    0.03    0.30
   2  10  -9   -0.12    0.30
  -2 -10   9   -0.29    0.25
  -2  10   9   -0.32    0.28
   2 -10  -9    0.02    0.22
  -2 -10   9   -0.38    0.37
   2  10  -8    4.62    0.59
  -2 -10   8    4.18    0.48
  -2  10   8    4.55    0.54
   2 -10  -8    3.96    0.46
  -2 -10   8    3.86    0.55
   2  10  -7    1.52    0.39
  -2  10   7    1.55    0.37
   2 -10  -7    1.50    0.31
  -2 -10   7    1.20    0.30
  -2 -10   7    1.58    0.37
  -2  10   6    0.06    0.26
   2 -10  -6   -0.08    0.19
   2  10  -6   -0.45    0.29
  -2 -10   6    0.15    0.24
  -2 -10   6    0.26    0.29
  -2 -10   5    1.37    0.33
  -2  10   5    1.63    0.35
   2 -10  -5    1.44    0.26
   2  10  -5    1.37    0.38
   2 -10  -5    1.37    0.28
  -2 -10   5    1.27    0.36
  -2 -10   4   -0.09    0.21
   2  10  -4   -0.09    0.27
  -2  10   4    0.20    0.27
   2 -10  -4    0.21    0.19
   2 -10  -4    0.35    0.21
  -2 -10   4    0.28    0.26
   2  10  -3    1.04    0.33
   2 -10  -3    1.19    0.23
  -2  10   3    0.97    0.34
   2 -10  -3    1.15    0.28
  -2 -10   3    0.94    0.26
  -2 -10   3    0.67    0.30
   2 -10  -2    9.24    0.47
  -2 -10   2   10.10    0.65
  -2  10   2    9.74    0.75
   2  10  -2   10.22    0.72
   2 -10  -2    9.51    0.64
  -2 -10   2   10.22    0.69
  -2  10   1    1.95    0.43
   2  10  -1    1.73    0.34
   2 -10  -1    1.98    0.35
  -2 -10   1    1.68    0.30
  -2 -10   1    2.26    0.35
   2  10   0    0.69    0.25
   2 -10   0    0.28    0.24
  -2 -10   0    0.67    0.26
  -2 -10   0    0.44    0.25
  -2 -10  -1   23.18    1.01
   2  10   1   21.74    0.97
   2 -10   1   23.17    1.05
  -2 -10  -1   25.41    0.93
   2  10   2    4.34    0.43
   2 -10   2    5.48    0.56
  -2 -10  -2    5.15    0.41
  -2 -10  -2    4.34    0.47
   2  10   3   -0.01    0.21
   2 -10   3    0.24    0.22
  -2 -10  -3   -0.04    0.22
  -2 -10  -4    0.64    0.25
   2 -10   4    0.92    0.33
   2  10   4    0.45    0.18
   2  10   5    2.43    0.33
  -2 -10  -5    3.58    0.50
   2 -10   5    3.65    0.48
  -2 -10  -6   -0.08    0.29
   2 -10   6   -0.05    0.27
  -2 -10  -7   -0.06    0.25
   2 -10   7   -0.32    0.30
  -2 -10  -8    0.11    0.26
   2 -10   8    0.27    0.26
  -2  11  11    0.81    0.36
  -2  11  10   -0.07    0.36
   2 -11 -10    0.52    0.26
  -2 -11   9    1.24    0.33
  -2  11   9    1.40    0.39
   2 -11  -9    2.11    0.38
   2  11  -8   -0.09    0.31
  -2 -11   8   -0.12    0.24
  -2  11   8    0.31    0.29
   2 -11  -8    0.04    0.24
  -2 -11   8    0.37    0.35
  -2 -11   7    0.25    0.24
  -2  11   7   -0.07    0.28
   2 -11  -7    0.22    0.23
   2  11  -7    0.65    0.33
  -2 -11   7    0.43    0.35
  -2 -11   6   -0.02    0.24
  -2  11   6    0.78    0.33
   2 -11  -6    0.42    0.23
   2  11  -6    0.46    0.31
  -2 -11   6    0.17    0.27
   2  11  -5    0.23    0.29
  -2  11   5   -0.32    0.29
   2 -11  -5    0.14    0.17
   2 -11  -5    0.00    0.22
  -2 -11   5    0.04    0.27
  -2 -11   5    0.07    0.19
   2  11  -4    0.60    0.30
  -2  11   4    0.90    0.33
   2 -11  -4    0.04    0.20
  -2 -11   4    0.17    0.21
  -2 -11   4    0.27    0.26
   2  11  -3    1.54    0.37
  -2  11   3    1.91    0.43
   2 -11  -3    1.84    0.35
  -2 -11   3    2.21    0.35
  -2 -11   3    1.79    0.39
  -2  11   2    0.29    0.30
   2 -11  -2    0.56    0.23
  -2 -11   2    0.29    0.21
   2  11  -2    0.25    0.22
  -2 -11   2    0.56    0.28
   2  11  -1    3.51    0.44
   2 -11  -1    3.82    0.45
  -2 -11   1    3.62    0.43
  -2 -11   1    4.29    0.46
   2  11   0   -0.29    0.23
   2 -11   0   -0.07    0.24
  -2 -11   0    0.23    0.21
  -2 -11   0   -0.04    0.21
   2  11   1   -0.09    0.19
   2 -11   1    0.23    0.23
  -2 -11  -1    0.06    0.20
   2  11   2   -0.31    0.27
   2 -11   2    0.36    0.26
  -2 -11  -2    0.14    0.22
   2  11   3    2.02    0.34
  -2 -11  -3    1.55    0.35
   2 -11   3    2.01    0.40
  -2 -11  -4   -0.20    0.27
   2 -11   4   -0.08    0.24
   2  11   4    0.07    0.18
  -2 -11  -5   -0.15    0.28
   2 -11   5    0.35    0.24
  -2 -11  -6   -0.25    0.29
   2 -11   6    0.25    0.24
  -2 -11  -7    0.13    0.27
   2 -12  -9    0.16    0.24
  -2  12   7    0.56    0.39
   2  12  -6   -0.41    0.30
  -2 -12   6   -0.54    0.33
   2  12  -5    3.26    0.50
  -2  12   5    3.37    0.53
   2 -12  -5    2.98    0.41
  -2 -12   5    4.18    0.55
   2  12  -4    1.90    0.44
  -2  12   4    1.71    0.45
   2 -12  -4    1.36    0.33
  -2 -12   4    1.67    0.39
   2  12  -3    0.59    0.30
   2 -12  -3    1.16    0.29
  -2 -12   3    0.92    0.32
   2 -12  -2   -0.14    0.22
   2  12  -2   -0.01    0.24
  -2 -12   2    0.23    0.23
  -2 -12   2    0.66    0.33
   2  12  -1    0.91    0.29
   2 -12  -1    1.18    0.34
  -2 -12   1    1.32    0.31
  -2 -12   1    0.87    0.29
   2  12   0    0.30    0.26
   2 -12   0   -0.45    0.30
  -2 -12   0   -0.21    0.28
   2  12   1   -0.09    0.24
   2 -12   1    0.11    0.23
  -2 -12  -1    0.48    0.28
   2  12   2    0.45    0.28
  -2 -12  -2    0.15    0.24
   2 -12   2    0.38    0.30
  -2 -12  -3   -0.07    0.24
   2 -12   3   -0.17    0.27
  -2 -12  -4   -0.29    0.33
  -2 -12  -5    0.68    0.31
   2 -13  -4    1.13    0.30
  -2 -13   4    0.83    0.34
   2 -13  -3    0.10    0.26
   2  13  -3   -0.52    0.29
  -2 -13   3    0.41    0.35
   2  13  -2    0.59    0.28
   2 -13  -2   -0.10    0.31
  -2 -13   2    0.42    0.30
   2  13  -1    0.54    0.29
   2 -13  -1    0.68    0.29
   2  13   0    0.32    0.24
  -2 -13  -1    0.24    0.27
  -2 -13  -2   -0.23    0.29
  -2 -13  -3    1.13    0.39
  -3   0  17   -0.21    0.31
   3   0 -17   -0.42    0.37
   3   0 -16    9.78    0.80
  -3   0  16   10.79    0.80
  -3   0  15   -0.22    0.26
   3   0 -15   -0.23    0.20
  -3   0  14    5.17    0.54
   3   0 -14    4.08    0.50
   3   0 -14    4.79    0.43
  -3   0  13    0.09    0.23
   3   0 -13   -0.18    0.26
   3   0 -13    0.03    0.16
  -3   0  12   79.08    1.97
   3   0 -12   81.38    1.74
   3   0 -12   81.56    2.02
  -3   0  11    0.07    0.21
   3   0 -11   -0.15    0.23
   3   0 -11   -0.01    0.16
   3   0 -10   47.10    1.39
  -3   0  10   45.73    1.36
   3   0 -10   47.49    1.19
  -3   0   9    0.16    0.21
   3   0  -9    0.01    0.19
   3   0  -9   -0.03    0.15
  -3   0   8    0.28    0.20
   3   0  -8    0.20    0.19
   3   0  -8    0.23    0.15
   3   0  -7    0.03    0.14
  -3   0   7    0.01    0.19
   3   0  -7   -0.02    0.18
  -3   0   6   86.91    1.72
   3   0  -6   85.93    1.58
  -3   0   5    0.09    0.16
  -3   0   5    0.45    0.18
   3   0  -5   -0.05    0.14
  -3   0   4   23.65    0.78
   3   0  -4   22.57    0.75
  -3   0   4   22.80    0.77
   3   0  -4   22.41    0.72
  -3   0   4   22.80    0.76
  -3   0   3    0.17    0.16
   3   0  -3   -0.18    0.13
  -3   0   3    0.03    0.12
  -3   0   3   -0.29    0.15
   3   0  -3    0.17    0.14
  -3   0   2  169.49    2.46
   3   0  -2  172.48    2.45
   3   0  -2  167.75    2.48
  -3   0   2  164.32    2.54
  -3   0   2  168.04    2.54
  -3   0   1   -0.06    0.14
  -3   0   1    0.04    0.13
   3   0  -1    0.01    0.12
   3   0  -1    0.23    0.14
  -3   0   1   -0.10    0.14
  -3   0   0  112.33    1.79
   3   0   0  111.11    1.76
   3   0   0  113.27    1.93
  -3   0   0  111.44    1.95
  -3   0   0  110.92    1.91
  -3   0  -1    0.03    0.13
   3   0   1   -0.02    0.11
   3   0   1    0.08    0.13
  -3   0  -1    0.06    0.12
  -3   0  -1   -0.01    0.16
  -3   0  -2   64.62    1.23
   3   0   2   63.50    1.40
   3   0   2   61.46    1.19
  -3   0  -2   63.58    1.32
   3   0   3   -0.13    0.18
  -3   0  -3    0.04    0.13
   3   0   3    0.01    0.12
  -3   0  -3   -0.01    0.10
  -3   0  -3    0.15    0.15
   3   0   4    0.89    0.20
   3   0   4    0.85    0.17
  -3   0  -4    0.90    0.14
  -3   0  -4    1.19    0.19
   3   0   5   -0.02    0.17
   3   0   5    0.16    0.13
  -3   0  -5   -0.35    0.18
  -3   0  -5    0.09    0.18
   3   0   6   83.69    1.82
  -3   0  -6   84.91    1.68
   3   0   6   78.44    1.45
  -3   0  -6   80.95    1.56
   3   0   7    0.02    0.14
  -3   0  -7   -0.09    0.18
  -3   0  -7    0.00    0.17
   3   0   7    0.12    0.18
   3   0   8   28.33    0.83
  -3   0  -8   29.35    0.98
   3   0   8   28.83    0.84
  -3   0  -8   26.07    0.83
   3   0   8   29.27    1.10
   3   0   9    0.16    0.17
   3   0   9   -0.12    0.14
  -3   0  -9   -0.25    0.23
   3   0   9    0.05    0.19
  -3   0 -10   90.62    1.98
   3   0  10   94.32    1.73
  -3   0 -11    0.35    0.22
   3   0  11   -0.03    0.14
  -3   0 -12    4.59    0.46
  -3   0 -13   -0.09    0.22
  -3   0 -14    1.58    0.35
  -3  -1  17    0.54    0.28
  -3   1  17    0.18    0.28
   3   1 -17   -0.75    0.37
   3  -1 -17   -0.34    0.33
  -3  -1  16    1.11    0.33
  -3   1  16    0.85    0.34
   3   1 -16    1.22    0.35
   3  -1 -16    0.97    0.32
   3   1 -16    0.81    0.25
   3   1 -15    1.20    0.28
  -3  -1  15    1.43    0.35
  -3   1  15    1.18    0.31
   3   1 -15    0.98    0.31
   3  -1 -15    1.57    0.37
   3   1 -14    3.61    0.40
  -3  -1  14    2.86    0.41
  -3   1  14    3.20    0.44
   3   1 -14    3.13    0.44
   3  -1 -14    3.19    0.44
   3  -1 -14    3.90    0.35
   3   1 -13    0.37    0.20
  -3  -1  13    0.52    0.25
  -3   1  13    0.63    0.25
   3   1 -13   -0.01    0.24
   3  -1 -13    0.85    0.29
   3  -1 -13    0.48    0.17
   3  -1 -12   19.08    0.94
  -3  -1  12   18.01    0.88
   3   1 -12   18.75    0.93
   3  -1 -12   19.61    0.73
   3   1 -12   19.08    0.83
  -3   1  12   18.24    0.91
   3  -1 -11   18.05    0.89
  -3  -1  11   18.70    0.88
  -3   1  11   20.19    0.92
   3  -1 -11   20.76    0.72
   3   1 -11   19.79    0.83
   3   1 -11   20.43    0.92
   3  -1 -10    7.01    0.54
  -3  -1  10    7.00    0.53
  -3   1  10    8.55    0.60
   3  -1 -10    8.30    0.45
   3   1 -10    7.95    0.51
   3   1 -10    7.77    0.57
   3  -1  -9    0.69    0.17
  -3  -1   9    0.61    0.26
   3  -1  -9    0.54    0.25
  -3   1   9    0.27    0.20
   3   1  -9    0.77    0.24
   3   1  -9    0.37    0.18
  -3  -1   8    9.75    0.59
  -3   1   8    8.90    0.56
   3  -1  -8    9.72    0.46
   3   1  -8    9.29    0.51
   3  -1  -8    8.73    0.55
   3  -1  -7    7.80    0.51
  -3  -1   7    7.45    0.51
  -3   1   7    7.87    0.51
   3  -1  -7    7.75    0.40
   3   1  -7    7.66    0.46
  -3   1   7    5.96    0.40
  -3   1   6   -0.03    0.14
  -3  -1   6    0.00    0.15
  -3  -1   6    0.11    0.18
  -3   1   6    0.06    0.16
   3  -1  -6    0.15    0.18
   3  -1  -6   -0.09    0.13
   3   1  -6    0.14    0.16
  -3  -1   5    4.58    0.37
  -3   1   5    4.61    0.36
   3  -1  -5    4.65    0.35
   3  -1  -5    4.62    0.31
   3   1  -5    4.17    0.35
  -3   1   5    4.28    0.33
  -3  -1   5    4.25    0.36
  -3   1   4   47.81    1.15
  -3  -1   4   47.51    1.16
  -3   1   4   46.11    1.12
   3   1  -4   48.82    1.17
   3  -1  -4   47.47    1.12
   3  -1  -4   48.04    1.06
   3   1  -4   47.27    1.12
  -3   1   4   45.86    1.08
  -3  -1   4   45.93    1.15
  -3   1   3   26.64    0.82
  -3  -1   3   27.57    0.83
  -3   1   3   27.65    0.80
   3  -1  -3   27.55    0.80
   3  -1  -3   28.17    0.79
   3   1  -3   28.81    0.85
  -3   1   3   26.98    0.81
  -3  -1   3   28.16    0.87
   3   1  -3   28.47    0.84
  -3  -1   3   28.85    0.88
  -3   1   2    1.10    0.19
  -3  -1   2    1.28    0.22
  -3   1   2    1.31    0.20
   3   1  -2    1.29    0.21
   3  -1  -2    1.24    0.19
  -3   1   2    1.14    0.20
   3  -1  -2    1.29    0.19
  -3  -1   2    1.30    0.22
  -3   1   2    1.11    0.21
   3   1  -2    1.05    0.20
  -3  -1   1   65.04    1.31
  -3   1   1   63.25    1.22
   3   1  -1   65.62    1.32
   3  -1  -1   64.93    1.23
   3  -1  -1   66.33    1.34
   3   1  -1   64.26    1.35
  -3   1   1   63.91    1.34
  -3  -1   1   65.00    1.39
  -3   1   1   65.15    1.39
  -3   1   1   64.49    1.30
  -3  -1   0  120.05    1.94
  -3   1   0  119.66    1.82
   3   1   0  122.18    1.94
   3  -1   0  121.18    1.82
   3  -1   0  121.50    2.01
   3   1   0  121.18    2.04
  -3   1   0  120.97    2.04
  -3  -1   0  117.02    2.06
  -3   1   0  120.72    2.06
   3  -1   1    0.84    0.19
  -3  -1  -1    0.93    0.20
  -3   1  -1    0.78    0.15
   3   1   1    0.86    0.17
   3  -1   1    0.84    0.14
   3   1   1    1.00    0.20
  -3   1  -1    0.73    0.17
  -3  -1  -1    0.93    0.19
  -3   1  -1    0.64    0.18
  -3  -1  -2   12.86    0.54
   3   1   2   12.41    0.52
   3  -1   2   12.06    0.44
   3  -1   2   12.57    0.59
   3   1   2   12.71    0.59
  -3   1  -2   13.27    0.48
  -3   1  -2   12.73    0.49
  -3  -1  -2   12.18    0.52
  -3   1  -2   13.34    0.59
  -3   1  -3  141.31    1.98
   3  -1   3  139.02    1.96
   3  -1   3  142.89    2.38
   3   1   3  140.24    2.35
  -3  -1  -3  142.21    2.20
   3   1   3  141.51    2.17
  -3   1  -3  142.99    2.02
  -3  -1  -3  140.68    1.80
  -3  -1  -3  138.69    2.15
  -3   1  -3  143.22    2.29
   3  -1   4   25.52    0.90
   3  -1   4   23.89    0.63
   3   1   4   25.05    0.89
  -3   1  -4   25.24    0.66
   3   1   4   24.65    0.76
  -3  -1  -4   24.33    0.49
   3  -1   4   25.65    0.79
  -3  -1  -4   24.49    0.74
  -3   1  -4   24.76    0.82
   3   1   5   10.12    0.49
   3  -1   5    9.76    0.40
   3  -1   5   10.77    0.60
   3   1   5   10.38    0.59
  -3   1  -5   10.36    0.51
  -3  -1  -5   10.88    0.58
   3  -1   5   10.61    0.51
  -3  -1  -5   10.21    0.47
  -3   1  -5   10.06    0.53
   3  -1   6   31.02    1.06
   3   1   6   30.93    0.90
   3  -1   6   29.30    0.73
   3   1   6   31.42    1.05
  -3   1  -6   31.67    0.93
  -3  -1  -6   30.55    1.00
   3  -1   6   32.12    0.92
  -3  -1  -6   30.35    0.83
  -3   1  -6   31.49    0.96
   3   1   7    1.19    0.22
   3  -1   7    1.17    0.17
   3   1   7    1.64    0.30
   3  -1   7    1.32    0.23
  -3   1  -7    1.38    0.24
  -3  -1  -7    1.34    0.25
   3  -1   7    1.36    0.32
  -3  -1  -7    0.95    0.20
   3  -1   8    1.15    0.18
   3  -1   8    1.79    0.25
  -3   1  -8    1.61    0.26
   3  -1   8    1.02    0.27
  -3  -1  -8    1.54    0.29
   3   1   8    1.47    0.29
  -3  -1  -8    1.22    0.19
   3  -1   9    0.12    0.14
  -3   1  -9   -0.13    0.18
  -3  -1  -9   -0.16    0.20
   3   1   9   -0.01    0.18
  -3   1 -10    1.02    0.24
   3  -1  10    1.05    0.22
  -3  -1 -10    0.78    0.23
   3   1  10    0.58    0.24
  -3   1 -11    5.20    0.45
  -3  -1 -11    5.18    0.50
   3  -1  11    5.13    0.40
  -3   1 -12    7.07    0.52
  -3  -1 -12    7.33    0.60
  -3   1 -13   -0.17    0.22
  -3  -1 -13   -0.24    0.23
  -3  -1 -14    1.28    0.31
  -3  -1 -15   -0.45    0.29
  -3  -2  17    1.33    0.33
   3   2 -17    1.19    0.35
  -3  -2  16    1.73    0.40
  -3   2  16    1.28    0.36
   3   2 -16    0.70    0.29
   3  -2 -16    0.98    0.32
   3   2 -16    0.94    0.28
  -3  -2  15   -0.04    0.23
  -3   2  15    0.33    0.29
   3   2 -15   -0.02    0.24
   3  -2 -15   -0.03    0.24
   3   2 -15   -0.18    0.23
  -3  -2  14    0.49    0.23
  -3   2  14    1.22    0.33
   3   2 -14    0.70    0.27
   3  -2 -14    0.40    0.26
   3   2 -14    1.01    0.28
   3  -2 -13    2.01    0.24
  -3  -2  13    2.11    0.35
  -3   2  13    2.61    0.41
   3   2 -13    2.19    0.37
   3   2 -13    2.02    0.33
   3  -2 -13    1.55    0.34
   3  -2 -12    0.73    0.16
  -3  -2  12    0.76    0.27
   3   2 -12    0.66    0.25
   3   2 -12    0.48    0.25
  -3   2  12    1.10    0.30
   3  -2 -12    0.48    0.25
   3  -2 -11   -0.01    0.12
   3   2 -11   -0.03    0.18
  -3  -2  11   -0.14    0.22
  -3   2  11    0.21    0.24
   3  -2 -11    0.30    0.24
   3   2 -10    0.43    0.21
  -3  -2  10    0.39    0.22
  -3   2  10    0.35    0.25
   3  -2 -10    0.45    0.25
   3  -2 -10    0.86    0.16
   3   2  -9    1.16    0.26
  -3  -2   9    0.78    0.25
  -3   2   9    1.06    0.29
   3  -2  -9    1.26    0.28
   3  -2  -9    1.17    0.19
   3  -2  -8   18.62    0.80
  -3  -2   8   18.33    0.81
  -3   2   8   18.08    0.80
   3  -2  -8   19.09    0.60
   3   2  -8   19.18    0.78
  -3  -2   7   -0.01    0.19
  -3   2   7   -0.07    0.19
   3  -2  -7    0.14    0.18
  -3   2   7    0.12    0.13
   3  -2  -7    0.13    0.12
   3   2  -7    0.28    0.19
   3  -2  -6    2.21    0.29
  -3  -2   6    2.88    0.32
   3  -2  -6    2.66    0.23
  -3   2   6    2.43    0.30
  -3   2   6    1.88    0.22
   3   2  -6    2.15    0.29
  -3  -2   5    0.05    0.18
  -3   2   5    0.29    0.16
   3  -2  -5    0.19    0.16
   3   2  -5    0.31    0.17
   3  -2  -5    0.38    0.12
  -3   2   5    0.02    0.12
  -3  -2   4   92.67    1.78
  -3   2   4   91.79    1.68
   3  -2  -4   95.35    1.68
   3  -2  -4   94.20    1.58
   3   2  -4   92.96    1.76
  -3   2   4   88.33    1.59
  -3   2   4   90.90    1.70
  -3   2   3   15.74    0.62
  -3  -2   3   15.99    0.65
   3   2  -3   15.83    0.63
  -3   2   3   15.42    0.58
   3  -2  -3   15.92    0.59
   3  -2  -3   15.31    0.56
   3   2  -3   14.70    0.64
  -3   2   3   14.96    0.58
  -3  -2   3   14.48    0.64
  -3   2   2   36.09    0.93
  -3  -2   2   37.21    1.00
  -3   2   2   36.27    0.89
   3   2  -2   36.36    0.98
   3  -2  -2   36.71    0.89
   3  -2  -2   38.02    0.94
  -3   2   2   35.41    0.93
   3   2  -2   36.85    1.02
  -3   2   2   35.92    1.05
  -3  -2   2   37.07    1.07
  -3   2   1  152.20    2.28
  -3   2   1  157.80    2.20
   3  -2  -1  155.66    2.18
   3  -2  -1  156.74    2.37
  -3  -2   1  153.64    2.40
   3   2  -1  156.29    2.41
  -3   2   1  152.75    2.36
   3   2  -1  154.40    2.46
  -3  -2   1  154.05    2.48
  -3   2   1  160.16    2.51
  -3   2   0   40.30    0.95
  -3  -2   0   42.51    1.07
  -3   2   0   40.85    0.88
   3   2   0   43.07    1.06
   3  -2   0   41.21    1.04
   3  -2   0   41.16    0.87
  -3   2   0   41.30    1.06
   3   2   0   41.51    1.08
  -3   2   0   42.96    1.11
  -3  -2  -1   15.18    0.63
  -3   2  -1   14.68    0.47
   3   2   1   15.45    0.62
   3  -2   1   15.14    0.62
   3  -2   1   14.69    0.46
  -3   2  -1   14.74    0.62
   3   2   1   14.74    0.63
  -3   2  -1   14.86    0.58
  -3   2  -1   15.11    0.66
  -3   2  -1   14.34    0.53
  -3  -2  -2    3.63    0.33
  -3   2  -2    3.91    0.24
   3   2   2    3.74    0.32
   3  -2   2    3.64    0.35
   3  -2   2    3.75    0.23
   3   2   2    4.13    0.37
  -3   2  -2    3.56    0.29
   3  -2   2    4.04    0.33
  -3  -2  -2    3.23    0.27
  -3   2  -2    3.32    0.32
  -3  -2  -3   94.73    1.75
  -3   2  -3   94.20    1.38
   3  -2   3   93.42    1.85
   3  -2   3   90.80    1.34
   3   2   3   94.89    1.84
  -3   2  -3   93.38    1.61
   3   2   3   92.81    1.71
   3  -2   3   92.95    1.76
  -3  -2  -3   91.08    1.58
   3  -2   4   58.98    1.42
   3   2   4   60.14    1.31
   3  -2   4   57.27    0.94
   3   2   4   59.24    1.40
  -3   2  -4   61.25    1.21
   3  -2   4   60.41    1.34
  -3  -2  -4   58.35    1.15
   3   2   5   -0.11    0.19
   3  -2   5   -0.02    0.09
   3  -2   5    0.19    0.17
  -3  -2  -5   -0.04    0.12
   3  -2   5    0.13    0.19
  -3   2  -5   -0.13    0.16
  -3  -2  -5   -0.06    0.21
   3  -2   6    2.86    0.19
   3   2   6    2.81    0.33
   3  -2   6    3.14    0.33
   3  -2   6    3.42    0.40
  -3  -2  -6    2.46    0.23
  -3   2  -6    2.78    0.28
  -3  -2  -6    2.32    0.34
   3   2   7    1.13    0.25
   3  -2   7    1.03    0.13
   3  -2   7    0.98    0.20
  -3   2  -7    1.22    0.21
  -3  -2  -7    1.06    0.28
  -3  -2  -7    0.97    0.17
   3  -2   8    3.05    0.20
  -3   2  -8    3.07    0.30
   3  -2   8    3.31    0.34
  -3  -2  -8    3.11    0.38
   3   2   8    3.19    0.39
  -3   2  -9    0.14    0.16
   3  -2   9    0.20    0.17
  -3  -2  -9    0.17    0.23
   3   2   9   -0.18    0.22
  -3   2 -10    0.18    0.16
  -3  -2 -10    0.66    0.25
   3  -2  10    0.42    0.21
   3   2  10    0.33    0.20
  -3   2 -11   11.40    0.59
  -3  -2 -11   10.17    0.70
   3  -2  11   11.14    0.62
   3   2  11   10.12    0.70
  -3  -2 -12    0.79    0.29
   3  -2  12    0.28    0.17
  -3  -2 -13   -0.06    0.25
  -3  -2 -14    0.69    0.30
  -3  -2 -15    1.81    0.41
  -3  -3  17    0.55    0.29
   3   3 -17    0.22    0.27
  -3  -3  16    0.31    0.29
  -3   3  16    0.63    0.30
   3  -3 -16    0.16    0.26
   3   3 -16    0.10    0.24
  -3  -3  15    1.34    0.32
  -3   3  15    1.69    0.39
   3  -3 -15    1.54    0.36
   3   3 -15    1.18    0.32
  -3  -3  14   -0.10    0.24
  -3   3  14    0.16    0.25
   3  -3 -14    0.03    0.22
   3   3 -14    0.00    0.21
  -3  -3  13    1.20    0.33
  -3   3  13    1.05    0.33
   3  -3 -13    1.29    0.33
   3   3 -13    0.85    0.28
  -3   3  12    0.07    0.22
  -3  -3  12    0.54    0.24
   3  -3 -12    0.12    0.20
   3   3 -12    0.16    0.21
   3  -3 -11    4.83    0.49
  -3  -3  11    4.58    0.46
  -3   3  11    5.55    0.52
   3  -3 -11    4.75    0.27
   3   3 -11    4.77    0.47
  -3  -3  10    1.60    0.30
   3   3 -10    1.97    0.36
  -3   3  10    1.69    0.33
   3  -3 -10    1.59    0.30
   3  -3 -10    1.54    0.18
  -3  -3   9   16.14    0.78
  -3   3   9   16.63    0.80
   3  -3  -9   16.97    0.52
   3  -3  -9   15.71    0.78
   3   3  -9   16.39    0.80
   3   3  -8    1.40    0.28
  -3  -3   8    1.19    0.29
  -3   3   8    1.42    0.28
   3  -3  -8    1.49    0.18
   3  -3  -8    1.01    0.25
   3  -3  -7    3.14    0.25
  -3  -3   7    2.86    0.35
  -3   3   7    3.04    0.36
   3  -3  -7    2.68    0.33
  -3   3   7    2.62    0.24
   3   3  -7    3.04    0.36
  -3   3   6    1.32    0.20
  -3  -3   6    1.62    0.28
   3  -3  -6    1.82    0.20
  -3   3   6    1.64    0.26
   3  -3  -6    1.55    0.26
   3   3  -6    1.71    0.29
   3  -3  -5    8.50    0.49
  -3  -3   5    7.84    0.52
  -3   3   5    8.40    0.50
   3  -3  -5    8.39    0.39
  -3   3   5    8.17    0.41
   3   3  -5    8.90    0.54
  -3   3   4    3.76    0.32
  -3   3   4    3.42    0.31
   3  -3  -4    3.58    0.28
  -3  -3   4    3.29    0.35
   3   3  -4    3.22    0.34
  -3   3   4    3.37    0.28
   3  -3  -4    3.12    0.31
   3  -3  -3   -0.07    0.12
  -3  -3   3    0.47    0.19
   3   3  -3    0.05    0.16
  -3   3   3   -0.11    0.14
  -3   3   3   -0.06    0.13
  -3   3   3    0.02    0.12
   3   3  -2    1.57    0.25
   3  -3  -2    1.58    0.21
  -3  -3   2    1.55    0.25
  -3   3   2    1.42    0.20
  -3   3   2    1.56    0.20
  -3   3   2    1.08    0.19
  -3   3   1    2.97    0.26
   3  -3  -1    2.78    0.27
  -3   3   1    3.15    0.25
  -3  -3   1    2.83    0.31
  -3   3   1    2.63    0.28
   3   3  -1    2.86    0.32
  -3   3   0   31.43    0.80
   3  -3   0   32.76    0.92
  -3   3   0   31.47    0.73
  -3  -3   0   32.95    0.98
  -3   3   0   33.34    0.96
   3   3   0   31.15    0.97
  -3   3   0   31.35    0.93
   3  -3   1    2.28    0.18
  -3  -3  -1    2.33    0.30
  -3   3  -1    2.22    0.18
  -3   3  -1    1.95    0.20
  -3   3  -1    1.93    0.26
   3   3   1    2.21    0.27
   3  -3   1    2.22    0.28
   3  -3   1    2.18    0.27
  -3  -3  -2   17.29    0.71
   3  -3   2   16.48    0.70
  -3   3  -2   18.21    0.47
   3  -3   2   16.46    0.43
   3   3   2   16.78    0.71
  -3   3  -2   18.17    0.67
   3  -3   2   18.44    0.71
  -3   3  -2   17.09    0.55
  -3  -3  -3   37.64    1.09
  -3   3  -3   38.58    0.68
   3  -3   3   36.51    0.64
   3   3   3   37.86    1.10
  -3   3  -3   39.67    1.03
  -3  -3  -3   36.45    0.88
   3  -3   3   38.30    1.09
   3  -3   3   39.29    1.13
   3   3   4   23.31    0.85
  -3   3  -4   24.04    0.78
   3  -3   4   24.16    0.85
  -3  -3  -4   22.66    0.62
   3  -3   4   23.76    0.89
   3   3   5   70.50    1.63
  -3   3  -5   72.46    1.29
  -3  -3  -5   73.46    1.69
   3  -3   5   71.75    1.60
  -3  -3  -5   67.52    1.22
   3  -3   5   72.52    1.69
   3   3   6    0.71    0.20
   3  -3   6    0.59    0.21
  -3   3  -6    0.85    0.18
  -3  -3  -6    0.73    0.14
  -3  -3  -6    0.64    0.24
   3   3   7  120.95    2.31
  -3   3  -7  123.00    1.88
  -3  -3  -7  122.90    2.39
   3  -3   7  122.14    2.26
   3   3   8   21.03    0.91
  -3   3  -8   21.34    0.68
  -3  -3  -8   21.16    0.94
   3  -3   8   22.10    0.88
   3   3   9    8.22    0.59
  -3   3  -9    8.11    0.43
  -3  -3  -9    8.09    0.61
   3  -3   9    8.29    0.55
  -3   3 -10   -0.14    0.15
  -3  -3 -10   -0.11    0.23
   3  -3  10    0.24    0.21
   3   3  10    0.21    0.22
  -3  -3 -11   14.69    0.87
   3  -3  11   14.81    0.77
   3   3  11   14.66    0.84
  -3  -3 -12    0.65    0.29
   3  -3  12    0.27    0.18
  -3  -3 -13    1.77    0.40
   3  -3  13    1.98    0.35
  -3  -3 -14    1.26    0.36
  -3  -4  17    0.15    0.25
   3   4 -17    0.91    0.36
  -3  -4  16    0.75    0.32
   3   4 -16    0.10    0.28
  -3  -4  15    0.12    0.24
  -3   4  15   -0.25    0.31
   3  -4 -15   -0.04    0.23
   3   4 -15   -0.03    0.26
  -3  -4  14    0.20    0.24
  -3   4  14    0.32    0.29
   3  -4 -14    0.39    0.32
   3   4 -14    0.40    0.25
  -3  -4  13   -0.14    0.22
  -3   4  13    0.32    0.27
   3  -4 -13   -0.04    0.24
   3   4 -13   -0.05    0.23
  -3  -4  12   -0.19    0.23
  -3   4  12   -0.14    0.22
   3  -4 -12    0.46    0.27
   3   4 -12    0.07    0.20
  -3  -4  11    0.04    0.20
  -3   4  11    0.46    0.25
   3  -4 -11   -0.21    0.22
   3   4 -11    0.11    0.21
   3  -4 -10    1.61    0.13
  -3  -4  10    1.69    0.32
  -3   4  10    1.73    0.33
   3  -4 -10    1.62    0.33
   3   4 -10    1.82    0.35
   3  -4  -9    0.08    0.07
  -3  -4   9   -0.21    0.25
   3   4  -9    0.14    0.21
  -3   4   9    0.13    0.20
   3  -4  -9    0.21    0.20
   3  -4  -8    2.12    0.18
   3   4  -8    2.42    0.35
  -3  -4   8    2.36    0.34
  -3   4   8    2.30    0.35
   3  -4  -8    2.50    0.35
   3  -4  -7    4.02    0.39
   3   4  -7    4.33    0.44
   3  -4  -7    3.72    0.24
  -3   4   7    4.16    0.41
  -3   4   7    3.45    0.25
  -3  -4   7    4.42    0.44
   3  -4  -6    4.04    0.26
   3  -4  -6    4.48    0.39
  -3  -4   6    3.47    0.38
  -3   4   6    3.52    0.36
  -3   4   6    3.65    0.27
   3   4  -6    4.29    0.41
   3  -4  -5    0.05    0.11
  -3  -4   5   -0.02    0.19
  -3   4   5    0.15    0.12
  -3   4   5    0.33    0.18
   3  -4  -5   -0.15    0.19
   3   4  -5    0.07    0.18
   3  -4  -4   70.48    1.46
  -3  -4   4   75.13    1.63
   3  -4  -4   74.48    1.34
  -3   4   4   73.24    1.50
  -3   4   4   72.86    1.51
  -3   4   4   69.83    1.35
   3   4  -4   75.32    1.67
  -3  -4   3    1.84    0.30
  -3   4   3    1.48    0.22
   3  -4  -3    1.85    0.23
   3   4  -3    1.39    0.25
  -3   4   3    1.51    0.22
  -3   4   3    1.22    0.20
   3  -4  -3    1.39    0.20
  -3  -4   2   19.11    0.77
   3  -4  -2   17.56    0.64
  -3   4   2   19.26    0.65
  -3   4   2   18.23    0.63
  -3   4   2   18.39    0.66
   3   4  -2   19.60    0.78
  -3   4   2   18.18    0.75
   3  -4  -1    4.19    0.33
  -3  -4   1    5.00    0.42
  -3   4   1    4.98    0.32
  -3   4   1    4.57    0.30
  -3   4   1    4.44    0.35
   3   4  -1    4.51    0.39
  -3   4   1    4.25    0.38
  -3  -4   0   56.73    1.38
  -3   4   0   55.05    1.09
  -3   4   0   54.53    1.02
  -3   4   0   51.51    1.28
   3   4   0   53.60    1.35
  -3   4   0   56.82    1.34
   3  -4   0   55.45    1.35
   3  -4   0   54.21    1.26
  -3   4  -1    4.31    0.27
  -3   4  -1    4.96    0.26
  -3  -4  -1    5.06    0.43
   3   4   1    4.25    0.37
  -3   4  -1    4.42    0.39
   3  -4   1    4.52    0.39
   3  -4   1    4.24    0.36
  -3  -4  -2    5.60    0.44
  -3   4  -2    5.71    0.30
  -3   4  -2    5.58    0.23
   3   4   2    5.92    0.45
  -3   4  -2    5.78    0.43
   3  -4   2    5.83    0.45
   3  -4   2    5.45    0.42
  -3   4  -3    1.43    0.16
  -3   4  -3    1.20    0.25
   3   4   3    1.32    0.25
   3  -4   3    1.68    0.28
  -3   4  -3    1.36    0.09
  -3   4  -4   17.98    0.51
   3   4   4   17.83    0.77
  -3  -4  -4   18.40    0.82
  -3   4  -4   17.62    0.75
  -3  -4  -4   16.54    0.54
   3  -4   4   18.65    0.80
   3   4   5    1.54    0.29
  -3   4  -5    1.42    0.16
   3  -4   5    1.22    0.25
  -3  -4  -5    1.37    0.16
  -3   4  -5    1.44    0.17
  -3  -4  -5    1.35    0.31
   3   4   6   10.25    0.60
  -3   4  -6    9.81    0.39
  -3  -4  -6   10.23    0.67
   3  -4   6   10.65    0.62
  -3  -4  -6    9.29    0.33
   3   4   7    8.42    0.57
  -3   4  -7    8.77    0.36
  -3  -4  -7    8.96    0.63
   3  -4   7    9.09    0.60
   3   4   8   29.44    1.09
  -3   4  -8   29.15    0.71
  -3  -4  -8   29.34    1.15
   3  -4   8   30.23    1.10
   3   4   9    7.68    0.58
  -3  -4  -9    8.31    0.65
   3  -4   9    8.10    0.58
  -3  -4 -10    2.88    0.44
   3  -4  10    2.92    0.39
   3   4  10    2.89    0.39
   3   4  11    9.70    0.68
  -3  -4 -11   11.10    0.80
   3  -4  11   10.02    0.67
  -3  -4 -12    0.74    0.30
   3  -4  12    0.73    0.26
   3   4  12    0.52    0.24
  -3  -4 -13    0.97    0.31
   3  -4  13    1.35    0.32
  -3  -5  16    1.28    0.38
   3   5 -16    0.65    0.29
  -3  -5  15   -0.32    0.29
  -3   5  15    0.23    0.25
   3  -5 -15   -0.05    0.25
   3   5 -15   -0.52    0.36
  -3  -5  14    0.16    0.23
  -3   5  14    0.08    0.27
   3  -5 -14    0.60    0.32
   3   5 -14    0.16    0.25
  -3  -5  13    0.44    0.29
  -3   5  13    0.84    0.34
   3  -5 -13    0.31    0.25
   3   5 -13    0.60    0.33
  -3  -5  12    0.35    0.24
  -3   5  12    0.15    0.23
   3  -5 -12    0.26    0.23
   3   5 -12   -0.10    0.22
  -3  -5  11    0.10    0.20
  -3   5  11   -0.16    0.22
   3  -5 -11    0.30    0.26
   3   5 -11    0.03    0.21
  -3  -5  10    4.75    0.47
  -3   5  10    4.19    0.46
   3  -5 -10    4.35    0.47
   3   5 -10    4.83    0.53
   3  -5  -9    4.69    0.47
  -3  -5   9    4.86    0.47
  -3   5   9    4.50    0.47
   3   5  -9    4.97    0.51
   3  -5  -8   24.58    0.98
  -3  -5   8   26.19    1.02
  -3   5   8   25.67    1.02
   3   5  -8   26.99    1.10
   3   5  -7    1.32    0.29
  -3  -5   7    1.34    0.29
  -3   5   7    1.22    0.27
   3  -5  -7    1.36    0.28
  -3   5   7    1.15    0.15
  -3  -5   6   19.04    0.84
  -3   5   6   18.68    0.80
   3  -5  -6   19.21    0.78
  -3   5   6   17.90    0.55
   3   5  -6   20.84    0.91
  -3   5   5    1.55    0.20
  -3  -5   5    1.57    0.31
  -3   5   5    1.29    0.25
   3  -5  -5    1.40    0.25
   3   5  -5    2.16    0.36
   3  -5  -5    1.56    0.19
   3  -5  -4   26.46    0.84
  -3  -5   4   26.54    0.99
  -3   5   4   26.19    0.86
  -3   5   4   26.16    0.85
  -3   5   4   24.84    0.73
  -3   5   4   25.63    0.96
   3   5  -4   25.40    0.99
   3  -5  -4   25.51    0.72
   3  -5  -3   24.05    0.76
  -3  -5   3   25.90    0.95
  -3   5   3   25.27    0.80
  -3   5   3   24.54    0.79
  -3   5   3   24.14    0.75
  -3   5   3   25.16    0.94
   3   5  -3   25.42    0.95
   3  -5  -3   24.27    0.74
  -3  -5   2    4.60    0.45
  -3   5   2    4.27    0.32
  -3   5   2    4.21    0.32
  -3   5   2    3.78    0.32
   3   5  -2    4.48    0.41
  -3   5   2    3.79    0.40
  -3  -5   1   10.26    0.61
  -3   5   1    9.75    0.44
  -3   5   1    9.74    0.44
  -3   5   1    9.14    0.51
  -3   5   1    9.84    0.59
   3   5  -1    9.84    0.58
   3  -5  -1    9.97    0.58
  -3   5   0    9.61    0.41
  -3   5   0   10.23    0.40
  -3  -5   0   10.09    0.61
   3   5   0    9.24    0.56
  -3   5   0   10.51    0.61
   3  -5   0   10.39    0.60
  -3   5  -1    2.65    0.20
  -3   5  -1    2.63    0.22
  -3  -5  -1    2.24    0.33
  -3   5  -1    2.32    0.34
   3  -5   1    2.27    0.32
   3   5   1    2.75    0.33
  -3  -5  -2  124.09    2.34
  -3   5  -2  121.05    1.50
  -3   5  -2  119.35    1.67
   3   5   2  119.68    2.24
  -3   5  -2  124.15    2.28
   3  -5   2  123.97    2.32
  -3   5  -3    3.24    0.20
  -3  -5  -3    3.26    0.22
  -3   5  -3    3.54    0.40
   3   5   3    3.44    0.38
   3  -5   3    3.64    0.38
  -3   5  -4    0.87    0.12
  -3   5  -4    1.14    0.30
   3   5   4    0.92    0.24
  -3  -5  -4    1.04    0.12
  -3  -5  -4    0.80    0.15
   3  -5   4    0.76    0.24
  -3   5  -4    0.56    0.12
  -3  -5  -4    0.57    0.27
  -3   5  -5   31.09    0.55
  -3   5  -5   27.83    0.52
   3   5   5   29.64    1.05
  -3  -5  -5   30.89    1.12
  -3  -5  -5   28.74    0.65
   3  -5   5   29.29    1.09
   3   5   6  131.62    2.41
  -3  -5  -6  135.46    2.62
   3  -5   6  135.59    2.53
   3   5   7    0.44    0.20
   3  -5   7    0.57    0.25
  -3  -5  -7    0.67    0.26
   3   5   8   -0.06    0.20
   3  -5   8   -0.13    0.22
  -3  -5  -8   -0.27    0.27
   3   5   9    1.04    0.25
  -3  -5  -9    0.93    0.30
   3  -5   9    0.60    0.24
  -3  -5 -10    2.93    0.45
   3  -5  10    2.80    0.40
   3   5  10    2.76    0.38
  -3  -5 -11   -0.03    0.25
   3  -5  11   -0.02    0.22
   3   5  11    0.22    0.21
  -3  -5 -12    0.00    0.27
   3  -5  12    0.23    0.27
   3   5  12    0.32    0.26
   3  -5  13   -0.08    0.27
   3  -5  14   -0.32    0.26
  -3  -6  16   -0.21    0.34
  -3  -6  15    1.04    0.32
   3   6 -15    0.79    0.38
  -3  -6  14    1.04    0.32
  -3   6  14    1.06    0.37
   3  -6 -14    1.86    0.43
   3   6 -14    1.57    0.39
  -3  -6  13    0.47    0.30
  -3   6  13    0.10    0.25
   3  -6 -13   -0.27    0.26
   3   6 -13    0.49    0.31
  -3  -6  12    2.80    0.42
  -3   6  12    2.42    0.42
   3  -6 -12    2.39    0.41
   3   6 -12    3.27    0.49
  -3  -6  11   -0.38    0.27
  -3   6  11    0.19    0.21
   3  -6 -11    0.05    0.22
   3   6 -11   -0.02    0.25
  -3  -6  10    3.15    0.42
  -3   6  10    2.87    0.43
   3  -6 -10    2.80    0.39
   3   6 -10    2.96    0.43
  -3  -6   9    0.50    0.24
  -3   6   9    0.26    0.24
   3  -6  -9   -0.13    0.23
   3   6  -9    0.21    0.24
  -3  -6   8    0.60    0.24
   3   6  -8    0.48    0.28
  -3   6   8    0.59    0.25
   3  -6  -8    0.81    0.23
   3   6  -7   -0.26    0.25
  -3  -6   7    0.01    0.21
  -3   6   7    0.04    0.18
   3  -6  -7    0.01    0.17
   3  -6  -6    3.40    0.37
  -3  -6   6    3.52    0.40
  -3   6   6    3.63    0.38
  -3   6   6    3.57    0.24
  -3   6   6    3.98    0.44
   3   6  -6    4.80    0.48
   3  -6  -5   12.74    0.63
  -3  -6   5   14.48    0.75
  -3   6   5   12.13    0.64
  -3   6   5   12.74    0.49
  -3   6   5   13.84    0.75
   3   6  -5   14.26    0.77
   3  -6  -4    3.57    0.32
  -3   6   4    3.65    0.35
  -3  -6   4    3.70    0.40
  -3   6   4    3.18    0.27
  -3   6   4    3.67    0.44
   3   6  -4    3.41    0.40
  -3  -6   3   -0.01    0.23
  -3   6   3    0.20    0.16
   3  -6  -3    0.22    0.16
   3   6  -3    0.16    0.19
  -3   6   3    0.05    0.13
  -3   6   3   -0.28    0.25
  -3   6   3   -0.08    0.19
  -3  -6   2   10.60    0.65
  -3   6   2   10.33    0.50
  -3   6   2   10.15    0.48
  -3   6   2   10.48    0.52
  -3   6   2   11.55    0.67
   3   6  -2   10.36    0.64
   3  -6  -2   10.82    0.63
   3  -6  -2   10.86    0.48
  -3  -6   1    1.56    0.30
   3   6  -1    1.83    0.34
  -3   6   1    2.06    0.23
  -3   6   1    1.57    0.32
  -3   6   1    1.65    0.22
   3  -6  -1    1.99    0.31
  -3  -6   0    7.06    0.54
  -3   6   0    7.07    0.35
  -3   6   0    7.01    0.35
  -3   6   0    6.96    0.54
   3   6   0    7.01    0.51
   3  -6   0    7.22    0.53
  -3  -6  -1   42.37    1.30
  -3   6  -1   40.58    0.80
  -3   6  -1   40.54    0.81
   3   6   1   40.48    1.24
  -3   6  -1   42.13    1.29
   3  -6   1   41.47    1.28
  -3   6  -2   57.20    0.82
  -3   6  -2   56.76    0.89
   3   6   2   55.20    1.47
  -3  -6  -2   53.29    1.11
  -3   6  -2   56.40    1.53
   3  -6   2   56.01    1.54
  -3   6  -3    2.65    0.12
  -3  -6  -3    2.92    0.24
  -3   6  -3    3.27    0.41
   3   6   3    2.60    0.33
   3  -6   3    3.21    0.39
  -3  -6  -3    2.73    0.39
   3   6   4   22.66    0.91
  -3  -6  -4   22.80    0.99
  -3   6  -4   23.75    0.98
  -3  -6  -4   22.76    0.56
   3  -6   4   23.98    0.99
   3   6   5    9.35    0.59
  -3  -6  -5    9.91    0.70
   3  -6   5    9.76    0.65
   3   6   6    3.57    0.39
   3  -6   6    4.00    0.45
  -3  -6  -6    4.96    0.50
   3   6   7    1.17    0.26
   3  -6   7    0.78    0.24
  -3  -6  -7    0.99    0.30
   3   6   8   -0.08    0.20
   3  -6   8    0.30    0.20
  -3  -6  -8    0.00    0.23
   3   6   9   -0.05    0.19
  -3  -6  -9   -0.01    0.26
   3  -6   9   -0.25    0.24
  -3  -6 -10    9.83    0.77
   3  -6  10   10.73    0.75
  -3  -6 -11    0.49    0.29
   3   6  11    0.53    0.26
   3  -6  12    1.50    0.35
   3  -6  13    0.11    0.24
  -3  -7  15    0.70    0.34
  -3  -7  14   -0.02    0.26
   3   7 -14   -0.33    0.36
  -3  -7  13   -0.02    0.24
  -3   7  13    0.17    0.24
   3  -7 -13    0.27    0.27
   3   7 -13   -0.33    0.29
  -3  -7  12    0.08    0.24
  -3   7  12   -0.38    0.25
   3  -7 -12   -0.42    0.29
   3   7 -12   -0.05    0.26
  -3  -7  11    4.05    0.49
  -3   7  11    4.17    0.52
   3  -7 -11    3.53    0.46
  -3   7  11    4.31    0.51
   3   7 -11    4.39    0.56
  -3  -7  10    0.23    0.24
  -3   7  10    0.35    0.23
   3  -7 -10    0.80    0.30
   3   7 -10    0.20    0.28
  -3   7  10    0.31    0.26
  -3  -7   9    1.33    0.32
  -3   7   9    1.35    0.31
   3  -7  -9    0.95    0.27
   3   7  -9    1.14    0.33
  -3   7   9    1.01    0.32
  -3  -7   8    0.27    0.21
   3   7  -8    0.53    0.25
  -3   7   8   -0.04    0.19
   3  -7  -8    0.28    0.21
  -3   7   8   -0.06    0.25
   3   7  -7   -0.02    0.23
  -3  -7   7    0.53    0.26
  -3   7   7    0.20    0.20
   3  -7  -7    0.34    0.21
  -3   7   7   -0.43    0.28
   3   7  -6    2.47    0.42
  -3  -7   6    1.94    0.32
  -3   7   6    1.48    0.28
   3  -7  -6    1.76    0.29
  -3   7   6    2.23    0.37
  -3  -7   5   18.73    0.90
  -3   7   5   16.20    0.75
   3  -7  -5   17.65    0.74
  -3   7   5   18.96    0.91
   3   7  -5   19.34    0.96
  -3  -7   4    0.77    0.27
  -3   7   4    0.74    0.21
   3  -7  -4    0.90    0.20
  -3   7   4    0.56    0.24
  -3   7   4    0.84    0.17
   3   7  -4    1.07    0.30
   3  -7  -3    4.87    0.35
  -3  -7   3    5.96    0.52
  -3   7   3    4.31    0.37
  -3   7   3    4.83    0.37
  -3   7   3    4.69    0.36
  -3   7   3    5.00    0.52
   3   7  -3    5.01    0.48
   3  -7  -3    5.42    0.47
  -3  -7   2    2.65    0.37
   3  -7  -2    2.40    0.25
  -3   7   2    2.32    0.27
  -3   7   2    2.36    0.27
   3   7  -2    3.11    0.39
  -3   7   2    2.57    0.38
  -3   7   2    2.48    0.26
   3  -7  -2    2.31    0.33
  -3  -7   1   17.30    0.86
  -3   7   1   17.04    0.62
  -3   7   1   17.02    0.59
  -3   7   1   18.11    0.87
   3   7  -1   18.08    0.85
   3  -7  -1   18.28    0.84
   3   7   0    0.19    0.19
  -3  -7   0    0.15    0.21
  -3   7   0    0.34    0.14
  -3   7   0   -0.15    0.28
  -3   7   0    0.19    0.11
   3  -7   0    0.41    0.22
  -3   7  -1   12.76    0.43
  -3  -7  -1   13.18    0.60
   3   7   1   14.05    0.74
  -3   7  -1   13.63    0.77
   3  -7   1   12.73    0.73
  -3  -7  -1   13.57    0.78
  -3   7  -2   29.06    0.53
  -3  -7  -2   32.29    1.18
   3   7   2   30.69    1.09
  -3   7  -2   31.54    1.18
  -3  -7  -2   29.57    0.85
   3  -7   2   29.87    1.14
  -3  -7  -3   30.51    1.17
   3   7   3   28.80    1.06
  -3   7  -3   29.07    1.13
   3  -7   3   29.94    1.14
  -3  -7  -4   25.34    1.08
   3   7   4   21.95    0.93
   3  -7   4   23.56    1.04
   3   7   5    1.64    0.29
   3  -7   5    1.95    0.35
  -3  -7  -5    2.38    0.42
   3   7   6    3.18    0.37
   3  -7   6    3.99    0.46
  -3  -7  -6    4.05    0.48
   3   7   7    4.02    0.42
   3  -7   7    4.69    0.53
  -3  -7  -7    4.33    0.50
   3   7   8    1.63    0.31
  -3  -7  -8    2.43    0.42
   3  -7   8    2.19    0.39
   3   7   9    1.12    0.26
  -3  -7  -9    1.41    0.38
   3  -7   9    1.82    0.36
   3   7  10    3.48    0.42
  -3  -7 -10    2.99    0.48
   3  -7  10    3.52    0.51
   3  -7  11    0.15    0.28
  -3  -8  14    0.47    0.32
  -3   8  14    0.42    0.32
  -3  -8  13    6.90    0.67
   3  -8 -13    6.00    0.65
  -3   8  13    5.48    0.63
  -3  -8  12    1.48    0.37
  -3   8  12    0.87    0.33
   3  -8 -12    1.16    0.36
  -3   8  12    0.70    0.34
   3   8 -12    1.75    0.46
  -3  -8  11    0.11    0.26
  -3   8  11   -0.43    0.31
   3  -8 -11    0.12    0.26
  -3   8  11   -0.36    0.33
   3   8 -11    0.21    0.29
  -3  -8  10    0.69    0.29
  -3   8  10   -0.07    0.26
   3  -8 -10    0.08    0.24
   3   8 -10   -0.12    0.31
  -3   8  10    0.50    0.32
  -3  -8   9    4.14    0.50
  -3   8   9    2.87    0.45
   3   8  -9    3.77    0.52
   3  -8  -9    3.59    0.45
  -3   8   9    3.30    0.48
  -3  -8   8    0.55    0.26
   3   8  -8    0.60    0.29
  -3   8   8    0.32    0.24
   3  -8  -8    0.26    0.19
  -3   8   8   -0.20    0.25
   3   8  -7    0.47    0.27
  -3  -8   7    0.41    0.26
  -3   8   7    0.15    0.19
   3  -8  -7    0.55    0.24
  -3   8   7    0.15    0.28
   3   8  -6    0.20    0.25
  -3  -8   6    0.45    0.26
  -3   8   6    0.25    0.21
   3  -8  -6    0.82    0.24
  -3   8   6    0.74    0.31
  -3  -8   5    0.09    0.21
  -3   8   5    0.21    0.18
   3  -8  -5   -0.13    0.16
  -3   8   5    0.20    0.24
   3   8  -5    0.06    0.24
  -3  -8   4    0.34    0.23
  -3   8   4    0.49    0.20
   3  -8  -4    0.59    0.18
  -3   8   4    0.92    0.29
   3   8  -4    0.50    0.25
  -3  -8   3    0.21    0.21
  -3   8   3    0.24    0.15
   3  -8  -3    0.23    0.14
  -3   8   3    0.41    0.28
   3   8  -3    0.51    0.23
   3  -8  -3    0.43    0.22
  -3  -8   2    0.57    0.24
   3  -8  -2    0.44    0.15
  -3   8   2    0.66    0.21
   3   8  -2    0.40    0.24
  -3   8   2    0.07    0.28
   3  -8  -2    0.43    0.22
  -3  -8   1   49.91    1.56
  -3   8   1   46.39    1.12
  -3   8   1   51.51    1.61
   3   8  -1   50.18    1.52
   3  -8  -1   51.94    1.53
  -3  -8   0    1.99    0.38
   3   8   0    1.93    0.35
  -3   8   0    1.62    0.21
  -3   8   0    1.80    0.37
   3  -8   0    1.73    0.33
   3   8   1   -0.25    0.22
  -3   8  -1    0.20    0.29
   3  -8   1    0.36    0.22
  -3  -8  -1    0.61    0.29
  -3   8  -2    3.95    0.47
   3  -8   2    4.15    0.46
   3   8   2    3.83    0.44
  -3  -8  -2    3.93    0.47
  -3  -8  -3   15.55    0.86
   3   8   3   13.41    0.76
   3  -8   3   15.31    0.86
   3   8   4    2.53    0.36
   3  -8   4    3.05    0.43
  -3  -8  -4    2.63    0.42
   3   8   5    3.87    0.43
   3  -8   5    5.08    0.55
  -3  -8  -5    5.12    0.53
  -3  -8  -6    5.50    0.57
   3   8   6    4.73    0.45
   3  -8   6    5.71    0.57
   3   8   7    6.25    0.52
  -3  -8  -7    6.68    0.62
   3  -8   7    6.89    0.62
   3   8   8    3.76    0.43
  -3  -8  -8    3.86    0.53
   3  -8   8    4.89    0.58
  -3  -8  -9    7.92    0.74
   3  -8   9    8.51    0.73
   3  -8  10    0.26    0.27
  -3  -9  13   -0.06    0.28
  -3  -9  12    4.56    0.58
   3  -9 -12    3.82    0.53
  -3   9  12    3.03    0.50
  -3  -9  11    0.21    0.27
  -3   9  11   -0.13    0.30
   3  -9 -11   -0.15    0.25
  -3   9  11   -0.18    0.29
  -3  -9  10    7.39    0.69
   3  -9 -10    7.05    0.65
  -3   9  10    5.81    0.63
  -3   9  10    6.98    0.68
   3   9 -10    7.22    0.75
  -3  -9   9    4.30    0.55
   3   9  -9    4.43    0.57
  -3   9   9    3.03    0.46
   3  -9  -9    3.20    0.42
  -3   9   9    2.66    0.42
  -3  -9   8    9.71    0.76
   3  -9  -8    8.19    0.62
  -3   9   8    6.90    0.63
  -3   9   8    8.09    0.70
   3   9  -8    9.25    0.78
   3   9  -7    0.77    0.31
  -3  -9   7    0.63    0.29
  -3   9   7    0.71    0.26
   3  -9  -7    0.71    0.22
  -3   9   7    0.42    0.30
   3  -9  -6    5.04    0.45
  -3  -9   6    5.17    0.54
  -3   9   6    4.02    0.45
  -3   9   6    4.21    0.53
   3   9  -6    5.71    0.61
  -3  -9   5    0.20    0.23
  -3   9   5    0.03    0.19
   3  -9  -5    0.30    0.19
  -3   9   5   -0.43    0.30
   3   9  -5    0.03    0.31
  -3  -9   4    2.26    0.39
  -3   9   4    1.84    0.30
   3  -9  -4    1.84    0.26
   3   9  -4    1.55    0.33
  -3  -9   3    0.36    0.26
  -3   9   3    0.12    0.18
   3  -9  -3   -0.02    0.14
  -3   9   3    0.07    0.29
   3   9  -3    0.01    0.23
   3  -9  -3    0.10    0.22
  -3  -9   2    1.98    0.36
   3  -9  -2    2.41    0.24
  -3   9   2    1.85    0.28
   3   9  -2    2.47    0.39
  -3   9   2    2.31    0.41
   3  -9  -2    2.23    0.37
   3   9  -1    0.97    0.32
  -3   9   1    0.82    0.18
  -3   9   1    0.45    0.28
   3  -9  -1    1.53    0.30
   3   9   0   -0.32    0.26
  -3   9   0   -0.18    0.29
   3  -9   0   -0.10    0.21
  -3  -9   0   -0.08    0.24
   3   9   1    0.10    0.21
  -3   9  -1   -0.18    0.30
   3  -9   1   -0.21    0.26
  -3  -9  -1   -0.05    0.25
  -3   9  -2    2.04    0.42
   3  -9   2    2.55    0.43
   3   9   2    2.24    0.35
  -3  -9  -2    2.90    0.42
  -3  -9  -3   16.99    0.96
   3   9   3   15.24    0.83
   3  -9   3   17.82    0.97
   3   9   4   -0.09    0.22
   3  -9   4    0.18    0.25
  -3  -9  -4    0.44    0.27
   3   9   5    3.37    0.41
   3  -9   5    3.82    0.51
  -3  -9  -5    2.85    0.45
   3   9   6   -0.19    0.21
   3  -9   6    0.36    0.25
  -3  -9  -6   -0.23    0.28
   3   9   7    1.19    0.30
  -3  -9  -7    0.76    0.34
   3  -9   7    1.12    0.32
   3  -9   8    3.23    0.52
  -3 -10  12    1.63    0.41
  -3 -10  11    0.46    0.35
   3 -10 -11    0.22    0.24
  -3 -10  10    0.32    0.27
  -3  10  10    0.05    0.28
   3 -10 -10   -0.16    0.29
  -3  10  10    0.08    0.27
  -3 -10   9   -0.26    0.29
   3 -10  -9   -0.12    0.25
  -3  10   9   -0.27    0.29
  -3 -10   8    0.41    0.30
   3  10  -8   -0.18    0.31
  -3  10   8   -0.48    0.28
   3 -10  -8    0.05    0.25
  -3  10   8   -0.12    0.31
   3  10  -7    0.14    0.30
  -3 -10   7   -0.12    0.29
  -3  10   7    0.66    0.29
   3 -10  -7    0.33    0.20
  -3  10   7   -0.07    0.30
   3  10  -6    4.43    0.56
   3 -10  -6    5.18    0.47
  -3 -10   6    5.15    0.56
  -3  10   6    3.33    0.41
  -3  10   6    4.76    0.58
  -3 -10   5    1.56    0.38
  -3  10   5    1.21    0.29
   3 -10  -5    1.57    0.27
  -3  10   5    0.83    0.29
   3  10  -5    1.18    0.36
  -3 -10   4    0.01    0.28
  -3  10   4   -0.14    0.23
  -3  10   4   -0.26    0.31
   3  10  -4    0.00    0.25
  -3  10   3    6.31    0.50
  -3  10   3    7.40    0.69
   3  10  -3    8.18    0.70
   3 -10  -3    8.15    0.63
  -3 -10   3    9.02    0.70
   3  10  -2    2.28    0.40
  -3  10   2    1.87    0.41
   3 -10  -2    1.89    0.36
   3  10  -1    0.97    0.33
  -3  10   1    0.85    0.35
   3 -10  -1    1.08    0.30
  -3 -10   1    0.72    0.29
   3  10   0    0.04    0.23
  -3  10   0    0.54    0.34
   3 -10   0    0.51    0.27
  -3 -10   0    1.07    0.34
  -3 -10   0    0.47    0.22
   3  10   1    0.70    0.26
  -3  10  -1    1.13    0.37
   3 -10   1    1.76    0.36
  -3 -10  -1    0.94    0.28
   3 -10   2    0.04    0.26
  -3 -10  -2    0.52    0.30
   3  10   2   -0.18    0.23
   3  10   3   -0.07    0.20
  -3 -10  -3    0.22    0.25
   3  10   4    0.95    0.30
   3 -10   4    0.79    0.28
  -3 -10  -4    1.05    0.31
   3  10   5    0.01    0.20
   3 -10   5   -0.27    0.30
  -3 -10  -5   -0.71    0.35
  -3 -10  -6    0.31    0.31
  -3 -11  10   -0.20    0.31
   3 -11 -10    0.32    0.25
  -3 -11   9    0.35    0.30
  -3  11   9    0.23    0.27
   3 -11  -9   -0.02    0.22
  -3 -11   8   -0.03    0.27
  -3  11   8    0.38    0.31
  -3 -11   7   -0.32    0.26
  -3  11   7    0.23    0.25
  -3 -11   6    0.07    0.26
  -3  11   6   -0.19    0.24
  -3  11   6    0.50    0.32
   3  11  -6    0.31    0.26
  -3 -11   5    0.31    0.29
  -3  11   5    0.21    0.19
  -3  11   5    0.58    0.32
   3  11  -5    0.27    0.29
  -3 -11   5    0.48    0.33
  -3  11   4    0.13    0.33
   3  11  -4    0.19    0.32
  -3 -11   4   -0.82    0.40
  -3  11   3    0.35    0.31
   3  11  -3   -0.09    0.25
   3 -11  -3   -0.53    0.31
  -3 -11   3   -0.29    0.26
  -3 -11   3    0.76    0.30
   3  11  -2   -0.17    0.27
  -3  11   2   -0.09    0.38
   3 -11  -2    0.03    0.23
  -3 -11   2    0.23    0.26
  -3 -11   2    0.29    0.25
   3  11  -1    0.35    0.25
  -3  11   1   -0.15    0.35
   3 -11  -1    0.21    0.22
  -3 -11   1    0.23    0.28
  -3 -11   1    0.16    0.25
   3  11   0    0.52    0.31
   3 -11   0   -0.41    0.30
  -3 -11   0   -0.02    0.26
   3  11   1    0.10    0.22
   3 -11   1    0.33    0.27
  -3 -11  -1   -0.23    0.24
   3 -11   2    0.03    0.23
  -3 -11  -2    0.39    0.25
   3  11   2   -0.24    0.26
   3  11   3    0.17    0.23
  -3 -11  -3    0.13    0.25
   3  11   4    0.21    0.21
  -3 -11  -4    0.67    0.31
  -3 -12   5    1.12    0.45
  -3 -12   4   -0.37    0.31
  -3 -12   4   -0.13    0.28
   3  12  -3    0.44    0.29
   3 -12  -3   -0.13    0.26
  -3 -12   3   -0.24    0.27
  -3 -12   3   -0.36    0.33
   3  12  -2    0.11    0.24
   3 -12  -2    0.41    0.26
   3  12  -1    0.43    0.28
  -3 -12   1    0.20    0.30
   3  12   0    0.01    0.24
  -3 -12   0   -0.13    0.28
   3  12   1    0.61    0.29
  -3 -12  -1    0.97    0.34
   3  12   2   -0.64    0.31
  -4   0  15   -0.31    0.28
   4   0 -15   -0.20    0.26
  -4   0  14    9.53    0.76
   4   0 -14   10.79    0.65
   4   0 -14    9.88    0.79
   4   0 -13   -0.28    0.23
  -4   0  13    0.02    0.24
   4   0 -13   -0.24    0.23
   4   0 -12    0.19    0.16
  -4   0  12    0.10    0.24
   4   0 -12   -0.16    0.24
   4   0 -11   -0.35    0.22
  -4   0  11    0.08    0.22
  -4   0  10   13.35    0.79
   4   0 -10   12.74    0.66
  -4   0   9    0.29    0.23
   4   0  -9   -0.01    0.18
  -4   0   8    6.06    0.52
   4   0  -8    7.02    0.48
  -4   0   7   -0.14    0.23
   4   0  -7    0.01    0.15
  -4   0   6   26.15    0.99
   4   0  -6   27.75    0.95
  -4   0   5   -0.11    0.21
   4   0  -5    0.00    0.17
  -4   0   4    4.68    0.41
   4   0  -4    4.38    0.39
  -4   0   3    0.14    0.20
   4   0  -3    0.09    0.17
  -4   0   2   30.35    0.98
   4   0  -2   31.71    1.03
  -4   0   1    0.21    0.20
   4   0  -1   -0.04    0.17
  -4   0   0    2.11    0.29
   4   0   0    1.71    0.29
  -4   0  -1    0.04    0.17
   4   0   1   -0.22    0.21
   4   0   1   -0.11    0.14
  -4   0  -2   58.35    1.33
   4   0   2   55.78    1.28
   4   0   2   57.46    1.53
   4   0   3   -0.13    0.20
  -4   0  -3    0.06    0.17
   4   0   3    0.21    0.16
  -4   0  -3   -0.05    0.16
   4   0   4   57.65    1.30
   4   0   4   58.03    1.58
  -4   0  -4   57.61    1.12
   4   0   5   -0.09    0.23
   4   0   5    0.06    0.14
  -4   0  -5    0.26    0.14
   4   0   6   88.29    2.09
  -4   0  -6   88.16    1.95
  -4   0  -7   -0.08    0.22
   4   0   7   -0.05    0.21
   4   0   8    8.59    0.68
  -4   0  -8    8.97    0.62
  -4   0  -9    0.49    0.23
   4   0   9   -0.26    0.25
  -4   0 -10    0.53    0.25
   4   0  10    0.57    0.25
  -4   0 -11    0.25    0.24
  -4  -1  15    3.04    0.50
  -4   1  15    2.82    0.43
   4  -1 -15    2.68    0.46
   4   1 -15    3.08    0.41
  -4  -1  14    0.91    0.31
  -4   1  14    1.06    0.34
   4  -1 -14    0.97    0.32
   4   1 -14    0.71    0.27
  -4  -1  13    0.36    0.27
  -4   1  13   -0.13    0.23
   4  -1 -13    0.15    0.23
   4   1 -13   -0.06    0.19
   4  -1 -13   -0.06    0.16
  -4  -1  12    0.53    0.25
  -4   1  12    0.94    0.31
   4  -1 -12    0.69    0.29
   4   1 -12    0.90    0.24
   4  -1 -12    0.90    0.22
  -4  -1  11    1.45    0.32
  -4   1  11    1.07    0.30
   4   1 -11    1.51    0.29
   4  -1 -11    1.03    0.30
   4  -1 -11    1.22    0.23
   4   1 -10    0.34    0.21
  -4  -1  10   -0.41    0.27
  -4   1  10    0.15    0.21
   4  -1 -10    0.14    0.22
   4  -1 -10    0.06    0.14
   4   1  -9    0.15    0.18
  -4  -1   9    0.20    0.24
   4  -1  -9    0.45    0.18
   4   1  -8    3.12    0.36
  -4  -1   8    3.19    0.40
  -4   1   8    3.07    0.38
   4  -1  -8    3.61    0.34
  -4  -1   7    1.74    0.31
  -4   1   7    2.38    0.35
   4  -1  -7    1.93    0.27
   4   1  -7    1.81    0.28
  -4  -1   6   -0.06    0.22
  -4   1   6    0.12    0.19
   4  -1  -6    0.11    0.15
   4   1  -6   -0.17    0.21
  -4  -1   5   16.73    0.78
  -4   1   5   16.26    0.74
   4  -1  -5   17.24    0.72
   4   1  -5   17.65    0.77
  -4  -1   4   28.60    1.01
  -4   1   4   29.37    0.99
   4  -1  -4   30.23    0.96
   4   1  -4   29.42    1.00
  -4  -1   3    0.78    0.25
  -4   1   3    0.96    0.24
   4  -1  -3    0.65    0.20
   4   1  -3    1.07    0.25
  -4  -1   2   10.51    0.59
  -4   1   2   11.66    0.58
   4  -1  -2   11.79    0.61
   4   1  -2   10.84    0.61
  -4  -1   1   62.71    1.45
  -4   1   1   61.27    1.36
   4  -1  -1   60.72    1.35
   4  -1  -1   60.00    1.47
   4   1  -1   60.15    1.49
  -4  -1   0    0.62    0.21
  -4   1   0    0.37    0.19
   4  -1   0    0.60    0.22
   4  -1   0    0.65    0.19
   4   1   0    0.76    0.23
  -4  -1  -1    8.45    0.52
  -4   1  -1    9.61    0.51
   4  -1   1    8.60    0.47
   4  -1   1    8.27    0.54
   4   1   1    8.54    0.58
  -4  -1  -2   34.83    1.07
  -4   1  -2   36.84    0.98
   4  -1   2   33.75    0.91
   4  -1   2   34.31    1.13
   4   1   2   35.75    1.16
  -4   1  -2   36.06    0.97
   4  -1   3    0.26    0.18
  -4  -1  -3    0.14    0.19
  -4   1  -3    0.64    0.19
   4   1   3    0.36    0.21
   4  -1   3    0.20    0.14
  -4   1  -3    0.15    0.16
  -4  -1  -3    0.37    0.14
   4  -1   4   -0.18    0.24
   4   1   4    0.33    0.25
   4  -1   4   -0.08    0.13
  -4   1  -4    0.45    0.17
  -4  -1  -4    0.21    0.11
   4   1   5   -0.05    0.21
   4  -1   5    0.25    0.13
  -4   1  -5    0.14    0.16
   4  -1   5    0.14    0.21
   4   1   6    2.05    0.33
  -4   1  -6    1.98    0.31
  -4  -1  -6    2.23    0.36
   4  -1   6    2.55    0.37
   4  -1   7   13.53    0.80
   4   1   7   13.69    0.81
  -4   1  -7   13.93    0.71
  -4  -1  -7   13.61    0.77
   4   1   8   15.74    0.88
  -4   1  -8   15.93    0.77
  -4  -1  -8   14.15    0.79
   4  -1   8   15.84    0.89
  -4   1  -9   -0.15    0.21
   4  -1   9    0.61    0.31
  -4  -1  -9   -0.09    0.22
   4   1   9    0.11    0.25
  -4   1 -10    2.40    0.35
  -4  -1 -10    2.57    0.39
   4   1  10    2.04    0.38
  -4  -1 -11   -0.11    0.24
   4   1  11    0.08    0.24
  -4  -1 -12    0.67    0.29
  -4  -1 -13    0.54    0.29
   4   2 -16   -0.05    0.25
  -4  -2  15    0.22    0.27
  -4   2  15    0.14    0.25
   4  -2 -15   -0.02    0.27
   4   2 -15    0.18    0.22
  -4  -2  14    0.29    0.25
  -4   2  14    0.12    0.29
   4  -2 -14    0.45    0.28
   4   2 -14   -0.07    0.24
  -4  -2  13   -0.31    0.29
  -4   2  13    0.03    0.23
   4   2 -13    0.03    0.20
  -4  -2  12    2.60    0.45
  -4   2  12    3.11    0.45
   4  -2 -12    3.29    0.32
   4  -2 -12    3.57    0.50
   4   2 -12    3.31    0.43
  -4  -2  11    0.64    0.26
  -4   2  11    0.29    0.23
   4  -2 -11    0.46    0.24
   4   2 -11    0.67    0.25
   4  -2 -11    0.30    0.16
  -4  -2  10    0.43    0.24
  -4   2  10    0.32    0.24
   4  -2 -10    0.65    0.28
   4   2 -10    0.30    0.22
   4  -2 -10    0.33    0.16
  -4  -2   9    0.56    0.27
  -4   2   9    0.32    0.21
   4   2  -9    0.10    0.18
   4  -2  -9    0.33    0.24
   4  -2  -9    0.12    0.14
  -4  -2   8   13.49    0.76
  -4   2   8   12.16    0.70
   4  -2  -8   13.01    0.59
   4   2  -8   12.85    0.71
   4  -2  -8   11.59    0.71
   4   2  -7    0.40    0.21
  -4  -2   7    0.27    0.20
  -4   2   7    0.42    0.25
   4  -2  -7    0.34    0.15
   4   2  -6    1.09    0.26
  -4  -2   6    1.07    0.28
  -4   2   6    0.84    0.24
   4  -2  -6    0.83    0.21
  -4  -2   5   37.54    1.21
  -4   2   5   37.13    1.15
   4  -2  -5   39.57    1.10
   4   2  -5   39.12    1.22
  -4  -2   4    8.55    0.57
  -4   2   4    8.18    0.51
   4  -2  -4    7.68    0.49
   4   2  -4    7.93    0.55
  -4  -2   3    0.32    0.22
  -4   2   3    0.36    0.21
   4  -2  -3    0.50    0.19
   4   2  -3    0.42    0.21
   4  -2  -2    0.44    0.19
  -4  -2   2    0.05    0.19
  -4   2   2    0.37    0.19
   4  -2  -2    0.31    0.17
   4   2  -2    0.18    0.19
  -4  -2   1   34.26    1.10
  -4   2   1   34.34    0.96
   4  -2  -1   34.40    1.07
   4  -2  -1   35.42    0.96
   4   2  -1   33.14    1.09
  -4  -2   0    7.98    0.53
  -4   2   0    7.51    0.44
   4  -2   0    7.51    0.52
   4  -2   0    6.96    0.41
   4   2   0    8.22    0.55
   4  -2   1    0.00    0.19
  -4  -2  -1    0.09    0.20
  -4   2  -1    0.03    0.15
   4  -2   1   -0.05    0.14
   4   2   1    0.11    0.20
  -4   2  -1    0.19    0.20
   4  -2   2    0.49    0.20
  -4  -2  -2    0.43    0.22
  -4   2  -2    0.38    0.17
   4  -2   2    0.32    0.12
   4   2   2    0.44    0.19
  -4   2  -2    0.09    0.18
   4  -2   3    2.68    0.35
  -4  -2  -3    2.07    0.31
  -4   2  -3    2.83    0.25
   4   2   3    2.84    0.37
   4  -2   3    2.38    0.23
  -4   2  -3    2.58    0.30
   4  -2   4   13.18    0.74
   4  -2   4   13.73    0.50
   4   2   4   13.50    0.76
  -4   2  -4   13.81    0.60
  -4  -2  -4   12.67    0.37
  -4  -2  -4   13.10    0.62
   4   2   5    0.65    0.25
  -4   2  -5    0.40    0.20
   4  -2   5    0.18    0.20
  -4  -2  -5    0.30    0.23
   4   2   6    6.17    0.52
  -4   2  -6    6.09    0.45
  -4  -2  -6    6.39    0.55
   4  -2   6    6.81    0.58
   4   2   7   10.16    0.69
  -4   2  -7   11.14    0.61
  -4  -2  -7   11.40    0.74
   4  -2   7   11.77    0.76
   4   2   8    0.27    0.21
  -4   2  -8   -0.03    0.17
  -4  -2  -8    0.12    0.25
   4  -2   9    0.92    0.23
  -4   2  -9    0.90    0.24
  -4  -2  -9    0.90    0.30
   4   2   9    0.65    0.25
   4  -2  10    0.88    0.25
  -4  -2 -10    1.07    0.31
   4   2  10    1.48    0.34
  -4  -2 -11    4.88    0.56
   4   2  11    3.67    0.49
  -4  -2 -12    3.38    0.49
  -4  -2 -13    0.75    0.32
   4   3 -16    0.09    0.25
  -4  -3  15    0.12    0.26
   4   3 -15    0.00    0.28
  -4  -3  14   -0.16    0.30
  -4   3  14    0.13    0.28
   4  -3 -14    0.59    0.31
   4   3 -14    0.32    0.27
  -4  -3  13    1.38    0.34
  -4   3  13    0.86    0.33
   4  -3 -13    0.68    0.32
   4   3 -13    0.48    0.25
  -4  -3  12    0.96    0.34
  -4   3  12    0.66    0.26
   4  -3 -12    1.11    0.33
   4   3 -12    1.13    0.30
  -4  -3  11    1.13    0.32
  -4   3  11    1.12    0.32
   4  -3 -11    0.81    0.28
   4   3 -11    0.86    0.30
  -4  -3  10   -0.04    0.24
  -4   3  10    0.18    0.22
   4  -3 -10    0.39    0.21
   4  -3 -10    0.07    0.12
   4   3 -10    0.10    0.20
  -4  -3   9   -0.14    0.22
  -4   3   9   -0.29    0.22
   4  -3  -9    0.14    0.22
   4  -3  -9    0.11    0.12
   4   3  -9   -0.12    0.21
  -4  -3   8    0.28    0.22
  -4   3   8    0.33    0.16
  -4   3   8   -0.18    0.22
   4  -3  -8    0.49    0.15
   4  -3  -8    0.27    0.21
   4   3  -8    0.36    0.20
  -4  -3   7    1.45    0.30
   4   3  -7    1.55    0.29
   4  -3  -7    1.76    0.23
  -4   3   7    1.38    0.28
   4  -3  -7    1.69    0.29
  -4   3   7    1.42    0.25
   4   3  -6    0.15    0.19
  -4  -3   6    0.00    0.22
   4  -3  -6    0.28    0.16
  -4   3   6    0.02    0.19
  -4   3   6    0.38    0.20
   4   3  -5    1.65    0.29
   4  -3  -5    1.84    0.27
  -4  -3   5    1.57    0.30
  -4   3   5    1.51    0.29
  -4  -3   4    4.65    0.46
  -4   3   4    4.55    0.41
   4  -3  -4    4.68    0.37
   4   3  -4    4.89    0.45
  -4  -3   3   13.62    0.73
  -4   3   3   14.33    0.65
   4  -3  -3   14.68    0.67
   4   3  -3   15.60    0.76
  -4  -3   2    6.14    0.51
  -4   3   2    6.38    0.42
   4  -3  -2    6.53    0.47
   4  -3  -2    6.36    0.41
   4   3  -2    6.37    0.51
  -4  -3   1   22.68    0.92
  -4   3   1   23.34    0.77
   4  -3  -1   23.23    0.87
   4  -3  -1   22.90    0.74
   4   3  -1   23.37    0.93
  -4   3   1   23.20    0.89
  -4   3   0   24.64    0.83
  -4  -3   0   26.48    1.00
  -4   3   0   27.27    0.80
   4  -3   0   25.72    0.94
   4  -3   0   25.87    0.76
   4   3   0   25.07    0.98
  -4   3   0   25.48    0.92
  -4   3  -1   90.28    1.74
  -4  -3  -1   95.11    2.01
  -4   3  -1   97.56    1.63
   4  -3   1   93.06    1.99
   4  -3   1   93.35    1.56
   4   3   1   90.89    2.02
  -4   3  -1   95.63    1.91
  -4  -3  -2    0.23    0.21
  -4   3  -2    0.49    0.17
  -4   3  -2    0.45    0.17
   4  -3   2    0.27    0.11
   4   3   2    0.15    0.20
  -4   3  -2    0.23    0.20
   4  -3   2    0.10    0.23
  -4  -3  -3  112.96    2.27
  -4   3  -3  117.28    1.71
   4  -3   3  113.70    2.32
   4  -3   3  112.09    1.63
   4   3   3  112.41    2.33
  -4   3  -3  115.51    2.11
  -4  -3  -3  104.72    1.99
  -4   3  -3  108.36    1.95
   4   3   4    7.60    0.56
  -4   3  -4    8.07    0.52
  -4  -3  -4    6.51    0.22
  -4  -3  -4    6.46    0.43
   4  -3   4    7.66    0.58
   4   3   5    9.04    0.64
  -4   3  -5   10.83    0.54
  -4  -3  -5   10.34    0.68
  -4   3  -5   10.86    0.58
   4  -3   5   11.06    0.66
   4  -3   5   11.20    0.71
   4   3   6    0.52    0.23
   4  -3   6    0.15    0.19
   4  -3   6    0.46    0.23
  -4   3  -6    0.49    0.18
  -4  -3  -6    0.32    0.26
   4   3   7   19.50    0.96
  -4   3  -7   20.69    0.76
  -4  -3  -7   21.18    1.03
   4  -3   7   20.57    0.91
   4   3   8    3.54    0.44
   4  -3   8    3.17    0.39
  -4  -3  -8    2.77    0.42
   4  -3   9    4.70    0.47
  -4  -3  -9    4.33    0.53
   4   3   9    3.49    0.47
   4  -3  10    4.08    0.44
  -4  -3 -10    3.82    0.48
   4   3  10    4.27    0.51
   4  -3  11   -0.28    0.25
   4   3  11   -0.16    0.27
  -4  -3 -12    0.59    0.34
   4   3  12    0.53    0.30
   4   4 -16    0.23    0.30
  -4  -4  15   -0.45    0.29
   4   4 -15    0.30    0.27
  -4  -4  14    0.33    0.27
  -4   4  14   -0.08    0.28
   4  -4 -14    0.26    0.29
   4   4 -14    0.01    0.25
  -4  -4  13   -0.19    0.28
  -4   4  13   -0.11    0.32
   4  -4 -13    0.16    0.24
   4   4 -13    0.11    0.24
  -4  -4  12    2.06    0.39
  -4   4  12    3.35    0.47
   4  -4 -12    3.19    0.45
   4   4 -12    2.74    0.44
  -4  -4  11    1.08    0.28
  -4   4  11    1.72    0.34
   4  -4 -11    1.29    0.32
   4   4 -11    1.84    0.38
  -4  -4  10    0.87    0.29
  -4   4  10    0.97    0.29
   4  -4 -10    1.29    0.31
   4   4 -10    1.37    0.34
   4  -4  -9   -0.23    0.15
  -4  -4   9    0.27    0.23
  -4   4   9    0.21    0.21
   4  -4  -9    0.32    0.22
   4   4  -9   -0.27    0.24
  -4  -4   8   24.00    1.05
   4  -4  -8   24.93    0.76
  -4   4   8   23.68    1.02
   4   4  -8   23.65    1.04
   4  -4  -8   22.09    1.00
   4  -4  -7    1.92    0.24
  -4   4   7    1.20    0.21
  -4  -4   7    1.71    0.32
  -4   4   7    1.91    0.32
   4  -4  -7    1.62    0.31
   4   4  -7    2.20    0.35
  -4  -4   6   10.55    0.67
   4  -4  -6   10.17    0.51
  -4   4   6   10.02    0.62
   4   4  -6   10.15    0.66
  -4   4   6    9.35    0.52
   4  -4  -6   10.82    0.63
   4  -4  -5    0.04    0.13
   4   4  -5    0.08    0.21
  -4  -4   5   -0.05    0.22
  -4   4   5    0.11    0.18
  -4   4   5    0.00    0.17
  -4  -4   4    7.49    0.56
   4  -4  -4    7.06    0.46
  -4   4   4    6.93    0.48
   4   4  -4    6.96    0.54
   4  -4  -3    0.93    0.21
  -4  -4   3    0.76    0.27
  -4   4   3    0.71    0.20
   4   4  -3    0.87    0.24
  -4  -4   2    0.22    0.22
  -4   4   2   -0.20    0.18
  -4   4   2   -0.45    0.25
   4   4  -2   -0.07    0.21
   4  -4  -2   -0.17    0.20
  -4  -4   1    0.35    0.23
  -4   4   1    0.18    0.17
  -4   4   1   -0.05    0.16
  -4   4   1    0.23    0.22
   4   4  -1   -0.11    0.20
   4  -4  -1   -0.05    0.19
  -4  -4   0    7.64    0.56
   4  -4   0    6.54    0.48
  -4   4   0    7.02    0.43
  -4   4   0    7.21    0.40
   4   4   0    6.48    0.52
  -4   4   0    7.13    0.52
  -4  -4  -1    1.29    0.30
  -4   4  -1    1.86    0.21
  -4   4  -1    1.49    0.23
  -4   4  -1    1.95    0.32
   4   4   1    1.60    0.30
   4  -4   1    1.42    0.26
  -4  -4  -2   28.75    1.08
  -4   4  -2   26.90    0.82
  -4   4  -2   30.90    0.73
   4   4   2   28.50    1.09
  -4   4  -2   27.40    1.00
   4  -4   2   29.50    1.08
  -4   4  -3    9.97    0.35
   4   4   3   10.08    0.66
  -4   4  -3   10.77    0.62
   4  -4   3   10.45    0.66
  -4  -4  -3    8.90    0.50
   4  -4   3   10.60    0.66
  -4  -4  -3    9.73    0.64
   4   4   4   28.66    1.12
  -4   4  -4   30.50    1.07
   4  -4   4   29.60    1.11
   4  -4   4   29.02    1.14
   4   4   5   24.15    1.04
  -4   4  -5   26.18    0.78
  -4  -4  -5   25.66    1.12
  -4   4  -5   26.45    0.98
   4  -4   5   26.24    1.06
   4   4   6    5.94    0.54
  -4  -4  -6    5.67    0.55
   4  -4   6    5.59    0.51
   4   4   7   15.54    0.86
   4  -4   7   15.05    0.82
   4   4   8    0.37    0.20
   4  -4   8    0.32    0.24
   4   4   9    2.46    0.41
   4  -4   9    2.64    0.39
  -4  -4  -9    2.69    0.43
   4  -4  10   -0.31    0.22
  -4  -4 -10    0.25    0.24
   4   4  10    0.09    0.24
  -4  -4 -11    0.52    0.31
   4   4  11    0.11    0.23
   4   4  12    0.28    0.24
   4   5 -15    0.02    0.32
  -4  -5  14    0.08    0.26
   4   5 -14    0.75    0.33
  -4  -5  13    0.51    0.28
  -4   5  13    0.57    0.30
   4  -5 -13    0.04    0.25
   4   5 -13    0.75    0.32
  -4  -5  12    2.68    0.43
  -4   5  12    2.89    0.46
   4  -5 -12    2.22    0.40
   4   5 -12    2.09    0.43
  -4  -5  11   -0.11    0.27
  -4   5  11   -0.22    0.25
   4  -5 -11    0.32    0.29
   4   5 -11    0.12    0.21
  -4  -5  10    2.04    0.37
  -4   5  10    1.29    0.31
   4  -5 -10    1.39    0.32
   4   5 -10    1.46    0.32
  -4  -5   9    0.41    0.26
  -4   5   9    0.01    0.22
   4  -5  -9   -0.08    0.22
   4   5  -9    0.55    0.26
  -4  -5   8    0.15    0.23
  -4   5   8    0.43    0.25
   4  -5  -8    0.40    0.23
   4   5  -8   -0.02    0.23
   4  -5  -8    0.17    0.13
   4  -5  -7    4.00    0.31
  -4  -5   7    4.21    0.47
  -4   5   7    3.70    0.42
   4  -5  -7    3.39    0.40
   4   5  -7    4.32    0.49
   4  -5  -6    6.81    0.41
  -4  -5   6    7.00    0.58
  -4   5   6    6.74    0.53
   4   5  -6    5.82    0.54
   4  -5  -6    6.14    0.50
  -4  -5   5    2.10    0.35
   4   5  -5    1.98    0.33
  -4   5   5    1.98    0.31
   4  -5  -5    2.28    0.26
   4  -5  -4   10.52    0.55
  -4  -5   4   11.22    0.71
  -4   5   4   10.42    0.58
   4   5  -4   11.60    0.71
  -4   5   4   10.79    0.68
   4   5  -3    1.06    0.27
  -4  -5   3    1.19    0.31
  -4   5   3    1.48    0.24
  -4   5   3    0.71    0.28
   4  -5  -3    1.05    0.22
  -4  -5   2  108.81    2.33
  -4   5   2  106.04    1.91
   4   5  -2  107.71    2.29
  -4   5   2  103.88    2.25
   4  -5  -2  108.30    2.08
  -4  -5   1    2.51    0.38
  -4   5   1    2.72    0.28
  -4   5   1    2.67    0.29
  -4   5   1    2.52    0.39
   4   5  -1    3.15    0.41
   4  -5  -1    2.67    0.34
  -4  -5   0    0.79    0.26
  -4   5   0    0.85    0.18
  -4   5   0    0.68    0.19
  -4   5   0    1.04    0.29
   4   5   0    0.72    0.25
   4  -5   0    0.87    0.23
  -4  -5  -1   17.74    0.89
  -4   5  -1   19.27    0.58
   4   5   1   17.75    0.86
  -4   5  -1   17.66    0.85
   4  -5   1   18.26    0.84
  -4  -5  -2   99.90    2.26
   4   5   2  103.02    2.24
  -4   5  -2  103.19    2.20
   4  -5   2  106.55    2.30
   4   5   3    1.14    0.27
  -4   5  -3    1.38    0.31
   4  -5   3    1.60    0.33
   4   5   4    0.28    0.23
  -4   5  -4    0.28    0.23
   4  -5   4   -0.11    0.24
  -4  -5  -4    0.26    0.25
   4   5   5    1.44    0.31
   4  -5   5    1.54    0.32
  -4  -5  -5    1.92    0.37
   4   5   6    1.22    0.31
   4  -5   6    1.08    0.29
  -4  -5  -6    1.33    0.34
   4   5   7    0.15    0.19
   4  -5   7    0.00    0.22
  -4  -5  -7    0.32    0.26
   4   5   8    0.18    0.21
   4  -5   8   -0.39    0.27
  -4  -5  -8   -0.07    0.26
   4   5   9    0.57    0.30
   4  -5   9   -0.34    0.27
  -4  -5  -9   -0.19    0.27
   4  -5  10    0.34    0.27
  -4  -5 -10    0.07    0.29
   4   5  10    0.61    0.27
   4  -5  11    0.67    0.28
   4   5  11    0.58    0.32
   4  -5  12    0.53    0.24
   4   5  12    0.53    0.29
  -4  -6  13    0.19    0.26
  -4   6  13    0.04    0.26
   4  -6 -13    0.39    0.27
   4   6 -13    0.38    0.30
  -4  -6  12   -0.16    0.27
  -4   6  12   -0.42    0.33
   4  -6 -12   -0.16    0.26
   4   6 -12   -0.09    0.30
  -4  -6  11   -0.17    0.24
  -4   6  11    0.04    0.24
   4  -6 -11    0.17    0.23
   4   6 -11   -0.02    0.29
  -4  -6  10    0.06    0.23
  -4   6  10    0.50    0.25
   4  -6 -10    0.07    0.22
   4   6 -10   -0.28    0.26
  -4  -6   9    2.12    0.40
  -4   6   9    1.51    0.34
   4  -6  -9    1.56    0.35
   4   6  -9    1.73    0.38
  -4  -6   8    1.04    0.31
  -4   6   8    0.87    0.27
   4  -6  -8    0.53    0.23
   4   6  -8    1.41    0.36
  -4  -6   7    0.14    0.22
  -4   6   7    0.22    0.20
   4  -6  -7    0.57    0.24
   4   6  -7    0.40    0.23
  -4  -6   6    7.69    0.63
  -4   6   6    7.54    0.57
  -4   6   6    8.21    0.65
   4   6  -6    8.49    0.68
   4  -6  -6    7.75    0.55
  -4  -6   5    3.72    0.46
  -4   6   5    3.26    0.37
   4  -6  -5    2.86    0.34
   4   6  -5    3.48    0.47
  -4   6   5    3.25    0.46
  -4  -6   4    2.87    0.41
   4   6  -4    3.24    0.43
  -4   6   4    3.18    0.36
  -4   6   4    2.61    0.42
  -4  -6   3   11.20    0.74
  -4   6   3   11.04    0.58
   4   6  -3   10.90    0.72
  -4   6   3   10.77    0.71
  -4  -6   2   20.29    0.96
  -4   6   2   19.39    0.73
   4   6  -2   20.13    0.98
  -4   6   2   18.13    0.91
  -4  -6   1    0.97    0.30
  -4   6   1    0.42    0.15
   4   6  -1    0.78    0.26
  -4  -6   0    6.82    0.58
  -4   6   0    6.07    0.35
   4   6   0    6.25    0.55
  -4   6   0    5.61    0.53
  -4  -6  -1    0.69    0.27
  -4   6  -1    0.86    0.28
   4   6   1    1.01    0.27
   4  -6   1    0.86    0.27
   4   6   2    5.37    0.50
  -4   6  -2    5.04    0.51
   4  -6   2    5.61    0.52
  -4  -6  -2    5.07    0.53
  -4   6  -3    2.59    0.41
   4   6   3    2.92    0.39
   4  -6   3    2.78    0.40
   4   6   4    0.03    0.23
  -4   6  -4    0.39    0.27
   4  -6   4    0.29    0.22
  -4  -6  -4    0.36    0.26
   4   6   5    0.05    0.24
   4  -6   5    0.53    0.26
  -4  -6  -5    0.49    0.28
   4   6   6    5.76    0.54
  -4  -6  -6    7.42    0.66
   4  -6   6    6.84    0.60
   4   6   7    0.40    0.25
   4  -6   7    0.82    0.30
  -4  -6  -7    0.55    0.29
   4   6   8    0.46    0.24
   4  -6   8    0.59    0.25
   4   6   9   -0.39    0.28
   4  -6   9    0.20    0.26
  -4  -6  -9    0.24    0.28
   4   6  10    0.33    0.24
   4  -6  10   -0.49    0.28
   4   6  11    2.23    0.41
  -4  -7  12    0.32    0.26
  -4   7  12    0.26    0.27
   4  -7 -12    0.04    0.25
   4   7 -12   -0.03    0.26
  -4  -7  11   -0.09    0.24
  -4   7  11   -0.03    0.25
   4  -7 -11   -0.39    0.26
   4   7 -11    0.22    0.29
  -4  -7  10    0.40    0.28
  -4   7  10    0.25    0.27
   4  -7 -10   -0.28    0.25
  -4   7  10    0.88    0.33
   4   7 -10    0.31    0.30
   4  -7  -9    5.24    0.54
  -4  -7   9    5.86    0.60
  -4   7   9    5.05    0.53
   4   7  -9    6.38    0.65
  -4   7   9    4.92    0.56
  -4  -7   8    0.29    0.25
  -4   7   8    0.32    0.22
   4  -7  -8    0.22    0.20
  -4   7   8    0.71    0.31
   4   7  -8    0.55    0.30
  -4  -7   7    1.47    0.33
  -4   7   7    1.09    0.28
   4  -7  -7    0.83    0.25
   4   7  -7    1.68    0.39
  -4   7   7    1.52    0.37
  -4  -7   6    0.50    0.26
  -4   7   6    0.94    0.30
   4  -7  -6    0.61    0.20
   4   7  -6    0.46    0.27
  -4   7   6    0.84    0.33
  -4  -7   5    1.40    0.37
  -4   7   5    1.38    0.28
   4  -7  -5    1.27    0.26
   4   7  -5    1.22    0.33
  -4   7   5    1.41    0.36
  -4  -7   4    0.52    0.27
   4   7  -4    1.26    0.37
  -4   7   4    0.63    0.22
  -4   7   4    0.76    0.29
   4   7  -3    2.79    0.41
  -4  -7   3    3.53    0.47
  -4   7   3    2.86    0.34
  -4   7   3    3.46    0.45
  -4  -7   2   15.06    0.88
  -4   7   2   13.68    0.62
   4   7  -2   14.26    0.84
  -4   7   2   15.18    0.90
  -4  -7   1   28.34    1.20
  -4   7   1   27.13    0.83
   4   7  -1   27.22    1.15
  -4   7   1   27.49    1.18
  -4  -7   0   15.55    0.89
   4   7   0   12.94    0.79
  -4   7   0   13.54    0.84
   4  -7   0   13.49    0.82
  -4  -7  -1    1.78    0.39
  -4   7  -1    1.41    0.33
   4   7   1    1.33    0.32
   4  -7   1    1.82    0.35
  -4   7  -2    0.64    0.29
   4   7   2    0.44    0.24
   4  -7   2    0.48    0.25
  -4   7  -3    1.69    0.40
   4   7   3    1.67    0.33
   4  -7   3    2.77    0.41
  -4  -7  -3    2.68    0.43
   4   7   4    0.00    0.20
   4  -7   4    0.63    0.25
  -4  -7  -4   -0.01    0.25
   4   7   5    2.20    0.37
   4  -7   5    3.30    0.46
  -4  -7  -5    2.71    0.44
   4   7   6    3.73    0.47
   4  -7   6    4.20    0.52
  -4  -7  -6    4.15    0.56
   4   7   7   -0.07    0.21
   4  -7   7   -0.31    0.24
   4   7   8   -0.22    0.24
   4  -7   8    0.09    0.25
   4   7   9   -0.20    0.23
  -4  -8  11    0.25    0.27
  -4   8  11   -0.38    0.36
   4  -8 -11   -0.03    0.25
  -4  -8  10    0.45    0.31
  -4   8  10    0.11    0.25
   4  -8 -10    0.63    0.32
  -4   8  10   -0.03    0.31
   4   8 -10    0.40    0.36
  -4  -8   9    0.46    0.32
  -4   8   9    0.14    0.24
   4  -8  -9    0.36    0.29
  -4   8   9    0.25    0.28
   4   8  -9    0.13    0.25
  -4  -8   8   -0.01    0.26
  -4   8   8    0.00    0.23
   4  -8  -8   -0.08    0.20
  -4   8   8    0.65    0.28
   4   8  -8    0.47    0.30
  -4  -8   7   -0.07    0.25
  -4   8   7   -0.22    0.22
   4  -8  -7    0.01    0.21
   4   8  -7   -0.22    0.25
  -4   8   7   -0.54    0.31
  -4  -8   6    0.07    0.24
  -4   8   6    0.54    0.25
   4  -8  -6   -0.01    0.17
   4   8  -6   -0.05    0.24
  -4   8   6   -0.53    0.32
  -4  -8   5   20.55    1.07
  -4   8   5   19.08    1.05
   4   8  -5   19.64    1.09
   4  -8  -5   17.63    0.80
  -4  -8   4    1.22    0.34
   4   8  -4    0.99    0.32
  -4   8   4    0.50    0.21
  -4   8   4    0.88    0.32
  -4  -8   3    0.68    0.26
   4   8  -3    0.59    0.28
  -4   8   3    0.38    0.18
  -4   8   3    0.79    0.36
   4   8  -2    1.28    0.34
  -4  -8   2    2.32    0.40
  -4   8   2    1.72    0.37
  -4  -8   1    2.65    0.41
  -4   8   1    2.28    0.43
   4  -8  -1    2.63    0.43
   4   8  -1    1.96    0.37
  -4  -8   0    1.15    0.34
  -4   8   0    1.12    0.33
   4  -8   0    0.92    0.25
   4   8   0    1.44    0.32
  -4   8  -1    2.64    0.46
   4  -8   1    2.31    0.38
   4   8   1    2.21    0.39
  -4   8  -2    3.06    0.51
   4   8   2    3.25    0.43
   4  -8   2    4.41    0.52
  -4   8  -3    5.02    0.57
   4   8   3    4.41    0.50
   4  -8   3    4.48    0.52
  -4  -8  -3    3.99    0.53
   4   8   4    2.93    0.43
   4  -8   4    3.42    0.47
  -4  -8  -4    3.21    0.48
   4   8   5    4.98    0.55
   4  -8   5    6.24    0.64
  -4  -8  -5    6.10    0.64
   4   8   6    0.53    0.27
   4  -8   6    1.12    0.36
  -4  -8  -6    0.37    0.31
   4   8   7    0.85    0.30
   4   8   8    0.40    0.24
   4  -9 -11   -0.02    0.25
  -4   9  10   -0.08    0.29
   4  -9 -10    0.82    0.31
  -4  -9   9    0.69    0.31
  -4   9   9    0.70    0.32
   4  -9  -9    0.17    0.25
  -4  -9   8    1.34    0.37
  -4   9   8    1.26    0.34
   4  -9  -8    0.97    0.31
  -4   9   8    1.08    0.39
  -4  -9   7   -0.29    0.30
  -4   9   7    0.04    0.21
   4  -9  -7    0.05    0.19
  -4   9   7    0.28    0.30
   4   9  -7   -0.10    0.33
  -4  -9   6    0.62    0.27
  -4   9   6    1.08    0.26
   4  -9  -6    1.30    0.29
   4   9  -6    1.16    0.38
  -4   9   6    0.53    0.31
  -4  -9   5   -0.01    0.25
  -4   9   5    0.05    0.17
   4   9  -5    0.02    0.29
  -4   9   5    0.05    0.32
  -4  -9   4    0.03    0.28
   4   9  -4    0.13    0.27
  -4   9   4    0.07    0.26
  -4  -9   3   -0.18    0.28
   4   9  -3   -0.01    0.26
  -4   9   3    0.30    0.33
   4   9  -2   -0.17    0.29
  -4  -9   2    0.44    0.29
   4   9  -1    5.74    0.59
  -4   9   1    6.76    0.67
   4  -9  -1    6.91    0.64
  -4  -9   1    6.74    0.67
  -4   9   0    0.13    0.32
   4  -9   0    0.15    0.22
   4   9   0    0.26    0.26
  -4   9  -1    3.62    0.51
   4  -9   1    4.58    0.55
   4   9   1    3.88    0.50
  -4  -9  -1    3.84    0.50
  -4   9  -2   -0.26    0.33
   4   9   2    0.37    0.23
   4  -9   2    0.51    0.27
  -4  -9  -2    0.17    0.27
   4   9   3   -0.31    0.26
   4  -9   3    0.26    0.30
  -4  -9  -3   -0.44    0.30
   4   9   4    2.36    0.40
   4  -9   4    3.45    0.53
  -4  -9  -4    3.09    0.48
   4   9   5    0.22    0.23
   4   9   6    2.69    0.43
   4   9   7   -0.10    0.22
  -4  10   9    0.82    0.31
  -4  10   8    0.42    0.27
  -4  10   7    1.22    0.30
  -4 -10   5    1.30    0.37
  -4 -10   4    0.02    0.25
   4  10  -4   -0.11    0.26
  -4 -10   3   -0.15    0.28
   4  10  -3    0.21    0.29
  -4  10   3    0.33    0.33
   4  10  -2    0.25    0.28
  -4 -10   2    0.21    0.30
  -4  10   2    0.03    0.33
  -4  10   1    0.35    0.38
   4 -10  -1   -0.44    0.26
   4  10  -1    0.26    0.29
  -4  10   0    0.59    0.36
   4 -10   0    1.13    0.33
   4  10   0    1.02    0.31
  -4 -10   0    1.61    0.41
  -4  10  -1    1.05    0.38
   4  10   1    0.98    0.30
  -4 -10  -1    0.56    0.30
   4  10   2    0.44    0.28
   4  10   3   -0.08    0.26
   4  10   4    1.18    0.30
   4  10   5    0.58    0.28
   4  11   2    3.72    0.51
   4  11   3    1.27    0.36
  -5   0  13    0.25    0.26
   5   0 -13   -0.15    0.24
  -5   0  12   -0.10    0.32
   5   0 -12    0.08    0.19
  -5   0  11   -0.18    0.25
   5   0 -11    0.24    0.18
  -5   0  10    6.62    0.64
   5   0 -10    6.47    0.54
  -5   0   9   -0.14    0.26
   5   0  -9    0.31    0.20
  -5   0   8    0.30    0.26
   5   0  -8    0.13    0.18
  -5   0   7   -0.18    0.25
   5   0  -7    0.07    0.17
  -5   0   6   13.28    0.78
   5   0  -6   12.27    0.73
  -5   0   5   -0.21    0.24
   5   0  -5   -0.36    0.22
  -5   0   4   -0.21    0.20
   5   0  -4   -0.13    0.20
  -5   0   3   -0.25    0.22
   5   0  -3   -0.09    0.21
  -5   0   2   15.08    0.77
   5   0  -2   13.92    0.78
  -5   0   1   -0.07    0.20
   5   0  -1   -0.24    0.22
  -5   0   0   57.48    1.54
   5   0   0   56.29    1.63
  -5   0  -1   -0.08    0.20
   5   0   1   -0.01    0.23
   5   0   2   34.31    1.28
  -5   0  -2   33.60    1.01
   5   0   3    0.03    0.19
  -5   0  -3    0.09    0.18
  -5   0  -3   -0.03    0.16
   5   0   4   12.72    0.81
   5   0   5   -0.02    0.24
  -5   0  -6    0.24    0.27
   5   0   6   -0.44    0.26
  -5   0  -7    0.23    0.25
   5   0   7   -0.01    0.24
  -5   0  -8    0.16    0.27
   5   0   8    0.03    0.25
  -5   0  -9   -0.35    0.27
  -5  -1  13    0.49    0.27
  -5   1  13   -0.16    0.28
   5   1 -13    0.21    0.21
  -5  -1  12   -0.67    0.37
  -5   1  12   -0.31    0.29
   5  -1 -12    0.05    0.18
   5   1 -12    0.00    0.20
  -5  -1  11   -0.14    0.24
  -5   1  11   -0.11    0.23
   5  -1 -11   -0.06    0.18
   5   1 -11    0.06    0.19
  -5  -1  10    0.25    0.24
  -5   1  10    0.15    0.28
   5  -1 -10   -0.06    0.17
   5   1 -10    0.25    0.21
  -5  -1   9    2.06    0.39
  -5   1   9    1.86    0.37
   5  -1  -9    2.28    0.34
   5   1  -9    1.27    0.29
  -5  -1   8    2.87    0.43
  -5   1   8    3.13    0.43
   5  -1  -8    2.98    0.36
   5   1  -8    2.83    0.37
  -5  -1   7    0.03    0.22
  -5   1   7    0.00    0.22
   5  -1  -7    0.02    0.17
   5   1  -7   -0.20    0.21
  -5   1   6    5.11    0.51
   5  -1  -6    5.14    0.48
  -5  -1   6    4.48    0.48
   5   1  -6    5.20    0.50
  -5  -1   5   10.37    0.70
  -5   1   5   10.14    0.66
   5  -1  -5   10.66    0.67
   5   1  -5   10.49    0.70
  -5  -1   4    1.52    0.32
  -5   1   4    1.49    0.30
   5  -1  -4    1.86    0.33
   5   1  -4    1.76    0.31
  -5  -1   3    0.95    0.29
   5  -1  -3    0.52    0.20
   5   1  -3    0.77    0.22
  -5  -1   2   13.94    0.76
  -5   1   2   14.38    0.73
   5  -1  -2   13.35    0.75
   5   1  -2   13.47    0.76
  -5  -1   1    0.08    0.20
   5  -1  -1    0.54    0.24
  -5   1   1    0.26    0.21
   5   1  -1    0.52    0.23
   5  -1   0   -0.15    0.23
  -5  -1   0   -0.17    0.21
  -5   1   0    0.14    0.18
   5   1   0    0.15    0.23
   5  -1   1    0.23    0.21
  -5  -1  -1   -0.17    0.20
  -5   1  -1    0.04    0.18
   5   1   1    0.00    0.19
  -5   1  -1   -0.27    0.19
   5  -1   2    2.21    0.35
  -5  -1  -2    2.89    0.37
  -5   1  -2    3.30    0.36
   5   1   2    2.53    0.39
  -5   1  -2    2.17    0.30
  -5  -1  -3    8.69    0.60
  -5   1  -3    8.76    0.55
   5  -1   3    8.51    0.65
   5   1   3    7.95    0.63
  -5   1  -3    7.88    0.49
   5  -1   4   11.07    0.77
   5   1   4   10.56    0.73
  -5   1  -4   10.42    0.55
   5   1   5   -0.07    0.22
   5  -1   5   -0.13    0.22
   5   1   6    0.70    0.28
  -5   1  -6    1.22    0.29
  -5  -1  -6    0.91    0.32
   5  -1   6    0.96    0.30
  -5   1  -7    0.63    0.25
  -5  -1  -7    0.28    0.26
   5  -1   7    0.43    0.27
   5   1   7    0.44    0.22
   5  -1   8    2.60    0.45
  -5  -1  -8    2.42    0.42
   5   1   8    2.22    0.42
  -5  -1  -9   -0.01    0.29
  -5  -1 -10   -0.13    0.26
   5   2 -14   -0.65    0.32
   5   2 -13   -0.13    0.23
  -5  -2  13    0.05    0.27
  -5   2  13    0.31    0.26
   5   2 -12    1.43    0.32
  -5  -2  12    1.52    0.40
  -5   2  12    1.27    0.35
   5   2 -11   -0.13    0.22
  -5  -2  11   -0.02    0.25
  -5   2  11    0.48    0.29
  -5  -2  10   -0.05    0.24
  -5   2  10   -0.10    0.25
   5  -2 -10   -0.02    0.18
   5   2 -10   -0.33    0.25
  -5   2   9    6.12    0.59
   5  -2  -9    6.08    0.50
  -5  -2   9    5.46    0.56
   5   2  -9    5.17    0.52
  -5  -2   8    0.97    0.31
  -5   2   8    0.81    0.28
   5  -2  -8    1.10    0.26
   5   2  -8    0.83    0.25
  -5  -2   7    0.28    0.24
  -5   2   7    0.40    0.23
   5  -2  -7    0.32    0.17
   5   2  -7    0.44    0.21
  -5  -2   6    0.35    0.26
  -5   2   6    0.07    0.21
   5  -2  -6    0.16    0.17
   5   2  -6   -0.09    0.19
  -5  -2   5    6.57    0.58
  -5   2   5    6.47    0.53
   5  -2  -5    6.49    0.52
   5   2  -5    6.09    0.55
  -5  -2   4    0.02    0.21
   5  -2  -4   -0.01    0.18
  -5   2   4   -0.02    0.19
   5   2  -4   -0.02    0.18
   5  -2  -3    0.52    0.22
  -5  -2   3    0.25    0.21
  -5   2   3    0.31    0.21
   5   2  -3    0.25    0.21
  -5  -2   2    4.97    0.51
  -5   2   2    5.75    0.47
   5  -2  -2    5.84    0.49
   5   2  -2    5.57    0.51
   5  -2  -1    1.34    0.29
  -5  -2   1    1.45    0.33
  -5   2   1    1.32    0.25
   5   2  -1    1.37    0.32
  -5  -2   0    5.88    0.52
  -5   2   0    6.34    0.47
   5  -2   0    6.11    0.53
   5   2   0    5.19    0.52
  -5   2   0    5.17    0.46
   5  -2   1    0.49    0.27
  -5  -2  -1    0.49    0.23
  -5   2  -1    0.63    0.21
   5   2   1    0.22    0.24
  -5   2  -1    0.20    0.20
  -5  -2  -2    6.75    0.55
  -5   2  -2    8.11    0.50
   5  -2   2    7.49    0.62
   5   2   2    7.40    0.62
  -5   2  -2    7.06    0.52
  -5  -2  -3    5.10    0.50
   5   2   3    5.13    0.54
  -5   2  -3    4.70    0.43
   5  -2   3    4.44    0.51
   5   2   4    3.32    0.44
  -5   2  -4    3.08    0.36
   5  -2   4    2.98    0.43
   5   2   5    0.25    0.24
   5  -2   5    0.47    0.27
  -5  -2  -5    0.15    0.24
   5   2   6    0.20    0.23
   5  -2   6   -0.22    0.29
  -5   2  -6    0.67    0.26
  -5  -2  -6   -0.18    0.24
   5   2   7    4.61    0.54
   5  -2   7    4.00    0.52
  -5  -2  -7    4.46    0.56
   5  -2   8    1.99    0.39
  -5  -2  -8    2.22    0.43
   5   2   8    1.12    0.32
  -5  -2  -9   -0.22    0.26
  -5  -2 -10    3.27    0.50
   5   3 -15    0.26    0.27
   5   3 -14   -0.49    0.30
   5   3 -13    0.09    0.23
   5   3 -12    0.24    0.26
  -5  -3  12    0.10    0.26
  -5   3  12   -0.05    0.30
   5   3 -11    0.94    0.31
  -5  -3  11    1.51    0.40
  -5   3  11    1.09    0.34
   5   3 -10    0.47    0.27
  -5  -3  10    0.72    0.32
  -5   3  10    0.20    0.26
   5   3  -9   -0.01    0.23
  -5  -3   9    0.55    0.29
   5  -3  -9    0.24    0.20
  -5   3   9    0.25    0.24
  -5  -3   8    0.58    0.29
   5  -3  -8    0.57    0.20
  -5   3   8    0.83    0.29
   5   3  -8    0.45    0.23
  -5  -3   7    6.24    0.58
  -5   3   7    6.03    0.56
   5  -3  -7    7.01    0.51
   5   3  -7    6.10    0.58
   5  -3  -6    1.59    0.28
  -5  -3   6    1.66    0.37
  -5   3   6    1.18    0.30
   5   3  -6    1.54    0.34
  -5  -3   5    6.16    0.57
  -5   3   5    5.50    0.50
   5  -3  -5    6.47    0.50
   5   3  -5    6.44    0.58
  -5  -3   4    7.49    0.61
  -5   3   4    7.61    0.55
   5  -3  -4    7.87    0.57
   5   3  -4    7.11    0.60
  -5  -3   3   37.17    1.33
  -5   3   3   36.91    1.18
   5  -3  -3   35.41    1.21
   5   3  -3   36.62    1.32
   5  -3  -2    0.35    0.23
  -5  -3   2    0.34    0.25
  -5   3   2    0.35    0.23
   5   3  -2    0.06    0.20
  -5  -3   1   39.64    1.38
  -5   3   1   38.26    1.13
   5  -3  -1   37.69    1.30
   5   3  -1   36.30    1.34
  -5   3   1   35.91    1.24
   5  -3   0    0.56    0.25
  -5  -3   0    0.45    0.25
  -5   3   0    0.51    0.18
   5   3   0    0.05    0.23
  -5   3   0    0.56    0.26
  -5  -3  -1    5.73    0.55
  -5   3  -1    6.32    0.43
   5  -3   1    6.26    0.55
   5   3   1    5.95    0.57
  -5   3  -1    6.18    0.53
  -5  -3  -2    1.80    0.34
   5   3   2    1.81    0.36
  -5   3  -2    1.46    0.28
   5  -3   2    2.35    0.40
  -5  -3  -3    8.41    0.64
   5  -3   3    8.36    0.66
   5   3   3    7.78    0.66
  -5   3  -3    8.38    0.59
   5   3   4    2.33    0.41
  -5   3  -4    2.03    0.33
   5  -3   4    2.20    0.38
   5   3   5    2.43    0.40
   5  -3   5    2.50    0.42
  -5  -3  -5    2.12    0.41
   5   3   6    6.31    0.63
  -5  -3  -6    5.75    0.61
   5  -3   6    6.54    0.62
   5   3   7   -0.19    0.33
  -5  -3  -7    0.07    0.28
   5   3   8    0.46    0.24
  -5  -3  -8    0.97    0.36
  -5  -3  -9    4.77    0.58
   5   4 -14   -0.52    0.34
   5   4 -13   -0.16    0.29
   5   4 -12    3.75    0.54
  -5   4  12    2.52    0.49
   5  -4 -12    3.49    0.52
   5   4 -11    0.61    0.28
  -5  -4  11    0.66    0.35
  -5   4  11    0.86    0.32
   5   4 -10    1.51    0.38
  -5  -4  10    0.92    0.30
  -5   4  10    0.88    0.31
   5   4  -9   -0.15    0.27
  -5  -4   9   -0.10    0.25
  -5   4   9    0.15    0.24
   5   4  -8    0.66    0.32
   5  -4  -8    0.80    0.22
  -5  -4   8    0.99    0.35
  -5   4   8    0.35    0.25
   5  -4  -7    0.09    0.19
  -5  -4   7    0.23    0.27
  -5   4   7    0.03    0.22
   5   4  -7    0.16    0.22
   5  -4  -6    2.26    0.31
  -5  -4   6    2.27    0.40
  -5   4   6    1.76    0.34
   5   4  -6    2.61    0.42
   5  -4  -5   -0.28    0.20
  -5  -4   5   -0.36    0.26
  -5   4   5   -0.23    0.23
   5   4  -5   -0.18    0.24
   5  -4  -4    3.16    0.39
  -5  -4   4    2.88    0.43
  -5   4   4    3.22    0.39
   5   4  -4    3.17    0.42
   5  -4  -3    2.30    0.35
  -5  -4   3    1.92    0.39
  -5   4   3    2.13    0.31
  -5   4   3    1.73    0.34
   5   4  -3    1.96    0.38
  -5  -4   2   23.50    1.09
   5  -4  -2   22.08    0.98
  -5   4   2   23.30    0.89
   5   4  -2   22.86    1.07
  -5   4   2   22.16    1.01
  -5  -4   1    7.29    0.62
   5  -4  -1    7.31    0.57
  -5   4   1    7.91    0.50
   5   4  -1    7.84    0.64
  -5   4   1    7.60    0.61
  -5  -4   0   17.67    0.94
   5  -4   0   17.69    0.90
  -5   4   0   18.75    0.73
   5   4   0   17.80    0.95
  -5   4   0   15.84    0.84
   5  -4   1   14.46    0.83
  -5  -4  -1   15.46    0.88
   5   4   1   16.38    0.93
  -5   4  -1   14.39    0.80
  -5  -4  -2    4.34    0.51
   5   4   2    5.19    0.55
  -5   4  -2    4.83    0.49
   5  -4   2    5.36    0.54
   5   4   3   10.05    0.72
  -5   4  -3    9.18    0.65
   5  -4   3   10.16    0.74
   5   4   4    0.08    0.23
  -5   4  -4    0.10    0.25
   5  -4   4   -0.03    0.26
   5   4   5    0.81    0.32
  -5   4  -5    0.88    0.28
  -5  -4  -5    1.15    0.33
   5   4   6    0.30    0.24
  -5  -4  -6    0.39    0.29
   5   4   7    0.39    0.28
  -5  -4  -7    0.33    0.31
   5   4   8    0.31    0.25
  -5  -4  -8   -0.20    0.31
  -5   5  12    0.23    0.24
   5   5 -12    0.25    0.29
  -5  -5  11    1.05    0.36
   5   5 -11    0.29    0.28
  -5   5  11    0.30    0.33
   5  -5 -11    0.56    0.30
  -5  -5  10    3.90    0.52
   5   5 -10    4.49    0.56
  -5   5  10    3.28    0.47
   5   5  -9    0.03    0.23
  -5  -5   9   -0.02    0.30
  -5   5   9   -0.09    0.23
   5   5  -8    2.12    0.40
  -5  -5   8    2.52    0.42
  -5   5   8    1.98    0.39
   5   5  -7    0.36    0.25
  -5  -5   7    0.01    0.26
  -5   5   7    0.18    0.22
   5  -5  -7   -0.01    0.17
   5  -5  -6   34.86    1.14
  -5  -5   6   36.69    1.42
  -5   5   6   32.43    1.22
   5   5  -6   33.46    1.36
  -5  -5   5    0.14    0.25
  -5   5   5    0.42    0.22
  -5   5   5    0.27    0.28
   5   5  -5    0.65    0.28
   5  -5  -5    0.39    0.18
  -5  -5   4    0.51    0.29
  -5   5   4    0.26    0.22
  -5   5   4    0.04    0.30
   5   5  -4    0.36    0.25
   5  -5  -4   -0.06    0.18
   5  -5  -3    4.45    0.45
  -5   5   3    4.66    0.43
  -5  -5   3    3.98    0.54
  -5   5   3    3.53    0.46
   5   5  -3    4.04    0.51
   5  -5  -2   27.15    1.09
  -5  -5   2   26.34    1.21
  -5   5   2   28.42    0.97
   5   5  -2   27.60    1.20
  -5   5   2   27.04    1.17
  -5  -5   1    1.28    0.35
  -5   5   1    0.94    0.30
   5   5  -1    1.11    0.29
   5  -5  -1    1.08    0.29
  -5  -5   0    1.39    0.35
  -5   5   0    1.22    0.33
   5   5   0    1.10    0.31
   5  -5   0    1.79    0.33
  -5  -5  -1    0.55    0.26
   5   5   1    0.37    0.25
  -5   5  -1    0.06    0.26
   5  -5   1    0.34    0.26
  -5  -5  -2   -0.10    0.24
   5   5   2    0.29    0.21
  -5   5  -2   -0.14    0.24
   5  -5   2    0.34    0.23
   5   5   3    0.71    0.27
  -5   5  -3    0.48    0.29
   5   5   4    0.44    0.29
  -5   5  -4    0.40    0.26
  -5  -5  -4   -0.17    0.26
   5   5   5    0.49    0.28
  -5  -5  -5    0.00    0.26
   5   5   6    0.21    0.23
  -5  -5  -6   -0.04    0.28
   5   5   7    1.74    0.40
  -5   6  11    0.04    0.25
   5  -6 -11    0.00    0.27
   5   6 -10    2.20    0.48
  -5   6  10    2.44    0.43
   5  -6 -10    1.67    0.37
  -5  -6   9    1.38    0.39
   5   6  -9    0.61    0.32
  -5   6   9    0.52    0.23
   5   6  -8    0.03    0.25
  -5  -6   8    0.16    0.30
  -5   6   8    0.49    0.27
   5   6  -7    0.67    0.31
  -5  -6   7    1.23    0.34
  -5   6   7    0.95    0.31
  -5   6   7    0.51    0.31
   5   6  -6    2.92    0.45
  -5  -6   6    3.12    0.46
  -5   6   6    2.03    0.34
  -5   6   6    3.30    0.50
  -5  -6   5    0.40    0.27
  -5   6   5    0.23    0.22
  -5   6   5    0.88    0.32
   5  -6  -5    0.22    0.18
   5   6  -5    0.15    0.22
  -5  -6   4    0.19    0.26
  -5   6   4   -0.23    0.24
  -5   6   4    0.18    0.28
   5  -6  -4    0.29    0.19
   5   6  -4    0.38    0.23
  -5  -6   3   -0.02    0.25
  -5   6   3    0.07    0.19
  -5   6   3   -0.33    0.32
   5   6  -3    0.25    0.22
  -5  -6   2    1.90    0.39
  -5   6   2    2.07    0.41
   5   6  -2    1.55    0.35
  -5  -6   1    4.87    0.55
  -5   6   1    3.45    0.47
   5   6  -1    3.98    0.50
  -5  -6   0    0.41    0.26
  -5   6   0    0.00    0.26
   5   6   0   -0.08    0.26
  -5  -6  -1    0.13    0.25
  -5   6  -1   -0.53    0.30
   5   6   1    0.32    0.24
   5   6   2    1.35    0.32
  -5   6  -2    0.94    0.32
   5   6   3    1.96    0.42
  -5   6  -3    2.09    0.39
   5   6   4   -0.15    0.23
  -5   6  -4    0.10    0.27
  -5  -6  -4   -0.17    0.27
   5   6   5    0.87    0.35
  -5  -6  -5    0.90    0.38
   5   6   6   -0.45    0.30
  -5   7  10   -0.12    0.28
   5  -7 -10    0.17    0.28
  -5   7   9   -0.57    0.31
   5  -7  -9   -0.03    0.28
  -5  -7   8   -0.19    0.31
   5   7  -8    0.62    0.33
  -5   7   8    0.49    0.28
   5   7  -7    0.30    0.27
  -5  -7   7    0.69    0.30
  -5   7   7    0.89    0.30
  -5   7   7    0.07    0.32
   5   7  -6    3.94    0.52
  -5  -7   6    3.85    0.55
  -5   7   6    3.17    0.41
  -5   7   6    3.26    0.52
  -5  -7   5   11.71    0.85
  -5   7   5    9.20    0.64
   5   7  -5    9.22    0.79
  -5   7   5    9.11    0.76
  -5  -7   4    2.23    0.45
  -5   7   4    2.04    0.43
   5   7  -4    2.00    0.40
  -5  -7   3    0.28    0.29
  -5   7   3    0.24    0.29
   5   7  -3    0.61    0.30
  -5  -7   2   -0.35    0.31
  -5   7   2    0.10    0.26
   5   7  -2   -0.10    0.24
  -5  -7   1    1.05    0.35
  -5   7   1    0.39    0.29
   5   7  -1    0.56    0.27
  -5  -7   0   -0.36    0.28
  -5   7   0   -0.47    0.29
   5   7   0    0.32    0.27
  -5  -7  -1    2.07    0.42
  -5   7  -1    1.39    0.40
   5   7   1    1.88    0.37
  -5   7  -2   -0.59    0.34
   5   7   2    0.45    0.28
   5   7   3    0.01    0.24
  -5   7  -3    0.02    0.29
   5   7   4   -0.58    0.31
  -5   7  -4   -0.63    0.30
   5   7   5    0.62    0.30
   5  -8 -10   -0.11    0.24
  -5   8   9    4.18    0.54
   5  -8  -9    3.09    0.47
  -5   8   8    0.24    0.25
  -5   8   7    0.50    0.25
  -5   8   4    0.58    0.33
   5   8  -4    0.58    0.32
  -5  -8   3    0.46    0.29
  -5   8   3    0.25    0.30
   5   8  -3    0.33    0.27
  -5  -8   2    0.27    0.27
  -5   8   2    0.29    0.29
  -5  -8   1    0.67    0.37
  -5   8   1    0.23    0.33
   5   8  -1    1.11    0.33
  -5   8   0    0.55    0.31
   5   8   0    0.41    0.26
  -5   8  -1    2.80    0.51
   5   8   1    2.25    0.43
  -5   8  -2    0.43    0.38
   5   8   2    0.34    0.23
  -5   8  -3    3.21    0.55
   6   0 -11    0.47    0.23
  -6   0  10    1.73    0.42
   6   0 -10    2.19    0.39
  -6   0   9   -0.21    0.25
   6   0  -9   -0.18    0.26
  -6   0   8    0.35    0.26
   6   0  -8    0.35    0.26
  -6   0   7   -0.25    0.31
   6   0  -7    0.37    0.23
  -6   0   6    3.43    0.47
   6   0  -6    2.86    0.42
  -6   0   5   -0.22    0.25
   6   0  -5    0.01    0.23
  -6   0   4   21.05    1.06
   6   0  -4   20.84    1.06
  -6   0   3    0.31    0.24
   6   0  -3    0.03    0.23
  -6   0   2    5.69    0.57
   6   0  -2    5.53    0.58
  -6   0   1   -0.45    0.24
   6   0  -1    0.04    0.21
  -6   0   0    5.75    0.55
   6   0   0    5.55    0.60
   6   0   1   -0.07    0.23
  -6   0  -1    0.06    0.23
   6   0   2   -0.10    0.22
   6   0   3   -0.20    0.29
  -6   0  -5    0.26    0.30
  -6   0  -6   -0.52    0.35
   6   1 -12    0.27    0.23
   6   1 -11   -0.17    0.30
  -6   1  10    1.69    0.42
   6  -1 -10    1.15    0.28
   6   1 -10    1.51    0.35
  -6  -1   9    2.44    0.48
  -6   1   9    2.72    0.47
   6  -1  -9    2.58    0.41
   6   1  -9    2.17    0.39
  -6  -1   8    1.15    0.37
  -6   1   8    0.67    0.29
   6  -1  -8    0.40    0.24
   6   1  -8    0.43    0.25
  -6  -1   7   -0.31    0.31
  -6   1   7   -0.08    0.24
   6  -1  -7   -0.15    0.22
   6   1  -7    0.22    0.24
  -6  -1   6    2.06    0.40
  -6   1   6    1.51    0.36
   6  -1  -6    1.44    0.33
   6   1  -6    1.67    0.37
  -6  -1   5   -0.06    0.25
  -6   1   5    0.09    0.24
   6  -1  -5    0.12    0.24
   6   1  -5    0.32    0.26
  -6  -1   4   -0.11    0.26
  -6   1   4    0.13    0.22
   6  -1  -4    0.19    0.21
   6   1  -4   -0.14    0.25
  -6  -1   3    0.53    0.27
   6  -1  -3    0.15    0.21
  -6   1   3   -0.36    0.22
   6   1  -3    0.31    0.24
   6  -1  -2    2.30    0.39
  -6  -1   2    2.36    0.41
  -6   1   2    2.84    0.41
   6   1  -2    2.51    0.43
   6  -1  -1    1.86    0.38
  -6  -1   1    2.45    0.41
  -6   1   1    2.16    0.38
   6   1  -1    2.32    0.41
   6  -1   0    1.40    0.37
  -6  -1   0    2.35    0.41
  -6   1   0    2.24    0.37
   6   1   0    2.03    0.39
  -6   1   0    2.06    0.33
   6  -1   1   -0.16    0.26
  -6  -1  -1    0.07    0.24
   6   1   1    0.04    0.22
   6  -1   2    0.22    0.23
   6   1   2    0.10    0.23
  -6  -1  -2    0.02    0.23
   6  -1   3    0.34    0.28
   6   1   3    0.62    0.27
  -6  -1  -5    0.04    0.29
  -6  -1  -6    0.41    0.33
   6   2 -12    0.64    0.30
   6   2 -11    0.34    0.26
  -6   2  10    0.19    0.27
   6   2 -10   -0.02    0.26
  -6  -2   9    0.67    0.34
  -6   2   9    0.48    0.31
   6  -2  -9    0.24    0.22
   6   2  -9    0.24    0.23
  -6  -2   8   -0.06    0.29
  -6   2   8    0.29    0.26
   6  -2  -8    0.07    0.21
   6   2  -8   -0.10    0.26
  -6  -2   7   -0.35    0.31
   6  -2  -7    0.12    0.22
  -6   2   7    0.37    0.24
   6   2  -7    0.39    0.24
  -6  -2   6    3.46    0.50
   6  -2  -6    3.94    0.49
  -6   2   6    3.45    0.49
   6   2  -6    3.40    0.47
   6  -2  -5    0.68    0.30
  -6  -2   5    0.31    0.29
  -6   2   5    0.92    0.31
   6   2  -5    0.81    0.30
   6  -2  -4    0.41    0.25
  -6  -2   4    0.67    0.29
  -6   2   4    0.59    0.28
   6   2  -4    0.54    0.27
   6  -2  -3    0.19    0.26
  -6  -2   3    0.08    0.28
  -6   2   3    0.49    0.26
   6   2  -3    0.22    0.25
   6  -2  -2    1.69    0.36
  -6  -2   2    1.37    0.34
  -6   2   2    1.41    0.32
   6   2  -2    1.27    0.31
   6  -2  -1    1.59    0.36
  -6  -2   1    1.48    0.37
  -6   2   1    1.88    0.34
   6   2  -1    1.20    0.30
  -6   2   1    1.72    0.34
   6  -2   0    2.49    0.42
  -6  -2   0    2.07    0.36
   6   2   0    2.25    0.42
  -6   2   0    2.18    0.37
   6  -2   1   -0.22    0.25
  -6  -2  -1    0.28    0.24
   6   2   1    0.01    0.21
  -6   2  -1   -0.03    0.23
  -6  -2  -2   -0.14    0.24
   6   2   2    0.04    0.24
   6  -2   2    0.16    0.23
  -6  -2  -3    2.06    0.41
   6  -2   3    2.09    0.42
  -6  -2  -5    0.73    0.35
  -6   3  10    0.57    0.33
   6   3 -10   -0.15    0.28
  -6   3   9    0.27    0.26
   6   3  -9    0.85    0.31
   6  -3  -8    1.03    0.29
  -6  -3   8    1.24    0.36
  -6   3   8    1.77    0.39
   6   3  -8    0.94    0.30
  -6  -3   7    8.46    0.76
  -6   3   7    7.34    0.68
   6  -3  -7    7.13    0.60
   6   3  -7    8.78    0.74
   6  -3  -6   -0.07    0.20
  -6  -3   6   -0.33    0.31
  -6   3   6    0.12    0.27
   6   3  -6    0.30    0.26
   6  -3  -5    3.44    0.45
  -6  -3   5    3.30    0.50
  -6   3   5    3.03    0.44
   6   3  -5    3.07    0.47
   6  -3  -4   -0.13    0.21
  -6  -3   4   -0.06    0.28
  -6   3   4    0.15    0.23
   6   3  -4   -0.20    0.27
   6  -3  -3    2.80    0.42
  -6  -3   3    2.10    0.42
  -6   3   3    3.07    0.41
   6   3  -3    2.23    0.44
  -6   3   3    1.98    0.40
   6  -3  -2    1.36    0.34
  -6  -3   2    1.90    0.39
   6   3  -2    1.34    0.37
  -6   3   2    1.16    0.34
   6  -3  -1    0.72    0.28
  -6  -3   1    0.95    0.30
   6   3  -1    0.26    0.26
  -6   3   1    0.08    0.25
  -6  -3   0    0.32    0.27
   6   3   0    0.25    0.27
  -6   3   0   -0.17    0.27
   6  -3   0    0.58    0.25
  -6  -3  -1    0.27    0.30
   6   3   1    0.21    0.25
  -6   3  -1   -0.35    0.25
   6  -3   1   -0.09    0.23
  -6  -3  -2    2.03    0.40
   6  -3   2    1.60    0.37
  -6   4   9    0.11    0.27
  -6   4   8    1.14    0.34
   6   4  -8    0.98    0.36
  -6   4   7    0.63    0.31
   6   4  -7   -0.10    0.26
  -6   4   6    6.88    0.62
   6  -4  -6    7.03    0.59
  -6  -4   6    6.90    0.69
   6   4  -6    7.79    0.71
   6  -4  -5    2.38    0.38
  -6  -4   5    2.77    0.45
  -6   4   5    2.75    0.43
   6   4  -5    2.51    0.46
   6  -4  -4    4.71    0.51
  -6  -4   4    5.66    0.63
  -6   4   4    4.75    0.51
  -6   4   4    3.84    0.51
   6   4  -4    4.47    0.54
  -6  -4   3    2.65    0.45
   6   4  -3    2.58    0.44
  -6   4   3    2.39    0.42
   6  -4  -3    3.54    0.47
  -6  -4   2    2.41    0.45
   6   4  -2    2.49    0.45
  -6   4   2    1.63    0.39
   6  -4  -2    1.69    0.38
  -6  -4   1    2.25    0.46
   6   4  -1    1.43    0.40
  -6   4   1    1.36    0.36
   6  -4  -1    1.96    0.40
  -6  -4   0    0.12    0.26
   6   4   0    0.40    0.27
  -6   4   0    0.70    0.34
   6  -4   0   -0.06    0.23
  -6  -4  -1    0.36    0.28
  -6   4  -1    0.09    0.27
   6  -4   1    0.31    0.23
  -6  -4  -2    0.30    0.29
   6  -4   2    0.34    0.26
  -6   5   9    0.43    0.28
  -6   5   8    0.13    0.30
  -6   5   7    0.52    0.28
  -6   5   6    2.33    0.40
  -6   5   5   -0.37    0.32
   6  -5  -5   -0.43    0.28
  -6  -5   4    2.29    0.45
  -6   5   4    1.76    0.44
   6  -5  -4    2.35    0.38
  -6  -5   3   -0.04    0.27
  -6   5   3   -0.76    0.35
   6  -5  -3    0.13    0.25
  -6  -5   2   -0.05    0.27
  -6   5   2    0.32    0.29
   6  -5  -2    0.04    0.24
  -6  -5   1    0.02    0.29
  -6   5   1    0.33    0.29
   6  -5  -1   -0.07    0.26
  -6  -5   0    0.12    0.26
  -6   5   0    0.58    0.30
   6  -5   0   -0.02    0.27
  -6  -5  -1    0.05    0.27
   6  -5   1    0.13    0.27
  -6   5  -2    0.65    0.32
  -6   6   9    0.15    0.29
  -6   6   8    0.48    0.30
  -6   6   3   -0.33    0.33
   6  -6  -3   -0.28    0.30
  -6   6   2   -0.51    0.34
  -6   6   1    0.64    0.30
  -6   6   0   -0.49    0.34
  -6   6  -1    0.66    0.37
  -6   6  -2    0.58    0.31
  -7   0   4    1.40    0.38
  -7   0   3    0.32    0.32
  -7   1   5   -0.06    0.28
  -7   1   4   -0.35    0.30
  -7  -1   3   -0.30    0.34
  -7  -1   2   -0.52    0.36
   0   0   0    0.00    0.00


TITL po_abs in P2(1)/c
REM P2(1)/c (#14 in standard setting)
CELL 0.71073   5.153151  10.261318  14.062348  90.0000 100.4007  90.0000
ZERR    4.00   0.000227   0.000412   0.000718   0.0000   0.0048   0.0000
LATT  1
SYMM -x, y+1/2,-z+1/2
SFAC C H N O
UNIT 16.00 28.00 20.00 12.00
TREF
HKLF 4
END
_computing_structure_solution     'SHELXT 2018/2 (Sheldrick, 2018)'
;
_shelx_hkl_checksum              31532
_olex2_submission_special_instructions 'No special instructions were received'
_oxdiff_exptl_absorpt_empirical_details
;
Empirical correction (ABSPACK) includes:
- Absorption correction using spherical harmonics
- Frame scaling
;
_oxdiff_exptl_absorpt_empirical_full_max 1.167
_oxdiff_exptl_absorpt_empirical_full_min 0.922
loop_
_space_group_symop_operation_xyz
'x, y, z'
'-x, y+1/2, -z+1/2'
'-x, -y, -z'
'x, -y-1/2, z-1/2'
loop_
_atom_site_label
_atom_site_type_symbol
_atom_site_fract_x
_atom_site_fract_y
_atom_site_fract_z
_atom_site_U_iso_or_equiv
_atom_site_adp_type
_atom_site_occupancy
_atom_site_site_symmetry_order
_atom_site_calc_flag
_atom_site_refinement_flags_posn
_atom_site_refinement_flags_adp
_atom_site_refinement_flags_occupancy
_atom_site_disorder_assembly
_atom_site_disorder_group
O1 O 0.5158(2) 0.67349(10) 0.14231(9) 0.0618(3) Uani 1 1 d . . . . .
O2 O 0.8291(3) 0.53593(12) 0.17855(13) 0.0947(5) Uani 1 1 d . . . . .
O3 O 0.9086(2) 0.73790(12) 0.20697(9) 0.0674(4) Uani 1 1 d . . . . .
C1 C 0.8875(3) 0.78677(15) 0.46172(11) 0.0555(4) Uani 1 1 d . . . . .
H1 H 1.035698 0.826486 0.497597 0.068(5) Uiso 1 1 calc R . . . .
C2 C 0.6694(3) 0.85583(15) 0.41203(12) 0.0576(4) Uani 1 1 d . . . . .
H2 H 0.646725 0.945745 0.409058 0.062(5) Uiso 1 1 calc R . . . .
C3 C 0.5006(3) 0.76454(15) 0.36971(11) 0.0530(4) Uani 1 1 d . . . . .
H3 H 0.336254 0.778945 0.331375 0.074(5) Uiso 1 1 calc R . . . .
C4 C 0.5214(3) 0.52205(13) 0.37096(9) 0.0442(3) Uani 1 1 d . . . . .
N1 N 0.6169(2) 0.64581(11) 0.39384(8) 0.0446(3) Uani 1 1 d . . . . .
N2 N 0.8595(2) 0.66018(11) 0.45209(9) 0.0508(3) Uani 1 1 d . . . . .
N3 N 0.6608(2) 0.42348(13) 0.40872(9) 0.0575(4) Uani 1 1 d . . . . .
H3A H 0.603281 0.345436 0.396687 0.073(6) Uiso 1 1 calc R . . . .
H3B H 0.810606 0.436180 0.445781 0.087 Uiso 1 1 calc R . . . .
N4 N 0.2933(2) 0.50738(14) 0.31439(9) 0.0582(4) Uani 1 1 d . . . . .
H4A H 0.230762 0.430492 0.301066 0.072(6) Uiso 1 1 calc R . . . .
H4B H 0.205343 0.574588 0.290410 0.086 Uiso 1 1 calc R . . . .
N5 N 0.7515(2) 0.64833(12) 0.17554(9) 0.0524(3) Uani 1 1 d . . . . .
loop_
_atom_site_aniso_label
_atom_site_aniso_U_11
_atom_site_aniso_U_22
_atom_site_aniso_U_33
_atom_site_aniso_U_23
_atom_site_aniso_U_13
_atom_site_aniso_U_12
O1 0.0412(6) 0.0555(6) 0.0815(8) 0.0062(5) -0.0079(5) 0.0055(4)
O2 0.0662(9) 0.0587(8) 0.1421(13) 0.0041(8) -0.0270(8) 0.0186(6)
O3 0.0500(6) 0.0748(8) 0.0723(7) -0.0112(6) -0.0026(5) -0.0079(5)
C1 0.0565(8) 0.0478(8) 0.0591(9) -0.0030(7) 0.0020(7) -0.0013(7)
C2 0.0658(10) 0.0456(8) 0.0605(9) 0.0032(6) 0.0087(8) 0.0082(7)
C3 0.0507(8) 0.0550(8) 0.0518(8) 0.0090(6) 0.0053(6) 0.0142(7)
C4 0.0374(7) 0.0516(8) 0.0415(6) 0.0006(6) 0.0016(5) 0.0005(6)
N1 0.0383(6) 0.0479(7) 0.0446(6) 0.0035(5) -0.0003(5) 0.0035(5)
N2 0.0429(6) 0.0485(7) 0.0554(7) -0.0010(5) -0.0064(5) 0.0013(5)
N3 0.0482(7) 0.0454(7) 0.0698(8) -0.0001(6) -0.0142(6) -0.0023(5)
N4 0.0438(7) 0.0656(8) 0.0585(7) -0.0013(6) -0.0090(6) -0.0012(6)
N5 0.0433(7) 0.0603(8) 0.0497(7) 0.0039(5) -0.0017(5) 0.0036(6)
loop_
_atom_type_symbol
_atom_type_description
_atom_type_scat_dispersion_real
_atom_type_scat_dispersion_imag
_atom_type_scat_source
C C 0.0033 0.0016 'International Tables Vol C Tables 4.2.6.8 and 6.1.1.4'
H H 0.0000 0.0000 'International Tables Vol C Tables 4.2.6.8 and 6.1.1.4'
N N 0.0061 0.0033 'International Tables Vol C Tables 4.2.6.8 and 6.1.1.4'
O O 0.0106 0.0060 'International Tables Vol C Tables 4.2.6.8 and 6.1.1.4'
loop_
_exptl_crystal_face_index_h
_exptl_crystal_face_index_k
_exptl_crystal_face_index_l
_exptl_crystal_face_perp_dist
-6 7 -2 0.1546
-2 8 16 0.2504
2 -8 -16 0.1794
0 -11 12 0.1349
3 8 -16 0.1541
6 -1 -14 0.1055
-4 -5 17 0.2155
1 14 -1 0.2137
7 -1 -6 0.1019
-3 -13 4 0.2199
4 2 -18 0.1187
2 -14 -4 0.2000
-4 -12 -1 0.2310
7 1 -3 0.1067
6 -2 5 0.1266
-1 11 13 0.2388
-4 -9 -9 0.2360
7 -1 2 0.1001
0 12 10 0.2324
4 -5 -17 0.1417
-5 10 5 0.1739
loop_
_geom_angle_atom_site_label_1
_geom_angle_atom_site_label_2
_geom_angle_atom_site_label_3
_geom_angle
_geom_angle_site_symmetry_1
_geom_angle_site_symmetry_3
_geom_angle_publ_flag
N2 C1 C2 112.68(14) . . ?
C3 C2 C1 105.36(14) . . ?
C2 C3 N1 106.90(13) . . ?
N3 C4 N1 118.34(12) . . ?
N3 C4 N4 122.09(14) . . ?
N4 C4 N1 119.55(13) . . ?
C3 N1 C4 129.65(12) . . ?
C3 N1 N2 111.22(11) . . ?
N2 N1 C4 119.09(10) . . ?
C1 N2 N1 103.84(11) . . ?
O1 N5 O3 120.29(13) . . ?
O2 N5 O1 120.01(13) . . ?
O2 N5 O3 119.70(13) . . ?
loop_
_geom_bond_atom_site_label_1
_geom_bond_atom_site_label_2
_geom_bond_distance
_geom_bond_site_symmetry_2
_geom_bond_publ_flag
O1 N5 1.2469(16) . ?
O2 N5 1.2190(16) . ?
O3 N5 1.2514(17) . ?
C1 C2 1.403(2) . ?
C1 N2 1.3113(19) . ?
C2 C3 1.342(2) . ?
C3 N1 1.3730(18) . ?
C4 N1 1.3789(18) . ?
C4 N3 1.2972(19) . ?
C4 N4 1.3037(17) . ?
N1 N2 1.3733(15) . ?
loop_
_geom_hbond_atom_site_label_D
_geom_hbond_atom_site_label_H
_geom_hbond_atom_site_label_A
_geom_hbond_distance_DH
_geom_hbond_distance_HA
_geom_hbond_distance_DA
_geom_hbond_angle_DHA
_geom_hbond_site_symmetry_A
_geom_hbond_publ_flag
N3 H3A O1 0.86 1.92 2.7726(17) 174.4 2_645 yes
N3 H3B N2 0.86 2.25 2.9887(17) 144.5 3_766 yes
N4 H4A O3 0.86 2.10 2.9506(19) 170.6 2_645 yes
N4 H4B O3 0.86 2.42 3.2752(18) 170.4 1_455 yes
loop_
_exptl_oxdiff_crystal_face_indexfrac_h
_exptl_oxdiff_crystal_face_indexfrac_k
_exptl_oxdiff_crystal_face_indexfrac_l
_exptl_oxdiff_crystal_face_x
_exptl_oxdiff_crystal_face_y
_exptl_oxdiff_crystal_face_z
-6.0008 6.9999 -2.0010 -0.0892 -0.3530 -0.9210
-2.0029 8.0042 16.0040 0.1581 0.7465 -0.6267
2.0029 -8.0042 -16.0040 -0.1581 -0.7465 0.6267
0.0022 -10.9960 11.9952 -0.6791 0.5660 0.4178
2.9984 7.9946 -15.9948 0.7862 -0.6406 0.0441
6.0002 -1.0047 -13.9971 0.5267 -0.4340 0.7363
-3.9991 -4.9944 16.9957 -0.7115 0.6560 -0.2824
0.9961 13.9987 -0.9919 0.8433 0.0479 -0.4921
6.9995 -1.0027 -5.9957 0.5502 0.0170 0.8047
-2.9963 -12.9976 3.9912 -0.9711 0.0150 0.2256
4.0000 1.9943 -17.9974 0.5566 -0.7178 0.4159
2.0037 -14.0005 -4.0062 -0.5672 -0.1619 0.8297
-3.9960 -11.9989 -1.0095 -0.9618 -0.2805 0.1006
6.9988 0.9980 -2.9944 0.6369 0.1762 0.7050
5.9992 -1.9994 5.0039 0.3379 0.5233 0.6925
-1.0037 11.0030 13.0061 0.4216 0.6522 -0.6370
-3.9963 -9.0013 -9.0085 -0.7431 -0.6740 0.0083
6.9990 -1.0005 2.0049 0.4934 0.4216 0.7681
-0.0039 12.0020 10.0072 0.5771 0.5505 -0.5613
4.0018 -5.0050 -17.0010 0.1715 -0.6932 0.7121
-5.0022 10.0015 5.0019 0.1034 0.0586 -0.9770

_cod_database_fobs_code 2108924
