#------------------------------------------------------------------------------
#$Date: 2021-01-26 07:40:26 +0200 (Tue, 26 Jan 2021) $
#$Revision: 261216 $
#$URL: file:///home/coder/svn-repositories/cod/cif/2/10/87/2108753.cif $
#------------------------------------------------------------------------------
#
# This file is available in the Crystallography Open Database (COD),
# http://www.crystallography.net/. The original data for this entry
# were provided by IUCr Journals, http://journals.iucr.org/.
#
# The file may be used within the scientific community so long as
# proper attribution is given to the journal article from which the
# data were obtained.
#
data_2108753
loop_
_publ_author_name
'Beske, Maurice'
'Cronje, Stephanie'
'Schmidt, Martin U.'
'Tapmeyer, Lukas'
_publ_section_title
;
 Disordered sodium alkoxides from powder data: crystal structures of
 sodium ethoxide, propoxide, butoxide and pentoxide, and some of their
 solvates
;
_journal_coeditor_code           NE5003SUP1
_journal_issue                   1
_journal_name_full               'Acta Crystallographica Section B'
_journal_page_first
;
;
_journal_paper_doi               10.1107/S205252062001584X
_journal_volume                  77
_journal_year                    2021
_chemical_compound_source        Synthesis
_chemical_formula_moiety         'C5 H11 O1 1-, Na1 1+'
_chemical_formula_sum            'C5 H11 Na O'
_chemical_formula_weight         110.12
_chemical_name_common            'Sodium amyloxide, sodium amylate'
_chemical_name_systematic        'sodium 2-methyl-2-butoxide'
_chemical_properties_physical    'moisture-sensitive, hygroscopic'
_space_group_crystal_system      tetragonal
_space_group_IT_number           129
_space_group_name_Hall           '-P 4a 2a'
_space_group_name_H-M_alt        'P 4/n m m :2'
_cell_angle_alpha                90
_cell_angle_beta                 90
_cell_angle_gamma                90
_cell_formula_units_Z            2
_cell_length_a                   4.4084(2)
_cell_length_b                   4.4084(2)
_cell_length_c                   16.9376(12)
_cell_measurement_reflns_used    143
_cell_measurement_temperature    298
_cell_measurement_theta_max      99.99
_cell_measurement_theta_min      2.00000
_cell_volume                     329.17(3)
_computing_cell_refinement       '<i>TOPAS-Academic</i> (Coelho, 2012)'
_computing_data_collection       '<i>WINX^POW^</i> (Stoe & Cie, 2004)'
_computing_data_reduction        '<i>DASH</i> 3.1 (David <i>et al.</i>, 2006)'
_computing_molecular_graphics    '<i>Mercury</i> (Macrae <i>et al.</i>, 2008)'
_computing_structure_refinement  '<i>TOPAS-Academic</i> (Coelho, 2012)'
_computing_structure_solution    '<i>DASH</i> 3.1 (David <i>et al.</i>, 2006)'
_diffrn_ambient_temperature      298
_diffrn_detector                 'linear position-sensitive detector'
_diffrn_measurement_device_type  STOE-Stadi-P
_diffrn_radiation_monochromator  Ge(111)
_diffrn_radiation_probe          x-ray
_diffrn_radiation_type           'Cu K\a~1~'
_diffrn_radiation_wavelength     1.54056
_diffrn_reflns_number            143
_diffrn_source                   'sealed X-Ray tube'
_exptl_absorpt_coefficient_mu    1.154
_exptl_crystal_colour            white
_exptl_crystal_density_diffrn    1.111
_exptl_crystal_description       powder
_exptl_crystal_F_000             120.0
_exptl_crystal_recrystallization_method
'Crystallised from n-pentanol solution with subsequent evaporation'
_pd_calc_method                  'Rietveld Refinement'
_pd_char_colour                  White
_pd_char_particle_morphology     powder
_pd_meas_2theta_range_inc        0.0100002
_pd_meas_2theta_range_max        99.9919
_pd_meas_2theta_range_min        2.00000
_pd_meas_number_of_points        9800
_pd_meas_scan_method             step
_pd_proc_2theta_range_inc        0.0100002
_pd_proc_2theta_range_max        99.9919
_pd_proc_2theta_range_min        2.00000
_pd_proc_info_excluded_regions   /
_pd_proc_ls_background_function  'Chebyshev function with 25 terms'
_pd_proc_ls_pref_orient_corr     none
_pd_proc_ls_profile_function     'fundamental parameters'
_pd_proc_ls_prof_R_factor        3.761
_pd_proc_ls_prof_wR_expected     2.731
_pd_proc_ls_prof_wR_factor       5.355
_pd_proc_wavelength              1.54056
_pd_spec_mounting                '1.0 mm glass capillary'
_pd_spec_mount_mode              transmission
_refine_ls_extinction_method     none
_refine_ls_goodness_of_fit_all   1.961
_refine_ls_hydrogen_treatment    refxyz
_refine_ls_matrix_type           fullcycle
_refine_ls_number_constraints    4
_refine_ls_number_parameters     72
_refine_ls_number_restraints     26
_refine_ls_R_I_factor            1.608
_refine_ls_shift/su_max          0.001
_refine_ls_weighting_details     w=1/\s[Y~obs~]^2^
_refine_ls_weighting_scheme      sigma
_cod_data_source_file            ne5003sup1.cif
_cod_data_source_block           NaOnAm
_cod_original_cell_volume        329.16(4)
_cod_original_sg_symbol_H-M      P4/nmm:2
_cod_original_formula_sum        'C5 H11 Na1 O1'
_cod_database_code               2108753
_publcif_datablock.id            {7683fdef-1a29-47ea-9b79-e049f1eba4fd}
loop_
_symmetry_equiv_pos_as_xyz
'x, y, z '
'-x, y+1/2, -z '
'-x+1/2, -y+1/2, z '
'-x+1/2, y, z '
'-y, -x, -z '
'-y, x+1/2, -z '
'-y+1/2, -x+1/2, z '
'-y+1/2, x, z '
'y, -x+1/2, z '
'y, x, z '
'y+1/2, -x, -z '
'y+1/2, x+1/2, -z '
'x, -y+1/2, z '
'-x, -y, -z '
'x+1/2, -y, -z '
'x+1/2, y+1/2, -z '
loop_
_atom_site_label
_atom_site_type_symbol
_atom_site_symmetry_multiplicity
_atom_site_fract_x
_atom_site_fract_y
_atom_site_fract_z
_atom_site_occupancy
_atom_site_B_iso_or_equiv
_atom_site_U_iso_or_equiv
Na1 Na 2 0.75 0.25 0 1 2.08(12) 0.02630
O1 O 2 0.25 0.25 0.0463(5) 1 2.08(12) 0.02630
C1 C 8 0.171(5) 0.171(5) 0.1088(18) 0.25 7.3(9) 0.09206
H1 H 16 -0.051(17) 0.17(2) 0.111(5) 0.25 8.7(11) 0.11047
C2 C 8 0.299(7) 0.299(7) 0.183(2) 0.25 7.3(9) 0.09206
H2 H 16 0.52(2) 0.26(34) 0.185(6) 0.25 8.7(11) 0.11047
C3 C 8 0.120(6) 0.120(6) 0.258(3) 0.25 7.3(9) 0.09206
H3 H 16 0.15(3) -0.10(4) 0.254(8) 0.25 8.7(11) 0.11047
C4 C 8 0.227(547) 0.227(547) 0.336(30) 0.25 41(31) 0.52287
H4 H 16 0.19(57) 0.44(119) 0.34(13) 0.25 50(37) 0.62745
C5 C 8 0.077(143) 0.077(143) 0.390(35) 0.25 41(31) 0.52287
H5A H 8 0.14(17) 0.14(17) 0.44(4) 0.25 50(37) 0.62745
H5B H 16 0.11(31) -0.14(76) 0.38(13) 0.25 50(37) 0.62745
loop_
_geom_angle_atom_site_label_1
_geom_angle_atom_site_label_2
_geom_angle_atom_site_label_3
_geom_angle
Na1 O1 C1 126
loop_
_geom_bond_atom_site_label_1
_geom_bond_atom_site_label_2
_geom_bond_distance
Na1 O1 2.340(3)
loop_
_pd_meas_2theta_scan
_pd_proc_intensity_total
_pd_calc_intensity_total
_pd_proc_ls_weight
2.00000 2546.00000 2704.80920 0.00039
2.01000 2698.00000 2695.33813 0.00037
2.02000 2735.00000 2686.10929 0.00037
2.03000 2600.00000 2677.11943 0.00038
2.04000 2515.00000 2668.36530 0.00040
2.05000 2618.00000 2659.84368 0.00038
2.06000 2557.00000 2651.55140 0.00039
2.07000 2589.00000 2643.48530 0.00039
2.08000 2571.00000 2635.64222 0.00039
2.09000 2682.00000 2628.01907 0.00037
2.10000 2544.00000 2620.61276 0.00039
2.11000 2582.00000 2613.42022 0.00039
2.12000 2605.00000 2606.43843 0.00038
2.13000 2537.00000 2599.66437 0.00039
2.14000 2702.00000 2593.09506 0.00037
2.15000 2564.00000 2586.72754 0.00039
2.16000 2528.00000 2580.55887 0.00040
2.17000 2566.00000 2574.58614 0.00039
2.18000 2574.00000 2568.80647 0.00039
2.19000 2542.00000 2563.21700 0.00039
2.20000 2549.00000 2557.81488 0.00039
2.21000 2521.00000 2552.59732 0.00040
2.22000 2588.00000 2547.56151 0.00039
2.23000 2522.00000 2542.70471 0.00040
2.24000 2546.00000 2538.02415 0.00039
2.25000 2522.00000 2533.51714 0.00040
2.26000 2508.00000 2529.18098 0.00040
2.27000 2682.00000 2525.01300 0.00037
2.28000 2625.00000 2521.01056 0.00038
2.29000 2572.00000 2517.17103 0.00039
2.30000 2593.00000 2513.49183 0.00039
2.31000 2542.00000 2509.97037 0.00039
2.32000 2410.00000 2506.60410 0.00041
2.33000 2621.00000 2503.39051 0.00038
2.34000 2571.00000 2500.32708 0.00039
2.35000 2504.00000 2497.41133 0.00040
2.36000 2523.00000 2494.64081 0.00040
2.37000 2519.00000 2492.01309 0.00040
2.38000 2503.00000 2489.52574 0.00040
2.39000 2502.00000 2487.17638 0.00040
2.40000 2434.00000 2484.96264 0.00041
2.41000 2518.00000 2482.88217 0.00040
2.42000 2459.00000 2480.93266 0.00041
2.43000 2497.00000 2479.11181 0.00040
2.44000 2511.00000 2477.41733 0.00040
2.45000 2532.00000 2475.84696 0.00039
2.46000 2577.00000 2474.39848 0.00039
2.47000 2578.00000 2473.06967 0.00039
2.48000 2581.00000 2471.85834 0.00039
2.49000 2508.00000 2470.76232 0.00040
2.50000 2544.00000 2469.77947 0.00039
2.51000 2587.00000 2468.90764 0.00039
2.52000 2480.00000 2468.14475 0.00040
2.53000 2546.00000 2467.48870 0.00039
2.54000 2463.00000 2466.93743 0.00041
2.55000 2452.00000 2466.48890 0.00041
2.56000 2461.00000 2466.14109 0.00041
2.57000 2481.00000 2465.89199 0.00040
2.58000 2444.00000 2465.73963 0.00041
2.59000 2502.00000 2465.68204 0.00040
2.60000 2485.00000 2465.71729 0.00040
2.61000 2577.00000 2465.84345 0.00039
2.62000 2464.00000 2466.05863 0.00041
2.63000 2552.00000 2466.36095 0.00039
2.64000 2500.00000 2466.74854 0.00040
2.65000 2541.00000 2467.21957 0.00039
2.66000 2578.00000 2467.77222 0.00039
2.67000 2583.00000 2468.40468 0.00039
2.68000 2466.00000 2469.11518 0.00041
2.69000 2413.00000 2469.90196 0.00041
2.70000 2455.00000 2470.76326 0.00041
2.71000 2498.00000 2471.69738 0.00040
2.72000 2557.00000 2472.70260 0.00039
2.73000 2512.00000 2473.77724 0.00040
2.74000 2469.00000 2474.91963 0.00041
2.75000 2429.00000 2476.12813 0.00041
2.76000 2448.00000 2477.40110 0.00041
2.77000 2397.00000 2478.73694 0.00042
2.78000 2479.00000 2480.13405 0.00040
2.79000 2505.00000 2481.59086 0.00040
2.80000 2592.00000 2483.10581 0.00039
2.81000 2566.00000 2484.67736 0.00039
2.82000 2567.00000 2486.30400 0.00039
2.83000 2512.00000 2487.98428 0.00040
2.84000 2428.00000 2489.71684 0.00041
2.85000 2508.00000 2491.50025 0.00040
2.86000 2569.00000 2493.33307 0.00039
2.87000 2467.00000 2495.21388 0.00041
2.88000 2555.00000 2497.14127 0.00039
2.89000 2438.00000 2499.11387 0.00041
2.90000 2445.00000 2501.13031 0.00041
2.91000 2509.00000 2503.18939 0.00040
2.92000 2473.00000 2505.28983 0.00040
2.93000 2484.00000 2507.43033 0.00040
2.94000 2561.00000 2509.60961 0.00039
2.95000 2521.00000 2511.82638 0.00040
2.96000 2479.00000 2514.07940 0.00040
2.97000 2486.00000 2516.36744 0.00040
2.98000 2547.00000 2518.68940 0.00039
2.99000 2460.00000 2521.04418 0.00041
3.00000 2466.00000 2523.43060 0.00041
3.01000 2428.00000 2525.84751 0.00041
3.02000 2509.00000 2528.29378 0.00040
3.03000 2426.00000 2530.76827 0.00041
3.04000 2521.00000 2533.26992 0.00040
3.05000 2524.00000 2535.79775 0.00040
3.06000 2475.00000 2538.35080 0.00040
3.07000 2472.00000 2540.92805 0.00040
3.08000 2508.00000 2543.52848 0.00040
3.09000 2464.00000 2546.15109 0.00041
3.10000 2542.00000 2548.79491 0.00039
3.11000 2542.00000 2551.45901 0.00039
3.12000 2463.00000 2554.14260 0.00041
3.13000 2477.00000 2556.84484 0.00040
3.14000 2594.00000 2559.56488 0.00039
3.15000 2492.00000 2562.30184 0.00040
3.16000 2629.00000 2565.05489 0.00038
3.17000 2566.00000 2567.82323 0.00039
3.18000 2506.00000 2570.60614 0.00040
3.19000 2599.00000 2573.40301 0.00038
3.20000 2464.00000 2576.21318 0.00041
3.21000 2492.00000 2579.03596 0.00040
3.22000 2461.00000 2581.87070 0.00041
3.23000 2493.00000 2584.71677 0.00040
3.24000 2546.00000 2587.57361 0.00039
3.25000 2535.00000 2590.44082 0.00039
3.26000 2515.00000 2593.31802 0.00040
3.27000 2566.00000 2596.20482 0.00039
3.28000 2482.00000 2599.10086 0.00040
3.29000 2430.00000 2602.00592 0.00041
3.30000 2495.00000 2604.91991 0.00040
3.31000 2527.00000 2607.84305 0.00040
3.32000 2460.00000 2610.77606 0.00041
3.33000 2580.00000 2613.72008 0.00039
3.34000 2564.00000 2616.67709 0.00039
3.35000 2572.00000 2619.65038 0.00039
3.36000 2604.00000 2622.64502 0.00038
3.37000 2589.00000 2625.66856 0.00039
3.38000 2586.00000 2628.73184 0.00039
3.39000 2540.00000 2631.84930 0.00039
3.40000 2557.00000 2635.03959 0.00039
3.41000 2588.00000 2638.32582 0.00039
3.42000 2604.00000 2641.73539 0.00038
3.43000 2634.00000 2645.29943 0.00038
3.44000 2636.00000 2649.05181 0.00038
3.45000 2616.00000 2653.02748 0.00038
3.46000 2542.00000 2657.26073 0.00039
3.47000 2637.00000 2661.78357 0.00038
3.48000 2652.00000 2666.62450 0.00038
3.49000 2637.00000 2671.80788 0.00038
3.50000 2583.00000 2677.35431 0.00039
3.51000 2620.00000 2683.28109 0.00038
3.52000 2689.00000 2689.60309 0.00037
3.53000 2703.00000 2696.33351 0.00037
3.54000 2627.00000 2703.48404 0.00038
3.55000 2691.00000 2711.06510 0.00037
3.56000 2638.00000 2719.08597 0.00038
3.57000 2698.00000 2727.55496 0.00037
3.58000 2658.00000 2736.48012 0.00038
3.59000 2789.00000 2745.86990 0.00036
3.60000 2864.00000 2755.73327 0.00035
3.61000 2775.00000 2766.07979 0.00036
3.62000 2792.00000 2776.91901 0.00036
3.63000 2885.00000 2788.26002 0.00035
3.64000 2861.00000 2800.11162 0.00035
3.65000 2862.00000 2812.48278 0.00035
3.66000 2745.00000 2825.38310 0.00036
3.67000 2855.00000 2838.82310 0.00035
3.68000 2782.00000 2852.81365 0.00036
3.69000 2922.00000 2867.36566 0.00034
3.70000 2926.00000 2882.48979 0.00034
3.71000 2924.00000 2898.19657 0.00034
3.72000 2937.00000 2914.49695 0.00034
3.73000 2978.00000 2931.40248 0.00034
3.74000 3039.00000 2948.92531 0.00033
3.75000 3017.00000 2967.07815 0.00033
3.76000 3032.00000 2985.87381 0.00033
3.77000 3047.00000 3005.32515 0.00033
3.78000 3044.00000 3025.44499 0.00033
3.79000 3032.00000 3046.24635 0.00033
3.80000 3195.00000 3067.74301 0.00031
3.81000 3090.00000 3089.94959 0.00032
3.82000 3156.00000 3112.88139 0.00032
3.83000 3127.00000 3136.55385 0.00032
3.84000 3191.00000 3160.98212 0.00031
3.85000 3270.00000 3186.18153 0.00031
3.86000 3224.00000 3212.16805 0.00031
3.87000 3365.00000 3238.95874 0.00030
3.88000 3332.00000 3266.57145 0.00030
3.89000 3349.00000 3295.02425 0.00030
3.90000 3372.00000 3324.33524 0.00030
3.91000 3442.00000 3354.52273 0.00029
3.92000 3458.00000 3385.60575 0.00029
3.93000 3553.00000 3417.60403 0.00028
3.94000 3527.00000 3450.53822 0.00028
3.95000 3613.00000 3484.42970 0.00028
3.96000 3615.00000 3519.30040 0.00028
3.97000 3720.00000 3555.17257 0.00027
3.98000 3681.00000 3592.06869 0.00027
3.99000 3635.00000 3630.01213 0.00028
4.00000 3707.00000 3669.02749 0.00027
4.01000 3714.00000 3709.14060 0.00027
4.02000 3731.00000 3750.37762 0.00027
4.03000 3820.00000 3792.76494 0.00026
4.04000 3957.00000 3836.32952 0.00025
4.05000 3992.00000 3881.09964 0.00025
4.06000 4077.00000 3927.10478 0.00025
4.07000 4131.00000 3974.37539 0.00024
4.08000 4119.00000 4022.94285 0.00024
4.09000 4158.00000 4072.83944 0.00024
4.10000 4246.00000 4124.09822 0.00024
4.11000 4301.00000 4176.75321 0.00023
4.12000 4421.00000 4230.83998 0.00023
4.13000 4458.00000 4286.39578 0.00022
4.14000 4468.00000 4343.45898 0.00022
4.15000 4445.00000 4402.06861 0.00022
4.16000 4694.00000 4462.26502 0.00021
4.17000 4786.00000 4524.09089 0.00021
4.18000 4779.00000 4587.59029 0.00021
4.19000 4680.00000 4652.80868 0.00021
4.20000 4909.00000 4719.79306 0.00020
4.21000 5007.00000 4788.59211 0.00020
4.22000 5114.00000 4859.25587 0.00020
4.23000 5074.00000 4931.83655 0.00020
4.24000 5173.00000 5006.38910 0.00019
4.25000 5242.00000 5082.97039 0.00019
4.26000 5463.00000 5161.63894 0.00018
4.27000 5513.00000 5242.45550 0.00018
4.28000 5431.00000 5325.48335 0.00018
4.29000 5630.00000 5410.78825 0.00018
4.30000 5706.00000 5498.43917 0.00018
4.31000 5778.00000 5588.50807 0.00017
4.32000 5664.00000 5681.06904 0.00018
4.33000 5940.00000 5776.19952 0.00017
4.34000 6058.00000 5873.98080 0.00017
4.35000 6038.00000 5974.49754 0.00017
4.36000 6221.00000 6077.83886 0.00016
4.37000 6417.00000 6184.09795 0.00016
4.38000 6624.00000 6293.37170 0.00015
4.39000 6480.00000 6405.76254 0.00015
4.40000 6606.00000 6521.37797 0.00015
4.41000 6840.00000 6640.33053 0.00015
4.42000 6976.00000 6762.73777 0.00014
4.43000 6928.00000 6888.72229 0.00014
4.44000 7179.00000 7018.41341 0.00014
4.45000 7367.00000 7151.94709 0.00014
4.46000 7481.00000 7289.46805 0.00013
4.47000 7448.00000 7431.12872 0.00013
4.48000 7811.00000 7577.09166 0.00013
4.49000 7896.00000 7727.53002 0.00013
4.50000 7864.00000 7882.63064 0.00013
4.51000 8142.00000 8042.59498 0.00012
4.52000 8196.00000 8207.64298 0.00012
4.53000 8435.00000 8378.01673 0.00012
4.54000 8594.00000 8553.98879 0.00012
4.55000 8535.00000 8735.87360 0.00012
4.56000 8848.00000 8924.04774 0.00011
4.57000 9129.00000 9118.98952 0.00011
4.58000 9226.00000 9321.39248 0.00011
4.59000 9284.00000 9532.52296 0.00011
4.60000 9586.00000 9756.44579 0.00010
4.61000 9813.00000 9991.27734 0.00010
4.62000 9828.00000 10215.32911 0.00010
4.63000 10334.00000 10443.80173 0.00009
4.64000 10425.00000 10679.74269 0.00009
4.65000 10626.00000 10923.60268 0.00009
4.66000 10840.00000 11175.74326 0.00009
4.67000 11036.00000 11436.55106 0.00008
4.68000 11390.00000 11706.44158 0.00008
4.69000 11582.00000 11985.86307 0.00007
4.70000 11774.00000 12275.30095 0.00007
4.71000 11952.00000 12575.28298 0.00007
4.72000 12236.00000 12886.38463 0.00007
4.73000 12787.00000 13209.23391 0.00006
4.74000 12944.00000 13544.51559 0.00006
4.75000 13210.00000 13892.97396 0.00006
4.76000 13750.00000 14255.41373 0.00005
4.77000 14007.00000 14632.69909 0.00005
4.78000 14362.00000 15025.75089 0.00005
4.79000 14622.00000 15435.54316 0.00005
4.80000 15136.00000 15863.10043 0.00004
4.81000 15799.00000 16309.49714 0.00004
4.82000 16211.00000 16775.86152 0.00004
4.83000 16612.00000 17263.38577 0.00004
4.84000 16964.00000 17773.34218 0.00003
4.85000 17583.00000 18307.10375 0.00003
4.86000 18224.00000 18866.16822 0.00003
4.87000 18632.00000 19452.18352 0.00003
4.88000 19159.00000 20066.97408 0.00003
4.89000 20180.00000 20712.56791 0.00002
4.90000 20657.00000 21391.22412 0.00002
4.91000 21334.00000 22105.46176 0.00002
4.92000 21999.00000 22858.09000 0.00002
4.93000 22874.00000 23652.23972 0.00002
4.94000 23521.00000 24491.39742 0.00002
4.95000 24686.00000 25379.44202 0.00002
4.96000 25708.00000 26320.68600 0.00002
4.97000 26348.00000 27319.92479 0.00001
4.98000 27643.00000 28382.49928 0.00001
4.99000 28766.00000 29514.38195 0.00001
5.00000 30388.00000 30722.30230 0.00001
5.01000 31749.00000 32013.93405 0.00001
5.02000 33465.00000 33398.17565 0.00001
5.03000 34903.00000 34885.56290 0.00001
5.04000 36663.00000 36488.85720 0.00001
5.05000 38317.00000 38223.84743 0.00001
5.06000 40917.00000 40110.37257 0.00001
5.07000 42591.00000 42173.50260 0.00001
5.08000 45773.00000 44444.68324 0.00000
5.09000 48199.00000 46962.44696 0.00000
5.10000 50864.00000 49772.02447 0.00000
5.11000 54439.00000 52922.90752 0.00000
5.12000 57729.00000 56463.23053 0.00000
5.13000 61982.00000 60429.92644 0.00000
5.14000 67031.00000 64834.16864 0.00000
5.15000 71526.00000 69642.76312 0.00000
5.16000 76498.00000 74757.83775 0.00000
5.17000 81107.00000 79999.03812 0.00000
5.18000 85180.00000 85093.82735 0.00000
5.19000 89649.00000 89681.63612 0.00000
5.20000 93419.00000 93336.01278 0.00000
5.21000 95326.00000 95605.81899 0.00000
5.22000 94933.00000 96073.09879 0.00000
5.23000 93978.00000 94422.71076 0.00000
5.24000 89510.00000 90515.71849 0.00000
5.25000 83012.00000 84449.90897 0.00000
5.26000 74884.00000 76578.20786 0.00000
5.27000 65129.00000 67459.75678 0.00000
5.28000 54426.00000 57754.22894 0.00000
5.29000 44356.00000 48105.20104 0.00001
5.30000 35496.00000 39052.78444 0.00001
5.31000 27847.00000 30986.26433 0.00001
5.32000 22063.00000 24130.26253 0.00002
5.33000 17542.00000 18555.98702 0.00003
5.34000 14141.00000 14210.14671 0.00005
5.35000 11357.00000 10953.58461 0.00008
5.36000 9495.00000 8601.36493 0.00011
5.37000 7919.00000 6957.41626 0.00013
5.38000 6798.00000 5839.60874 0.00015
5.39000 5899.00000 5094.22317 0.00017
5.40000 4851.00000 4601.18269 0.00021
5.41000 4354.00000 4272.70854 0.00023
5.42000 4029.00000 4048.28345 0.00025
5.43000 3925.00000 3888.30791 0.00025
5.44000 3743.00000 3768.03204 0.00027
5.45000 3441.00000 3672.56705 0.00029
5.46000 3387.00000 3593.20026 0.00030
5.47000 3310.00000 3524.89592 0.00030
5.48000 3183.00000 3464.71534 0.00031
5.49000 3248.00000 3410.87850 0.00031
5.50000 3214.00000 3362.23627 0.00031
5.51000 3165.00000 3317.98716 0.00032
5.52000 3101.00000 3277.52880 0.00032
5.53000 2996.00000 3240.38139 0.00033
5.54000 3037.00000 3206.14844 0.00033
5.55000 2943.00000 3174.49466 0.00034
5.56000 3064.00000 3145.13215 0.00033
5.57000 2910.00000 3117.81162 0.00034
5.58000 2877.00000 3092.31648 0.00035
5.59000 2852.00000 3068.45695 0.00035
5.60000 2889.00000 3046.06594 0.00035
5.61000 2933.00000 3024.99653 0.00034
5.62000 2813.00000 3005.11828 0.00036
5.63000 2842.00000 2986.31481 0.00035
5.64000 2966.00000 2968.48274 0.00034
5.65000 2789.00000 2951.52891 0.00036
5.66000 2771.00000 2935.36918 0.00036
5.67000 2795.00000 2919.92787 0.00036
5.68000 2708.00000 2905.13543 0.00037
5.69000 2825.00000 2890.92837 0.00035
5.70000 2731.00000 2877.24852 0.00037
5.71000 2709.00000 2864.04246 0.00037
5.72000 2800.00000 2851.26125 0.00036
5.73000 2696.00000 2838.85874 0.00037
5.74000 2723.00000 2826.79182 0.00037
5.75000 2671.00000 2815.01808 0.00037
5.76000 2638.00000 2803.49677 0.00038
5.77000 2715.00000 2792.18647 0.00037
5.78000 2741.00000 2781.04553 0.00036
5.79000 2604.00000 2770.02949 0.00038
5.80000 2697.00000 2759.09062 0.00037
5.81000 2731.00000 2748.17460 0.00037
5.82000 2701.00000 2737.21790 0.00037
5.83000 2797.00000 2726.14103 0.00036
5.84000 2652.00000 2714.83939 0.00038
5.85000 2702.00000 2703.16568 0.00037
5.86000 2753.00000 2690.89492 0.00036
5.87000 2710.00000 2677.62019 0.00037
5.88000 2718.00000 2662.41872 0.00037
5.89000 2784.00000 2641.72703 0.00036
5.90000 2733.00000 2617.98840 0.00037
5.91000 2725.00000 2614.11984 0.00037
5.92000 2781.00000 2610.40213 0.00036
5.93000 2733.00000 2608.18802 0.00037
5.94000 2796.00000 2605.97163 0.00036
5.95000 2709.00000 2603.75313 0.00037
5.96000 2688.00000 2601.53270 0.00037
5.97000 2603.00000 2599.31050 0.00038
5.98000 2687.00000 2597.08669 0.00037
5.99000 2579.00000 2594.86144 0.00039
6.00000 2559.00000 2592.63491 0.00039
6.01000 2576.00000 2590.40727 0.00039
6.02000 2617.00000 2588.17868 0.00038
6.03000 2660.00000 2585.94930 0.00038
6.04000 2550.00000 2583.71928 0.00039
6.05000 2624.00000 2581.48878 0.00038
6.06000 2592.00000 2579.25797 0.00039
6.07000 2549.00000 2577.02699 0.00039
6.08000 2537.00000 2574.79601 0.00039
6.09000 2608.00000 2572.56517 0.00038
6.10000 2621.00000 2570.33463 0.00038
6.11000 2524.00000 2568.10454 0.00040
6.12000 2468.00000 2565.87504 0.00041
6.13000 2567.00000 2563.64630 0.00039
6.14000 2511.00000 2561.41845 0.00040
6.15000 2553.00000 2559.19164 0.00039
6.16000 2537.00000 2556.96602 0.00039
6.17000 2534.00000 2554.74173 0.00039
6.18000 2569.00000 2552.51891 0.00039
6.19000 2519.00000 2550.29771 0.00040
6.20000 2520.00000 2548.07826 0.00040
6.21000 2484.00000 2545.86072 0.00040
6.22000 2645.00000 2543.64520 0.00038
6.23000 2563.00000 2541.43186 0.00039
6.24000 2464.00000 2539.22082 0.00041
6.25000 2501.00000 2537.01223 0.00040
6.26000 2517.00000 2534.80621 0.00040
6.27000 2589.00000 2532.60289 0.00039
6.28000 2503.00000 2530.40241 0.00040
6.29000 2509.00000 2528.20490 0.00040
6.30000 2500.00000 2526.01049 0.00040
6.31000 2489.00000 2523.81929 0.00040
6.32000 2533.00000 2521.63145 0.00039
6.33000 2506.00000 2519.44707 0.00040
6.34000 2531.00000 2517.26629 0.00040
6.35000 2540.00000 2515.08923 0.00039
6.36000 2499.00000 2512.91601 0.00040
6.37000 2493.00000 2510.74675 0.00040
6.38000 2485.00000 2508.58156 0.00040
6.39000 2434.00000 2506.42057 0.00041
6.40000 2429.00000 2504.26389 0.00041
6.41000 2570.00000 2502.11163 0.00039
6.42000 2426.00000 2499.96391 0.00041
6.43000 2371.00000 2497.82084 0.00042
6.44000 2444.00000 2495.68253 0.00041
6.45000 2493.00000 2493.54909 0.00040
6.46000 2541.00000 2491.42063 0.00039
6.47000 2462.00000 2489.29725 0.00041
6.48000 2487.00000 2487.17906 0.00040
6.49000 2487.00000 2485.06617 0.00040
6.50000 2467.00000 2482.95868 0.00041
6.51000 2430.00000 2480.85669 0.00041
6.52000 2428.00000 2478.76030 0.00041
6.53000 2454.00000 2476.66961 0.00041
6.54000 2547.00000 2474.58472 0.00039
6.55000 2529.00000 2472.50573 0.00040
6.56000 2442.00000 2470.43273 0.00041
6.57000 2476.00000 2468.36581 0.00040
6.58000 2488.00000 2466.30507 0.00040
6.59000 2491.00000 2464.25061 0.00040
6.60000 2552.00000 2462.20250 0.00039
6.61000 2464.00000 2460.16085 0.00041
6.62000 2560.00000 2458.12573 0.00039
6.63000 2561.00000 2456.09724 0.00039
6.64000 2478.00000 2454.07547 0.00040
6.65000 2486.00000 2452.06049 0.00040
6.66000 2486.00000 2450.05238 0.00040
6.67000 2582.00000 2448.05124 0.00039
6.68000 2470.00000 2446.05714 0.00040
6.69000 2518.00000 2444.07016 0.00040
6.70000 2488.00000 2442.09038 0.00040
6.71000 2523.00000 2440.11787 0.00040
6.72000 2549.00000 2438.15272 0.00039
6.73000 2457.00000 2436.19499 0.00041
6.74000 2575.00000 2434.24476 0.00039
6.75000 2550.00000 2432.30211 0.00039
6.76000 2508.00000 2430.36709 0.00040
6.77000 2488.00000 2428.43978 0.00040
6.78000 2519.00000 2426.52026 0.00040
6.79000 2530.00000 2424.60858 0.00040
6.80000 2568.00000 2422.70481 0.00039
6.81000 2523.00000 2420.80902 0.00040
6.82000 2493.00000 2418.92127 0.00040
6.83000 2541.00000 2417.04162 0.00039
6.84000 2453.00000 2415.17014 0.00041
6.85000 2433.00000 2413.30688 0.00041
6.86000 2417.00000 2411.45190 0.00041
6.87000 2468.00000 2409.60526 0.00041
6.88000 2502.00000 2407.76702 0.00040
6.89000 2428.00000 2405.93722 0.00041
6.90000 2448.00000 2404.11594 0.00041
6.91000 2269.00000 2402.30320 0.00044
6.92000 2408.00000 2400.49908 0.00042
6.93000 2397.00000 2398.70362 0.00042
6.94000 2424.00000 2396.91686 0.00041
6.95000 2449.00000 2395.13887 0.00041
6.96000 2428.00000 2393.36967 0.00041
6.97000 2386.00000 2391.60933 0.00042
6.98000 2410.00000 2389.85787 0.00041
6.99000 2357.00000 2388.11536 0.00042
7.00000 2351.00000 2386.38182 0.00043
7.01000 2362.00000 2384.65731 0.00042
7.02000 2411.00000 2382.94185 0.00041
7.03000 2420.00000 2381.23550 0.00041
7.04000 2358.00000 2379.53828 0.00042
7.05000 2431.00000 2377.85023 0.00041
7.06000 2412.00000 2376.17140 0.00041
7.07000 2372.00000 2374.50181 0.00042
7.08000 2324.00000 2372.84149 0.00043
7.09000 2330.00000 2371.19049 0.00043
7.10000 2352.00000 2369.54883 0.00043
7.11000 2337.00000 2367.91653 0.00043
7.12000 2331.00000 2366.29364 0.00043
7.13000 2417.00000 2364.68017 0.00041
7.14000 2367.00000 2363.07616 0.00042
7.15000 2353.00000 2361.48163 0.00042
7.16000 2386.00000 2359.89661 0.00042
7.17000 2434.00000 2358.32111 0.00041
7.18000 2419.00000 2356.75517 0.00041
7.19000 2394.00000 2355.19880 0.00042
7.20000 2335.00000 2353.65202 0.00043
7.21000 2395.00000 2352.11486 0.00042
7.22000 2332.00000 2350.58732 0.00043
7.23000 2310.00000 2349.06944 0.00043
7.24000 2365.00000 2347.56122 0.00042
7.25000 2374.00000 2346.06269 0.00042
7.25999 2347.00000 2344.57533 0.00043
7.27000 2316.00000 2343.09472 0.00043
7.27999 2314.00000 2341.62677 0.00043
7.29000 2355.00000 2340.16563 0.00042
7.29999 2340.00000 2338.71715 0.00043
7.31000 2358.00000 2337.27552 0.00042
7.31999 2296.00000 2335.84653 0.00044
7.33000 2417.00000 2334.42446 0.00041
7.33999 2261.00000 2333.01500 0.00044
7.35000 2363.00000 2331.61250 0.00042
7.35999 2428.00000 2330.22259 0.00041
7.37000 2323.00000 2328.83969 0.00043
7.37999 2346.00000 2327.46934 0.00043
7.39000 2299.00000 2326.10605 0.00043
7.39999 2272.00000 2324.75528 0.00044
7.41000 2254.00000 2323.41160 0.00044
7.41999 2312.00000 2322.08040 0.00043
7.43000 2393.00000 2320.75634 0.00042
7.43999 2350.00000 2319.44470 0.00043
7.45000 2385.00000 2318.14024 0.00042
7.45999 2346.00000 2316.84816 0.00043
7.47000 2427.00000 2315.56328 0.00041
7.47999 2378.00000 2314.29073 0.00042
7.49000 2347.00000 2313.02542 0.00043
7.49999 2409.00000 2311.77238 0.00042
7.50999 2328.00000 2310.52783 0.00043
7.51999 2254.00000 2309.29302 0.00044
7.52999 2300.00000 2308.06794 0.00043
7.53999 2301.00000 2306.85259 0.00043
7.54999 2323.00000 2305.64694 0.00043
7.55999 2301.00000 2304.45099 0.00043
7.56999 2291.00000 2303.26472 0.00044
7.57999 2347.00000 2302.08811 0.00043
7.58999 2313.00000 2300.92117 0.00043
7.59999 2316.00000 2299.76385 0.00043
7.60999 2291.00000 2298.61616 0.00044
7.61999 2338.00000 2297.47808 0.00043
7.62999 2311.00000 2296.34957 0.00043
7.63999 2249.00000 2295.23064 0.00044
7.64999 2403.00000 2294.12125 0.00042
7.65999 2235.00000 2293.02139 0.00045
7.66999 2264.00000 2291.93103 0.00044
7.67999 2351.00000 2290.85016 0.00043
7.68999 2307.00000 2289.77875 0.00043
7.69999 2338.00000 2288.71677 0.00043
7.70999 2294.00000 2287.66421 0.00044
7.71999 2310.00000 2286.62104 0.00043
7.72999 2357.00000 2285.58723 0.00042
7.73999 2251.00000 2284.56277 0.00044
7.74999 2301.00000 2283.54761 0.00043
7.75999 2329.00000 2282.54173 0.00043
7.76999 2303.00000 2281.54512 0.00043
7.77999 2340.00000 2280.55773 0.00043
7.78999 2305.00000 2279.57953 0.00043
7.79999 2288.00000 2278.61051 0.00044
7.80999 2320.00000 2277.65062 0.00043
7.81999 2260.00000 2276.69984 0.00044
7.82999 2346.00000 2275.75813 0.00043
7.83999 2265.00000 2274.82547 0.00044
7.84999 2186.00000 2273.90181 0.00046
7.85999 2313.00000 2272.98713 0.00043
7.86999 2305.00000 2272.08139 0.00043
7.87999 2314.00000 2271.18456 0.00043
7.88999 2309.00000 2270.29659 0.00043
7.89999 2293.00000 2269.41746 0.00044
7.90999 2329.00000 2268.54713 0.00043
7.91999 2238.00000 2267.68556 0.00045
7.92999 2287.00000 2266.83271 0.00044
7.93999 2286.00000 2265.98854 0.00044
7.94999 2339.00000 2265.15302 0.00043
7.95999 2318.00000 2264.32611 0.00043
7.96999 2320.00000 2263.50777 0.00043
7.97999 2385.00000 2262.69795 0.00042
7.98999 2303.00000 2261.89662 0.00043
7.99999 2275.00000 2261.10373 0.00044
8.00999 2321.00000 2260.31924 0.00043
8.01999 2286.00000 2259.54311 0.00044
8.02999 2251.00000 2258.77530 0.00044
8.03999 2297.00000 2258.01577 0.00044
8.04999 2408.00000 2257.26446 0.00042
8.05999 2345.00000 2256.52134 0.00043
8.06999 2330.00000 2255.78636 0.00043
8.07999 2244.00000 2255.05948 0.00045
8.08999 2326.00000 2254.34065 0.00043
8.09999 2278.00000 2253.62982 0.00044
8.10999 2292.00000 2252.92695 0.00044
8.11999 2328.00000 2252.23199 0.00043
8.12999 2309.00000 2251.54489 0.00043
8.13999 2296.00000 2250.86561 0.00044
8.14999 2322.00000 2250.19410 0.00043
8.15999 2312.00000 2249.53031 0.00043
8.16999 2309.00000 2248.87418 0.00043
8.17999 2300.00000 2248.22568 0.00043
8.18999 2258.00000 2247.58475 0.00044
8.19999 2257.00000 2246.95135 0.00044
8.20999 2334.00000 2246.32541 0.00043
8.21999 2336.00000 2245.70689 0.00043
8.22999 2329.00000 2245.09575 0.00043
8.23999 2319.00000 2244.49192 0.00043
8.24999 2314.00000 2243.89536 0.00043
8.25999 2279.00000 2243.30601 0.00044
8.26999 2244.00000 2242.72382 0.00045
8.27999 2250.00000 2242.14875 0.00044
8.28999 2340.00000 2241.58073 0.00043
8.29999 2236.00000 2241.01971 0.00045
8.30999 2191.00000 2240.46564 0.00046
8.31999 2205.00000 2239.91847 0.00045
8.32999 2287.00000 2239.37814 0.00044
8.33999 2195.00000 2238.84459 0.00046
8.34999 2234.00000 2238.31778 0.00045
8.35999 2359.00000 2237.79765 0.00042
8.36999 2205.00000 2237.28413 0.00045
8.37999 2217.00000 2236.77718 0.00045
8.38999 2271.00000 2236.27675 0.00044
8.39999 2374.00000 2235.78277 0.00042
8.40999 2213.00000 2235.29518 0.00045
8.41999 2155.00000 2234.81394 0.00046
8.42999 2170.00000 2234.33899 0.00046
8.43999 2249.00000 2233.87026 0.00044
8.44999 2278.00000 2233.40771 0.00044
8.45999 2251.00000 2232.95127 0.00044
8.46999 2195.00000 2232.50088 0.00046
8.47999 2159.00000 2232.05650 0.00046
8.48999 2266.00000 2231.61805 0.00044
8.49999 2239.00000 2231.18549 0.00045
8.50999 2192.00000 2230.75876 0.00046
8.51999 2144.00000 2230.33779 0.00047
8.52999 2279.00000 2229.92253 0.00044
8.53999 2191.00000 2229.51292 0.00046
8.54999 2286.00000 2229.10891 0.00044
8.55999 2300.00000 2228.71042 0.00043
8.56999 2243.00000 2228.31741 0.00045
8.57999 2183.00000 2227.92981 0.00046
8.58999 2157.00000 2227.54756 0.00046
8.59999 2176.00000 2227.17062 0.00046
8.60999 2252.00000 2226.79890 0.00044
8.61999 2216.00000 2226.43237 0.00045
8.62999 2238.00000 2226.07094 0.00045
8.63999 2222.00000 2225.71458 0.00045
8.64999 2324.00000 2225.36321 0.00043
8.65999 2285.00000 2225.01678 0.00044
8.66999 2230.00000 2224.67523 0.00045
8.67999 2227.00000 2224.33849 0.00045
8.68999 2168.00000 2224.00651 0.00046
8.69999 2237.00000 2223.67922 0.00045
8.70999 2175.00000 2223.35657 0.00046
8.71999 2221.00000 2223.03851 0.00045
8.72999 2208.00000 2222.72497 0.00045
8.73999 2268.00000 2222.41590 0.00044
8.74999 2213.00000 2222.11125 0.00045
8.75999 2189.00000 2221.81095 0.00046
8.76999 2307.00000 2221.51497 0.00043
8.77999 2232.00000 2221.22323 0.00045
8.78999 2233.00000 2220.93569 0.00045
8.79999 2236.00000 2220.65230 0.00045
8.80999 2266.00000 2220.37300 0.00044
8.81999 2203.00000 2220.09773 0.00045
8.82999 2220.00000 2219.82644 0.00045
8.83999 2267.00000 2219.55909 0.00044
8.84999 2230.00000 2219.29562 0.00045
8.85999 2291.00000 2219.03598 0.00044
8.86999 2212.00000 2218.78012 0.00045
8.87999 2238.00000 2218.52799 0.00045
8.88999 2200.00000 2218.27953 0.00045
8.89999 2181.00000 2218.03471 0.00046
8.90999 2228.00000 2217.79347 0.00045
8.91999 2215.00000 2217.55577 0.00045
8.92999 2247.00000 2217.32155 0.00045
8.93999 2197.00000 2217.09079 0.00046
8.94999 2176.00000 2216.86341 0.00046
8.95999 2187.00000 2216.63940 0.00046
8.96999 2123.00000 2216.41870 0.00047
8.97999 2206.00000 2216.20127 0.00045
8.98999 2207.00000 2215.98707 0.00045
8.99999 2173.00000 2215.77607 0.00046
9.00999 2266.00000 2215.56822 0.00044
9.01999 2252.00000 2215.36348 0.00044
9.02999 2277.00000 2215.16183 0.00044
9.03999 2218.00000 2214.96323 0.00045
9.04999 2276.00000 2214.76765 0.00044
9.05999 2238.00000 2214.57506 0.00045
9.06999 2244.00000 2214.38543 0.00045
9.07999 2188.00000 2214.19873 0.00046
9.08999 2188.00000 2214.01495 0.00046
9.09999 2197.00000 2213.83405 0.00046
9.10999 2161.00000 2213.65603 0.00046
9.11999 2146.00000 2213.48086 0.00047
9.12999 2181.00000 2213.30854 0.00046
9.13999 2243.00000 2213.13904 0.00045
9.14999 2215.00000 2212.97238 0.00045
9.15999 2233.00000 2212.80853 0.00045
9.16999 2175.00000 2212.64751 0.00046
9.17999 2241.00000 2212.48932 0.00045
9.18999 2197.00000 2212.33397 0.00046
9.19999 2083.00000 2212.18147 0.00048
9.20999 2177.00000 2212.03185 0.00046
9.21999 2263.00000 2211.88512 0.00044
9.22999 2191.00000 2211.74133 0.00046
9.23999 2263.00000 2211.60051 0.00044
9.24999 2176.00000 2211.46270 0.00046
9.25999 2176.00000 2211.32797 0.00046
9.26999 2213.00000 2211.19637 0.00045
9.27999 2327.00000 2211.06798 0.00043
9.28999 2316.00000 2210.94288 0.00043
9.29999 2183.00000 2210.82118 0.00046
9.30999 2209.00000 2210.70298 0.00045
9.31999 2243.00000 2210.58840 0.00045
9.32999 2246.00000 2210.47759 0.00045
9.33999 2217.00000 2210.37072 0.00045
9.34999 2161.00000 2210.26795 0.00046
9.35999 2264.00000 2210.16949 0.00044
9.36999 2289.00000 2210.07559 0.00044
9.37999 2229.00000 2209.98651 0.00045
9.38999 2308.00000 2209.90259 0.00043
9.39999 2217.00000 2209.82421 0.00045
9.40999 2259.00000 2209.75177 0.00044
9.41999 2299.00000 2209.68577 0.00043
9.42999 2254.00000 2209.62678 0.00044
9.43999 2278.00000 2209.57550 0.00044
9.44999 2342.00000 2209.53280 0.00043
9.45999 2322.00000 2209.49974 0.00043
9.46999 2251.00000 2209.47768 0.00044
9.47999 2217.00000 2209.46834 0.00045
9.48999 2298.00000 2209.47391 0.00044
9.49999 2234.00000 2209.49715 0.00045
9.50999 2262.00000 2209.54150 0.00044
9.51999 2269.00000 2209.61113 0.00044
9.52999 2195.00000 2209.71113 0.00046
9.53999 2143.00000 2209.84785 0.00047
9.54999 2295.00000 2210.02933 0.00044
9.55999 2213.00000 2210.26610 0.00045
9.56999 2297.00000 2210.57305 0.00044
9.57999 2251.00000 2210.97553 0.00044
9.58999 2186.00000 2211.54439 0.00046
9.59999 2248.00000 2212.31306 0.00044
9.60999 2291.00000 2212.93542 0.00044
9.61999 2204.00000 2213.34616 0.00045
9.62999 2140.00000 2213.80452 0.00047
9.63999 2226.00000 2214.33550 0.00045
9.64999 2214.00000 2214.94372 0.00045
9.65999 2284.00000 2215.63360 0.00044
9.66999 2238.00000 2216.40935 0.00045
9.67999 2201.00000 2217.27511 0.00045
9.68999 2190.00000 2218.23493 0.00046
9.69999 2255.00000 2219.29288 0.00044
9.70999 2215.00000 2220.45308 0.00045
9.71999 2212.00000 2221.71976 0.00045
9.72999 2171.00000 2223.09727 0.00046
9.73999 2196.00000 2224.59015 0.00046
9.74999 2215.00000 2226.20313 0.00045
9.75999 2230.00000 2227.94118 0.00045
9.76999 2289.00000 2229.80952 0.00044
9.77999 2287.00000 2231.81360 0.00044
9.78999 2246.00000 2233.95921 0.00045
9.79999 2170.00000 2236.25242 0.00046
9.80999 2218.00000 2238.69966 0.00045
9.81999 2215.00000 2241.30768 0.00045
9.82999 2214.00000 2244.08367 0.00045
9.83999 2285.00000 2247.03518 0.00044
9.84999 2317.00000 2250.17025 0.00043
9.85999 2200.00000 2253.49740 0.00045
9.86999 2194.00000 2257.02565 0.00046
9.87999 2214.00000 2260.76460 0.00045
9.88999 2182.00000 2264.72445 0.00046
9.89999 2197.00000 2268.91608 0.00046
9.90999 2204.00000 2273.35107 0.00045
9.91999 2212.00000 2278.04177 0.00045
9.92999 2233.00000 2283.00139 0.00045
9.93999 2243.00000 2288.24405 0.00045
9.94999 2234.00000 2293.78486 0.00045
9.95999 2162.00000 2299.64004 0.00046
9.96999 2260.00000 2305.82698 0.00044
9.97999 2300.00000 2312.36441 0.00043
9.98999 2328.00000 2319.27248 0.00043
9.99999 2329.00000 2326.57290 0.00043
10.00999 2246.00000 2334.28914 0.00045
10.01999 2289.00000 2342.44661 0.00044
10.02999 2322.00000 2351.07284 0.00043
10.03999 2343.00000 2360.19773 0.00043
10.04999 2401.00000 2369.85384 0.00042
10.05999 2346.00000 2380.07670 0.00043
10.06999 2307.00000 2390.90517 0.00043
10.07999 2305.00000 2402.38186 0.00043
10.08999 2402.00000 2414.55368 0.00042
10.09999 2370.00000 2427.47238 0.00042
10.10999 2371.00000 2441.19534 0.00042
10.11999 2369.00000 2455.78636 0.00042
10.12999 2515.00000 2471.31678 0.00040
10.13999 2393.00000 2487.86664 0.00042
10.14999 2446.00000 2505.52618 0.00041
10.15999 2499.00000 2524.39764 0.00040
10.16999 2488.00000 2544.59732 0.00040
10.17999 2449.00000 2566.25813 0.00041
10.18999 2647.00000 2589.53262 0.00038
10.19999 2526.00000 2614.59671 0.00040
10.20999 2603.00000 2641.65436 0.00038
10.21999 2504.00000 2670.94341 0.00040
10.22999 2573.00000 2702.74306 0.00039
10.23999 2555.00000 2737.38348 0.00039
10.24999 2625.00000 2775.25791 0.00038
10.25999 2699.00000 2816.83755 0.00037
10.26999 2784.00000 2862.68879 0.00036
10.27999 2857.00000 2913.49124 0.00035
10.28999 2785.00000 2970.05266 0.00036
10.29999 2932.00000 3033.31418 0.00034
10.30999 3009.00000 3104.33568 0.00033
10.31999 3164.00000 3184.24743 0.00032
10.32999 3235.00000 3274.15242 0.00031
10.33999 3255.00000 3374.96490 0.00031
10.34999 3459.00000 3487.17703 0.00029
10.35999 3472.00000 3610.55908 0.00029
10.36999 3629.00000 3743.81800 0.00028
10.37999 3863.00000 3884.26237 0.00026
10.38999 3965.00000 4027.54172 0.00025
10.39999 4099.00000 4167.53838 0.00024
10.40999 4288.00000 4296.48303 0.00023
10.41999 4324.00000 4405.34128 0.00023
10.42999 4466.00000 4484.48666 0.00022
10.43999 4548.00000 4524.65288 0.00022
10.44999 4551.00000 4518.14965 0.00022
10.45999 4560.00000 4460.28631 0.00022
10.46999 4328.00000 4350.77420 0.00023
10.47999 4303.00000 4194.57921 0.00023
10.48999 4058.00000 4001.59279 0.00025
10.49999 3738.00000 3784.97070 0.00027
10.50999 3475.00000 3558.78627 0.00029
10.51999 3295.00000 3335.94286 0.00030
10.52999 3049.00000 3126.86579 0.00033
10.53999 2876.00000 2938.94584 0.00035
10.54999 2768.00000 2776.50130 0.00036
10.55999 2579.00000 2641.07193 0.00039
10.56999 2390.00000 2531.92947 0.00042
10.57999 2381.00000 2446.70907 0.00042
10.58999 2326.00000 2382.06472 0.00043
10.59999 2251.00000 2334.26027 0.00044
10.60999 2229.00000 2299.63363 0.00045
10.61999 2210.00000 2274.90727 0.00045
10.62999 2290.00000 2257.35011 0.00044
10.63999 2246.00000 2244.81924 0.00045
10.64999 2223.00000 2235.71903 0.00045
10.65999 2111.00000 2228.91525 0.00047
10.66999 2158.00000 2223.63395 0.00046
10.67999 2199.00000 2219.36515 0.00045
10.68999 2216.00000 2215.78203 0.00045
10.69999 2141.00000 2212.67884 0.00047
10.70999 2188.00000 2209.92669 0.00046
10.71999 2202.00000 2207.44386 0.00045
10.72999 2174.00000 2205.17690 0.00046
10.73999 2226.00000 2203.08912 0.00045
10.74999 2168.00000 2201.15388 0.00046
10.75999 2162.00000 2199.35072 0.00046
10.76999 2174.00000 2197.66319 0.00046
10.77999 2149.00000 2196.07766 0.00047
10.78999 2193.00000 2194.58253 0.00046
10.79999 2082.00000 2193.16786 0.00048
10.80999 2111.00000 2191.82498 0.00047
10.81999 2102.00000 2190.54635 0.00048
10.82999 2137.00000 2189.32533 0.00047
10.83999 2131.00000 2188.15607 0.00047
10.84999 2093.00000 2187.03341 0.00048
10.85999 2131.00000 2185.95277 0.00047
10.86999 2200.00000 2184.91008 0.00045
10.87999 2105.00000 2183.90170 0.00048
10.88999 2088.00000 2182.92439 0.00048
10.89999 1990.00000 2181.97523 0.00050
10.90999 2129.00000 2181.05160 0.00047
10.91999 2175.00000 2180.15114 0.00046
10.92999 2116.00000 2179.27173 0.00047
10.93999 2116.00000 2178.41143 0.00047
10.94999 2110.00000 2177.56849 0.00047
10.95999 2210.00000 2176.74133 0.00045
10.96999 2096.00000 2175.92848 0.00048
10.97999 2079.00000 2175.12863 0.00048
10.98999 2273.00000 2174.34056 0.00044
10.99999 2168.00000 2173.56315 0.00046
11.00999 2108.00000 2172.79538 0.00047
11.01999 2159.00000 2172.03631 0.00046
11.02999 2112.00000 2171.28505 0.00047
11.03999 2173.00000 2170.54079 0.00046
11.04999 2143.00000 2169.80278 0.00047
11.05999 2105.00000 2169.07031 0.00048
11.06999 2168.00000 2168.34271 0.00046
11.07999 2124.00000 2167.61937 0.00047
11.08999 2142.00000 2166.89970 0.00047
11.09999 2126.00000 2166.18313 0.00047
11.10999 2073.00000 2165.46912 0.00048
11.11999 2210.00000 2164.75717 0.00045
11.12999 2158.00000 2164.04675 0.00046
11.13999 2198.00000 2163.33734 0.00045
11.14999 2113.00000 2162.62844 0.00047
11.15999 2202.00000 2161.91955 0.00045
11.16999 2169.00000 2161.21018 0.00046
11.17999 2101.00000 2160.49980 0.00048
11.18999 2116.00000 2159.78789 0.00047
11.19999 2126.00000 2159.07387 0.00047
11.20999 2052.00000 2158.35712 0.00049
11.21999 2087.00000 2157.63695 0.00048
11.22999 2033.00000 2156.91258 0.00049
11.23999 2073.00000 2156.18312 0.00048
11.24999 2120.00000 2155.44749 0.00047
11.25999 2139.00000 2154.70446 0.00047
11.26999 2120.00000 2153.95265 0.00047
11.27999 2139.00000 2153.19039 0.00047
11.28999 2133.00000 2152.41543 0.00047
11.29999 2128.00000 2151.62454 0.00047
11.30999 2093.00000 2150.81276 0.00048
11.31999 2064.00000 2149.97151 0.00048
11.32999 2168.00000 2149.08278 0.00046
11.33999 2093.00000 2148.08502 0.00048
11.34999 2173.00000 2146.95622 0.00046
11.35999 2163.00000 2146.06800 0.00046
11.36999 2093.00000 2145.41509 0.00048
11.37999 2142.00000 2144.80148 0.00047
11.38999 2064.00000 2144.18500 0.00048
11.39999 2038.00000 2143.56567 0.00049
11.40999 2143.00000 2142.94350 0.00047
11.41999 2077.00000 2142.31851 0.00048
11.42999 2141.00000 2141.69073 0.00047
11.43999 2123.00000 2141.06018 0.00047
11.44999 2048.00000 2140.42686 0.00049
11.45999 2173.00000 2139.79081 0.00046
11.46999 2154.00000 2139.15205 0.00046
11.47999 2088.00000 2138.51058 0.00048
11.48999 2118.00000 2137.86645 0.00047
11.49999 2111.00000 2137.21966 0.00047
11.50999 2189.00000 2136.57024 0.00046
11.51999 2156.00000 2135.91821 0.00046
11.52999 2147.00000 2135.26359 0.00047
11.53999 2137.00000 2134.60641 0.00047
11.54999 2038.00000 2133.94668 0.00049
11.55999 2160.00000 2133.28444 0.00046
11.56999 2065.00000 2132.61970 0.00048
11.57999 2100.00000 2131.95249 0.00048
11.58999 2158.00000 2131.28282 0.00046
11.59999 2042.00000 2130.61074 0.00049
11.60999 2119.00000 2129.93625 0.00047
11.61999 2075.00000 2129.25938 0.00048
11.62999 2094.00000 2128.58017 0.00048
11.63999 2115.00000 2127.89862 0.00047
11.64999 2122.00000 2127.21478 0.00047
11.65999 2084.00000 2126.52866 0.00048
11.66999 2062.00000 2125.84028 0.00048
11.67999 2144.00000 2125.14969 0.00047
11.68999 2074.00000 2124.45689 0.00048
11.69999 2069.00000 2123.76193 0.00048
11.70999 2088.00000 2123.06481 0.00048
11.71999 2094.00000 2122.36558 0.00048
11.72999 2082.00000 2121.66426 0.00048
11.73999 2122.00000 2120.96088 0.00047
11.74999 2089.00000 2120.25545 0.00048
11.75999 2087.00000 2119.54802 0.00048
11.76999 2060.00000 2118.83861 0.00049
11.77999 2055.00000 2118.12725 0.00049
11.78999 2038.00000 2117.41396 0.00049
11.79999 2140.00000 2116.69878 0.00047
11.80999 2110.00000 2115.98173 0.00047
11.81999 2138.00000 2115.26284 0.00047
11.82999 2176.00000 2114.54214 0.00046
11.83999 2155.00000 2113.81967 0.00046
11.84999 2029.00000 2113.09545 0.00049
11.85999 1989.00000 2112.36951 0.00050
11.86999 2096.00000 2111.64188 0.00048
11.87999 2015.00000 2110.91259 0.00050
11.88999 2062.00000 2110.18167 0.00048
11.89999 2086.00000 2109.44915 0.00048
11.90999 2009.00000 2108.71507 0.00050
11.91999 2078.00000 2107.97945 0.00048
11.92999 2044.00000 2107.24233 0.00049
11.93999 2014.00000 2106.50374 0.00050
11.94999 2111.00000 2105.76370 0.00047
11.95999 2098.00000 2105.02225 0.00048
11.96999 2129.00000 2104.27943 0.00047
11.97999 2068.00000 2103.53526 0.00048
11.98999 2138.00000 2102.78978 0.00047
11.99999 2136.00000 2102.04302 0.00047
12.00999 2190.00000 2101.29501 0.00046
12.01999 2101.00000 2100.54578 0.00048
12.02999 2080.00000 2099.79537 0.00048
12.03999 2158.00000 2099.04382 0.00046
12.04999 2090.00000 2098.29114 0.00048
12.05999 2108.00000 2097.53739 0.00047
12.06999 1986.00000 2096.78259 0.00050
12.07999 2116.00000 2096.02677 0.00047
12.08999 2099.00000 2095.26997 0.00048
12.09999 2079.00000 2094.51222 0.00048
12.10999 2069.00000 2093.75356 0.00048
12.11999 2003.00000 2092.99402 0.00050
12.12999 2043.00000 2092.23364 0.00049
12.13999 2167.00000 2091.47245 0.00046
12.14999 2153.00000 2090.71049 0.00046
12.15999 2101.00000 2089.94778 0.00048
12.16999 2068.00000 2089.18437 0.00048
12.17999 2009.00000 2088.42029 0.00050
12.18999 1966.00000 2087.65558 0.00051
12.19999 2079.00000 2086.89027 0.00048
12.20999 2017.00000 2086.12440 0.00050
12.21999 2111.00000 2085.35799 0.00047
12.22999 2054.00000 2084.59110 0.00049
12.23999 2123.00000 2083.82375 0.00047
12.24999 1983.00000 2083.05598 0.00050
12.25999 2058.00000 2082.28783 0.00049
12.26999 2078.00000 2081.51933 0.00048
12.27999 2054.00000 2080.75052 0.00049
12.28999 2058.00000 2079.98144 0.00049
12.29999 2056.00000 2079.21211 0.00049
12.30999 2040.00000 2078.44259 0.00049
12.31999 2017.00000 2077.67290 0.00050
12.32999 2055.00000 2076.90308 0.00049
12.33999 2106.00000 2076.13317 0.00047
12.34999 2109.00000 2075.36321 0.00047
12.35999 2074.00000 2074.59323 0.00048
12.36999 2066.00000 2073.82328 0.00048
12.37999 2065.00000 2073.05338 0.00048
12.38999 2051.00000 2072.28357 0.00049
12.39999 2121.00000 2071.51390 0.00047
12.40999 2120.00000 2070.74440 0.00047
12.41999 2080.00000 2069.97511 0.00048
12.42999 2037.00000 2069.20606 0.00049
12.43999 2030.00000 2068.43730 0.00049
12.44999 2042.00000 2067.66885 0.00049
12.45999 2080.00000 2066.90077 0.00048
12.46999 2035.00000 2066.13308 0.00049
12.47999 2114.00000 2065.36583 0.00047
12.48999 2013.00000 2064.59905 0.00050
12.49999 2076.00000 2063.83278 0.00048
12.50999 2084.00000 2063.06706 0.00048
12.51999 2082.00000 2062.30193 0.00048
12.52999 2151.00000 2061.53743 0.00046
12.53999 2036.00000 2060.77359 0.00049
12.54999 2021.00000 2060.01045 0.00049
12.55999 2047.00000 2059.24806 0.00049
12.56999 2036.00000 2058.48644 0.00049
12.57999 2070.00000 2057.72564 0.00048
12.58999 2081.00000 2056.96570 0.00048
12.59999 1965.00000 2056.20666 0.00051
12.60999 2036.00000 2055.44854 0.00049
12.61999 2118.00000 2054.69141 0.00047
12.62999 2076.00000 2053.93528 0.00048
12.63999 2110.00000 2053.18020 0.00047
12.64999 2133.00000 2052.42621 0.00047
12.65999 2003.00000 2051.67335 0.00050
12.66999 1975.00000 2050.92166 0.00051
12.67999 2084.00000 2050.17117 0.00048
12.68999 2101.00000 2049.42193 0.00048
12.69999 2141.00000 2048.67397 0.00047
12.70999 2002.00000 2047.92733 0.00050
12.71999 2088.00000 2047.18205 0.00048
12.72999 1980.00000 2046.43817 0.00051
12.73999 1988.00000 2045.69573 0.00050
12.74999 2021.00000 2044.95476 0.00049
12.75999 2088.00000 2044.21532 0.00048
12.76999 2094.00000 2043.47743 0.00048
12.77999 2015.00000 2042.74113 0.00050
12.78999 2025.00000 2042.00647 0.00049
12.79999 2030.00000 2041.27347 0.00049
12.80999 2042.00000 2040.54219 0.00049
12.81999 2060.00000 2039.81266 0.00049
12.82999 2097.00000 2039.08491 0.00048
12.83999 2029.00000 2038.35900 0.00049
12.84999 2026.00000 2037.63495 0.00049
12.85999 2063.00000 2036.91280 0.00048
12.86999 2103.00000 2036.19260 0.00048
12.87999 2092.00000 2035.47438 0.00048
12.88999 2119.00000 2034.75818 0.00047
12.89999 2070.00000 2034.04404 0.00048
12.90999 1949.00000 2033.33200 0.00051
12.91999 2044.00000 2032.62210 0.00049
12.92999 1992.00000 2031.91438 0.00050
12.93999 2089.00000 2031.20886 0.00048
12.94999 2068.00000 2030.50560 0.00048
12.95999 2029.00000 2029.80463 0.00049
12.96999 2045.00000 2029.10600 0.00049
12.97999 2085.00000 2028.40973 0.00048
12.98999 2084.00000 2027.71586 0.00048
12.99999 2042.00000 2027.02444 0.00049
13.00999 2064.00000 2026.33551 0.00048
13.01999 2051.00000 2025.64909 0.00049
13.02999 1950.00000 2024.96524 0.00051
13.03999 2101.00000 2024.28398 0.00048
13.04999 2037.00000 2023.60536 0.00049
13.05999 2001.00000 2022.92941 0.00050
13.06999 2000.00000 2022.25618 0.00050
13.07999 2105.00000 2021.58569 0.00048
13.08999 2119.00000 2020.91799 0.00047
13.09999 1979.00000 2020.25312 0.00051
13.10999 1949.00000 2019.59111 0.00051
13.11999 2059.00000 2018.93200 0.00049
13.12999 2025.00000 2018.27583 0.00049
13.13999 2093.00000 2017.62263 0.00048
13.14999 2042.00000 2016.97245 0.00049
13.15999 2071.00000 2016.32531 0.00048
13.16999 1993.00000 2015.68127 0.00050
13.17999 2016.00000 2015.04034 0.00050
13.18999 2041.00000 2014.40258 0.00049
13.19999 1989.00000 2013.76802 0.00050
13.20999 2070.00000 2013.13669 0.00048
13.21999 1999.00000 2012.50864 0.00050
13.22999 2044.00000 2011.88389 0.00049
13.23999 2065.00000 2011.26249 0.00048
13.24999 2026.00000 2010.64448 0.00049
13.25999 2036.00000 2010.02988 0.00049
13.26999 1988.00000 2009.41873 0.00050
13.27999 2041.00000 2008.81108 0.00049
13.28999 1976.00000 2008.20695 0.00051
13.29999 2036.00000 2007.60639 0.00049
13.30999 1968.00000 2007.00943 0.00051
13.31999 1961.00000 2006.41610 0.00051
13.32999 2137.00000 2005.82644 0.00047
13.33999 2141.00000 2005.24049 0.00047
13.34999 1993.00000 2004.65828 0.00050
13.35999 2038.00000 2004.07985 0.00049
13.36999 2038.00000 2003.50523 0.00049
13.37999 2110.00000 2002.93446 0.00047
13.38999 2049.00000 2002.36757 0.00049
13.39999 2076.00000 2001.80460 0.00048
13.40999 2130.00000 2001.24558 0.00047
13.41999 2139.00000 2000.69055 0.00047
13.42999 2081.00000 2000.13953 0.00048
13.43999 2070.00000 1999.59258 0.00048
13.44999 2122.00000 1999.04972 0.00047
13.45999 2053.00000 1998.51098 0.00049
13.46999 2054.00000 1997.97640 0.00049
13.47999 2056.00000 1997.44601 0.00049
13.48999 1978.00000 1996.91985 0.00051
13.49999 1956.00000 1996.39795 0.00051
13.50999 1912.00000 1995.88034 0.00052
13.51999 2072.00000 1995.36706 0.00048
13.52999 2051.00000 1994.85813 0.00049
13.53999 2108.00000 1994.35361 0.00047
13.54999 1973.00000 1993.85350 0.00051
13.55999 2012.00000 1993.35786 0.00050
13.56999 2067.00000 1992.86671 0.00048
13.57999 2025.00000 1992.38008 0.00049
13.58999 2067.00000 1991.89801 0.00048
13.59999 2042.00000 1991.42053 0.00049
13.60999 2064.00000 1990.94766 0.00048
13.61999 2078.00000 1990.47945 0.00048
13.62999 2073.00000 1990.01593 0.00048
13.63999 2018.00000 1989.55712 0.00050
13.64999 2014.00000 1989.10306 0.00050
13.65999 2066.00000 1988.65377 0.00048
13.66999 1991.00000 1988.20930 0.00050
13.67999 2023.00000 1987.76967 0.00049
13.68999 2032.00000 1987.33491 0.00049
13.69999 1976.00000 1986.90505 0.00051
13.70999 2024.00000 1986.48012 0.00049
13.71999 2003.00000 1986.06016 0.00050
13.72999 1995.00000 1985.64519 0.00050
13.73999 2017.00000 1985.23524 0.00050
13.74999 2059.00000 1984.83034 0.00049
13.75999 2016.00000 1984.43053 0.00050
13.76999 2029.00000 1984.03583 0.00049
13.77999 2051.00000 1983.64627 0.00049
13.78999 2011.00000 1983.26188 0.00050
13.79999 2041.00000 1982.88269 0.00049
13.80999 2050.00000 1982.50873 0.00049
13.81999 2042.00000 1982.14003 0.00049
13.82999 2032.00000 1981.77661 0.00049
13.83999 2123.00000 1981.41850 0.00047
13.84999 2040.00000 1981.06573 0.00049
13.85999 2080.00000 1980.71833 0.00048
13.86999 2059.00000 1980.37633 0.00049
13.87999 2012.00000 1980.03976 0.00050
13.88999 1987.00000 1979.70863 0.00050
13.89999 2042.00000 1979.38299 0.00049
13.90999 2014.00000 1979.06284 0.00050
13.91999 2074.00000 1978.74824 0.00048
13.92999 1970.00000 1978.43918 0.00051
13.93999 2040.00000 1978.13572 0.00049
13.94999 2068.00000 1977.83786 0.00048
13.95999 2020.00000 1977.54565 0.00050
13.96999 2122.00000 1977.25909 0.00047
13.97999 2052.00000 1976.97823 0.00049
13.98999 2099.00000 1976.70307 0.00048
13.99999 2102.00000 1976.43366 0.00048
14.00999 2025.00000 1976.17001 0.00049
14.01999 1986.00000 1975.91215 0.00050
14.02999 2003.00000 1975.66010 0.00050
14.03999 2041.00000 1975.41389 0.00049
14.04999 2039.00000 1975.17355 0.00049
14.05999 1992.00000 1974.93917 0.00050
14.06999 2051.00000 1974.71082 0.00049
14.07999 2078.00000 1974.48856 0.00048
14.08999 2066.00000 1974.27248 0.00048
14.09999 2081.00000 1974.06265 0.00048
14.10999 2044.00000 1973.85917 0.00049
14.11999 2114.00000 1973.66212 0.00047
14.12999 2006.00000 1973.47159 0.00050
14.13999 2025.00000 1973.28769 0.00049
14.14999 2113.00000 1973.11051 0.00047
14.15999 2095.00000 1972.94017 0.00048
14.16999 2115.00000 1972.77678 0.00047
14.17999 1940.00000 1972.62048 0.00052
14.18999 2076.00000 1972.47136 0.00048
14.19999 2012.00000 1972.32960 0.00050
14.20999 1998.00000 1972.19532 0.00050
14.21999 1974.00000 1972.06869 0.00051
14.22999 2026.00000 1971.94985 0.00049
14.23999 2028.00000 1971.83901 0.00049
14.24999 2076.00000 1971.73633 0.00048
14.25999 1988.00000 1971.64204 0.00050
14.26999 1950.00000 1971.55631 0.00051
14.27999 1965.00000 1971.47942 0.00051
14.28999 2031.00000 1971.41158 0.00049
14.29999 2076.00000 1971.35307 0.00048
14.30999 2087.00000 1971.30419 0.00048
14.31999 2052.00000 1971.26524 0.00049
14.32999 2060.00000 1971.23655 0.00049
14.33999 2055.00000 1971.21849 0.00049
14.34999 2009.00000 1971.21146 0.00050
14.35999 2036.00000 1971.21589 0.00049
14.36999 2044.00000 1971.23225 0.00049
14.37999 2030.00000 1971.26107 0.00049
14.38999 2013.00000 1971.30291 0.00050
14.39999 2017.00000 1971.35840 0.00050
14.40999 2055.00000 1971.42822 0.00049
14.41999 2026.00000 1971.51317 0.00049
14.42999 2020.00000 1971.61410 0.00050
14.43999 2029.00000 1971.73196 0.00049
14.44999 2021.00000 1971.86786 0.00049
14.45999 2006.00000 1972.02302 0.00050
14.46999 2079.00000 1972.19883 0.00048
14.47999 2040.00000 1972.39693 0.00049
14.48999 2125.00000 1972.61918 0.00047
14.49999 2048.00000 1972.86796 0.00049
14.50999 2043.00000 1973.14610 0.00049
14.51999 2037.00000 1973.45673 0.00049
14.52999 2050.00000 1973.80362 0.00049
14.53999 2047.00000 1974.19146 0.00049
14.54999 2080.00000 1974.62612 0.00048
14.55999 2063.00000 1975.11514 0.00048
14.56999 1983.00000 1975.66855 0.00050
14.57999 2088.00000 1976.29960 0.00048
14.58999 2062.00000 1977.02533 0.00048
14.59999 2027.00000 1977.87048 0.00049
14.60999 2024.00000 1978.87794 0.00049
14.61999 2023.00000 1980.13954 0.00049
14.62999 2046.00000 1981.98958 0.00049
14.63999 2058.00000 1984.38141 0.00049
14.64999 2044.00000 1985.13184 0.00049
14.65999 2107.00000 1985.56943 0.00047
14.66999 2107.00000 1986.00670 0.00047
14.67999 2009.00000 1986.45985 0.00050
14.68999 2039.00000 1986.92928 0.00049
14.69999 2081.00000 1987.41541 0.00048
14.70999 2121.00000 1987.91870 0.00047
14.71999 2150.00000 1988.43964 0.00047
14.72999 2060.00000 1988.97874 0.00049
14.73999 2069.00000 1989.53652 0.00048
14.74999 2042.00000 1990.11358 0.00049
14.75999 2062.00000 1990.71050 0.00048
14.76999 2038.00000 1991.32795 0.00049
14.77999 2108.00000 1991.96660 0.00047
14.78999 2013.00000 1992.62720 0.00050
14.79999 2033.00000 1993.31052 0.00049
14.80999 2072.00000 1994.01740 0.00048
14.81999 2091.00000 1994.74873 0.00048
14.82999 2097.00000 1995.50547 0.00048
14.83999 1915.00000 1996.28864 0.00052
14.84999 2034.00000 1997.09934 0.00049
14.85999 2081.00000 1997.93876 0.00048
14.86999 2067.00000 1998.80817 0.00048
14.87999 2085.00000 1999.70895 0.00048
14.88999 2044.00000 2000.64260 0.00049
14.89999 2059.00000 2001.61074 0.00049
14.90999 2080.00000 2002.61514 0.00048
14.91999 2032.00000 2003.65777 0.00049
14.92999 2053.00000 2004.74081 0.00049
14.93999 2031.00000 2005.86671 0.00049
14.94999 2042.00000 2007.03827 0.00049
14.95999 2029.00000 2008.25875 0.00049
14.96999 2012.00000 2009.53201 0.00050
14.97999 2067.00000 2010.86273 0.00048
14.98999 2079.00000 2012.25663 0.00048
14.99999 2045.00000 2013.72086 0.00049
15.00999 1993.00000 2015.26437 0.00050
15.01999 2106.00000 2016.89843 0.00047
15.02999 2026.00000 2018.63723 0.00049
15.03999 2098.00000 2020.49845 0.00048
15.04999 2058.00000 2022.50397 0.00049
15.05999 2118.00000 2024.68050 0.00047
15.06999 2114.00000 2027.06016 0.00047
15.07999 2061.00000 2029.68095 0.00049
15.08999 2102.00000 2032.58705 0.00048
15.09999 2126.00000 2035.82886 0.00047
15.10999 2162.00000 2039.46283 0.00046
15.11999 2072.00000 2043.55088 0.00048
15.12999 2172.00000 2048.15969 0.00046
15.13999 2115.00000 2053.35970 0.00047
15.14999 2121.00000 2059.22416 0.00047
15.15999 2150.00000 2065.82823 0.00047
15.16999 2130.00000 2073.24836 0.00047
15.17999 2121.00000 2081.56196 0.00047
15.18999 2154.00000 2090.84726 0.00046
15.19999 2160.00000 2101.18357 0.00046
15.20999 2156.00000 2112.65166 0.00046
15.21999 2190.00000 2125.33436 0.00046
15.22999 2109.00000 2139.31739 0.00047
15.23999 2169.00000 2154.69016 0.00046
15.24999 2221.00000 2171.54679 0.00045
15.25999 2223.00000 2189.98714 0.00045
15.26999 2168.00000 2210.11792 0.00046
15.27999 2199.00000 2232.05386 0.00045
15.28999 2254.00000 2255.91892 0.00044
15.29999 2225.00000 2281.84767 0.00045
15.30999 2244.00000 2309.98672 0.00045
15.31999 2354.00000 2340.49641 0.00042
15.32999 2304.00000 2373.55265 0.00043
15.33999 2442.00000 2409.34910 0.00041
15.34999 2451.00000 2448.09971 0.00041
15.35999 2428.00000 2490.04167 0.00041
15.36999 2519.00000 2535.43896 0.00040
15.37999 2502.00000 2584.58671 0.00040
15.38999 2574.00000 2637.81641 0.00039
15.39999 2557.00000 2695.50248 0.00039
15.40999 2691.00000 2758.07040 0.00037
15.41999 2874.00000 2826.00706 0.00035
15.42999 2871.00000 2899.87379 0.00035
15.43999 2896.00000 2980.32309 0.00035
15.44999 3018.00000 3068.11987 0.00033
15.45999 3142.00000 3164.16838 0.00032
15.46999 3354.00000 3269.54571 0.00030
15.47999 3262.00000 3385.54235 0.00031
15.48999 3376.00000 3513.70931 0.00030
15.49999 3612.00000 3655.90924 0.00028
15.50999 3719.00000 3814.36588 0.00027
15.51999 4056.00000 3991.70167 0.00025
15.52999 4084.00000 4190.94753 0.00024
15.53999 4327.00000 4415.50240 0.00023
15.54999 4553.00000 4669.01454 0.00022
15.55999 4807.00000 4955.15362 0.00021
15.56999 5227.00000 5277.24591 0.00019
15.57999 5456.00000 5637.75575 0.00018
15.58999 5861.00000 6037.61832 0.00017
15.59999 6310.00000 6475.45953 0.00016
15.60999 6876.00000 6946.77611 0.00015
15.61999 7462.00000 7443.18554 0.00013
15.62999 7873.00000 7951.88110 0.00013
15.63999 8341.00000 8455.43319 0.00012
15.64999 8943.00000 8932.05685 0.00011
15.65999 9581.00000 9356.42456 0.00010
15.66999 9764.00000 9701.06124 0.00010
15.67999 9948.00000 9938.35080 0.00010
15.68999 10338.00000 10043.21664 0.00009
15.69999 10320.00000 9996.52876 0.00009
15.70999 10229.00000 9789.00782 0.00010
15.71999 9960.00000 9424.67832 0.00010
15.72999 9421.00000 8922.18582 0.00011
15.73999 8963.00000 8312.61204 0.00011
15.74999 8065.00000 7634.20366 0.00012
15.75999 7413.00000 6926.19987 0.00013
15.76999 6477.00000 6223.96381 0.00015
15.77999 5699.00000 5556.23046 0.00018
15.78999 5082.00000 4944.09120 0.00020
15.79999 4141.00000 4401.04444 0.00024
15.80999 3820.00000 3933.65814 0.00026
15.81999 3464.00000 3542.61795 0.00029
15.82999 3079.00000 3224.02013 0.00032
15.83999 2988.00000 2970.76969 0.00033
15.84999 2775.00000 2773.93580 0.00036
15.85999 2661.00000 2623.93419 0.00038
15.86999 2575.00000 2511.44917 0.00039
15.87999 2506.00000 2428.06070 0.00040
15.88999 2409.00000 2366.59064 0.00042
15.89999 2301.00000 2321.21611 0.00043
15.90999 2264.00000 2287.41464 0.00044
15.91999 2231.00000 2261.80671 0.00045
15.92999 2296.00000 2241.95158 0.00044
15.93999 2229.00000 2226.13780 0.00045
15.94999 2262.00000 2213.19397 0.00044
15.95999 2285.00000 2202.33217 0.00044
15.96999 2239.00000 2193.02709 0.00045
15.97999 2162.00000 2184.92782 0.00046
15.98999 2212.00000 2177.79644 0.00045
15.99999 2242.00000 2171.46711 0.00045
16.00999 2220.00000 2165.81973 0.00045
16.01999 2168.00000 2160.76350 0.00046
16.02999 2180.00000 2156.22683 0.00046
16.03999 2218.00000 2152.15125 0.00045
16.04999 2224.00000 2148.48770 0.00045
16.05999 2122.00000 2145.19420 0.00047
16.06999 2150.00000 2142.23437 0.00047
16.07999 2166.00000 2139.57640 0.00046
16.08999 2185.00000 2137.19227 0.00046
16.09999 2137.00000 2135.05725 0.00047
16.10999 2078.00000 2133.14936 0.00048
16.11999 2150.00000 2131.44907 0.00047
16.12999 2153.00000 2129.93893 0.00046
16.13999 2192.00000 2128.60332 0.00046
16.14999 2170.00000 2127.42825 0.00046
16.15999 2174.00000 2126.40114 0.00046
16.16999 2189.00000 2125.51063 0.00046
16.17999 2080.00000 2124.74651 0.00048
16.18999 2144.00000 2124.09949 0.00047
16.19999 2136.00000 2123.56119 0.00047
16.20999 2149.00000 2123.12398 0.00047
16.21999 2152.00000 2122.78091 0.00046
16.22999 2177.00000 2122.52558 0.00046
16.23999 2203.00000 2122.35221 0.00045
16.24999 2158.00000 2122.25544 0.00046
16.25999 2166.00000 2122.23040 0.00046
16.26999 2126.00000 2122.27260 0.00047
16.27999 2153.00000 2122.37790 0.00046
16.28999 2199.00000 2122.54250 0.00045
16.29999 2234.00000 2122.76288 0.00045
16.30999 2111.00000 2123.03580 0.00047
16.31999 2179.00000 2123.35825 0.00046
16.32999 2188.00000 2123.72741 0.00046
16.33999 2204.00000 2124.14071 0.00045
16.34999 2217.00000 2124.59571 0.00045
16.35999 2188.00000 2125.09019 0.00046
16.37000 2200.00000 2125.62254 0.00045
16.38000 2200.00000 2126.18979 0.00045
16.39000 2155.00000 2126.79056 0.00046
16.40000 2166.00000 2127.42315 0.00046
16.41000 2131.00000 2128.08589 0.00047
16.42000 2237.00000 2128.77726 0.00045
16.43000 2102.00000 2129.49580 0.00048
16.44000 2136.00000 2130.24014 0.00047
16.45000 2168.00000 2131.00895 0.00046
16.46000 2146.00000 2131.80099 0.00047
16.47000 2107.00000 2132.61507 0.00047
16.48000 2178.00000 2133.45004 0.00046
16.49000 2129.00000 2134.30480 0.00047
16.50000 2119.00000 2135.17828 0.00047
16.51000 2182.00000 2136.06946 0.00046
16.52000 2128.00000 2136.97731 0.00047
16.53000 2128.00000 2137.90086 0.00047
16.54000 2131.00000 2138.83912 0.00047
16.55000 2164.00000 2139.79112 0.00046
16.56000 2137.00000 2140.75591 0.00047
16.57000 2205.00000 2141.73249 0.00045
16.58000 2207.00000 2142.71988 0.00045
16.59000 2140.00000 2143.71707 0.00047
16.60000 2072.00000 2144.72298 0.00048
16.61000 2140.00000 2145.73652 0.00047
16.62000 2154.00000 2146.75651 0.00046
16.63000 2081.00000 2147.78170 0.00048
16.64000 2125.00000 2148.81072 0.00047
16.65000 2270.00000 2149.84207 0.00044
16.66000 2167.00000 2150.87405 0.00046
16.67000 2136.00000 2151.90454 0.00047
16.68000 2170.00000 2152.93109 0.00046
16.69000 2081.00000 2153.95104 0.00048
16.70000 2145.00000 2154.96125 0.00047
16.71000 2072.00000 2155.95780 0.00048
16.72000 2122.00000 2156.93577 0.00047
16.73000 2186.00000 2157.88881 0.00046
16.74000 2102.00000 2158.80843 0.00048
16.75000 2157.00000 2159.68325 0.00046
16.76000 2177.00000 2160.49873 0.00046
16.77000 2091.00000 2161.23328 0.00048
16.78000 2107.00000 2161.84837 0.00047
16.79000 2194.00000 2162.25887 0.00046
16.80000 2163.00000 2162.14469 0.00046
16.81001 2134.00000 2161.57170 0.00047
16.82001 2146.00000 2162.88097 0.00047
16.83001 2127.00000 2164.17724 0.00047
16.84001 2201.00000 2165.66683 0.00045
16.85001 2102.00000 2167.16004 0.00048
16.86001 2077.00000 2168.65685 0.00048
16.87001 2108.00000 2170.15721 0.00047
16.88001 2179.00000 2171.66108 0.00046
16.89001 2120.00000 2173.16845 0.00047
16.90001 2050.00000 2174.67925 0.00049
16.91001 2116.00000 2176.19347 0.00047
16.92001 2113.00000 2177.71107 0.00047
16.93001 2086.00000 2179.23200 0.00048
16.94001 2150.00000 2180.75624 0.00047
16.95001 2166.00000 2182.28375 0.00046
16.96001 2182.00000 2183.81448 0.00046
16.97001 2226.00000 2185.34841 0.00045
16.98001 2174.00000 2186.88549 0.00046
16.99001 2130.00000 2188.42570 0.00047
17.00001 2123.00000 2189.96899 0.00047
17.01001 2107.00000 2191.51532 0.00047
17.02001 2159.00000 2193.06466 0.00046
17.03001 2184.00000 2194.61698 0.00046
17.04001 2078.00000 2196.17222 0.00048
17.05001 2165.00000 2197.73037 0.00046
17.06001 2228.00000 2199.29138 0.00045
17.07001 2154.00000 2200.85520 0.00046
17.08001 2129.00000 2202.42182 0.00047
17.09001 2134.00000 2203.99117 0.00047
17.10001 2114.00000 2205.56324 0.00047
17.11001 2124.00000 2207.13798 0.00047
17.12001 2160.00000 2208.71535 0.00046
17.13001 2057.00000 2210.29531 0.00049
17.14001 2177.00000 2211.87784 0.00046
17.15001 2162.00000 2213.46288 0.00046
17.16001 2246.00000 2215.05040 0.00045
17.17001 2148.00000 2216.64036 0.00047
17.18001 2161.00000 2218.23272 0.00046
17.19001 2150.00000 2219.82745 0.00047
17.20001 2226.00000 2221.42450 0.00045
17.21001 2165.00000 2223.02384 0.00046
17.22001 2200.00000 2224.62543 0.00045
17.23001 2182.00000 2226.22923 0.00046
17.24002 2263.00000 2227.83680 0.00044
17.25002 2127.00000 2229.44490 0.00047
17.26002 2168.00000 2231.05509 0.00046
17.27002 2169.00000 2232.66734 0.00046
17.28002 2139.00000 2234.28159 0.00047
17.29002 2188.00000 2235.89783 0.00046
17.30002 2140.00000 2237.51599 0.00047
17.31002 2147.00000 2239.13605 0.00047
17.32002 2145.00000 2240.75797 0.00047
17.33002 2133.00000 2242.38171 0.00047
17.34002 2150.00000 2244.00721 0.00047
17.35002 2145.00000 2245.63446 0.00047
17.36002 2149.00000 2247.26340 0.00047
17.37002 2156.00000 2248.89400 0.00046
17.38002 2229.00000 2250.52622 0.00045
17.39002 2251.00000 2252.16002 0.00044
17.40002 2155.00000 2253.79535 0.00046
17.41002 2090.00000 2255.43218 0.00048
17.42002 2128.00000 2257.07046 0.00047
17.43002 2162.00000 2258.71017 0.00046
17.44002 2177.00000 2260.35125 0.00046
17.45002 2175.00000 2261.99366 0.00046
17.46002 2191.00000 2263.63738 0.00046
17.47002 2261.00000 2265.28234 0.00044
17.48002 2186.00000 2266.92853 0.00046
17.49002 2158.00000 2268.57589 0.00046
17.50002 2172.00000 2270.22438 0.00046
17.51002 2160.00000 2271.87397 0.00046
17.52002 2180.00000 2273.52461 0.00046
17.53002 2216.00000 2275.17627 0.00045
17.54002 2206.00000 2276.82889 0.00045
17.55002 2238.00000 2278.48245 0.00045
17.56002 2274.00000 2280.13690 0.00044
17.57002 2244.00000 2281.79220 0.00045
17.58002 2231.00000 2283.44831 0.00045
17.59002 2183.00000 2285.10519 0.00046
17.60002 2148.00000 2286.76279 0.00047
17.61002 2142.00000 2288.42108 0.00047
17.62002 2124.00000 2290.08002 0.00047
17.63002 2121.00000 2291.73957 0.00047
17.64002 2058.00000 2293.39968 0.00049
17.65002 2257.00000 2295.06031 0.00044
17.66002 2248.00000 2296.72142 0.00044
17.67002 2231.00000 2298.38298 0.00045
17.68003 2284.00000 2300.04660 0.00044
17.69003 2183.00000 2301.70891 0.00046
17.70003 2246.00000 2303.37154 0.00045
17.71003 2164.00000 2305.03446 0.00046
17.72003 2220.00000 2306.69760 0.00045
17.73003 2162.00000 2308.36094 0.00046
17.74003 2199.00000 2310.02444 0.00045
17.75003 2204.00000 2311.68805 0.00045
17.76003 2207.00000 2313.35173 0.00045
17.77003 2224.00000 2315.01544 0.00045
17.78003 2244.00000 2316.67914 0.00045
17.79003 2210.00000 2318.34278 0.00045
17.80003 2196.00000 2320.00634 0.00046
17.81003 2279.00000 2321.66976 0.00044
17.82003 2242.00000 2323.33300 0.00045
17.83003 2298.00000 2324.99603 0.00044
17.84003 2271.00000 2326.65879 0.00044
17.85003 2209.00000 2328.32126 0.00045
17.86003 2190.00000 2329.98339 0.00046
17.87003 2151.00000 2331.64514 0.00046
17.88003 2201.00000 2333.30647 0.00045
17.89003 2225.00000 2334.96733 0.00045
17.90003 2190.00000 2336.62768 0.00046
17.91003 2304.00000 2338.28749 0.00043
17.92003 2224.00000 2339.94671 0.00045
17.93003 2218.00000 2341.60531 0.00045
17.94003 2240.00000 2343.26323 0.00045
17.95003 2272.00000 2344.92044 0.00044
17.96003 2277.00000 2346.57690 0.00044
17.97003 2255.00000 2348.23257 0.00044
17.98003 2215.00000 2349.88740 0.00045
17.99003 2242.00000 2351.54135 0.00045
18.00003 2277.00000 2353.19439 0.00044
18.01003 2235.00000 2354.84647 0.00045
18.02003 2243.00000 2356.49756 0.00045
18.03003 2237.00000 2358.14760 0.00045
18.04003 2204.00000 2359.79656 0.00045
18.05003 2250.00000 2361.44440 0.00044
18.06003 2244.00000 2363.09108 0.00045
18.07003 2224.00000 2364.73656 0.00045
18.08003 2238.00000 2366.38078 0.00045
18.09003 2253.00000 2368.02373 0.00044
18.10003 2238.00000 2369.66535 0.00045
18.11003 2194.00000 2371.30560 0.00046
18.12004 2165.00000 2372.94608 0.00046
18.13004 2219.00000 2374.58347 0.00045
18.14004 2285.00000 2376.21937 0.00044
18.15004 2255.00000 2377.85374 0.00044
18.16004 2292.00000 2379.48654 0.00044
18.17004 2247.00000 2381.11773 0.00045
18.18004 2310.00000 2382.74727 0.00043
18.19004 2340.00000 2384.37511 0.00043
18.20004 2297.00000 2386.00122 0.00044
18.21004 2347.00000 2387.62556 0.00043
18.22004 2238.00000 2389.24808 0.00045
18.23004 2316.00000 2390.86875 0.00043
18.24004 2246.00000 2392.48752 0.00045
18.25004 2224.00000 2394.10436 0.00045
18.26004 2339.00000 2395.71922 0.00043
18.27004 2301.00000 2397.33206 0.00043
18.28004 2321.00000 2398.94285 0.00043
18.29004 2320.00000 2400.55154 0.00043
18.30004 2260.00000 2402.15810 0.00044
18.31004 2255.00000 2403.76247 0.00044
18.32004 2290.00000 2405.36464 0.00044
18.33004 2261.00000 2406.96454 0.00044
18.34004 2334.00000 2408.56215 0.00043
18.35004 2322.00000 2410.15742 0.00043
18.36004 2294.00000 2411.75032 0.00044
18.37004 2315.00000 2413.34080 0.00043
18.38004 2324.00000 2414.92883 0.00043
18.39004 2222.00000 2416.51446 0.00045
18.40004 2309.00000 2418.09790 0.00043
18.41004 2345.00000 2419.67935 0.00043
18.42004 2283.00000 2421.25905 0.00044
18.43004 2311.00000 2422.83726 0.00043
18.44004 2346.00000 2424.41425 0.00043
18.45004 2341.00000 2425.99035 0.00043
18.46004 2308.00000 2427.56587 0.00043
18.47004 2399.00000 2429.14121 0.00042
18.48004 2402.00000 2430.71675 0.00042
18.49004 2428.00000 2432.29296 0.00041
18.50004 2293.00000 2433.87032 0.00044
18.51004 2365.00000 2435.44936 0.00042
18.52004 2331.00000 2437.03068 0.00043
18.53004 2296.00000 2438.61494 0.00044
18.54004 2338.00000 2440.20285 0.00043
18.55005 2382.00000 2441.79679 0.00042
18.56005 2396.00000 2443.39448 0.00042
18.57005 2285.00000 2444.99846 0.00044
18.58005 2317.00000 2446.60984 0.00043
18.59005 2311.00000 2448.22982 0.00043
18.60005 2386.00000 2449.85980 0.00042
18.61005 2357.00000 2451.50127 0.00042
18.62005 2312.00000 2453.15599 0.00043
18.63005 2342.00000 2454.82589 0.00043
18.64005 2425.00000 2456.51321 0.00041
18.65005 2333.00000 2458.22054 0.00043
18.66005 2364.00000 2459.95075 0.00042
18.67005 2421.00000 2461.70726 0.00041
18.68005 2308.00000 2463.49409 0.00043
18.69005 2398.00000 2465.31597 0.00042
18.70005 2378.00000 2467.17847 0.00042
18.71005 2297.00000 2469.08831 0.00044
18.72005 2396.00000 2471.05390 0.00042
18.73005 2376.00000 2473.08644 0.00042
18.74005 2446.00000 2475.19981 0.00041
18.75005 2332.00000 2477.41138 0.00043
18.76005 2415.00000 2479.74425 0.00041
18.77005 2438.00000 2482.23052 0.00041
18.78005 2457.00000 2484.91678 0.00041
18.79005 2305.00000 2487.87164 0.00043
18.80005 2376.00000 2491.20204 0.00042
18.81005 2434.00000 2495.12682 0.00041
18.82005 2406.00000 2500.41782 0.00042
18.83005 2401.00000 2507.17826 0.00042
18.84005 2430.00000 2510.32234 0.00041
18.85005 2372.00000 2512.12716 0.00042
18.86005 2430.00000 2513.82251 0.00041
18.87005 2421.00000 2515.51778 0.00041
18.88005 2443.00000 2517.21303 0.00041
18.89005 2377.00000 2518.90832 0.00042
18.90005 2387.00000 2520.60370 0.00042
18.91005 2466.00000 2522.29925 0.00041
18.92005 2399.00000 2523.99501 0.00042
18.93005 2406.00000 2525.69106 0.00042
18.94005 2393.00000 2527.38746 0.00042
18.95005 2466.00000 2529.08430 0.00041
18.96005 2480.00000 2530.78164 0.00040
18.97005 2438.00000 2532.47956 0.00041
18.98005 2401.00000 2534.17814 0.00042
18.99006 2332.00000 2535.87917 0.00043
19.00006 2453.00000 2537.57935 0.00041
19.01006 2476.00000 2539.28045 0.00040
19.02006 2376.00000 2540.98258 0.00042
19.03006 2361.00000 2542.68584 0.00042
19.04006 2538.00000 2544.39033 0.00039
19.05006 2453.00000 2546.09615 0.00041
19.06006 2406.00000 2547.80343 0.00042
19.07006 2496.00000 2549.51227 0.00040
19.08006 2521.00000 2551.22280 0.00040
19.09006 2512.00000 2552.93514 0.00040
19.10006 2418.00000 2554.64942 0.00041
19.11006 2525.00000 2556.36578 0.00040
19.12006 2441.00000 2558.08437 0.00041
19.13006 2435.00000 2559.80532 0.00041
19.14006 2439.00000 2561.52878 0.00041
19.15006 2428.00000 2563.25492 0.00041
19.16006 2455.00000 2564.98390 0.00041
19.17006 2416.00000 2566.71589 0.00041
19.18006 2596.00000 2568.45106 0.00039
19.19006 2511.00000 2570.18960 0.00040
19.20006 2448.00000 2571.93170 0.00041
19.21006 2539.00000 2573.67755 0.00039
19.22006 2503.00000 2575.42736 0.00040
19.23006 2461.00000 2577.18133 0.00041
19.24006 2480.00000 2578.93970 0.00040
19.25006 2440.00000 2580.70269 0.00041
19.26006 2406.00000 2582.47056 0.00042
19.27006 2592.00000 2584.24355 0.00039
19.28006 2483.00000 2586.02194 0.00040
19.29006 2404.00000 2587.80602 0.00042
19.30006 2575.00000 2589.59607 0.00039
19.31006 2469.00000 2591.39240 0.00041
19.32006 2537.00000 2593.19532 0.00039
19.33006 2494.00000 2595.00518 0.00040
19.34006 2566.00000 2596.82230 0.00039
19.35006 2510.00000 2598.64706 0.00040
19.36006 2637.00000 2600.47981 0.00038
19.37006 2629.00000 2602.32097 0.00038
19.38006 2620.00000 2604.17093 0.00038
19.39006 2512.00000 2606.03015 0.00040
19.40006 2585.00000 2607.89910 0.00039
19.41006 2558.00000 2609.77831 0.00039
19.42006 2546.00000 2611.66829 0.00039
19.43007 2592.00000 2613.57151 0.00039
19.44007 2640.00000 2615.48477 0.00038
19.45007 2554.00000 2617.41058 0.00039
19.46007 2677.00000 2619.34958 0.00037
19.47007 2567.00000 2621.30247 0.00039
19.48007 2650.00000 2623.26997 0.00038
19.49007 2520.00000 2625.25285 0.00040
19.50007 2506.00000 2627.25193 0.00040
19.51007 2626.00000 2629.26809 0.00038
19.52007 2563.00000 2631.30224 0.00039
19.53007 2609.00000 2633.35538 0.00038
19.54007 2677.00000 2635.42859 0.00037
19.55007 2663.00000 2637.52301 0.00038
19.56007 2646.00000 2639.63990 0.00038
19.57007 2694.00000 2641.78063 0.00037
19.58007 2663.00000 2643.94671 0.00038
19.59007 2657.00000 2646.13990 0.00038
19.60007 2633.00000 2648.36215 0.00038
19.61007 2735.00000 2650.61570 0.00037
19.62007 2753.00000 2652.90319 0.00036
19.63007 2628.00000 2655.22788 0.00038
19.64007 2705.00000 2657.59395 0.00037
19.65007 2662.00000 2660.00696 0.00038
19.66007 2683.00000 2662.47479 0.00037
19.67007 2653.00000 2665.01206 0.00038
19.68007 2603.00000 2667.66665 0.00038
19.69007 2648.00000 2670.43897 0.00038
19.70007 2678.00000 2673.01763 0.00037
19.71007 2590.00000 2675.61183 0.00039
19.72007 2616.00000 2678.25915 0.00038
19.73007 2709.00000 2680.96573 0.00037
19.74007 2652.00000 2683.73966 0.00038
19.75007 2603.00000 2686.59254 0.00038
19.76007 2661.00000 2689.54203 0.00038
19.77007 2658.00000 2692.62447 0.00038
19.78007 2642.00000 2695.94819 0.00038
19.79007 2737.00000 2699.47852 0.00037
19.80007 2717.00000 2702.49135 0.00037
19.81007 2728.00000 2705.47721 0.00037
19.82007 2574.00000 2708.52160 0.00039
19.83007 2637.00000 2711.62731 0.00038
19.84007 2712.00000 2714.79722 0.00037
19.85007 2671.00000 2718.03441 0.00037
19.86007 2691.00000 2721.34210 0.00037
19.87008 2645.00000 2724.72713 0.00038
19.88008 2719.00000 2728.18638 0.00037
19.89008 2651.00000 2731.72701 0.00038
19.90008 2641.00000 2735.35305 0.00038
19.91008 2734.00000 2739.06879 0.00037
19.92008 2820.00000 2742.87876 0.00035
19.93008 2728.00000 2746.78778 0.00037
19.94008 2726.00000 2750.80096 0.00037
19.95008 2833.00000 2754.92371 0.00035
19.96008 2848.00000 2759.16181 0.00035
19.97008 2774.00000 2763.52138 0.00036
19.98008 2716.00000 2768.00894 0.00037
19.99008 2850.00000 2772.63146 0.00035
20.00008 2798.00000 2777.39633 0.00036
20.01008 2759.00000 2782.31148 0.00036
20.02008 2732.00000 2787.38536 0.00037
20.03008 2804.00000 2792.62700 0.00036
20.04008 2800.00000 2798.04608 0.00036
20.05008 2859.00000 2803.65297 0.00035
20.06008 2801.00000 2809.45878 0.00036
20.07008 2880.00000 2815.47548 0.00035
20.08008 2891.00000 2821.71593 0.00035
20.09008 2859.00000 2828.19398 0.00035
20.10008 2817.00000 2834.92461 0.00035
20.11008 2811.00000 2841.92402 0.00036
20.12008 2871.00000 2849.20982 0.00035
20.13008 2816.00000 2856.80115 0.00036
20.14008 2837.00000 2864.71891 0.00035
20.15008 2865.00000 2872.98605 0.00035
20.16008 2896.00000 2881.62785 0.00035
20.17008 2928.00000 2890.67232 0.00034
20.18008 2947.00000 2900.15067 0.00034
20.19008 2932.00000 2910.09792 0.00034
20.20008 2901.00000 2920.55359 0.00034
20.21008 2973.00000 2931.56257 0.00034
20.22008 2901.00000 2943.17618 0.00034
20.23008 2967.00000 2955.45339 0.00034
20.24008 2973.00000 2968.46228 0.00034
20.25008 3002.00000 2982.28171 0.00033
20.26008 3019.00000 2997.00324 0.00033
20.27008 2992.00000 3012.73331 0.00033
20.28008 2985.00000 3029.59556 0.00034
20.29008 3027.00000 3047.73349 0.00033
20.30009 3008.00000 3067.33300 0.00033
20.31009 2976.00000 3088.54765 0.00034
20.32009 3132.00000 3111.61587 0.00032
20.33009 3136.00000 3136.78913 0.00032
20.34009 3158.00000 3164.35326 0.00032
20.35009 3131.00000 3194.63112 0.00032
20.36009 3240.00000 3227.98500 0.00031
20.37009 3191.00000 3264.81866 0.00031
20.38009 3064.00000 3305.57884 0.00033
20.39009 3272.00000 3350.75634 0.00031
20.40009 3337.00000 3400.88689 0.00030
20.41009 3309.00000 3456.55221 0.00030
20.42009 3355.00000 3518.38180 0.00030
20.43009 3480.00000 3587.05682 0.00029
20.44009 3667.00000 3663.32488 0.00027
20.45009 3673.00000 3747.98402 0.00027
20.46009 3680.00000 3841.75705 0.00027
20.47009 3796.00000 3945.55534 0.00026
20.48009 3818.00000 4060.46375 0.00026
20.49009 3990.00000 4187.61015 0.00025
20.50009 4163.00000 4328.23526 0.00024
20.51009 4258.00000 4483.72754 0.00023
20.52009 4441.00000 4655.65089 0.00023
20.53009 4596.00000 4845.77619 0.00022
20.54009 4845.00000 5056.11620 0.00021
20.55009 5008.00000 5288.96250 0.00020
20.56009 5275.00000 5546.92215 0.00019
20.57009 5482.00000 5832.95064 0.00018
20.58009 5816.00000 6150.37598 0.00017
20.59009 6206.00000 6502.90722 0.00016
20.60009 6692.00000 6894.61883 0.00015
20.61009 7394.00000 7329.90091 0.00014
20.62009 7690.00000 7813.36425 0.00013
20.63009 8363.00000 8349.68922 0.00012
20.64009 8916.00000 8943.40869 0.00011
20.65009 9563.00000 9598.61839 0.00010
20.66009 10251.00000 10318.61252 0.00010
20.67009 10996.00000 11105.44909 0.00008
20.68009 11810.00000 11959.45692 0.00007
20.69009 12791.00000 12878.70422 0.00006
20.70009 13677.00000 13858.45586 0.00005
20.71009 14575.00000 14890.65148 0.00005
20.72009 15821.00000 15963.43927 0.00004
20.73009 16904.00000 17060.79895 0.00003
20.74010 18094.00000 18163.38733 0.00003
20.75010 18794.00000 19244.00578 0.00003
20.76010 20259.00000 20274.34959 0.00002
20.77010 21223.00000 21220.95121 0.00002
20.78010 21933.00000 22047.05665 0.00002
20.79010 22440.00000 22714.02401 0.00002
20.80010 23084.00000 23183.62207 0.00002
20.81010 23485.00000 23421.45594 0.00002
20.82010 23648.00000 23401.45841 0.00002
20.83010 23468.00000 23110.79959 0.00002
20.84010 23047.00000 22553.87480 0.00002
20.85010 22454.00000 21753.73046 0.00002
20.86010 21529.00000 20749.87628 0.00002
20.87010 20345.00000 19592.83580 0.00002
20.88010 19055.00000 18337.14769 0.00003
20.89010 17868.00000 17034.93568 0.00003
20.90010 16690.00000 15731.46826 0.00004
20.91010 14933.00000 14463.01193 0.00004
20.92010 13634.00000 13256.47712 0.00005
20.93010 12380.00000 12130.11426 0.00007
20.94010 11444.00000 11094.66576 0.00008
20.95010 10272.00000 10154.63873 0.00009
20.96010 9396.00000 9309.57214 0.00011
20.97010 8612.00000 8555.28441 0.00012
20.98010 7987.00000 7885.11397 0.00013
20.99010 7262.00000 7291.12740 0.00014
21.00010 6603.00000 6765.19248 0.00015
21.01010 6157.00000 6299.75847 0.00016
21.02010 5857.00000 5888.22914 0.00017
21.03010 5513.00000 5524.96099 0.00018
21.04010 5087.00000 5205.05875 0.00020
21.05010 4965.00000 4924.15482 0.00020
21.06010 4852.00000 4678.26594 0.00021
21.07010 4524.00000 4463.72374 0.00022
21.08010 4350.00000 4277.14058 0.00023
21.09010 4262.00000 4115.38258 0.00023
21.10010 4206.00000 3975.54302 0.00024
21.11010 4086.00000 3854.92037 0.00024
21.12010 3989.00000 3751.00638 0.00025
21.13010 3980.00000 3661.48531 0.00025
21.14010 3870.00000 3584.24162 0.00026
21.15010 3776.00000 3517.37100 0.00026
21.16010 3689.00000 3459.18933 0.00027
21.17010 3719.00000 3408.23584 0.00027
21.18011 3667.00000 3363.22386 0.00027
21.19011 3595.00000 3323.21093 0.00028
21.20011 3591.00000 3287.29752 0.00028
21.21011 3557.00000 3254.79811 0.00028
21.22011 3603.00000 3225.16572 0.00028
21.23011 3576.00000 3197.96718 0.00028
21.24011 3552.00000 3172.86036 0.00028
21.25011 3426.00000 3149.57423 0.00029
21.26011 3483.00000 3127.89234 0.00029
21.27011 3474.00000 3107.63959 0.00029
21.28011 3425.00000 3088.67198 0.00029
21.29011 3342.00000 3070.86897 0.00030
21.30011 3357.00000 3054.12782 0.00030
21.31011 3469.00000 3038.35953 0.00029
21.32011 3424.00000 3023.48596 0.00029
21.33011 3390.00000 3009.43768 0.00029
21.34011 3398.00000 2996.15253 0.00029
21.35011 3469.00000 2983.57444 0.00029
21.36011 3356.00000 2971.65262 0.00030
21.37011 3386.00000 2960.34087 0.00030
21.38011 3317.00000 2949.59707 0.00030
21.39011 3343.00000 2939.38271 0.00030
21.40011 3382.00000 2929.66252 0.00030
21.41011 3307.00000 2920.40415 0.00030
21.42011 3255.00000 2911.57788 0.00031
21.43011 3290.00000 2903.15633 0.00030
21.44011 3353.00000 2895.11433 0.00030
21.45011 3276.00000 2887.42862 0.00031
21.46011 3245.00000 2880.07774 0.00031
21.47011 3176.00000 2873.04184 0.00031
21.48011 3279.00000 2866.30254 0.00030
21.49011 3306.00000 2859.84284 0.00030
21.50011 3211.00000 2853.64695 0.00031
21.51011 3322.00000 2847.70021 0.00030
21.52011 3170.00000 2841.98903 0.00032
21.53011 3335.00000 2836.50074 0.00030
21.54011 3277.00000 2831.22358 0.00031
21.55011 3192.00000 2826.14658 0.00031
21.56011 3138.00000 2821.25953 0.00032
21.57011 3259.00000 2816.55290 0.00031
21.58011 3299.00000 2812.01782 0.00030
21.59011 3219.00000 2807.64601 0.00031
21.60011 3185.00000 2803.42972 0.00031
21.61012 3123.00000 2799.35769 0.00032
21.62012 3261.00000 2795.43141 0.00031
21.63012 3141.00000 2791.64037 0.00032
21.64012 3218.00000 2787.97870 0.00031
21.65012 3216.00000 2784.44090 0.00031
21.66012 3118.00000 2781.02184 0.00032
21.67012 3183.00000 2777.71673 0.00031
21.68012 3086.00000 2774.52109 0.00032
21.69012 3149.00000 2771.43075 0.00032
21.70012 3080.00000 2768.44184 0.00032
21.71012 3127.00000 2765.55073 0.00032
21.72012 3095.00000 2762.75408 0.00032
21.73012 3010.00000 2760.04875 0.00033
21.74012 3107.00000 2757.43188 0.00032
21.75012 3224.00000 2754.90079 0.00031
21.76012 3281.00000 2752.45303 0.00030
21.77012 3191.00000 2750.08635 0.00031
21.78012 3135.00000 2747.79870 0.00032
21.79012 3198.00000 2745.58821 0.00031
21.80012 3075.00000 2743.45320 0.00033
21.81012 3160.00000 2741.39219 0.00032
21.82012 3166.00000 2739.40384 0.00032
21.83012 3212.00000 2737.48701 0.00031
21.84012 3136.00000 2735.64072 0.00032
21.85012 3122.00000 2733.86415 0.00032
21.86012 3127.00000 2732.15666 0.00032
21.87012 3091.00000 2730.51778 0.00032
21.88012 3119.00000 2728.94717 0.00032
21.89012 3029.00000 2727.44470 0.00033
21.90012 3061.00000 2726.01038 0.00033
21.91012 3069.00000 2724.64440 0.00033
21.92012 3126.00000 2723.34714 0.00032
21.93012 2993.00000 2722.11914 0.00033
21.94012 3050.00000 2720.96117 0.00033
21.95012 3001.00000 2719.87418 0.00033
21.96012 3052.00000 2718.85933 0.00033
21.97012 3056.00000 2717.91801 0.00033
21.98012 3025.00000 2717.05184 0.00033
21.99012 3021.00000 2716.26274 0.00033
22.00012 2973.00000 2715.55286 0.00034
22.01012 3123.00000 2714.92470 0.00032
22.02012 3020.00000 2714.38112 0.00033
22.03012 3155.00000 2713.92540 0.00032
22.04012 2936.00000 2713.56135 0.00034
22.05013 2980.00000 2713.29321 0.00034
22.06013 3078.00000 2713.12687 0.00032
22.07013 3113.00000 2713.06895 0.00032
22.08013 2930.00000 2713.13057 0.00034
22.09013 3000.00000 2713.32793 0.00033
22.10013 3086.00000 2713.64654 0.00032
22.11013 2971.00000 2714.03404 0.00034
22.12013 3034.00000 2714.54456 0.00033
22.13013 2956.00000 2715.19700 0.00034
22.14013 2967.00000 2716.00129 0.00034
22.15013 3006.00000 2716.96856 0.00033
22.16013 3076.00000 2718.11136 0.00033
22.17013 2965.00000 2719.44385 0.00034
22.18013 3029.00000 2720.98201 0.00033
22.19013 3010.00000 2722.74391 0.00033
22.20013 2941.00000 2724.74993 0.00034
22.21013 2999.00000 2727.02308 0.00033
22.22013 2971.00000 2729.58928 0.00034
22.23013 3007.00000 2732.47772 0.00033
22.24013 3030.00000 2735.72128 0.00033
22.25013 3057.00000 2739.35680 0.00033
22.26013 3074.00000 2743.42544 0.00033
22.27013 2975.00000 2747.97289 0.00034
22.28013 2951.00000 2753.04952 0.00034
22.29013 3093.00000 2758.71010 0.00032
22.30013 2994.00000 2765.01017 0.00033
22.31013 3025.00000 2771.98073 0.00033
22.32013 3105.00000 2779.71022 0.00032
22.33013 3013.00000 2788.60442 0.00033
22.34013 2962.00000 2798.55349 0.00034
22.35013 2981.00000 2809.63774 0.00034
22.36013 3047.00000 2821.98133 0.00033
22.37013 3069.00000 2835.72070 0.00033
22.38013 3020.00000 2851.00549 0.00033
22.39013 2969.00000 2867.99956 0.00034
22.40013 3060.00000 2886.88206 0.00033
22.41013 3061.00000 2907.84851 0.00033
22.42013 3089.00000 2931.11159 0.00032
22.43013 3168.00000 2956.90187 0.00032
22.44013 3131.00000 2985.46825 0.00032
22.45013 3171.00000 3017.07769 0.00032
22.46013 3235.00000 3052.01419 0.00031
22.47013 3244.00000 3090.57665 0.00031
22.48013 3335.00000 3133.07547 0.00030
22.49014 3170.00000 3179.87869 0.00032
22.50014 3318.00000 3231.20572 0.00030
22.51014 3287.00000 3287.41077 0.00030
22.52014 3326.00000 3348.78160 0.00030
22.53014 3581.00000 3415.57289 0.00028
22.54014 3548.00000 3487.99089 0.00028
22.55014 3577.00000 3566.17599 0.00028
22.56014 3702.00000 3650.18329 0.00027
22.57014 3664.00000 3739.96166 0.00027
22.58014 3890.00000 3835.33131 0.00026
22.59014 3933.00000 3935.96042 0.00025
22.60014 4101.00000 4041.34106 0.00024
22.61014 4196.00000 4150.76453 0.00024
22.62014 4287.00000 4263.29667 0.00023
22.63014 4428.00000 4377.75323 0.00023
22.64014 4502.00000 4492.67636 0.00022
22.65014 4652.00000 4606.31358 0.00021
22.66014 4745.00000 4716.60257 0.00021
22.67014 4897.00000 4821.16709 0.00020
22.68014 4985.00000 4917.33236 0.00020
22.69014 5088.00000 5002.17237 0.00020
22.70014 5000.00000 5072.60276 0.00020
22.71014 5119.00000 5125.53369 0.00020
22.72014 5205.00000 5158.08954 0.00019
22.73014 5117.00000 5167.88642 0.00020
22.74014 5290.00000 5153.33571 0.00019
22.75014 5172.00000 5113.91627 0.00019
22.76014 5102.00000 5050.34460 0.00020
22.77014 5097.00000 4964.58467 0.00020
22.78014 4950.00000 4859.67389 0.00020
22.79014 4679.00000 4739.39677 0.00021
22.80014 4561.00000 4607.88209 0.00022
22.81014 4293.00000 4469.21152 0.00023
22.82014 4216.00000 4327.10936 0.00024
22.83014 4072.00000 4184.73829 0.00025
22.84014 3813.00000 4044.54786 0.00026
22.85014 3802.00000 3907.84034 0.00026
22.86014 3665.00000 3776.06427 0.00027
22.87014 3400.00000 3655.90803 0.00029
22.88014 3368.00000 3544.04315 0.00030
22.89014 3326.00000 3441.17033 0.00030
22.90014 3239.00000 3346.75548 0.00031
22.91014 3124.00000 3260.69434 0.00032
22.92015 3044.00000 3182.65841 0.00033
22.93015 2953.00000 3112.42176 0.00034
22.94015 2983.00000 3049.44646 0.00034
22.95015 3006.00000 2993.21500 0.00033
22.96015 2971.00000 2943.17526 0.00034
22.97015 2907.00000 2898.76048 0.00034
22.98015 2963.00000 2859.40601 0.00034
22.99015 2785.00000 2824.56299 0.00036
23.00015 2790.00000 2793.70904 0.00036
23.01015 2844.00000 2766.35617 0.00035
23.02015 2702.00000 2742.05599 0.00037
23.03015 2750.00000 2720.40268 0.00036
23.04015 2798.00000 2701.03394 0.00036
23.05015 2697.00000 2683.63036 0.00037
23.06015 2700.00000 2667.91343 0.00037
23.07015 2687.00000 2653.64280 0.00037
23.08015 2674.00000 2640.61282 0.00037
23.09015 2707.00000 2628.64889 0.00037
23.10015 2632.00000 2617.60365 0.00038
23.11015 2619.00000 2607.35328 0.00038
23.12015 2632.00000 2597.79411 0.00038
23.13015 2627.00000 2588.83939 0.00038
23.14015 2633.00000 2580.41654 0.00038
23.15015 2581.00000 2572.46469 0.00039
23.16015 2590.00000 2564.93258 0.00039
23.17015 2607.00000 2557.77684 0.00038
23.18015 2551.00000 2550.96050 0.00039
23.19015 2485.00000 2544.45185 0.00040
23.20015 2535.00000 2538.22345 0.00039
23.21015 2550.00000 2532.25134 0.00039
23.22015 2545.00000 2526.51447 0.00039
23.23015 2623.00000 2520.99419 0.00038
23.24015 2521.00000 2515.67385 0.00040
23.25015 2583.00000 2510.53851 0.00039
23.26015 2515.00000 2505.57468 0.00040
23.27015 2535.00000 2500.77014 0.00039
23.28015 2460.00000 2496.11374 0.00041
23.29015 2562.00000 2491.59532 0.00039
23.30015 2566.00000 2487.20555 0.00039
23.31015 2487.00000 2482.93589 0.00040
23.32015 2532.00000 2478.77846 0.00039
23.33015 2510.00000 2474.72601 0.00040
23.34015 2571.00000 2470.77183 0.00039
23.35015 2457.00000 2466.90974 0.00041
23.36016 2472.00000 2463.13030 0.00040
23.37016 2507.00000 2459.43567 0.00040
23.38016 2477.00000 2455.81714 0.00040
23.39016 2441.00000 2452.27014 0.00041
23.40016 2477.00000 2448.79041 0.00040
23.41016 2481.00000 2445.37400 0.00040
23.42016 2475.00000 2442.01720 0.00040
23.43016 2489.00000 2438.71659 0.00040
23.44016 2381.00000 2435.46895 0.00042
23.45016 2463.00000 2432.27129 0.00041
23.46016 2469.00000 2429.12081 0.00041
23.47016 2338.00000 2426.01490 0.00043
23.48016 2501.00000 2422.95109 0.00040
23.49016 2406.00000 2419.92711 0.00042
23.50016 2382.00000 2416.94078 0.00042
23.51016 2407.00000 2413.99011 0.00042
23.52016 2391.00000 2411.07318 0.00042
23.53016 2384.00000 2408.18823 0.00042
23.54016 2427.00000 2405.33359 0.00041
23.55016 2436.00000 2402.50767 0.00041
23.56016 2348.00000 2399.70901 0.00043
23.57016 2427.00000 2396.93622 0.00041
23.58016 2339.00000 2394.18797 0.00043
23.59016 2403.00000 2391.46304 0.00042
23.60016 2364.00000 2388.76026 0.00042
23.61016 2441.00000 2386.07853 0.00041
23.62016 2356.00000 2383.41681 0.00042
23.63016 2276.00000 2380.77414 0.00044
23.64016 2402.00000 2378.14957 0.00042
23.65016 2408.00000 2375.54225 0.00042
23.66016 2436.00000 2372.95134 0.00041
23.67016 2318.00000 2370.37606 0.00043
23.68016 2341.00000 2367.81568 0.00043
23.69016 2390.00000 2365.26949 0.00042
23.70016 2302.00000 2362.73684 0.00043
23.71016 2316.00000 2360.21710 0.00043
23.72016 2421.00000 2357.70968 0.00041
23.73016 2234.00000 2355.21402 0.00045
23.74016 2302.00000 2352.72959 0.00043
23.75016 2299.00000 2350.25588 0.00043
23.76016 2301.00000 2347.79241 0.00043
23.77016 2291.00000 2345.33874 0.00044
23.78016 2292.00000 2342.89444 0.00044
23.79016 2253.00000 2340.45911 0.00044
23.80017 2329.00000 2338.02994 0.00043
23.81017 2288.00000 2335.61140 0.00044
23.82017 2250.00000 2333.20074 0.00044
23.83017 2297.00000 2330.79763 0.00044
23.84017 2330.00000 2328.40175 0.00043
23.85017 2327.00000 2326.01281 0.00043
23.86017 2298.00000 2323.63055 0.00044
23.87017 2255.00000 2321.25469 0.00044
23.88017 2302.00000 2318.88499 0.00043
23.89017 2264.00000 2316.52122 0.00044
23.90017 2304.00000 2314.16316 0.00043
23.91017 2293.00000 2311.81059 0.00044
23.92017 2236.00000 2309.46333 0.00045
23.93017 2234.00000 2307.12119 0.00045
23.94017 2243.00000 2304.78399 0.00045
23.95017 2299.00000 2302.45158 0.00043
23.96017 2238.00000 2300.12379 0.00045
23.97017 2200.00000 2297.80049 0.00045
23.98017 2294.00000 2295.48155 0.00044
23.99017 2148.00000 2293.16683 0.00047
24.00017 2197.00000 2290.85623 0.00046
24.01017 2217.00000 2288.54963 0.00045
24.02017 2234.00000 2286.24694 0.00045
24.03017 2248.00000 2283.94806 0.00044
24.04017 2257.00000 2281.65292 0.00044
24.05017 2218.00000 2279.36143 0.00045
24.06017 2188.00000 2277.07352 0.00046
24.07017 2281.00000 2274.78914 0.00044
24.08017 2204.00000 2272.50823 0.00045
24.09017 2253.00000 2270.23073 0.00044
24.10017 2265.00000 2267.95662 0.00044
24.11017 2122.00000 2265.68584 0.00047
24.12017 2157.00000 2263.41838 0.00046
24.13017 2218.00000 2261.15421 0.00045
24.14017 2249.00000 2258.89332 0.00044
24.15017 2147.00000 2256.63568 0.00047
24.16017 2215.00000 2254.38130 0.00045
24.17017 2170.00000 2252.13018 0.00046
24.18017 2195.00000 2249.88233 0.00046
24.19017 2186.00000 2247.63775 0.00046
24.20017 2119.00000 2245.39647 0.00047
24.21017 2253.00000 2243.15851 0.00044
24.22017 2262.00000 2240.92389 0.00044
24.23018 2191.00000 2238.69044 0.00046
24.24018 2162.00000 2236.46264 0.00046
24.25018 2163.00000 2234.23832 0.00046
24.26018 2159.00000 2232.01752 0.00046
24.27018 2147.00000 2229.80031 0.00047
24.28018 2117.00000 2227.58675 0.00047
24.29018 2155.00000 2225.37691 0.00046
24.30018 2109.00000 2223.17087 0.00047
24.31018 2096.00000 2220.96872 0.00048
24.32018 2148.00000 2218.77053 0.00047
24.33018 2140.00000 2216.57642 0.00047
24.34018 2093.00000 2214.38647 0.00048
24.35018 2133.00000 2212.20081 0.00047
24.36018 2191.00000 2210.01955 0.00046
24.37018 2055.00000 2207.84280 0.00049
24.38018 2115.00000 2205.67071 0.00047
24.39018 2074.00000 2203.50341 0.00048
24.40018 2099.00000 2201.34105 0.00048
24.41018 2135.00000 2199.18379 0.00047
24.42018 2154.00000 2197.03177 0.00046
24.43018 2142.00000 2194.88519 0.00047
24.44018 2170.00000 2192.74423 0.00046
24.45018 2113.00000 2190.60911 0.00047
24.46018 2134.00000 2188.48006 0.00047
24.47018 2089.00000 2186.35733 0.00048
24.48018 2052.00000 2184.24117 0.00049
24.49018 2211.00000 2182.13186 0.00045
24.50018 2152.00000 2180.02969 0.00046
24.51018 2071.00000 2177.93497 0.00048
24.52018 2084.00000 2175.84802 0.00048
24.53018 2111.00000 2173.76918 0.00047
24.54018 2138.00000 2171.69883 0.00047
24.55018 2130.00000 2169.63735 0.00047
24.56018 1991.00000 2167.58516 0.00050
24.57018 2036.00000 2165.54271 0.00049
24.58018 2094.00000 2163.51046 0.00048
24.59018 2088.00000 2161.48893 0.00048
24.60018 2015.00000 2159.47866 0.00050
24.61018 2020.00000 2157.48025 0.00050
24.62018 2058.00000 2155.49432 0.00049
24.63018 2096.00000 2153.52159 0.00048
24.64018 2090.00000 2151.56280 0.00048
24.65018 2078.00000 2149.61881 0.00048
24.66018 2028.00000 2147.69054 0.00049
24.67019 2060.00000 2145.77714 0.00049
24.68019 2077.00000 2143.88366 0.00048
24.69019 1957.00000 2142.00955 0.00051
24.70019 2022.00000 2140.15652 0.00049
24.71019 2015.00000 2138.32667 0.00050
24.72019 2042.00000 2136.52266 0.00049
24.73019 1948.00000 2134.74798 0.00051
24.74019 1937.00000 2133.00760 0.00052
24.75019 1974.00000 2131.30919 0.00051
24.76019 1996.00000 2129.66620 0.00050
24.77019 2000.00000 2128.11734 0.00050
24.78019 2017.00000 2126.69356 0.00050
24.79019 2023.00000 2125.18317 0.00049
24.80019 2041.00000 2123.53224 0.00049
24.81019 1930.00000 2121.88338 0.00052
24.82019 2041.00000 2120.26129 0.00049
24.83019 2074.00000 2118.66731 0.00048
24.84019 2039.00000 2117.10286 0.00049
24.85019 1980.00000 2115.56945 0.00051
24.86019 2024.00000 2114.06872 0.00049
24.87019 1944.00000 2112.60237 0.00051
24.88019 1965.00000 2111.17228 0.00051
24.89019 1993.00000 2109.78040 0.00050
24.90019 2003.00000 2108.42888 0.00050
24.91019 1922.00000 2107.12000 0.00052
24.92019 1978.00000 2105.85622 0.00051
24.93019 2002.00000 2104.64019 0.00050
24.94019 1939.00000 2103.47479 0.00052
24.95019 2026.00000 2102.36311 0.00049
24.96019 2078.00000 2101.30853 0.00048
24.97019 2025.00000 2100.31468 0.00049
24.98019 2071.00000 2099.38553 0.00048
24.99019 2010.00000 2098.52537 0.00050
25.00019 1987.00000 2097.73891 0.00050
25.01019 2007.00000 2097.03125 0.00050
25.02019 1963.00000 2096.40795 0.00051
25.03019 2015.00000 2095.87511 0.00050
25.04019 1940.00000 2095.43937 0.00052
25.05019 2003.00000 2095.10800 0.00050
25.06019 1971.00000 2094.88893 0.00051
25.07019 1987.00000 2094.79084 0.00050
25.08019 2056.00000 2094.82323 0.00049
25.09019 2006.00000 2094.99647 0.00050
25.10019 1944.00000 2095.32189 0.00051
25.11020 1881.00000 2095.81242 0.00053
25.12020 1909.00000 2096.48064 0.00052
25.13020 1930.00000 2097.34166 0.00052
25.14020 1992.00000 2098.41156 0.00050
25.15020 1949.00000 2099.70793 0.00051
25.16020 1991.00000 2101.24999 0.00050
25.17020 1970.00000 2103.05914 0.00051
25.18020 1905.00000 2105.16059 0.00052
25.19020 1977.00000 2107.58351 0.00051
25.20020 1978.00000 2110.33876 0.00051
25.21020 1910.00000 2113.41980 0.00052
25.22020 1946.00000 2116.87911 0.00051
25.23020 2022.00000 2120.75226 0.00049
25.24020 2001.00000 2125.06953 0.00050
25.25020 1995.00000 2129.86242 0.00050
25.26020 1980.00000 2135.16347 0.00051
25.27020 2083.00000 2141.00603 0.00048
25.28020 2128.00000 2147.42404 0.00047
25.29020 2040.00000 2154.45163 0.00049
25.30020 2020.00000 2162.12281 0.00050
25.31020 1964.00000 2170.47101 0.00051
25.32020 1975.00000 2179.52855 0.00051
25.33020 2003.00000 2189.32613 0.00050
25.34020 2083.00000 2199.89217 0.00048
25.35020 2083.00000 2211.25210 0.00048
25.36020 2114.00000 2223.42768 0.00047
25.37020 2138.00000 2236.43609 0.00047
25.38020 2138.00000 2250.28905 0.00047
25.39020 2174.00000 2264.99180 0.00046
25.40020 2280.00000 2280.54198 0.00044
25.41020 2227.00000 2296.92834 0.00045
25.42020 2319.00000 2314.12946 0.00043
25.43020 2349.00000 2332.11215 0.00043
25.44020 2398.00000 2350.82985 0.00042
25.45020 2501.00000 2370.22077 0.00040
25.46020 2456.00000 2390.20594 0.00041
25.47020 2536.00000 2410.68716 0.00039
25.48020 2568.00000 2431.54477 0.00039
25.49020 2706.00000 2452.63558 0.00037
25.50020 2764.00000 2473.79082 0.00036
25.51020 2790.00000 2494.81446 0.00036
25.52020 2900.00000 2515.48211 0.00034
25.53020 2882.00000 2535.54072 0.00035
25.54021 2883.00000 2554.72844 0.00035
25.55021 2992.00000 2572.70094 0.00033
25.56021 3094.00000 2589.15240 0.00032
25.57021 3164.00000 2603.74456 0.00032
25.58021 3214.00000 2616.13648 0.00031
25.59021 3277.00000 2625.99728 0.00031
25.60021 3380.00000 2633.02114 0.00030
25.61021 3302.00000 2636.94376 0.00030
25.62021 3356.00000 2637.55890 0.00030
25.63021 3421.00000 2634.73353 0.00029
25.64021 3327.00000 2628.41944 0.00030
25.65021 3236.00000 2618.65991 0.00031
25.66021 3264.00000 2605.59033 0.00031
25.67021 3077.00000 2589.43200 0.00032
25.68021 3076.00000 2570.47951 0.00033
25.69021 2957.00000 2549.08307 0.00034
25.70021 2843.00000 2525.62740 0.00035
25.71021 2746.00000 2500.50872 0.00036
25.72021 2694.00000 2474.10247 0.00037
25.73021 2653.00000 2446.69800 0.00038
25.74021 2597.00000 2418.71260 0.00039
25.75021 2370.00000 2391.15962 0.00042
25.76021 2319.00000 2363.84889 0.00043
25.77021 2349.00000 2336.92968 0.00043
25.78021 2287.00000 2310.59626 0.00044
25.79021 2245.00000 2285.00356 0.00045
25.80021 2110.00000 2260.27142 0.00047
25.81021 2162.00000 2236.48934 0.00046
25.82021 2167.00000 2213.72119 0.00046
25.83021 2029.00000 2192.00985 0.00049
25.84021 2019.00000 2171.38138 0.00050
25.85021 2026.00000 2151.84882 0.00049
25.86021 2008.00000 2133.41554 0.00050
25.87021 1973.00000 2116.07812 0.00051
25.88021 1993.00000 2099.82890 0.00050
25.89021 1910.00000 2084.65820 0.00052
25.90021 1992.00000 2070.55626 0.00050
25.91021 1899.00000 2057.51491 0.00053
25.92021 1887.00000 2045.52917 0.00053
25.93021 1932.00000 2034.59857 0.00052
25.94021 1832.00000 2024.72845 0.00055
25.95021 1884.00000 2015.93113 0.00053
25.96021 1812.00000 2008.22708 0.00055
25.97021 1819.00000 2001.64607 0.00055
25.98022 1853.00000 1996.22346 0.00054
25.99022 1859.00000 1992.02253 0.00054
26.00022 1780.00000 1989.10301 0.00056
26.01022 1795.00000 1987.54635 0.00056
26.02022 1887.00000 1987.45213 0.00053
26.03022 1893.00000 1988.94101 0.00053
26.04022 1914.00000 1992.15818 0.00052
26.05022 1923.00000 1997.27712 0.00052
26.06022 1909.00000 2004.50347 0.00052
26.07022 1882.00000 2014.07857 0.00053
26.08022 1895.00000 2026.28201 0.00053
26.09022 1902.00000 2041.43253 0.00053
26.10022 1941.00000 2059.88598 0.00052
26.11022 1979.00000 2082.02928 0.00051
26.12022 1999.00000 2108.26905 0.00050
26.13022 1997.00000 2139.01362 0.00050
26.14022 2035.00000 2174.64743 0.00049
26.15022 2084.00000 2215.49747 0.00048
26.16022 2104.00000 2261.79196 0.00048
26.17022 2123.00000 2313.61264 0.00047
26.18022 2200.00000 2370.84311 0.00045
26.19022 2252.00000 2433.11679 0.00044
26.20022 2345.00000 2499.76885 0.00043
26.21022 2420.00000 2569.79721 0.00041
26.22022 2450.00000 2641.83730 0.00041
26.23022 2459.00000 2714.15517 0.00041
26.24022 2556.00000 2784.66243 0.00039
26.25022 2546.00000 2850.95614 0.00039
26.26022 2563.00000 2910.38782 0.00039
26.27022 2675.00000 2960.16779 0.00037
26.28022 2694.00000 2997.51512 0.00037
26.29022 2723.00000 3019.86427 0.00037
26.30022 2756.00000 3025.13153 0.00036
26.31022 2768.00000 3012.01832 0.00036
26.32022 2707.00000 2980.28877 0.00037
26.33022 2775.00000 2930.92636 0.00036
26.34022 2669.00000 2866.08639 0.00037
26.35022 2618.00000 2788.83070 0.00038
26.36022 2584.00000 2702.72185 0.00039
26.37022 2459.00000 2611.40268 0.00041
26.38022 2419.00000 2518.26464 0.00041
26.39022 2336.00000 2426.24397 0.00043
26.40022 2251.00000 2337.72997 0.00044
26.41022 2158.00000 2254.54775 0.00046
26.42023 2038.00000 2177.90914 0.00049
26.43023 1985.00000 2108.75965 0.00050
26.44023 1937.00000 2047.37467 0.00052
26.45023 1846.00000 1993.74254 0.00054
26.46023 1904.00000 1947.55726 0.00053
26.47023 1772.00000 1908.29357 0.00056
26.48023 1760.00000 1875.27976 0.00057
26.49023 1813.00000 1847.76404 0.00055
26.50023 1776.00000 1824.97141 0.00056
26.51023 1775.00000 1806.14863 0.00056
26.52023 1743.00000 1790.59701 0.00057
26.53023 1698.00000 1777.69315 0.00059
26.54023 1723.00000 1766.89946 0.00058
26.55023 1678.00000 1757.76656 0.00060
26.56023 1669.00000 1749.93003 0.00060
26.57023 1620.00000 1743.10468 0.00062
26.58023 1675.00000 1737.09088 0.00060
26.59023 1708.00000 1731.72043 0.00059
26.60023 1629.00000 1726.65104 0.00061
26.61023 1677.00000 1721.89423 0.00060
26.62023 1730.00000 1717.41468 0.00058
26.63023 1724.00000 1713.16100 0.00058
26.64023 1670.00000 1709.09387 0.00060
26.65023 1667.00000 1705.18408 0.00060
26.66023 1663.00000 1701.40966 0.00060
26.67023 1663.00000 1697.75373 0.00060
26.68023 1640.00000 1694.20303 0.00061
26.69023 1636.00000 1690.74686 0.00061
26.70023 1626.00000 1687.37637 0.00062
26.71023 1619.00000 1684.08410 0.00062
26.72023 1616.00000 1680.86361 0.00062
26.73023 1669.00000 1677.70928 0.00060
26.74023 1657.00000 1674.61614 0.00060
26.75023 1616.00000 1671.57978 0.00062
26.76023 1623.00000 1668.59623 0.00062
26.77023 1628.00000 1665.66191 0.00061
26.78023 1654.00000 1662.77358 0.00060
26.79023 1629.00000 1659.92833 0.00061
26.80023 1618.00000 1657.12347 0.00062
26.81023 1576.00000 1654.35660 0.00063
26.82023 1604.00000 1651.62548 0.00062
26.83023 1558.00000 1648.92810 0.00064
26.84023 1560.00000 1646.26260 0.00064
26.85023 1587.00000 1643.62728 0.00063
26.86024 1630.00000 1641.01799 0.00061
26.87024 1632.00000 1638.43850 0.00061
26.88024 1584.00000 1635.88486 0.00063
26.89024 1556.00000 1633.35587 0.00064
26.90024 1630.00000 1630.85039 0.00061
26.91024 1531.00000 1628.36739 0.00065
26.92024 1519.00000 1625.90592 0.00066
26.93024 1547.00000 1623.46509 0.00065
26.94024 1538.00000 1621.04410 0.00065
26.95024 1550.00000 1618.64221 0.00065
26.96024 1574.00000 1616.25875 0.00064
26.97024 1582.00000 1613.89313 0.00063
26.98024 1545.00000 1611.54489 0.00065
26.99024 1573.00000 1609.21371 0.00064
27.00024 1564.00000 1606.89996 0.00064
27.01024 1570.00000 1604.60350 0.00064
27.02024 1551.00000 1602.31763 0.00064
27.03024 1581.00000 1600.04430 0.00063
27.04024 1591.00000 1597.78471 0.00063
27.05024 1568.00000 1595.53864 0.00064
27.06024 1637.00000 1593.30574 0.00061
27.07024 1605.00000 1591.08566 0.00062
27.08024 1545.00000 1588.87808 0.00065
27.09024 1509.00000 1586.68268 0.00066
27.10024 1524.00000 1584.49920 0.00066
27.11024 1571.00000 1582.32735 0.00064
27.12024 1519.00000 1580.16689 0.00066
27.13024 1538.00000 1578.01759 0.00065
27.14024 1530.00000 1575.87922 0.00065
27.15024 1549.00000 1573.75157 0.00065
27.16024 1545.00000 1571.63445 0.00065
27.17024 1545.00000 1569.52768 0.00065
27.18024 1471.00000 1567.43107 0.00068
27.19024 1527.00000 1565.34448 0.00065
27.20024 1514.00000 1563.26774 0.00066
27.21024 1547.00000 1561.20072 0.00065
27.22024 1499.00000 1559.14328 0.00067
27.23024 1505.00000 1557.09530 0.00066
27.24024 1513.00000 1555.05665 0.00066
27.25024 1539.00000 1553.02724 0.00065
27.26024 1506.00000 1551.00695 0.00066
27.27024 1459.00000 1548.99570 0.00069
27.28024 1548.00000 1546.99339 0.00065
27.29025 1470.00000 1544.99796 0.00068
27.30025 1540.00000 1543.01331 0.00065
27.31025 1431.00000 1541.03739 0.00070
27.32025 1513.00000 1539.07011 0.00066
27.33025 1526.00000 1537.11143 0.00066
27.34025 1521.00000 1535.16130 0.00066
27.35025 1530.00000 1533.21965 0.00065
27.36025 1501.00000 1531.28646 0.00067
27.37025 1527.00000 1529.36168 0.00065
27.38025 1483.00000 1527.44529 0.00067
27.39025 1543.00000 1525.53724 0.00065
27.40025 1503.00000 1523.63752 0.00067
27.41025 1507.00000 1521.74611 0.00066
27.42025 1575.00000 1519.86299 0.00063
27.43025 1565.00000 1517.98815 0.00064
27.44025 1476.00000 1516.12159 0.00068
27.45025 1514.00000 1514.26330 0.00066
27.46025 1477.00000 1512.41328 0.00068
27.47025 1466.00000 1510.57155 0.00068
27.48025 1377.00000 1508.73810 0.00073
27.49025 1420.00000 1506.91296 0.00070
27.50025 1444.00000 1505.09614 0.00069
27.51025 1470.00000 1503.28768 0.00068
27.52025 1419.00000 1501.48758 0.00070
27.53025 1494.00000 1499.69588 0.00067
27.54025 1452.00000 1497.91257 0.00069
27.55025 1494.00000 1496.13768 0.00067
27.56025 1426.00000 1494.37121 0.00070
27.57025 1527.00000 1492.61318 0.00065
27.58025 1524.00000 1490.86364 0.00066
27.59025 1502.00000 1489.12265 0.00067
27.60025 1518.00000 1487.39028 0.00066
27.61025 1465.00000 1485.66660 0.00068
27.62025 1466.00000 1483.95170 0.00068
27.63025 1460.00000 1482.24567 0.00068
27.64025 1480.00000 1480.54862 0.00068
27.65025 1455.00000 1478.86064 0.00069
27.66025 1449.00000 1477.18186 0.00069
27.67025 1472.00000 1475.51241 0.00068
27.68025 1484.00000 1473.85241 0.00067
27.69025 1432.00000 1472.20203 0.00070
27.70025 1540.00000 1470.56141 0.00065
27.71025 1430.00000 1468.93074 0.00070
27.72025 1424.00000 1467.31022 0.00070
27.73026 1448.00000 1465.69843 0.00069
27.74026 1446.00000 1464.09884 0.00069
27.75026 1387.00000 1462.51010 0.00072
27.76026 1447.00000 1460.93247 0.00069
27.77026 1450.00000 1459.36628 0.00069
27.78026 1467.00000 1457.81191 0.00068
27.79026 1420.00000 1456.26973 0.00070
27.80026 1346.00000 1454.74021 0.00074
27.81026 1455.00000 1453.22406 0.00069
27.82026 1469.00000 1451.72221 0.00068
27.83026 1470.00000 1450.23592 0.00068
27.84026 1498.00000 1448.76744 0.00067
27.85026 1433.00000 1447.32140 0.00070
27.86026 1450.00000 1445.91325 0.00069
27.87026 1539.00000 1444.53682 0.00065
27.88026 1435.00000 1443.05558 0.00070
27.89026 1468.00000 1441.65390 0.00068
27.90026 1423.00000 1440.28031 0.00070
27.91026 1431.00000 1438.92185 0.00070
27.92026 1419.00000 1437.57904 0.00070
27.93026 1425.00000 1436.25241 0.00070
27.94026 1430.00000 1434.94253 0.00070
27.95026 1464.00000 1433.65000 0.00068
27.96026 1515.00000 1432.37549 0.00066
27.97026 1456.00000 1431.11969 0.00069
27.98026 1423.00000 1429.88336 0.00070
27.99026 1415.00000 1428.66731 0.00071
28.00026 1391.00000 1427.47241 0.00072
28.01026 1478.00000 1426.29961 0.00068
28.02026 1420.00000 1425.14993 0.00070
28.03026 1369.00000 1424.02448 0.00073
28.04026 1396.00000 1422.92448 0.00072
28.05026 1450.00000 1421.85126 0.00069
28.06026 1428.00000 1420.80628 0.00070
28.07026 1382.00000 1419.79116 0.00072
28.08026 1385.00000 1418.80771 0.00072
28.09026 1354.00000 1417.85795 0.00074
28.10026 1371.00000 1416.94416 0.00073
28.11026 1441.00000 1416.06894 0.00069
28.12026 1429.00000 1415.23525 0.00070
28.13026 1437.00000 1414.44653 0.00070
28.14026 1400.00000 1413.70674 0.00071
28.15026 1441.00000 1413.02052 0.00069
28.16026 1434.00000 1412.39329 0.00070
28.17027 1358.00000 1411.83087 0.00074
28.18027 1412.00000 1411.34195 0.00071
28.19027 1422.00000 1410.93475 0.00070
28.20027 1418.00000 1410.61974 0.00071
28.21027 1417.00000 1410.40922 0.00071
28.22027 1377.00000 1410.31770 0.00073
28.23027 1451.00000 1410.36226 0.00069
28.24027 1406.00000 1410.56290 0.00071
28.25027 1368.00000 1410.94308 0.00073
28.26027 1382.00000 1411.53018 0.00072
28.27027 1375.00000 1412.35611 0.00073
28.28027 1307.00000 1413.45794 0.00077
28.29027 1455.00000 1414.87862 0.00069
28.30027 1412.00000 1416.66780 0.00071
28.31027 1353.00000 1418.88261 0.00074
28.32027 1425.00000 1421.58866 0.00070
28.33027 1393.00000 1424.86091 0.00072
28.34027 1448.00000 1428.78467 0.00069
28.35027 1393.00000 1433.45649 0.00072
28.36027 1435.00000 1438.98495 0.00070
28.37027 1419.00000 1445.49123 0.00070
28.38027 1460.00000 1453.10924 0.00068
28.39027 1463.00000 1461.98520 0.00068
28.40027 1472.00000 1472.27636 0.00068
28.41027 1472.00000 1484.14859 0.00068
28.42027 1515.00000 1497.77263 0.00066
28.43027 1526.00000 1513.31864 0.00066
28.44027 1557.00000 1530.94902 0.00064
28.45027 1526.00000 1550.80926 0.00066
28.46027 1605.00000 1573.01696 0.00062
28.47027 1616.00000 1597.64913 0.00062
28.48027 1668.00000 1624.72833 0.00060
28.49027 1674.00000 1654.20804 0.00060
28.50027 1660.00000 1685.95802 0.00060
28.51027 1698.00000 1719.75062 0.00059
28.52027 1737.00000 1755.24858 0.00058
28.53027 1852.00000 1791.99541 0.00054
28.54027 1837.00000 1829.40889 0.00054
28.55027 1859.00000 1866.77837 0.00054
28.56027 1857.00000 1903.26679 0.00054
28.57027 1902.00000 1937.91861 0.00053
28.58027 1881.00000 1969.67608 0.00053
28.59027 1918.00000 1997.40759 0.00052
28.60028 1882.00000 2019.97579 0.00053
28.61028 1916.00000 2036.21116 0.00052
28.62028 1897.00000 2045.15871 0.00053
28.63028 1866.00000 2046.08749 0.00054
28.64028 1986.00000 2038.63623 0.00050
28.65028 1940.00000 2022.90319 0.00052
28.66028 1991.00000 1999.47497 0.00050
28.67028 1881.00000 1969.37523 0.00053
28.68028 1899.00000 1933.94227 0.00053
28.69028 1849.00000 1894.66978 0.00054
28.70028 1767.00000 1853.05334 0.00057
28.71028 1678.00000 1810.47408 0.00060
28.72028 1688.00000 1768.13002 0.00059
28.73028 1666.00000 1727.00876 0.00060
28.74028 1574.00000 1687.88799 0.00064
28.75028 1543.00000 1651.35175 0.00065
28.76028 1564.00000 1617.81592 0.00064
28.77028 1562.00000 1587.56716 0.00064
28.78028 1489.00000 1560.70984 0.00067
28.79028 1493.00000 1536.97707 0.00067
28.80028 1499.00000 1516.44245 0.00067
28.81028 1382.00000 1498.99392 0.00072
28.82028 1393.00000 1484.42466 0.00072
28.83028 1394.00000 1472.49510 0.00072
28.84028 1416.00000 1462.94916 0.00071
28.85028 1369.00000 1455.52780 0.00073
28.86028 1366.00000 1449.97996 0.00073
28.87028 1359.00000 1446.07072 0.00074
28.88028 1386.00000 1443.58674 0.00072
28.89028 1377.00000 1442.33942 0.00073
28.90028 1362.00000 1442.16591 0.00073
28.91028 1368.00000 1442.92852 0.00073
28.92028 1389.00000 1444.51294 0.00072
28.93028 1389.00000 1446.82555 0.00072
28.94028 1365.00000 1449.79035 0.00073
28.95028 1406.00000 1453.34557 0.00071
28.96028 1431.00000 1457.44034 0.00070
28.97028 1406.00000 1462.03147 0.00071
28.98028 1425.00000 1467.08055 0.00070
28.99028 1440.00000 1472.55125 0.00069
29.00028 1472.00000 1478.40703 0.00068
29.01028 1414.00000 1484.60917 0.00071
29.02028 1505.00000 1491.11507 0.00066
29.03028 1448.00000 1497.87695 0.00069
29.04029 1519.00000 1504.84780 0.00066
29.05029 1505.00000 1511.95260 0.00066
29.06029 1477.00000 1519.12972 0.00068
29.07029 1467.00000 1526.30319 0.00068
29.08029 1533.00000 1533.39001 0.00065
29.09029 1558.00000 1540.30133 0.00064
29.10029 1589.00000 1546.94448 0.00063
29.11029 1611.00000 1553.22597 0.00062
29.12029 1666.00000 1559.05538 0.00060
29.13029 1608.00000 1564.34956 0.00062
29.14029 1621.00000 1569.03636 0.00062
29.15029 1681.00000 1573.05676 0.00059
29.16029 1708.00000 1576.36495 0.00059
29.17029 1750.00000 1578.92648 0.00057
29.18029 1699.00000 1580.71534 0.00059
29.19029 1804.00000 1581.71125 0.00055
29.20029 1706.00000 1581.89806 0.00059
29.21029 1728.00000 1581.26353 0.00058
29.22029 1661.00000 1579.80030 0.00060
29.23029 1645.00000 1577.50746 0.00061
29.24029 1712.00000 1574.39229 0.00058
29.25029 1710.00000 1570.47157 0.00058
29.26029 1727.00000 1565.77247 0.00058
29.27029 1693.00000 1560.33266 0.00059
29.28029 1674.00000 1554.19981 0.00060
29.29029 1685.00000 1547.43056 0.00059
29.30029 1557.00000 1540.08894 0.00064
29.31029 1549.00000 1532.24454 0.00065
29.32029 1591.00000 1523.97053 0.00063
29.33029 1597.00000 1515.34160 0.00063
29.34029 1585.00000 1506.43210 0.00063
29.35029 1479.00000 1497.31429 0.00068
29.36029 1470.00000 1488.05694 0.00068
29.37029 1485.00000 1478.72424 0.00067
29.38029 1428.00000 1469.37502 0.00070
29.39029 1476.00000 1460.06226 0.00068
29.40029 1408.00000 1450.83303 0.00071
29.41029 1372.00000 1441.72861 0.00073
29.42029 1388.00000 1432.78532 0.00072
29.43029 1383.00000 1424.03827 0.00072
29.44029 1380.00000 1415.51355 0.00072
29.45029 1375.00000 1407.18413 0.00073
29.46029 1355.00000 1399.08650 0.00074
29.47029 1355.00000 1391.24012 0.00074
29.48030 1339.00000 1383.64492 0.00075
29.49030 1348.00000 1376.32021 0.00074
29.50030 1302.00000 1369.26011 0.00077
29.51030 1390.00000 1362.46434 0.00072
29.52030 1339.00000 1355.93089 0.00075
29.53030 1327.00000 1349.65635 0.00075
29.54030 1309.00000 1343.63615 0.00076
29.55030 1300.00000 1337.86480 0.00077
29.56030 1272.00000 1332.33609 0.00079
29.57030 1279.00000 1327.04326 0.00078
29.58030 1285.00000 1321.97915 0.00078
29.59030 1342.00000 1317.13632 0.00075
29.60030 1344.00000 1312.50713 0.00074
29.61030 1271.00000 1308.08386 0.00079
29.62030 1290.00000 1303.85878 0.00078
29.63030 1345.00000 1299.82418 0.00074
29.64030 1287.00000 1295.97245 0.00078
29.65030 1316.00000 1292.29613 0.00076
29.66030 1288.00000 1288.78792 0.00078
29.67030 1364.00000 1285.44073 0.00073
29.68030 1353.00000 1282.24769 0.00074
29.69030 1324.00000 1279.20218 0.00076
29.70030 1335.00000 1276.29785 0.00075
29.71030 1324.00000 1273.52867 0.00076
29.72030 1287.00000 1270.88886 0.00078
29.73030 1268.00000 1268.37298 0.00079
29.74030 1257.00000 1265.97587 0.00080
29.75030 1338.00000 1263.69270 0.00075
29.76030 1236.00000 1261.51896 0.00081
29.77030 1281.00000 1259.45043 0.00078
29.78030 1279.00000 1257.48326 0.00078
29.79030 1219.00000 1255.61391 0.00082
29.80030 1329.00000 1253.83918 0.00075
29.81030 1365.00000 1252.15621 0.00073
29.82030 1310.00000 1250.56249 0.00076
29.83030 1292.00000 1249.05588 0.00077
29.84030 1319.00000 1247.63465 0.00076
29.85030 1292.00000 1246.29746 0.00077
29.86030 1224.00000 1245.04350 0.00082
29.87030 1240.00000 1243.87254 0.00081
29.88030 1308.00000 1242.78512 0.00076
29.89030 1292.00000 1241.78291 0.00077
29.90030 1293.00000 1240.86954 0.00077
29.91031 1243.00000 1240.05242 0.00080
29.92031 1240.00000 1239.34859 0.00081
29.93031 1259.00000 1238.75966 0.00079
29.94031 1323.00000 1238.26112 0.00076
29.95031 1237.00000 1237.81567 0.00081
29.96031 1285.00000 1237.33844 0.00078
29.97031 1269.00000 1236.91816 0.00079
29.98031 1313.00000 1236.58171 0.00076
29.99031 1270.00000 1236.33229 0.00079
30.00031 1262.00000 1236.17345 0.00079
30.01031 1212.00000 1236.10938 0.00083
30.02031 1284.00000 1236.14503 0.00078
30.03031 1261.00000 1236.28622 0.00079
30.04031 1257.00000 1236.53980 0.00080
30.05031 1289.00000 1236.91377 0.00078
30.06031 1312.00000 1237.41755 0.00076
30.07031 1230.00000 1238.06217 0.00081
30.08031 1272.00000 1238.86057 0.00079
30.09031 1276.00000 1239.82796 0.00078
30.10031 1238.00000 1240.98215 0.00081
30.11031 1263.00000 1242.34405 0.00079
30.12031 1285.00000 1243.93818 0.00078
30.13031 1278.00000 1245.79329 0.00078
30.14031 1274.00000 1247.94299 0.00078
30.15031 1277.00000 1250.42658 0.00078
30.16031 1247.00000 1253.28990 0.00080
30.17031 1278.00000 1256.58625 0.00078
30.18031 1329.00000 1260.37751 0.00075
30.19031 1337.00000 1264.73517 0.00075
30.20031 1315.00000 1269.74156 0.00076
30.21031 1293.00000 1275.49100 0.00077
30.22031 1279.00000 1282.09094 0.00078
30.23031 1317.00000 1289.66296 0.00076
30.24031 1344.00000 1298.34366 0.00074
30.25031 1356.00000 1308.28510 0.00074
30.26031 1373.00000 1319.65492 0.00073
30.27031 1358.00000 1332.63589 0.00074
30.28031 1426.00000 1347.42465 0.00070
30.29031 1465.00000 1364.22969 0.00068
30.30031 1404.00000 1383.26829 0.00071
30.31031 1449.00000 1404.76234 0.00069
30.32031 1445.00000 1428.93289 0.00069
30.33031 1466.00000 1455.99340 0.00068
30.34031 1602.00000 1486.14163 0.00062
30.35032 1556.00000 1519.58410 0.00064
30.36032 1614.00000 1556.39315 0.00062
30.37032 1627.00000 1596.68855 0.00061
30.38032 1759.00000 1640.49921 0.00057
30.39032 1738.00000 1687.78078 0.00058
30.40032 1829.00000 1738.40231 0.00055
30.41032 1849.00000 1792.13310 0.00054
30.42032 1948.00000 1848.63010 0.00051
30.43032 1888.00000 1907.42608 0.00053
30.44032 2060.00000 1967.91880 0.00049
30.45032 2072.00000 2029.36178 0.00048
30.46032 2140.00000 2090.85690 0.00047
30.47032 2163.00000 2151.35020 0.00046
30.48032 2159.00000 2209.63253 0.00046
30.49032 2316.00000 2264.34848 0.00043
30.50032 2286.00000 2314.01795 0.00044
30.51032 2329.00000 2357.07680 0.00043
30.52032 2387.00000 2391.94267 0.00042
30.53032 2354.00000 2417.11045 0.00042
30.54032 2367.00000 2431.27564 0.00042
30.55032 2415.00000 2433.47448 0.00041
30.56032 2428.00000 2423.21805 0.00041
30.57032 2395.00000 2400.58951 0.00042
30.58032 2297.00000 2366.27503 0.00044
30.59032 2237.00000 2321.51281 0.00045
30.60032 2124.00000 2267.96726 0.00047
30.61032 2165.00000 2207.55673 0.00046
30.62032 2119.00000 2142.27351 0.00047
30.63032 2019.00000 2074.03022 0.00050
30.64032 1919.00000 2004.55205 0.00052
30.65032 1943.00000 1935.31786 0.00051
30.66032 1874.00000 1867.54148 0.00053
30.67032 1736.00000 1802.18012 0.00058
30.68032 1758.00000 1739.95696 0.00057
30.69032 1594.00000 1681.38891 0.00063
30.70032 1584.00000 1626.81314 0.00063
30.71032 1565.00000 1576.39737 0.00064
30.72032 1493.00000 1530.20756 0.00067
30.73032 1451.00000 1488.42350 0.00069
30.74032 1473.00000 1450.81464 0.00068
30.75032 1458.00000 1417.16215 0.00069
30.76032 1424.00000 1387.23202 0.00070
30.77032 1402.00000 1360.75639 0.00071
30.78032 1357.00000 1337.44515 0.00074
30.79033 1343.00000 1316.97755 0.00074
30.80033 1301.00000 1299.09479 0.00077
30.81033 1343.00000 1283.48014 0.00074
30.82033 1342.00000 1269.85317 0.00075
30.83033 1244.00000 1257.95108 0.00080
30.84033 1204.00000 1247.52996 0.00083
30.85033 1322.00000 1238.35495 0.00076
30.86033 1311.00000 1230.22379 0.00076
30.87033 1287.00000 1223.10246 0.00078
30.88033 1264.00000 1216.85186 0.00079
30.89033 1257.00000 1211.27983 0.00080
30.90033 1226.00000 1206.27277 0.00082
30.91033 1232.00000 1201.74449 0.00081
30.92033 1261.00000 1197.62332 0.00079
30.93033 1213.00000 1193.85002 0.00082
30.94033 1276.00000 1190.37580 0.00078
30.95033 1220.00000 1187.16057 0.00082
30.96033 1248.00000 1184.17143 0.00080
30.97033 1216.00000 1181.38131 0.00082
30.98033 1175.00000 1178.76786 0.00085
30.99033 1158.00000 1176.31254 0.00086
31.00033 1201.00000 1173.99986 0.00083
31.01033 1243.00000 1171.81676 0.00080
31.02033 1317.00000 1169.75214 0.00076
31.03033 1220.00000 1167.79645 0.00082
31.04033 1229.00000 1165.94144 0.00081
31.05033 1254.00000 1164.17986 0.00080
31.06033 1219.00000 1162.50536 0.00082
31.07033 1211.00000 1160.91228 0.00083
31.08033 1221.00000 1159.39557 0.00082
31.09033 1196.00000 1157.95070 0.00084
31.10033 1185.00000 1156.57361 0.00084
31.11033 1168.00000 1155.26063 0.00086
31.12033 1206.00000 1154.00845 0.00083
31.13033 1171.00000 1152.81410 0.00085
31.14033 1231.00000 1151.67489 0.00081
31.15033 1210.00000 1150.58845 0.00083
31.16033 1234.00000 1149.55263 0.00081
31.17033 1192.00000 1148.56556 0.00084
31.18033 1193.00000 1147.62564 0.00084
31.19033 1188.00000 1146.73150 0.00084
31.20033 1156.00000 1145.88204 0.00087
31.21033 1135.00000 1145.07643 0.00088
31.22034 1266.00000 1144.31340 0.00079
31.23034 1166.00000 1143.59429 0.00086
31.24034 1195.00000 1142.91844 0.00084
31.25034 1210.00000 1142.28640 0.00083
31.26034 1173.00000 1141.69907 0.00085
31.27034 1192.00000 1141.15733 0.00084
31.28034 1240.00000 1140.66335 0.00081
31.29034 1270.00000 1140.22671 0.00079
31.30034 1199.00000 1139.84913 0.00083
31.31034 1210.00000 1139.53443 0.00083
31.32034 1194.00000 1139.28922 0.00084
31.33034 1111.00000 1139.12185 0.00090
31.34034 1177.00000 1139.04253 0.00085
31.35034 1200.00000 1139.06361 0.00083
31.36034 1192.00000 1139.19993 0.00084
31.37034 1169.00000 1139.46923 0.00086
31.38034 1163.00000 1139.89254 0.00086
31.39034 1167.00000 1140.49463 0.00086
31.40034 1198.00000 1141.30449 0.00083
31.41034 1214.00000 1142.35578 0.00082
31.42034 1217.00000 1143.68725 0.00082
31.43034 1244.00000 1145.34300 0.00080
31.44034 1272.00000 1147.37269 0.00079
31.45034 1236.00000 1149.83148 0.00081
31.46034 1232.00000 1152.77955 0.00081
31.47034 1210.00000 1156.28132 0.00083
31.48034 1273.00000 1160.40400 0.00079
31.49034 1279.00000 1165.21551 0.00078
31.50034 1256.00000 1170.78169 0.00080
31.51034 1296.00000 1177.16258 0.00077
31.52034 1277.00000 1184.40806 0.00078
31.53034 1326.00000 1192.55261 0.00075
31.54034 1289.00000 1201.60969 0.00078
31.55034 1287.00000 1211.56576 0.00078
31.56034 1321.00000 1222.37433 0.00076
31.57034 1303.00000 1233.95062 0.00077
31.58034 1343.00000 1246.16695 0.00074
31.59034 1402.00000 1258.84957 0.00071
31.60034 1470.00000 1271.77704 0.00068
31.61034 1490.00000 1284.68067 0.00067
31.62034 1437.00000 1297.24718 0.00070
31.63034 1479.00000 1309.12402 0.00068
31.64034 1422.00000 1319.92792 0.00070
31.65034 1517.00000 1329.25770 0.00066
31.66035 1602.00000 1336.71854 0.00062
31.67035 1491.00000 1341.92185 0.00067
31.68035 1579.00000 1344.55998 0.00063
31.69035 1531.00000 1344.41355 0.00065
31.70035 1541.00000 1341.39512 0.00065
31.71035 1520.00000 1335.57310 0.00066
31.72035 1510.00000 1327.17464 0.00066
31.73035 1497.00000 1316.56343 0.00067
31.74035 1504.00000 1304.19729 0.00066
31.75035 1428.00000 1290.57728 0.00070
31.76035 1453.00000 1276.20097 0.00069
31.77035 1460.00000 1261.52798 0.00068
31.78035 1349.00000 1246.95960 0.00074
31.79035 1375.00000 1232.82992 0.00073
31.80035 1354.00000 1219.40471 0.00074
31.81035 1333.00000 1206.88454 0.00075
31.82035 1290.00000 1195.41138 0.00078
31.83035 1286.00000 1185.08349 0.00078
31.84035 1286.00000 1175.94357 0.00078
31.85035 1192.00000 1167.86864 0.00084
31.86035 1257.00000 1160.85255 0.00080
31.87035 1247.00000 1154.86079 0.00080
31.88035 1228.00000 1149.81265 0.00081
31.89035 1207.00000 1145.61246 0.00083
31.90035 1207.00000 1142.16004 0.00083
31.91035 1198.00000 1139.35592 0.00083
31.92035 1231.00000 1137.10532 0.00081
31.93035 1153.00000 1135.32095 0.00087
31.94035 1176.00000 1133.92479 0.00085
31.95035 1167.00000 1132.84893 0.00086
31.96035 1156.00000 1132.03564 0.00087
31.97035 1159.00000 1131.43693 0.00086
31.98035 1175.00000 1131.01370 0.00085
31.99035 1193.00000 1130.73473 0.00084
32.00035 1176.00000 1130.57551 0.00085
32.01035 1200.00000 1130.51717 0.00083
32.02035 1186.00000 1130.54540 0.00084
32.03035 1229.00000 1130.64955 0.00081
32.04035 1179.00000 1130.82184 0.00085
32.05035 1243.00000 1131.05672 0.00080
32.06035 1206.00000 1131.35036 0.00083
32.07035 1248.00000 1131.70020 0.00080
32.08035 1149.00000 1132.10470 0.00087
32.09035 1166.00000 1132.56308 0.00086
32.10035 1145.00000 1133.07516 0.00087
32.11036 1182.00000 1133.64187 0.00085
32.12035 1154.00000 1134.26211 0.00087
32.13036 1214.00000 1134.93951 0.00082
32.14035 1126.00000 1135.67271 0.00089
32.15036 1176.00000 1136.46648 0.00085
32.16035 1215.00000 1137.31962 0.00082
32.17036 1220.00000 1138.23802 0.00082
32.18036 1162.00000 1139.22172 0.00086
32.19036 1163.00000 1140.27473 0.00086
32.20036 1165.00000 1141.40060 0.00086
32.21036 1208.00000 1142.60332 0.00083
32.22036 1165.00000 1143.88738 0.00086
32.23036 1196.00000 1145.25786 0.00084
32.24036 1191.00000 1146.72047 0.00084
32.25036 1166.00000 1148.28165 0.00086
32.26036 1164.00000 1149.94867 0.00086
32.27036 1172.00000 1151.72974 0.00085
32.28036 1138.00000 1153.63413 0.00088
32.29036 1111.00000 1155.67232 0.00090
32.30036 1154.00000 1157.85616 0.00087
32.31036 1220.00000 1160.19906 0.00082
32.32036 1252.00000 1162.71615 0.00080
32.33036 1162.00000 1165.42456 0.00086
32.34036 1134.00000 1168.34359 0.00088
32.35036 1183.00000 1171.49500 0.00085
32.36036 1175.00000 1174.90325 0.00085
32.37036 1196.00000 1178.59578 0.00084
32.38036 1236.00000 1182.60330 0.00081
32.39036 1212.00000 1186.96001 0.00083
32.40036 1262.00000 1191.70393 0.00079
32.41036 1183.00000 1196.87707 0.00085
32.42036 1210.00000 1202.52568 0.00083
32.43036 1214.00000 1208.70040 0.00082
32.44036 1272.00000 1215.45632 0.00079
32.45036 1235.00000 1222.85302 0.00081
32.46036 1231.00000 1230.95446 0.00081
32.47036 1203.00000 1239.82874 0.00083
32.48036 1219.00000 1249.54780 0.00082
32.49036 1327.00000 1260.18681 0.00075
32.50036 1271.00000 1271.82352 0.00079
32.51036 1251.00000 1284.53728 0.00080
32.52036 1288.00000 1298.40796 0.00078
32.53036 1330.00000 1313.51450 0.00075
32.54036 1269.00000 1329.93335 0.00079
32.55037 1364.00000 1347.75574 0.00073
32.56036 1428.00000 1366.98990 0.00070
32.57037 1389.00000 1387.77229 0.00072
32.58036 1403.00000 1410.06278 0.00071
32.59037 1437.00000 1433.98486 0.00070
32.60036 1469.00000 1459.45486 0.00068
32.61037 1568.00000 1486.57197 0.00064
32.62037 1559.00000 1515.22648 0.00064
32.63037 1616.00000 1545.38969 0.00062
32.64037 1668.00000 1576.97539 0.00060
32.65037 1698.00000 1609.86290 0.00059
32.66037 1702.00000 1643.89296 0.00059
32.67037 1807.00000 1678.86341 0.00055
32.68037 1832.00000 1714.52486 0.00055
32.69037 1854.00000 1750.57642 0.00054
32.70037 1928.00000 1786.66193 0.00052
32.71037 1966.00000 1822.36710 0.00051
32.72037 1999.00000 1857.21844 0.00050
32.73037 2082.00000 1890.68488 0.00048
32.74037 2112.00000 1922.18332 0.00047
32.75037 2068.00000 1951.08956 0.00048
32.76037 2246.00000 1976.75581 0.00045
32.77037 2161.00000 1998.53549 0.00046
32.78037 2190.00000 2015.81550 0.00046
32.79037 2288.00000 2028.05409 0.00044
32.80037 2291.00000 2034.82153 0.00044
32.81037 2212.00000 2035.83849 0.00045
32.82037 2245.00000 2031.00659 0.00045
32.83037 2221.00000 2020.42543 0.00045
32.84037 2137.00000 2004.39218 0.00047
32.85037 2126.00000 1983.38282 0.00047
32.86037 1978.00000 1958.01734 0.00051
32.87037 2031.00000 1929.01424 0.00049
32.88037 1903.00000 1897.14112 0.00053
32.89037 1953.00000 1863.16817 0.00051
32.90037 1928.00000 1827.82943 0.00052
32.91037 1770.00000 1791.79480 0.00056
32.92037 1695.00000 1755.65297 0.00059
32.93037 1682.00000 1719.90425 0.00059
32.94037 1633.00000 1684.96088 0.00061
32.95037 1574.00000 1651.15249 0.00064
32.96037 1547.00000 1618.73437 0.00065
32.97038 1530.00000 1587.86768 0.00065
32.98037 1589.00000 1558.77538 0.00063
32.99038 1452.00000 1531.43250 0.00069
33.00037 1443.00000 1505.99501 0.00069
33.01038 1433.00000 1482.38189 0.00070
33.02037 1417.00000 1460.67591 0.00071
33.03038 1334.00000 1440.76305 0.00075
33.04037 1343.00000 1422.67250 0.00074
33.05038 1317.00000 1406.27300 0.00076
33.06038 1316.00000 1391.54155 0.00076
33.07038 1386.00000 1378.38042 0.00072
33.08038 1379.00000 1366.70211 0.00073
33.09038 1307.00000 1356.41467 0.00077
33.10038 1361.00000 1347.42340 0.00073
33.11038 1338.00000 1339.63219 0.00075
33.12038 1326.00000 1332.94474 0.00075
33.13038 1317.00000 1327.26553 0.00076
33.14038 1292.00000 1322.50053 0.00077
33.15038 1313.00000 1318.55782 0.00076
33.16038 1326.00000 1315.34797 0.00075
33.17038 1358.00000 1312.78427 0.00074
33.18038 1345.00000 1310.78290 0.00074
33.19038 1401.00000 1309.26290 0.00071
33.20038 1313.00000 1308.14611 0.00076
33.21038 1449.00000 1307.35697 0.00069
33.22038 1426.00000 1306.82219 0.00070
33.23038 1435.00000 1306.47052 0.00070
33.24038 1361.00000 1306.23200 0.00073
33.25038 1439.00000 1306.03633 0.00069
33.26038 1449.00000 1305.80860 0.00069
33.27038 1477.00000 1305.44188 0.00068
33.28038 1487.00000 1304.86555 0.00067
33.29038 1452.00000 1304.38850 0.00069
33.30038 1398.00000 1303.82022 0.00072
33.31038 1463.00000 1303.03328 0.00068
33.32038 1442.00000 1301.98632 0.00069
33.33038 1440.00000 1300.65285 0.00069
33.34038 1453.00000 1299.01280 0.00069
33.35038 1450.00000 1297.05263 0.00069
33.36038 1440.00000 1294.76542 0.00069
33.37038 1397.00000 1292.15074 0.00072
33.38038 1401.00000 1289.21439 0.00071
33.39038 1426.00000 1285.96796 0.00070
33.40038 1479.00000 1282.42819 0.00068
33.41039 1407.00000 1278.61228 0.00071
33.42038 1386.00000 1274.55695 0.00072
33.43039 1413.00000 1270.27330 0.00071
33.44038 1364.00000 1265.80775 0.00073
33.45039 1318.00000 1261.17237 0.00076
33.46038 1253.00000 1256.41562 0.00080
33.47039 1236.00000 1251.54695 0.00081
33.48038 1256.00000 1246.61040 0.00080
33.49039 1261.00000 1241.60561 0.00079
33.50039 1251.00000 1236.58960 0.00080
33.51039 1233.00000 1231.62840 0.00081
33.52039 1220.00000 1226.70725 0.00082
33.53039 1201.00000 1221.83634 0.00083
33.54039 1212.00000 1217.03219 0.00083
33.55039 1215.00000 1212.30907 0.00082
33.56039 1150.00000 1207.67900 0.00087
33.57039 1195.00000 1203.15195 0.00084
33.58039 1221.00000 1198.73597 0.00082
33.59039 1177.00000 1194.43741 0.00085
33.60039 1106.00000 1190.26103 0.00090
33.61039 1107.00000 1186.21025 0.00090
33.62039 1139.00000 1182.28726 0.00088
33.63039 1177.00000 1178.49323 0.00085
33.64039 1123.00000 1174.82842 0.00089
33.65039 1104.00000 1171.29231 0.00091
33.66039 1064.00000 1167.88375 0.00094
33.67039 1060.00000 1164.60105 0.00094
33.68039 1122.00000 1161.44206 0.00089
33.69039 1025.00000 1158.40428 0.00098
33.70039 1131.00000 1155.48492 0.00088
33.71039 1125.00000 1152.68094 0.00089
33.72039 1112.00000 1149.98916 0.00090
33.73039 1129.00000 1147.40623 0.00089
33.74039 1133.00000 1144.92873 0.00088
33.75039 1096.00000 1142.55319 0.00091
33.76039 1099.00000 1140.27609 0.00091
33.77039 1047.00000 1138.09392 0.00096
33.78039 1054.00000 1136.00317 0.00095
33.79039 1087.00000 1134.00038 0.00092
33.80039 1082.00000 1132.08211 0.00092
33.81039 1094.00000 1130.24500 0.00091
33.82039 1180.00000 1128.48574 0.00085
33.83039 1084.00000 1126.80111 0.00092
33.84039 1071.00000 1125.18795 0.00093
33.85040 1078.00000 1123.64172 0.00093
33.86039 1108.00000 1122.16392 0.00090
33.87040 1098.00000 1120.74583 0.00091
33.88039 1032.00000 1119.39028 0.00097
33.89040 1047.00000 1118.08920 0.00096
33.90039 1094.00000 1116.84517 0.00091
33.91040 1089.00000 1115.65077 0.00092
33.92039 1140.00000 1114.50834 0.00088
33.93040 1177.00000 1113.41106 0.00085
33.94040 1119.00000 1112.36008 0.00089
33.95040 1070.00000 1111.35220 0.00093
33.96040 1052.00000 1110.38541 0.00095
33.97040 1056.00000 1109.45781 0.00095
33.98040 1111.00000 1108.56759 0.00090
33.99040 1098.00000 1107.71304 0.00091
34.00040 1025.00000 1106.89250 0.00098
34.01040 1113.00000 1106.10443 0.00090
34.02040 1158.00000 1105.34735 0.00086
34.03040 1065.00000 1104.61986 0.00094
34.04040 1088.00000 1103.92065 0.00092
34.05040 1079.00000 1103.24847 0.00093
34.06040 1128.00000 1102.60213 0.00089
34.07040 1033.00000 1101.98052 0.00097
34.08040 1034.00000 1101.38259 0.00097
34.09040 1122.00000 1100.80735 0.00089
34.10040 1074.00000 1100.25387 0.00093
34.11040 1057.00000 1099.72127 0.00095
34.12040 1091.00000 1099.20872 0.00092
34.13040 1060.00000 1098.71544 0.00094
34.14040 1065.00000 1098.24070 0.00094
34.15040 1120.00000 1097.78381 0.00089
34.16040 1118.00000 1097.34414 0.00089
34.17040 1050.00000 1096.92107 0.00095
34.18040 1011.00000 1096.51404 0.00099
34.19040 1071.00000 1096.12253 0.00093
34.20040 1082.00000 1095.74605 0.00092
34.21040 1069.00000 1095.38413 0.00094
34.22040 1099.00000 1095.03634 0.00091
34.23040 1051.00000 1094.70229 0.00095
34.24040 1108.00000 1094.38162 0.00090
34.25040 1078.00000 1094.07397 0.00093
34.26040 1042.00000 1093.77904 0.00096
34.27040 1047.00000 1093.49654 0.00096
34.28040 1044.00000 1093.22624 0.00096
34.29041 1052.00000 1092.96765 0.00095
34.30040 1119.00000 1092.72136 0.00089
34.31041 1076.00000 1092.48628 0.00093
34.32040 1098.00000 1092.26330 0.00091
34.33041 1064.00000 1092.05167 0.00094
34.34040 1061.00000 1091.85266 0.00094
34.35041 1074.00000 1091.66711 0.00093
34.36040 1075.00000 1091.49766 0.00093
34.37041 1026.00000 1091.33465 0.00097
34.38041 1063.00000 1091.17336 0.00094
34.39041 1129.00000 1091.01976 0.00089
34.40041 1170.00000 1090.87589 0.00085
34.41041 1093.00000 1090.74169 0.00091
34.42041 1060.00000 1090.61710 0.00094
34.43041 1134.00000 1090.50205 0.00088
34.44041 1078.00000 1090.39647 0.00093
34.45041 1090.00000 1090.30033 0.00092
34.46041 1125.00000 1090.21359 0.00089
34.47041 1088.00000 1090.13624 0.00092
34.48041 1118.00000 1090.06831 0.00089
34.49041 1076.00000 1090.00984 0.00093
34.50041 1082.00000 1089.96089 0.00092
34.51041 1065.00000 1089.92152 0.00094
34.52041 1103.00000 1089.89185 0.00091
34.53041 1115.00000 1089.87199 0.00090
34.54041 1089.00000 1089.86210 0.00092
34.55041 1097.00000 1089.86235 0.00091
34.56041 1094.00000 1089.87297 0.00091
34.57041 1094.00000 1089.89424 0.00091
34.58041 1127.00000 1089.92648 0.00089
34.59041 1072.00000 1089.97012 0.00093
34.60041 1114.00000 1090.02572 0.00090
34.61041 1029.00000 1090.09401 0.00097
34.62041 1043.00000 1090.17607 0.00096
34.63041 1096.00000 1090.27360 0.00091
34.64041 1104.00000 1090.38963 0.00091
34.65041 1120.00000 1090.53103 0.00089
34.66041 1017.00000 1090.71286 0.00098
34.67041 1049.00000 1090.92545 0.00095
34.68041 1035.00000 1091.08304 0.00097
34.69041 1043.00000 1091.23052 0.00096
34.70041 1065.00000 1091.38962 0.00094
34.71041 1108.00000 1091.56112 0.00090
34.72041 1041.00000 1091.74533 0.00096
34.73042 1028.00000 1091.94277 0.00097
34.74041 1037.00000 1092.15317 0.00096
34.75042 1041.00000 1092.37775 0.00096
34.76041 1040.00000 1092.61600 0.00096
34.77042 1055.00000 1092.86928 0.00095
34.78041 1040.00000 1093.13701 0.00096
34.79042 1060.00000 1093.42074 0.00094
34.80042 1052.00000 1093.72011 0.00095
34.81042 1061.00000 1094.03593 0.00094
34.82042 1035.00000 1094.36873 0.00097
34.83042 1031.00000 1094.71911 0.00097
34.84042 1060.00000 1095.08767 0.00094
34.85042 1079.00000 1095.47506 0.00093
34.86042 1116.00000 1095.88196 0.00090
34.87042 1035.00000 1096.30912 0.00097
34.88042 1033.00000 1096.75729 0.00097
34.89042 1083.00000 1097.22732 0.00092
34.90042 1079.00000 1097.72007 0.00093
34.91042 1016.00000 1098.23650 0.00098
34.92042 997.00000 1098.77759 0.00100
34.93042 1044.00000 1099.34442 0.00096
34.94042 1051.00000 1099.93813 0.00095
34.95042 1045.00000 1100.55992 0.00096
34.96042 1020.00000 1101.21110 0.00098
34.97042 1025.00000 1101.89307 0.00098
34.98042 1105.00000 1102.60733 0.00090
34.99042 1077.00000 1103.35549 0.00093
35.00042 1062.00000 1104.13928 0.00094
35.01042 1055.00000 1104.96060 0.00095
35.02042 1099.00000 1105.82149 0.00091
35.03042 1034.00000 1106.72417 0.00097
35.04042 1090.00000 1107.67106 0.00092
35.05042 1110.00000 1108.66484 0.00090
35.06042 1097.00000 1109.70847 0.00091
35.07042 1061.00000 1110.80528 0.00094
35.08042 1070.00000 1111.95912 0.00093
35.09042 1067.00000 1113.17458 0.00094
35.10042 1085.00000 1114.45767 0.00092
35.11042 1026.00000 1115.81926 0.00097
35.12042 1092.00000 1117.26931 0.00092
35.13042 1081.00000 1118.77292 0.00093
35.14042 1104.00000 1120.33354 0.00091
35.15042 1049.00000 1121.97583 0.00095
35.16042 1051.00000 1123.71033 0.00095
35.17043 1114.00000 1125.54579 0.00090
35.18042 1034.00000 1127.48393 0.00097
35.19043 1048.00000 1129.54063 0.00095
35.20042 1120.00000 1131.71637 0.00089
35.21043 1023.00000 1134.02940 0.00098
35.22042 1105.00000 1136.48071 0.00090
35.23043 1010.00000 1139.09130 0.00099
35.24043 1084.00000 1141.86552 0.00092
35.25043 1030.00000 1144.81883 0.00097
35.26043 1047.00000 1147.96508 0.00096
35.27043 1002.00000 1151.31911 0.00100
35.28043 1059.00000 1154.89675 0.00094
35.29043 1095.00000 1158.71487 0.00091
35.30043 1047.00000 1162.79134 0.00096
35.31043 1089.00000 1167.14509 0.00092
35.32043 1124.00000 1171.79601 0.00089
35.33043 1077.00000 1176.76501 0.00093
35.34043 1110.00000 1182.07388 0.00090
35.35043 1110.00000 1187.74531 0.00090
35.36043 1180.00000 1193.80276 0.00085
35.37043 1118.00000 1200.27035 0.00089
35.38043 1141.00000 1207.17276 0.00088
35.39043 1120.00000 1214.53505 0.00089
35.40043 1116.00000 1222.38248 0.00090
35.41043 1149.00000 1230.74029 0.00087
35.42043 1097.00000 1239.63344 0.00091
35.43043 1120.00000 1249.08631 0.00089
35.44043 1158.00000 1259.12239 0.00086
35.45043 1219.00000 1269.76385 0.00082
35.46043 1168.00000 1281.03108 0.00086
35.47043 1214.00000 1292.94223 0.00082
35.48043 1187.00000 1305.51257 0.00084
35.49043 1195.00000 1318.75390 0.00084
35.50043 1227.00000 1332.67374 0.00081
35.51043 1209.00000 1347.27454 0.00083
35.52043 1220.00000 1362.55275 0.00082
35.53043 1234.00000 1378.49780 0.00081
35.54043 1305.00000 1395.09094 0.00077
35.55043 1328.00000 1412.30408 0.00075
35.56043 1387.00000 1430.09842 0.00072
35.57043 1332.00000 1448.42305 0.00075
35.58043 1374.00000 1467.21354 0.00073
35.59044 1397.00000 1486.40982 0.00072
35.60043 1439.00000 1505.85783 0.00069
35.61044 1466.00000 1525.52176 0.00068
35.62043 1563.00000 1545.19059 0.00064
35.63044 1557.00000 1564.79077 0.00064
35.64043 1600.00000 1584.07229 0.00063
35.65044 1567.00000 1602.92063 0.00064
35.66043 1686.00000 1621.05163 0.00059
35.67044 1641.00000 1638.31237 0.00061
35.68044 1649.00000 1654.41324 0.00061
35.69044 1714.00000 1669.12853 0.00058
35.70044 1776.00000 1682.21479 0.00056
35.71044 1711.00000 1693.43638 0.00058
35.72044 1728.00000 1702.57434 0.00058
35.73044 1780.00000 1709.43589 0.00056
35.74044 1742.00000 1713.86382 0.00057
35.75044 1773.00000 1715.74501 0.00056
35.76044 1700.00000 1715.01735 0.00059
35.77044 1729.00000 1711.67424 0.00058
35.78044 1711.00000 1705.76609 0.00058
35.79044 1710.00000 1697.39864 0.00058
35.80044 1771.00000 1686.72814 0.00056
35.81044 1645.00000 1673.95378 0.00061
35.82044 1669.00000 1659.30815 0.00060
35.83044 1600.00000 1643.04653 0.00063
35.84044 1559.00000 1625.43608 0.00064
35.85044 1527.00000 1606.74559 0.00065
35.86044 1483.00000 1587.23660 0.00067
35.87044 1469.00000 1567.15625 0.00068
35.88044 1456.00000 1546.73196 0.00069
35.89044 1487.00000 1526.16807 0.00067
35.90044 1337.00000 1505.64412 0.00075
35.91044 1365.00000 1485.31450 0.00073
35.92044 1360.00000 1465.30920 0.00074
35.93044 1261.00000 1445.73534 0.00079
35.94044 1267.00000 1426.67912 0.00079
35.95044 1344.00000 1408.20808 0.00074
35.96044 1210.00000 1390.37331 0.00083
35.97044 1207.00000 1373.21175 0.00083
35.98044 1258.00000 1356.74822 0.00079
35.99044 1156.00000 1340.99726 0.00087
36.00044 1168.00000 1325.96491 0.00086
36.01044 1183.00000 1311.65004 0.00085
36.02044 1194.00000 1298.04570 0.00084
36.03045 1205.00000 1285.12766 0.00083
36.04044 1173.00000 1272.91777 0.00085
36.05045 1181.00000 1261.34873 0.00085
36.06044 1135.00000 1250.44536 0.00088
36.07045 1164.00000 1240.14129 0.00086
36.08044 1141.00000 1230.45303 0.00088
36.09045 1157.00000 1221.31666 0.00086
36.10044 1151.00000 1212.74243 0.00087
36.11045 1157.00000 1204.66985 0.00086
36.12045 1144.00000 1197.09726 0.00087
36.13045 1175.00000 1189.99008 0.00085
36.14045 1158.00000 1183.32233 0.00086
36.15045 1175.00000 1177.06852 0.00085
36.16045 1160.00000 1171.20383 0.00086
36.17045 1107.00000 1165.70414 0.00090
36.18045 1072.00000 1160.54621 0.00093
36.19045 1032.00000 1155.70773 0.00097
36.20045 1063.00000 1151.16736 0.00094
36.21045 1086.00000 1146.90479 0.00092
36.22045 1060.00000 1142.90075 0.00094
36.23045 1092.00000 1139.13707 0.00092
36.24045 1052.00000 1135.59661 0.00095
36.25045 1120.00000 1132.26331 0.00089
36.26045 1098.00000 1129.12215 0.00091
36.27045 1098.00000 1126.15912 0.00091
36.28045 1095.00000 1123.36120 0.00091
36.29045 1104.00000 1120.71629 0.00091
36.30045 1113.00000 1118.21319 0.00090
36.31045 1092.00000 1115.84155 0.00092
36.32045 1094.00000 1113.59181 0.00091
36.33045 1111.00000 1111.45513 0.00090
36.34045 1099.00000 1109.42337 0.00091
36.35045 1140.00000 1107.48896 0.00088
36.36045 1090.00000 1105.64484 0.00092
36.37045 1076.00000 1103.88435 0.00093
36.38045 1069.00000 1102.20110 0.00094
36.39045 1071.00000 1100.58865 0.00093
36.40045 1051.00000 1099.03991 0.00095
36.41045 1076.00000 1097.54431 0.00093
36.42045 1039.00000 1096.08783 0.00096
36.43045 1011.00000 1094.69090 0.00099
36.44045 1079.00000 1093.40465 0.00093
36.45045 1096.00000 1092.18106 0.00091
36.46045 1073.00000 1091.00774 0.00093
36.47046 1082.00000 1089.88113 0.00092
36.48045 1107.00000 1088.80227 0.00090
36.49046 1076.00000 1087.76483 0.00093
36.50045 1058.00000 1086.77106 0.00095
36.51046 1102.00000 1085.81529 0.00091
36.52045 1103.00000 1084.89977 0.00091
36.53046 1057.00000 1084.01942 0.00095
36.54045 1026.00000 1083.17645 0.00097
36.55046 1092.00000 1082.36634 0.00092
36.56046 1063.00000 1081.59049 0.00094
36.57046 1102.00000 1080.84713 0.00091
36.58046 1048.00000 1080.13542 0.00095
36.59046 1038.00000 1079.45463 0.00096
36.60046 1044.00000 1078.80410 0.00096
36.61046 1059.00000 1078.18332 0.00094
36.62046 1077.00000 1077.59181 0.00093
36.63046 1074.00000 1077.02924 0.00093
36.64046 1021.00000 1076.49537 0.00098
36.65046 1050.00000 1075.99009 0.00095
36.66046 1065.00000 1075.51345 0.00094
36.67046 1091.00000 1075.06567 0.00092
36.68046 1075.00000 1074.64716 0.00093
36.69046 1085.00000 1074.25859 0.00092
36.70046 1083.00000 1073.90089 0.00092
36.71046 1150.00000 1073.57537 0.00087
36.72046 1073.00000 1073.28373 0.00093
36.73046 1059.00000 1073.02821 0.00094
36.74046 1050.00000 1072.81166 0.00095
36.75046 1032.00000 1072.63769 0.00097
36.76046 1055.00000 1072.51084 0.00095
36.77046 1057.00000 1072.43671 0.00095
36.78046 1035.00000 1072.42223 0.00097
36.79046 1094.00000 1072.47585 0.00091
36.80046 1053.00000 1072.60781 0.00095
36.81046 1067.00000 1072.83035 0.00094
36.82046 1083.00000 1073.15803 0.00092
36.83046 1043.00000 1073.60772 0.00096
36.84046 1035.00000 1074.19874 0.00097
36.85046 1029.00000 1074.95259 0.00097
36.86046 1059.00000 1075.89152 0.00094
36.87046 1080.00000 1077.03336 0.00093
36.88046 1065.00000 1078.37625 0.00094
36.89046 1136.00000 1079.97727 0.00088
36.90046 1110.00000 1082.14153 0.00090
36.91047 1153.00000 1084.75900 0.00087
36.92046 1148.00000 1087.82578 0.00087
36.93047 1177.00000 1091.40204 0.00085
36.94046 1146.00000 1095.52041 0.00087
36.95047 1168.00000 1100.23983 0.00086
36.96046 1185.00000 1105.57794 0.00084
36.97047 1189.00000 1111.58258 0.00084
36.98046 1222.00000 1118.24441 0.00082
36.99047 1258.00000 1125.58833 0.00079
37.00047 1278.00000 1133.57338 0.00078
37.01047 1308.00000 1142.16449 0.00076
37.02047 1294.00000 1151.29540 0.00077
37.03047 1341.00000 1160.87358 0.00075
37.04047 1464.00000 1170.77889 0.00068
37.05047 1452.00000 1180.86308 0.00069
37.06047 1478.00000 1190.95014 0.00068
37.07047 1545.00000 1200.83782 0.00065
37.08047 1542.00000 1210.30032 0.00065
37.09047 1432.00000 1219.09271 0.00070
37.10047 1526.00000 1226.95759 0.00066
37.11047 1577.00000 1233.63470 0.00063
37.12047 1578.00000 1238.87422 0.00063
37.13047 1580.00000 1242.45391 0.00063
37.14047 1616.00000 1244.19923 0.00062
37.15047 1604.00000 1244.00373 0.00062
37.16047 1589.00000 1241.84574 0.00063
37.17047 1643.00000 1237.79650 0.00061
37.18047 1575.00000 1232.01666 0.00063
37.19047 1592.00000 1224.74094 0.00063
37.20047 1569.00000 1216.25441 0.00064
37.21047 1506.00000 1206.86594 0.00066
37.22047 1473.00000 1196.88411 0.00068
37.23047 1447.00000 1186.59900 0.00069
37.24047 1411.00000 1176.27058 0.00071
37.25047 1332.00000 1166.12290 0.00075
37.26047 1332.00000 1156.34224 0.00075
37.27047 1318.00000 1147.07774 0.00076
37.28047 1299.00000 1138.44330 0.00077
37.29047 1250.00000 1130.52028 0.00080
37.30047 1208.00000 1123.36041 0.00083
37.31047 1149.00000 1116.98923 0.00087
37.32047 1209.00000 1111.40953 0.00083
37.33047 1170.00000 1106.60514 0.00085
37.34047 1186.00000 1102.54465 0.00084
37.35048 1131.00000 1099.18213 0.00088
37.36047 1102.00000 1096.47603 0.00091
37.37048 1123.00000 1094.35974 0.00089
37.38047 1069.00000 1092.78464 0.00094
37.39048 1038.00000 1091.68739 0.00096
37.40047 997.00000 1091.01811 0.00100
37.41048 1140.00000 1090.72330 0.00088
37.42048 1111.00000 1090.75843 0.00090
37.43048 1096.00000 1091.08216 0.00091
37.44048 1083.00000 1091.65895 0.00092
37.45048 1147.00000 1092.45845 0.00087
37.46048 1025.00000 1093.45519 0.00098
37.47048 1066.00000 1094.62809 0.00094
37.48048 1060.00000 1095.95992 0.00094
37.49048 1072.00000 1097.43676 0.00093
37.50048 1071.00000 1099.04738 0.00093
37.51048 1041.00000 1100.78270 0.00096
37.52048 1086.00000 1102.63530 0.00092
37.53048 1095.00000 1104.59897 0.00091
37.54048 1085.00000 1106.66825 0.00092
37.55048 1049.00000 1108.83813 0.00095
37.56048 1063.00000 1111.10372 0.00094
37.57048 1094.00000 1113.45994 0.00091
37.58048 1037.00000 1115.90137 0.00096
37.59048 1104.00000 1118.42194 0.00091
37.60048 1064.00000 1121.01482 0.00094
37.61048 1120.00000 1123.67221 0.00089
37.62048 1062.00000 1126.38521 0.00094
37.63048 1086.00000 1129.14371 0.00092
37.64048 1064.00000 1131.93628 0.00094
37.65048 1077.00000 1134.75013 0.00093
37.66048 1057.00000 1137.57107 0.00095
37.67048 1084.00000 1140.38338 0.00092
37.68048 1032.00000 1143.16990 0.00097
37.69048 1059.00000 1145.91202 0.00094
37.70048 1037.00000 1148.58984 0.00096
37.71048 1093.00000 1151.18231 0.00091
37.72048 1074.00000 1153.66746 0.00093
37.73048 1113.00000 1156.02271 0.00090
37.74048 1067.00000 1158.22523 0.00094
37.75048 1097.00000 1160.25240 0.00091
37.76048 1065.00000 1162.08228 0.00094
37.77048 1099.00000 1163.69422 0.00091
37.78048 1102.00000 1165.06952 0.00091
37.79049 1094.00000 1166.19301 0.00091
37.80048 1045.00000 1167.04971 0.00096
37.81049 1062.00000 1167.63504 0.00094
37.82048 1103.00000 1167.94695 0.00091
37.83049 1062.00000 1167.99745 0.00094
37.84048 1074.00000 1167.82966 0.00093
37.85049 1065.00000 1167.51432 0.00094
37.86049 1095.00000 1166.89877 0.00091
37.87049 1075.00000 1165.68905 0.00093
37.88049 1095.00000 1164.11809 0.00091
37.89049 1055.00000 1162.28664 0.00095
37.90049 1106.00000 1160.21582 0.00090
37.91049 1021.00000 1157.92721 0.00098
37.92049 1064.00000 1155.44393 0.00094
37.93049 1044.00000 1152.79004 0.00096
37.94049 1092.00000 1149.99001 0.00092
37.95049 1042.00000 1147.06821 0.00096
37.96049 1069.00000 1144.04844 0.00094
37.97049 1008.00000 1140.95359 0.00099
37.98049 1050.00000 1137.80531 0.00095
37.99049 1070.00000 1134.62378 0.00093
38.00049 1118.00000 1131.42757 0.00089
38.01049 1057.00000 1128.23354 0.00095
38.02049 1064.00000 1125.05680 0.00094
38.03049 1093.00000 1121.91074 0.00091
38.04049 1042.00000 1118.80704 0.00096
38.05049 1065.00000 1115.75580 0.00094
38.06049 1034.00000 1112.76561 0.00097
38.07049 1010.00000 1109.84371 0.00099
38.08049 1023.00000 1106.99617 0.00098
38.09049 1020.00000 1104.22803 0.00098
38.10049 1042.00000 1101.54333 0.00096
38.11049 1033.00000 1098.94529 0.00097
38.12049 939.00000 1096.43636 0.00106
38.13049 952.00000 1094.01840 0.00105
38.14049 1013.00000 1091.69274 0.00099
38.15049 1029.00000 1089.46032 0.00097
38.16049 1044.00000 1087.32181 0.00096
38.17049 912.00000 1085.27766 0.00110
38.18049 1003.00000 1083.32832 0.00100
38.19049 994.00000 1081.47433 0.00101
38.20049 988.00000 1079.71648 0.00101
38.21049 1038.00000 1078.05610 0.00096
38.22049 1025.00000 1076.49538 0.00098
38.23050 1012.00000 1075.03667 0.00099
38.24049 1048.00000 1073.69064 0.00095
38.25050 1036.00000 1072.46429 0.00097
38.26049 1001.00000 1071.38636 0.00100
38.27050 1032.00000 1070.51610 0.00097
38.28049 989.00000 1069.96928 0.00101
38.29050 1044.00000 1069.55004 0.00096
38.30050 1022.00000 1068.69656 0.00098
38.31050 1013.00000 1067.76505 0.00099
38.32050 1008.00000 1066.90110 0.00099
38.33050 1050.00000 1066.10870 0.00095
38.34050 1001.00000 1065.39224 0.00100
38.35050 981.00000 1064.76556 0.00102
38.36050 1049.00000 1064.22767 0.00095
38.37050 1029.00000 1063.68250 0.00097
38.38050 1027.00000 1063.16911 0.00097
38.39050 1031.00000 1062.71167 0.00097
38.40050 982.00000 1062.31011 0.00102
38.41050 1040.00000 1061.96364 0.00096
38.42050 999.00000 1061.67156 0.00100
38.43050 1070.00000 1061.43331 0.00093
38.44050 1029.00000 1061.24844 0.00097
38.45050 1007.00000 1061.11665 0.00099
38.46050 983.00000 1061.03776 0.00102
38.47050 1060.00000 1061.01175 0.00094
38.48050 1047.00000 1061.03872 0.00096
38.49050 983.00000 1061.11895 0.00102
38.50050 984.00000 1061.25286 0.00102
38.51050 1006.00000 1061.44104 0.00099
38.52050 1010.00000 1061.68425 0.00099
38.53050 985.00000 1061.98343 0.00102
38.54050 993.00000 1062.33968 0.00101
38.55050 989.00000 1062.75432 0.00101
38.56050 981.00000 1063.22885 0.00102
38.57050 1049.00000 1063.76498 0.00095
38.58050 1068.00000 1064.36462 0.00094
38.59050 1035.00000 1065.02990 0.00097
38.60050 1047.00000 1065.76320 0.00096
38.61050 974.00000 1066.56710 0.00103
38.62050 1046.00000 1067.44444 0.00096
38.63050 981.00000 1068.39831 0.00102
38.64050 1062.00000 1069.43205 0.00094
38.65051 979.00000 1070.55038 0.00102
38.66050 1053.00000 1071.75378 0.00095
38.67051 998.00000 1073.05111 0.00100
38.68050 974.00000 1074.44170 0.00103
38.69051 1021.00000 1075.93571 0.00098
38.70050 1012.00000 1077.53229 0.00099
38.71051 1000.00000 1079.24296 0.00100
38.72050 1042.00000 1081.06658 0.00096
38.73051 1052.00000 1083.01615 0.00095
38.74051 995.00000 1085.09226 0.00101
38.75051 1084.00000 1087.30315 0.00092
38.76051 1008.00000 1089.65549 0.00099
38.77051 988.00000 1092.15619 0.00101
38.78051 1067.00000 1094.81244 0.00094
38.79051 1044.00000 1097.63164 0.00096
38.80051 1079.00000 1100.62139 0.00093
38.81051 1026.00000 1103.78950 0.00097
38.82051 1030.00000 1107.14393 0.00097
38.83051 1066.00000 1110.69279 0.00094
38.84051 973.00000 1114.44426 0.00103
38.85051 1054.00000 1118.40658 0.00095
38.86051 1012.00000 1122.58800 0.00099
38.87051 999.00000 1126.99672 0.00100
38.88051 1048.00000 1131.64081 0.00095
38.89051 1086.00000 1136.52814 0.00092
38.90051 1137.00000 1141.66632 0.00088
38.91051 1088.00000 1147.06256 0.00092
38.92051 1093.00000 1152.72358 0.00091
38.93051 1052.00000 1158.65547 0.00095
38.94051 1076.00000 1164.86354 0.00093
38.95051 1135.00000 1171.35214 0.00088
38.96051 1101.00000 1178.12448 0.00091
38.97051 1061.00000 1185.18238 0.00094
38.98051 1118.00000 1192.52604 0.00089
38.99051 1138.00000 1200.15376 0.00088
39.00051 1202.00000 1208.06160 0.00083
39.01051 1190.00000 1216.24306 0.00084
39.02051 1165.00000 1224.68873 0.00086
39.03051 1203.00000 1233.38585 0.00083
39.04051 1183.00000 1242.31790 0.00085
39.05051 1164.00000 1251.46415 0.00086
39.06051 1236.00000 1260.79925 0.00081
39.07051 1249.00000 1270.29274 0.00080
39.08051 1223.00000 1279.90867 0.00082
39.09052 1297.00000 1289.61492 0.00077
39.10051 1333.00000 1299.33437 0.00075
39.11052 1331.00000 1309.05148 0.00075
39.12051 1296.00000 1318.66659 0.00077
39.13052 1362.00000 1328.15113 0.00073
39.14051 1399.00000 1337.39385 0.00071
39.15052 1438.00000 1346.35334 0.00070
39.16051 1513.00000 1354.91006 0.00066
39.17052 1516.00000 1363.01180 0.00066
39.18052 1537.00000 1370.54371 0.00065
39.19052 1434.00000 1377.42377 0.00070
39.20052 1487.00000 1383.55885 0.00067
39.21052 1599.00000 1388.86147 0.00063
39.22052 1536.00000 1393.29628 0.00065
39.23052 1653.00000 1396.79704 0.00060
39.24052 1503.00000 1399.28901 0.00067
39.25052 1536.00000 1400.72627 0.00065
39.26052 1554.00000 1401.08177 0.00064
39.27052 1473.00000 1400.34498 0.00068
39.28052 1505.00000 1398.52239 0.00066
39.29052 1513.00000 1395.63755 0.00066
39.30052 1451.00000 1391.73048 0.00069
39.31052 1595.00000 1386.85655 0.00063
39.32052 1487.00000 1381.08500 0.00067
39.33052 1479.00000 1374.49767 0.00068
39.34052 1412.00000 1367.18823 0.00071
39.35052 1435.00000 1359.26433 0.00070
39.36052 1338.00000 1350.86961 0.00075
39.37052 1386.00000 1342.14819 0.00072
39.38052 1361.00000 1332.91744 0.00073
39.39052 1361.00000 1323.19743 0.00073
39.40052 1378.00000 1313.22233 0.00073
39.41052 1259.00000 1303.11432 0.00079
39.42052 1329.00000 1292.94462 0.00075
39.43052 1277.00000 1282.77629 0.00078
39.44052 1267.00000 1272.66509 0.00079
39.45052 1170.00000 1262.65960 0.00085
39.46052 1179.00000 1252.80151 0.00085
39.47052 1175.00000 1243.12603 0.00085
39.48052 1144.00000 1233.66239 0.00087
39.49052 1172.00000 1224.43436 0.00085
39.50052 1115.00000 1215.46086 0.00090
39.51052 1061.00000 1206.75645 0.00094
39.52052 1080.00000 1198.33188 0.00093
39.53053 1130.00000 1190.18652 0.00088
39.54052 1114.00000 1182.34924 0.00090
39.55053 1157.00000 1174.79038 0.00086
39.56052 1082.00000 1167.54063 0.00092
39.57053 1116.00000 1160.56886 0.00090
39.58052 1072.00000 1153.90020 0.00093
39.59053 1022.00000 1147.50318 0.00098
39.60052 1075.00000 1141.39842 0.00093
39.61053 1072.00000 1135.55492 0.00093
39.62053 1051.00000 1129.98413 0.00095
39.63053 1054.00000 1124.67274 0.00095
39.64053 1057.00000 1119.61317 0.00095
39.65053 1085.00000 1114.79778 0.00092
39.66053 1060.00000 1110.21933 0.00094
39.67053 1075.00000 1105.87088 0.00093
39.68053 1022.00000 1101.73964 0.00098
39.69053 1071.00000 1097.81285 0.00093
39.70053 1042.00000 1094.08582 0.00096
39.71053 999.00000 1090.55191 0.00100
39.72053 1064.00000 1087.20303 0.00094
39.73053 1054.00000 1084.03118 0.00095
39.74053 1054.00000 1081.02855 0.00095
39.75053 1041.00000 1078.18754 0.00096
39.76053 1026.00000 1075.50077 0.00097
39.77053 1051.00000 1072.96110 0.00095
39.78053 1049.00000 1070.56165 0.00095
39.79053 1066.00000 1068.29580 0.00094
39.80053 1018.00000 1066.15721 0.00098
39.81053 1094.00000 1064.13979 0.00091
39.82053 1015.00000 1062.23777 0.00099
39.83053 1045.00000 1060.44563 0.00096
39.84053 1031.00000 1058.75816 0.00097
39.85053 977.00000 1057.17040 0.00102
39.86053 1014.00000 1055.67770 0.00099
39.87053 1056.00000 1054.27565 0.00095
39.88053 1079.00000 1052.96014 0.00093
39.89053 1047.00000 1051.72732 0.00096
39.90053 1031.00000 1050.57356 0.00097
39.91053 982.00000 1049.49553 0.00102
39.92053 981.00000 1048.49011 0.00102
39.93053 1009.00000 1047.55442 0.00099
39.94053 1043.00000 1046.68580 0.00096
39.95053 1029.00000 1045.88182 0.00097
39.96053 1005.00000 1045.14026 0.00100
39.97054 1033.00000 1044.45841 0.00097
39.98053 976.00000 1043.83645 0.00102
39.99054 1012.00000 1043.27017 0.00099
40.00053 1012.00000 1042.76042 0.00099
40.01054 994.00000 1042.30380 0.00101
40.02053 975.00000 1041.90104 0.00103
40.03054 1037.00000 1041.54951 0.00096
40.04053 1026.00000 1041.24982 0.00097
40.05054 997.00000 1041.00004 0.00100
40.06054 1008.00000 1040.80049 0.00099
40.07054 1049.00000 1040.65047 0.00095
40.08054 1041.00000 1040.54970 0.00096
40.09054 1044.00000 1040.49805 0.00096
40.10054 1073.00000 1040.49551 0.00093
40.11054 988.00000 1040.54218 0.00101
40.12054 1037.00000 1040.63830 0.00096
40.13054 1019.00000 1040.78425 0.00098
40.14054 977.00000 1040.98051 0.00102
40.15054 1056.00000 1041.22770 0.00095
40.16054 1052.00000 1041.52657 0.00095
40.17054 1076.00000 1041.87799 0.00093
40.18054 1040.00000 1042.28300 0.00096
40.19054 985.00000 1042.74275 0.00102
40.20054 1075.00000 1043.25856 0.00093
40.21054 1041.00000 1043.83190 0.00096
40.22054 1025.00000 1044.46440 0.00098
40.23054 1025.00000 1045.15787 0.00098
40.24054 1018.00000 1045.91430 0.00098
40.25054 977.00000 1046.73586 0.00102
40.26054 1063.00000 1047.62495 0.00094
40.27054 1059.00000 1048.58421 0.00094
40.28054 1048.00000 1049.61651 0.00095
40.29054 1038.00000 1050.72502 0.00096
40.30054 1017.00000 1051.91321 0.00098
40.31054 1037.00000 1053.18492 0.00096
40.32054 1051.00000 1054.54441 0.00095
40.33054 1025.00000 1055.99643 0.00098
40.34054 1000.00000 1057.54635 0.00100
40.35054 1027.00000 1059.20037 0.00097
40.36054 1053.00000 1060.96590 0.00095
40.37054 1018.00000 1062.85294 0.00098
40.38054 1030.00000 1064.87563 0.00097
40.39054 1040.00000 1067.03672 0.00096
40.40054 1013.00000 1069.31075 0.00099
40.41055 1085.00000 1071.73093 0.00092
40.42054 1018.00000 1074.31174 0.00098
40.43055 1060.00000 1077.07902 0.00094
40.44054 1056.00000 1080.03922 0.00095
40.45055 1105.00000 1083.22487 0.00090
40.46054 1078.00000 1086.64703 0.00093
40.47055 1072.00000 1090.34765 0.00093
40.48055 1030.00000 1094.34872 0.00097
40.49055 1087.00000 1098.69222 0.00092
40.50055 1052.00000 1103.42300 0.00095
40.51055 1092.00000 1108.59336 0.00092
40.52055 1140.00000 1114.26411 0.00088
40.53055 1097.00000 1120.50572 0.00091
40.54055 1127.00000 1127.39948 0.00089
40.55055 1146.00000 1135.03866 0.00087
40.56055 1156.00000 1143.52967 0.00087
40.57055 1170.00000 1152.99308 0.00085
40.58055 1203.00000 1163.56453 0.00083
40.59055 1083.00000 1175.39537 0.00092
40.60055 1166.00000 1188.65300 0.00086
40.61055 1202.00000 1203.52084 0.00083
40.62055 1243.00000 1220.19762 0.00080
40.63055 1302.00000 1238.89620 0.00077
40.64055 1368.00000 1259.84153 0.00073
40.65055 1373.00000 1283.26795 0.00073
40.66055 1326.00000 1309.41542 0.00075
40.67055 1400.00000 1338.52488 0.00071
40.68055 1399.00000 1370.83265 0.00071
40.69055 1476.00000 1406.56367 0.00068
40.70055 1500.00000 1445.92402 0.00067
40.71055 1563.00000 1489.09235 0.00064
40.72055 1574.00000 1536.21075 0.00064
40.73055 1593.00000 1587.37494 0.00063
40.74055 1685.00000 1642.62432 0.00059
40.75055 1708.00000 1701.93193 0.00059
40.76055 1807.00000 1765.19518 0.00055
40.77055 1856.00000 1832.22815 0.00054
40.78055 1950.00000 1902.76352 0.00051
40.79055 2024.00000 1976.43371 0.00049
40.80055 2101.00000 2052.61039 0.00048
40.81055 2239.00000 2130.57970 0.00045
40.82055 2287.00000 2209.66962 0.00044
40.83055 2397.00000 2289.02374 0.00042
40.84055 2564.00000 2367.62506 0.00039
40.85056 2590.00000 2444.40676 0.00039
40.86055 2660.00000 2517.89113 0.00038
40.87056 2797.00000 2587.02775 0.00036
40.88055 2803.00000 2650.15429 0.00036
40.89056 2878.00000 2706.13128 0.00035
40.90055 3008.00000 2753.43263 0.00033
40.91056 3052.00000 2791.09856 0.00033
40.92056 3048.00000 2818.12986 0.00033
40.93056 3123.00000 2834.05490 0.00032
40.94056 3082.00000 2838.80305 0.00032
40.95056 3188.00000 2832.79127 0.00031
40.96056 3108.00000 2816.92428 0.00032
40.97056 3131.00000 2792.54665 0.00032
40.98056 3141.00000 2761.35406 0.00032
40.99056 3181.00000 2725.27930 0.00031
41.00056 3032.00000 2686.37188 0.00033
41.01056 3036.00000 2646.68829 0.00033
41.02056 2987.00000 2608.20378 0.00033
41.03056 2941.00000 2572.74967 0.00034
41.04056 2906.00000 2541.97423 0.00034
41.05056 2957.00000 2517.32197 0.00034
41.06056 2889.00000 2500.02491 0.00035
41.07056 2944.00000 2491.10047 0.00034
41.08056 2863.00000 2491.35165 0.00035
41.09056 2909.00000 2501.36725 0.00034
41.10056 2797.00000 2521.52086 0.00036
41.11056 2891.00000 2551.96847 0.00035
41.12056 2976.00000 2592.64488 0.00034
41.13056 2901.00000 2643.25962 0.00034
41.14056 3010.00000 2703.29269 0.00033
41.15056 3037.00000 2771.99078 0.00033
41.16056 3138.00000 2848.36426 0.00032
41.17056 3267.00000 2931.18531 0.00031
41.18056 3249.00000 3018.98780 0.00031
41.19056 3384.00000 3110.06969 0.00030
41.20056 3462.00000 3202.49960 0.00029
41.21056 3565.00000 3294.12996 0.00028
41.22056 3625.00000 3382.62045 0.00028
41.23056 3731.00000 3465.47650 0.00027
41.24056 3666.00000 3540.10836 0.00027
41.25056 3832.00000 3603.91580 0.00026
41.26056 3754.00000 3654.40101 0.00027
41.27057 3695.00000 3689.32988 0.00027
41.28056 3772.00000 3706.77479 0.00027
41.29057 3702.00000 3705.47647 0.00027
41.30056 3748.00000 3684.82389 0.00027
41.31057 3753.00000 3644.83297 0.00027
41.32056 3658.00000 3586.55089 0.00027
41.33057 3667.00000 3511.28288 0.00027
41.34056 3578.00000 3421.43823 0.00028
41.35057 3496.00000 3319.10863 0.00029
41.36057 3374.00000 3207.22861 0.00030
41.37057 3195.00000 3088.33902 0.00031
41.38057 3176.00000 2964.94952 0.00031
41.39057 3023.00000 2839.34777 0.00033
41.40057 2850.00000 2713.54877 0.00035
41.41057 2818.00000 2589.27645 0.00035
41.42057 2636.00000 2467.96753 0.00038
41.43057 2586.00000 2350.78838 0.00039
41.44057 2361.00000 2238.65816 0.00042
41.45057 2266.00000 2132.27379 0.00044
41.46057 2113.00000 2032.13440 0.00047
41.47057 1966.00000 1938.56444 0.00051
41.48057 1980.00000 1851.73509 0.00051
41.49057 1936.00000 1771.68436 0.00052
41.50057 1778.00000 1698.33609 0.00056
41.51057 1749.00000 1631.51789 0.00057
41.52057 1587.00000 1570.97814 0.00063
41.53057 1602.00000 1516.40069 0.00062
41.54057 1545.00000 1467.42089 0.00065
41.55057 1416.00000 1423.66365 0.00071
41.56057 1373.00000 1384.74810 0.00073
41.57057 1393.00000 1350.23181 0.00072
41.58057 1302.00000 1319.69190 0.00077
41.59057 1307.00000 1292.71969 0.00077
41.60057 1305.00000 1268.91311 0.00077
41.61057 1235.00000 1247.88794 0.00081
41.62057 1240.00000 1229.38916 0.00081
41.63057 1231.00000 1213.19613 0.00081
41.64057 1237.00000 1198.94567 0.00081
41.65057 1272.00000 1186.36666 0.00079
41.66057 1191.00000 1175.23918 0.00084
41.67057 1180.00000 1165.37094 0.00085
41.68057 1199.00000 1156.59494 0.00083
41.69057 1155.00000 1148.76740 0.00087
41.70057 1136.00000 1141.76547 0.00088
41.71058 1097.00000 1135.47911 0.00091
41.72057 1149.00000 1129.83792 0.00087
41.73058 1159.00000 1124.74612 0.00086
41.74057 1155.00000 1120.16239 0.00087
41.75058 1152.00000 1116.01786 0.00087
41.76057 1179.00000 1112.28691 0.00085
41.77058 1150.00000 1108.92052 0.00087
41.78057 1146.00000 1105.90398 0.00087
41.79058 1160.00000 1103.20292 0.00086
41.80058 1126.00000 1100.80789 0.00089
41.81058 1164.00000 1098.70230 0.00086
41.82058 1158.00000 1096.87588 0.00086
41.83058 1079.00000 1095.32164 0.00093
41.84058 1107.00000 1094.03560 0.00090
41.85058 1162.00000 1093.01674 0.00086
41.86058 1179.00000 1092.26702 0.00085
41.87058 1097.00000 1091.79151 0.00091
41.88058 1131.00000 1091.59862 0.00088
41.89058 1143.00000 1091.70046 0.00087
41.90058 1177.00000 1092.11325 0.00085
41.91058 1137.00000 1092.85788 0.00088
41.92058 1134.00000 1093.96052 0.00088
41.93058 1167.00000 1095.45338 0.00086
41.94058 1106.00000 1097.37553 0.00090
41.95058 1183.00000 1099.77378 0.00085
41.96058 1133.00000 1102.70366 0.00088
41.97058 1134.00000 1106.23041 0.00088
41.98058 1181.00000 1110.42998 0.00085
41.99058 1224.00000 1115.39001 0.00082
42.00058 1235.00000 1121.21070 0.00081
42.01058 1229.00000 1128.00557 0.00081
42.02058 1260.00000 1135.90194 0.00079
42.03058 1290.00000 1145.04117 0.00078
42.04058 1251.00000 1155.57851 0.00080
42.05058 1279.00000 1167.68242 0.00078
42.06058 1364.00000 1181.53338 0.00073
42.07058 1304.00000 1197.32201 0.00077
42.08058 1404.00000 1215.24646 0.00071
42.09058 1398.00000 1235.50899 0.00072
42.10058 1423.00000 1258.31169 0.00070
42.11058 1462.00000 1283.85131 0.00068
42.12058 1413.00000 1312.31323 0.00071
42.13058 1507.00000 1343.86459 0.00066
42.14058 1546.00000 1378.64662 0.00065
42.15059 1645.00000 1416.80595 0.00061
42.16058 1657.00000 1458.28840 0.00060
42.17059 1728.00000 1503.27106 0.00058
42.18058 1742.00000 1551.52684 0.00057
42.19059 1828.00000 1603.12870 0.00055
42.20058 1886.00000 1657.67425 0.00053
42.21059 1901.00000 1715.09583 0.00053
42.22058 1997.00000 1774.78619 0.00050
42.23059 2050.00000 1836.50265 0.00049
42.24059 2065.00000 1899.47600 0.00048
42.25059 2150.00000 1963.06871 0.00047
42.26059 2211.00000 2026.46957 0.00045
42.27059 2318.00000 2088.75539 0.00043
42.28059 2421.00000 2148.89658 0.00041
42.29059 2412.00000 2205.76946 0.00041
42.30059 2458.00000 2258.17801 0.00041
42.31059 2482.00000 2304.88814 0.00040
42.32059 2478.00000 2344.67730 0.00040
42.33059 2638.00000 2376.40738 0.00038
42.34059 2513.00000 2399.08129 0.00040
42.35059 2559.00000 2411.77918 0.00039
42.36059 2520.00000 2414.03397 0.00040
42.37059 2551.00000 2405.76198 0.00039
42.38059 2526.00000 2387.22873 0.00040
42.39059 2447.00000 2359.06731 0.00041
42.40059 2393.00000 2322.23886 0.00042
42.41059 2352.00000 2277.95507 0.00043
42.42059 2339.00000 2227.58420 0.00043
42.43059 2347.00000 2172.55663 0.00043
42.44059 2302.00000 2114.28229 0.00043
42.45059 2216.00000 2054.08785 0.00045
42.46059 2130.00000 1993.17539 0.00047
42.47059 2029.00000 1932.60032 0.00049
42.48059 2063.00000 1873.26402 0.00048
42.49059 1909.00000 1815.91621 0.00052
42.50059 1914.00000 1761.16291 0.00052
42.51059 1885.00000 1709.47673 0.00053
42.52059 1854.00000 1661.20801 0.00054
42.53059 1683.00000 1616.59552 0.00059
42.54059 1691.00000 1575.77678 0.00059
42.55059 1661.00000 1538.79769 0.00060
42.56059 1592.00000 1505.62201 0.00063
42.57059 1561.00000 1476.14048 0.00064
42.58059 1499.00000 1450.18000 0.00067
42.59060 1431.00000 1427.49136 0.00070
42.60059 1420.00000 1407.86524 0.00070
42.61060 1420.00000 1390.91130 0.00070
42.62059 1351.00000 1376.36125 0.00074
42.63060 1294.00000 1363.79882 0.00077
42.64059 1285.00000 1352.91089 0.00078
42.65060 1297.00000 1343.28757 0.00077
42.66059 1223.00000 1334.61704 0.00082
42.67060 1276.00000 1326.53372 0.00078
42.68060 1270.00000 1318.77138 0.00079
42.69060 1209.00000 1311.07696 0.00083
42.70060 1238.00000 1303.26472 0.00081
42.71060 1182.00000 1295.21426 0.00085
42.72060 1215.00000 1286.87274 0.00082
42.73060 1158.00000 1278.25634 0.00086
42.74060 1196.00000 1269.42921 0.00084
42.75060 1170.00000 1260.39965 0.00085
42.76060 1178.00000 1251.29961 0.00085
42.77060 1173.00000 1242.27821 0.00085
42.78060 1150.00000 1233.46244 0.00087
42.79060 1158.00000 1224.96858 0.00086
42.80060 1141.00000 1216.90144 0.00088
42.81060 1147.00000 1209.35220 0.00087
42.82060 1124.00000 1202.39744 0.00089
42.83060 1114.00000 1196.09897 0.00090
42.84060 1090.00000 1190.50411 0.00092
42.85060 1094.00000 1185.64633 0.00091
42.86060 1106.00000 1181.54608 0.00090
42.87060 1149.00000 1178.21175 0.00087
42.88060 1132.00000 1175.64083 0.00088
42.89060 1160.00000 1173.82121 0.00086
42.90060 1115.00000 1172.73253 0.00090
42.91060 1176.00000 1172.34755 0.00085
42.92060 1179.00000 1172.63353 0.00085
42.93060 1146.00000 1173.55353 0.00087
42.94060 1130.00000 1175.06758 0.00088
42.95060 1156.00000 1177.13367 0.00087
42.96060 1221.00000 1179.70855 0.00082
42.97060 1220.00000 1182.74840 0.00082
42.98060 1139.00000 1186.20920 0.00088
42.99060 1209.00000 1190.04699 0.00083
43.00060 1178.00000 1194.21790 0.00085
43.01060 1234.00000 1198.67811 0.00081
43.02060 1206.00000 1203.38364 0.00083
43.03061 1294.00000 1208.29515 0.00077
43.04060 1287.00000 1213.35252 0.00078
43.05061 1291.00000 1218.52997 0.00077
43.06060 1382.00000 1223.75958 0.00072
43.07061 1310.00000 1229.01347 0.00076
43.08060 1310.00000 1234.22058 0.00076
43.09061 1346.00000 1239.34977 0.00074
43.10061 1364.00000 1244.33254 0.00073
43.11061 1336.00000 1249.11981 0.00075
43.12061 1344.00000 1253.65678 0.00074
43.13061 1370.00000 1257.88861 0.00073
43.14061 1427.00000 1261.76121 0.00070
43.15061 1394.00000 1265.22205 0.00072
43.16061 1365.00000 1268.22119 0.00073
43.17061 1406.00000 1270.71227 0.00071
43.18061 1369.00000 1272.65359 0.00073
43.19061 1337.00000 1274.00914 0.00075
43.20061 1438.00000 1274.74950 0.00070
43.21061 1289.00000 1274.85272 0.00078
43.22061 1423.00000 1274.30493 0.00070
43.23061 1347.00000 1273.10079 0.00074
43.24061 1371.00000 1271.24363 0.00073
43.25061 1375.00000 1268.74548 0.00073
43.26061 1421.00000 1265.62674 0.00070
43.27061 1408.00000 1261.91582 0.00071
43.28061 1298.00000 1257.64894 0.00077
43.29061 1346.00000 1252.87185 0.00074
43.30061 1294.00000 1247.63539 0.00077
43.31061 1290.00000 1241.95733 0.00078
43.32061 1231.00000 1235.88016 0.00081
43.33061 1261.00000 1229.47222 0.00079
43.34061 1185.00000 1222.79108 0.00084
43.35061 1203.00000 1215.88824 0.00083
43.36061 1214.00000 1208.81350 0.00082
43.37061 1192.00000 1201.61439 0.00084
43.38061 1183.00000 1194.33569 0.00085
43.39061 1165.00000 1187.01905 0.00086
43.40061 1099.00000 1179.70274 0.00091
43.41061 1152.00000 1172.42157 0.00087
43.42061 1134.00000 1165.20680 0.00088
43.43061 1142.00000 1158.08629 0.00088
43.44061 1085.00000 1151.08459 0.00092
43.45061 1066.00000 1144.22314 0.00094
43.46061 1070.00000 1137.52049 0.00093
43.47062 1055.00000 1130.98620 0.00095
43.48061 1100.00000 1124.65298 0.00091
43.49062 1095.00000 1118.50717 0.00091
43.50061 1077.00000 1112.58276 0.00093
43.51062 1082.00000 1106.86436 0.00092
43.52061 1001.00000 1101.38145 0.00100
43.53062 1040.00000 1096.11811 0.00096
43.54062 1114.00000 1091.09538 0.00090
43.55062 1029.00000 1086.31251 0.00097
43.56062 999.00000 1081.77386 0.00100
43.57062 1068.00000 1077.48378 0.00094
43.58062 1022.00000 1073.44695 0.00098
43.59062 966.00000 1069.66861 0.00104
43.60062 1010.00000 1066.15488 0.00099
43.61062 1019.00000 1062.91307 0.00098
43.62062 1014.00000 1059.95200 0.00099
43.63062 1022.00000 1057.28236 0.00098
43.64062 1033.00000 1054.91710 0.00097
43.65062 1096.00000 1052.87182 0.00091
43.66062 1055.00000 1051.16518 0.00095
43.67062 1053.00000 1049.81933 0.00095
43.68062 1037.00000 1048.86037 0.00096
43.69062 1096.00000 1048.31872 0.00091
43.70062 1051.00000 1048.22959 0.00095
43.71062 1050.00000 1048.63333 0.00095
43.72062 1022.00000 1049.57571 0.00098
43.73062 1079.00000 1051.10821 0.00093
43.74062 1040.00000 1053.28808 0.00096
43.75062 1094.00000 1056.17836 0.00091
43.76062 1076.00000 1059.84770 0.00093
43.77062 1152.00000 1064.36996 0.00087
43.78062 1152.00000 1069.82358 0.00087
43.79062 1159.00000 1076.29078 0.00086
43.80062 1117.00000 1083.85634 0.00090
43.81062 1145.00000 1092.60622 0.00087
43.82062 1226.00000 1102.62574 0.00082
43.83062 1222.00000 1113.99755 0.00082
43.84062 1223.00000 1126.79916 0.00082
43.85062 1250.00000 1141.10030 0.00080
43.86062 1290.00000 1156.95998 0.00078
43.87062 1296.00000 1174.42335 0.00077
43.88062 1339.00000 1193.51821 0.00075
43.89062 1329.00000 1214.25150 0.00075
43.90062 1343.00000 1236.60561 0.00074
43.91063 1375.00000 1260.55943 0.00073
43.92062 1444.00000 1285.96094 0.00069
43.93063 1474.00000 1312.79834 0.00068
43.94062 1478.00000 1340.81169 0.00068
43.95063 1483.00000 1369.91766 0.00067
43.96062 1567.00000 1399.75890 0.00064
43.97063 1579.00000 1430.16478 0.00063
43.98063 1622.00000 1460.70385 0.00062
43.99063 1597.00000 1491.01312 0.00063
44.00063 1705.00000 1520.64659 0.00059
44.01063 1701.00000 1549.10640 0.00059
44.02063 1710.00000 1575.84473 0.00058
44.03063 1715.00000 1600.25427 0.00058
44.04063 1613.00000 1621.68898 0.00062
44.05063 1764.00000 1639.74655 0.00057
44.06063 1765.00000 1654.18198 0.00057
44.07063 1756.00000 1664.31399 0.00057
44.08063 1732.00000 1669.69357 0.00058
44.09063 1717.00000 1669.96419 0.00058
44.10063 1753.00000 1665.08099 0.00057
44.11063 1761.00000 1655.15582 0.00057
44.12063 1734.00000 1640.43948 0.00058
44.13063 1735.00000 1621.33077 0.00058
44.14063 1646.00000 1598.34735 0.00061
44.15063 1675.00000 1572.08769 0.00060
44.16063 1675.00000 1543.19150 0.00060
44.17063 1661.00000 1512.30478 0.00060
44.18063 1622.00000 1480.05550 0.00062
44.19063 1525.00000 1447.00989 0.00066
44.20063 1534.00000 1413.58915 0.00065
44.21063 1480.00000 1380.27020 0.00068
44.22063 1434.00000 1347.44972 0.00070
44.23063 1358.00000 1315.43914 0.00074
44.24063 1387.00000 1284.49028 0.00072
44.25063 1354.00000 1254.80143 0.00074
44.26063 1274.00000 1226.52267 0.00078
44.27063 1283.00000 1199.76078 0.00078
44.28063 1239.00000 1174.58361 0.00081
44.29063 1196.00000 1151.02318 0.00084
44.30063 1187.00000 1129.07725 0.00084
44.31063 1161.00000 1108.70702 0.00086
44.32063 1115.00000 1089.81303 0.00090
44.33064 1066.00000 1072.21514 0.00094
44.34063 1105.00000 1056.10523 0.00090
44.35064 1079.00000 1041.88353 0.00093
44.36063 1023.00000 1029.15929 0.00098
44.37064 1025.00000 1017.64945 0.00098
44.38063 1006.00000 1007.30195 0.00099
44.39064 1023.00000 997.98042 0.00098
44.40063 1006.00000 989.62841 0.00099
44.41064 1000.00000 982.12129 0.00100
44.42064 1042.00000 975.39554 0.00096
44.43064 992.00000 969.36090 0.00101
44.44064 985.00000 963.94056 0.00102
44.45064 951.00000 959.06367 0.00105
44.46064 970.00000 954.66558 0.00103
44.47064 966.00000 950.68787 0.00104
44.48064 992.00000 947.07817 0.00101
44.49064 948.00000 943.79000 0.00105
44.50064 959.00000 940.78235 0.00104
44.51064 964.00000 938.01933 0.00104
44.52064 887.00000 935.46971 0.00113
44.53064 912.00000 933.10647 0.00110
44.54064 947.00000 930.90636 0.00106
44.55064 941.00000 928.84942 0.00106
44.56064 885.00000 926.91860 0.00113
44.57064 935.00000 925.09938 0.00107
44.58064 933.00000 923.37935 0.00107
44.59064 937.00000 921.74798 0.00107
44.60064 995.00000 920.19628 0.00101
44.61064 932.00000 918.71655 0.00107
44.62064 947.00000 917.30224 0.00106
44.63064 941.00000 915.94768 0.00106
44.64064 908.00000 914.64797 0.00110
44.65064 873.00000 913.39887 0.00115
44.66064 926.00000 912.19666 0.00108
44.67064 892.00000 911.03806 0.00112
44.68064 894.00000 909.92017 0.00112
44.69064 899.00000 908.84039 0.00111
44.70064 840.00000 907.79640 0.00119
44.71064 865.00000 906.78608 0.00116
44.72064 886.00000 905.80752 0.00113
44.73064 898.00000 904.85898 0.00111
44.74064 890.00000 903.93884 0.00112
44.75064 888.00000 903.04563 0.00113
44.76064 911.00000 902.17799 0.00110
44.77065 911.00000 901.33380 0.00110
44.78064 861.00000 900.51439 0.00116
44.79065 912.00000 899.71538 0.00110
44.80064 864.00000 898.93893 0.00116
44.81065 926.00000 898.18098 0.00108
44.82064 864.00000 897.44367 0.00116
44.83065 915.00000 896.72320 0.00109
44.84064 864.00000 896.02166 0.00116
44.85065 886.00000 895.33548 0.00113
44.86065 905.00000 894.66604 0.00110
44.87065 869.00000 894.01197 0.00115
44.88065 869.00000 893.37263 0.00115
44.89065 858.00000 892.74744 0.00117
44.90065 891.00000 892.13581 0.00112
44.91065 884.00000 891.53719 0.00113
44.92065 871.00000 890.95107 0.00115
44.93065 887.00000 890.37692 0.00113
44.94065 836.00000 889.81425 0.00120
44.95065 874.00000 889.26256 0.00114
44.96065 852.00000 888.72135 0.00117
44.97065 900.00000 888.19007 0.00111
44.98065 903.00000 887.66815 0.00111
44.99065 868.00000 887.15486 0.00115
45.00065 896.00000 886.64924 0.00112
45.01065 885.00000 886.14976 0.00113
45.02065 886.00000 885.65307 0.00113
45.03065 920.00000 885.15271 0.00109
45.04065 796.00000 884.65520 0.00126
45.05065 864.00000 884.19486 0.00116
45.06065 930.00000 883.75186 0.00108
45.07065 844.00000 883.31730 0.00118
45.08065 842.00000 882.89076 0.00119
45.09065 883.00000 882.47207 0.00113
45.10065 841.00000 882.06110 0.00119
45.11065 876.00000 881.65771 0.00114
45.12065 906.00000 881.26178 0.00110
45.13065 914.00000 880.87320 0.00109
45.14065 904.00000 880.49187 0.00111
45.15065 847.00000 880.11770 0.00118
45.16065 889.00000 879.75063 0.00112
45.17065 799.00000 879.39060 0.00125
45.18065 895.00000 879.03749 0.00112
45.19065 845.00000 878.69119 0.00118
45.20065 851.00000 878.35164 0.00118
45.21066 883.00000 878.01868 0.00113
45.22065 865.00000 877.69316 0.00116
45.23066 863.00000 877.37104 0.00116
45.24065 894.00000 877.05413 0.00112
45.25066 850.00000 876.74153 0.00118
45.26065 877.00000 876.43411 0.00114
45.27066 868.00000 876.13014 0.00115
45.28065 825.00000 875.83021 0.00121
45.29066 832.00000 875.53233 0.00120
45.30066 846.00000 875.23637 0.00118
45.31066 857.00000 874.94062 0.00117
45.32066 865.00000 874.64313 0.00116
45.33066 969.00000 874.34100 0.00103
45.34066 902.00000 874.02946 0.00111
45.35066 852.00000 873.70009 0.00117
45.36066 886.00000 873.33612 0.00113
45.37066 868.00000 872.88766 0.00115
45.38066 808.00000 872.30676 0.00124
45.39066 878.00000 871.87611 0.00114
45.40066 913.00000 871.65498 0.00110
45.41066 851.00000 871.49123 0.00118
45.42066 888.00000 871.35542 0.00113
45.43066 897.00000 871.25331 0.00111
45.44066 900.00000 871.12155 0.00111
45.45066 823.00000 870.97443 0.00122
45.46066 849.00000 870.83259 0.00118
45.47066 856.00000 870.69947 0.00117
45.48066 849.00000 870.57542 0.00118
45.49066 873.00000 870.46068 0.00115
45.50066 881.00000 870.35553 0.00114
45.51066 866.00000 870.26024 0.00115
45.52066 869.00000 870.17513 0.00115
45.53066 868.00000 870.10052 0.00115
45.54066 889.00000 870.03675 0.00112
45.55066 875.00000 869.98420 0.00114
45.56066 868.00000 869.94325 0.00115
45.57066 865.00000 869.91431 0.00116
45.58066 847.00000 869.89783 0.00118
45.59066 857.00000 869.89429 0.00117
45.60066 875.00000 869.90419 0.00114
45.61066 835.00000 869.92806 0.00120
45.62066 836.00000 869.96647 0.00120
45.63066 850.00000 870.02005 0.00118
45.64066 877.00000 870.08943 0.00114
45.65067 885.00000 870.17542 0.00113
45.66066 913.00000 870.27848 0.00110
45.67067 855.00000 870.39983 0.00117
45.68066 811.00000 870.53987 0.00123
45.69067 841.00000 870.70008 0.00119
45.70066 810.00000 870.88090 0.00123
45.71067 819.00000 871.08418 0.00122
45.72066 870.00000 871.31047 0.00115
45.73067 823.00000 871.56236 0.00122
45.74067 812.00000 871.84184 0.00123
45.75067 849.00000 872.15113 0.00118
45.76067 894.00000 872.48305 0.00112
45.77067 898.00000 872.84278 0.00111
45.78067 908.00000 873.23459 0.00110
45.79067 857.00000 873.66073 0.00117
45.80067 823.00000 874.12364 0.00122
45.81067 851.00000 874.62607 0.00118
45.82067 876.00000 875.17109 0.00114
45.83067 875.00000 875.76223 0.00114
45.84067 887.00000 876.40348 0.00113
45.85067 872.00000 877.09940 0.00115
45.86067 883.00000 877.85525 0.00113
45.87067 865.00000 878.67703 0.00116
45.88067 814.00000 879.57167 0.00123
45.89067 833.00000 880.54714 0.00120
45.90067 892.00000 881.61261 0.00112
45.91067 880.00000 882.77862 0.00114
45.92067 845.00000 884.05729 0.00118
45.93067 877.00000 885.46250 0.00114
45.94067 880.00000 887.01011 0.00114
45.95067 848.00000 888.71815 0.00118
45.96067 895.00000 890.60711 0.00112
45.97067 897.00000 892.70006 0.00111
45.98067 878.00000 895.02293 0.00114
45.99067 872.00000 897.60465 0.00115
46.00067 990.00000 900.47732 0.00101
46.01067 945.00000 903.67631 0.00106
46.02067 927.00000 907.24029 0.00108
46.03067 968.00000 911.21118 0.00103
46.04067 937.00000 915.63405 0.00107
46.05067 929.00000 920.55692 0.00108
46.06067 957.00000 926.03037 0.00104
46.07067 937.00000 932.10714 0.00107
46.08067 901.00000 938.84154 0.00111
46.09068 986.00000 946.29636 0.00101
46.10067 995.00000 954.50382 0.00101
46.11068 974.00000 963.55030 0.00103
46.12067 1028.00000 973.45267 0.00097
46.13068 1014.00000 984.29939 0.00099
46.14067 1012.00000 996.09573 0.00099
46.15068 1041.00000 1008.93266 0.00096
46.16068 1015.00000 1022.78528 0.00099
46.17068 1050.00000 1037.64847 0.00095
46.18068 1106.00000 1053.54774 0.00090
46.19068 1103.00000 1070.48749 0.00091
46.20068 1112.00000 1088.44534 0.00090
46.21068 1175.00000 1107.38077 0.00085
46.22068 1132.00000 1127.23400 0.00088
46.23068 1228.00000 1147.92406 0.00081
46.24068 1211.00000 1169.34686 0.00083
46.25068 1188.00000 1191.37289 0.00084
46.26068 1241.00000 1213.84276 0.00081
46.27068 1212.00000 1236.57562 0.00083
46.28068 1305.00000 1259.40917 0.00077
46.29068 1323.00000 1282.08810 0.00076
46.30068 1366.00000 1304.34679 0.00073
46.31068 1360.00000 1325.90719 0.00074
46.32068 1319.00000 1346.47546 0.00076
46.33068 1369.00000 1365.74866 0.00073
46.34068 1348.00000 1383.42285 0.00074
46.35068 1349.00000 1399.20226 0.00074
46.36068 1447.00000 1412.80858 0.00069
46.37068 1364.00000 1423.98993 0.00073
46.38068 1498.00000 1432.52900 0.00067
46.39068 1480.00000 1438.25025 0.00068
46.40068 1459.00000 1441.02625 0.00069
46.41068 1399.00000 1440.78342 0.00071
46.42068 1445.00000 1437.50703 0.00069
46.43068 1463.00000 1431.24489 0.00068
46.44068 1435.00000 1422.10896 0.00070
46.45068 1437.00000 1410.27382 0.00070
46.46068 1418.00000 1395.97139 0.00071
46.47068 1301.00000 1379.48179 0.00077
46.48068 1318.00000 1361.12106 0.00076
46.49068 1259.00000 1341.22684 0.00079
46.50068 1358.00000 1320.14378 0.00074
46.51068 1238.00000 1298.20993 0.00081
46.52068 1294.00000 1275.74546 0.00077
46.53069 1212.00000 1253.02159 0.00083
46.54068 1184.00000 1230.36847 0.00084
46.55069 1198.00000 1207.92365 0.00083
46.56068 1174.00000 1185.96970 0.00085
46.57069 1168.00000 1164.57813 0.00086
46.58068 1128.00000 1143.96311 0.00089
46.59069 1116.00000 1124.14170 0.00090
46.60069 1101.00000 1105.25017 0.00091
46.61069 1059.00000 1087.32124 0.00094
46.62069 1020.00000 1070.38909 0.00098
46.63069 1047.00000 1054.47170 0.00096
46.64069 1047.00000 1039.57331 0.00096
46.65069 1003.00000 1025.68654 0.00100
46.66069 993.00000 1012.79433 0.00101
46.67069 976.00000 1000.87160 0.00102
46.68069 862.00000 989.88659 0.00116
46.69069 939.00000 979.80192 0.00106
46.70069 966.00000 970.57531 0.00104
46.71069 936.00000 962.15892 0.00107
46.72069 909.00000 954.49115 0.00110
46.73069 888.00000 947.51740 0.00113
46.74069 919.00000 941.31172 0.00109
46.75069 898.00000 935.78698 0.00111
46.76069 876.00000 930.86676 0.00114
46.77069 855.00000 926.50687 0.00117
46.78069 919.00000 922.66685 0.00109
46.79069 867.00000 919.30903 0.00115
46.80069 908.00000 916.39829 0.00110
46.81069 894.00000 913.90235 0.00112
46.82069 907.00000 911.79191 0.00110
46.83069 882.00000 910.04080 0.00113
46.84069 871.00000 908.62610 0.00115
46.85069 915.00000 907.52837 0.00109
46.86069 859.00000 906.73189 0.00116
46.87069 836.00000 906.22585 0.00120
46.88069 887.00000 906.00551 0.00113
46.89069 844.00000 906.05904 0.00118
46.90069 866.00000 906.35497 0.00115
46.91069 903.00000 906.90571 0.00111
46.92069 856.00000 907.72283 0.00117
46.93069 900.00000 908.81313 0.00111
46.94069 888.00000 910.18627 0.00113
46.95070 900.00000 911.85718 0.00111
46.96069 897.00000 913.83642 0.00111
46.97070 904.00000 916.15183 0.00111
46.98069 829.00000 918.81637 0.00121
46.99070 883.00000 921.86683 0.00113
47.00069 857.00000 925.31887 0.00117
47.01070 901.00000 929.21778 0.00111
47.02069 882.00000 933.58026 0.00113
47.03070 945.00000 938.45908 0.00106
47.04070 902.00000 943.87542 0.00111
47.05070 844.00000 949.86998 0.00118
47.06070 927.00000 956.47815 0.00108
47.07070 895.00000 963.73390 0.00112
47.08070 899.00000 971.66873 0.00111
47.09070 945.00000 980.31051 0.00106
47.10070 924.00000 989.68228 0.00108
47.11070 918.00000 999.80093 0.00109
47.12070 932.00000 1010.67582 0.00107
47.13070 965.00000 1022.30743 0.00104
47.14070 967.00000 1034.68590 0.00103
47.15070 986.00000 1047.78969 0.00101
47.16070 1008.00000 1061.58416 0.00099
47.17070 1016.00000 1076.02033 0.00098
47.18070 1009.00000 1091.03358 0.00099
47.19070 1033.00000 1106.54256 0.00097
47.20070 1051.00000 1122.44826 0.00095
47.21070 997.00000 1138.63317 0.00100
47.22070 1049.00000 1154.96090 0.00095
47.23070 1072.00000 1171.27611 0.00093
47.24070 1084.00000 1187.40524 0.00092
47.25070 1132.00000 1203.15811 0.00088
47.26070 1109.00000 1218.33093 0.00090
47.27070 1110.00000 1232.71091 0.00090
47.28070 1131.00000 1246.08285 0.00088
47.29070 1117.00000 1258.23783 0.00090
47.30070 1152.00000 1268.98369 0.00087
47.31070 1126.00000 1278.15669 0.00089
47.32070 1141.00000 1285.63294 0.00088
47.33070 1144.00000 1291.33819 0.00087
47.34070 1172.00000 1295.25405 0.00085
47.35070 1156.00000 1297.41944 0.00087
47.36070 1175.00000 1297.92668 0.00085
47.37070 1205.00000 1296.91261 0.00083
47.38070 1150.00000 1294.54591 0.00087
47.39071 1154.00000 1291.00800 0.00087
47.40070 1141.00000 1286.49952 0.00088
47.41071 1146.00000 1281.16704 0.00087
47.42070 1196.00000 1275.17946 0.00084
47.43071 1140.00000 1268.78951 0.00088
47.44070 1194.00000 1262.23138 0.00084
47.45071 1113.00000 1255.49889 0.00090
47.46070 1224.00000 1248.67674 0.00082
47.47071 1115.00000 1241.80177 0.00090
47.48071 1176.00000 1234.94110 0.00085
47.49071 1207.00000 1228.11764 0.00083
47.50071 1120.00000 1221.34687 0.00089
47.51071 1171.00000 1214.63237 0.00085
47.52071 1132.00000 1207.96805 0.00088
47.53071 1163.00000 1201.34041 0.00086
47.54071 1109.00000 1194.73058 0.00090
47.55071 1165.00000 1188.11624 0.00086
47.56071 1104.00000 1181.47344 0.00091
47.57071 1164.00000 1174.77822 0.00086
47.58071 1091.00000 1168.00800 0.00092
47.59071 1165.00000 1161.14295 0.00086
47.60071 1123.00000 1154.16711 0.00089
47.61071 1081.00000 1147.07020 0.00093
47.62071 1027.00000 1139.85258 0.00097
47.63071 1064.00000 1132.51906 0.00094
47.64071 999.00000 1125.01623 0.00100
47.65071 1078.00000 1117.34990 0.00093
47.66071 1041.00000 1109.54939 0.00096
47.67071 1021.00000 1101.63294 0.00098
47.68071 1038.00000 1093.61636 0.00096
47.69071 1006.00000 1085.51751 0.00099
47.70071 1088.00000 1077.35607 0.00092
47.71071 964.00000 1069.15301 0.00104
47.72071 994.00000 1060.92991 0.00101
47.73071 951.00000 1052.70856 0.00105
47.74071 922.00000 1044.51041 0.00108
47.75071 945.00000 1036.35619 0.00106
47.76071 906.00000 1028.26565 0.00110
47.77071 959.00000 1020.25722 0.00104
47.78071 941.00000 1012.34792 0.00106
47.79071 903.00000 1004.55317 0.00111
47.80071 886.00000 996.88679 0.00113
47.81071 876.00000 989.36093 0.00114
47.82071 875.00000 981.98614 0.00114
47.83072 895.00000 974.76429 0.00112
47.84071 859.00000 967.72411 0.00116
47.85072 875.00000 960.84375 0.00114
47.86071 880.00000 954.15526 0.00114
47.87072 872.00000 947.63579 0.00115
47.88071 869.00000 941.31375 0.00115
47.89072 873.00000 935.16579 0.00115
47.90071 856.00000 929.21712 0.00117
47.91072 844.00000 923.44441 0.00118
47.92072 898.00000 917.86471 0.00111
47.93072 870.00000 912.47142 0.00115
47.94072 846.00000 907.26340 0.00118
47.95072 858.00000 902.23922 0.00117
47.96072 781.00000 897.39730 0.00128
47.97072 827.00000 892.73598 0.00121
47.98072 819.00000 888.25357 0.00122
47.99072 837.00000 883.94846 0.00119
48.00072 810.00000 879.81914 0.00123
48.01072 875.00000 875.86428 0.00114
48.02072 809.00000 872.08276 0.00124
48.03072 822.00000 868.47369 0.00122
48.04072 792.00000 865.03640 0.00126
48.05072 798.00000 861.77049 0.00125
48.06072 804.00000 858.67575 0.00124
48.07072 768.00000 855.75214 0.00130
48.08072 799.00000 852.99974 0.00125
48.09072 849.00000 850.41863 0.00118
48.10072 834.00000 848.00881 0.00120
48.11072 806.00000 845.77008 0.00124
48.12072 788.00000 843.70187 0.00127
48.13072 832.00000 841.80311 0.00120
48.14072 788.00000 840.07204 0.00127
48.15072 797.00000 838.50602 0.00125
48.16072 812.00000 837.10138 0.00123
48.17072 784.00000 835.85324 0.00128
48.18072 796.00000 834.75530 0.00126
48.19072 799.00000 833.79972 0.00125
48.20072 792.00000 832.97697 0.00126
48.21072 853.00000 832.27572 0.00117
48.22072 826.00000 831.68279 0.00121
48.23072 783.00000 831.18303 0.00128
48.24072 801.00000 830.75939 0.00125
48.25072 802.00000 830.39294 0.00125
48.26072 793.00000 830.06297 0.00126
48.27073 797.00000 829.74690 0.00125
48.28072 807.00000 829.42226 0.00124
48.29073 787.00000 829.06344 0.00127
48.30072 863.00000 828.64782 0.00116
48.31073 789.00000 828.15018 0.00127
48.32072 813.00000 827.55147 0.00123
48.33073 802.00000 826.83100 0.00125
48.34072 805.00000 825.97862 0.00124
48.35073 809.00000 824.98306 0.00124
48.36073 791.00000 823.84643 0.00126
48.37073 799.00000 822.57374 0.00125
48.38073 852.00000 821.17759 0.00117
48.39073 851.00000 819.67624 0.00118
48.40073 792.00000 818.09233 0.00126
48.41073 797.00000 816.45136 0.00125
48.42073 845.00000 814.78026 0.00118
48.43073 787.00000 813.10623 0.00127
48.44073 785.00000 811.45582 0.00127
48.45073 768.00000 809.85442 0.00130
48.46073 800.00000 808.32593 0.00125
48.47073 855.00000 806.89276 0.00117
48.48073 776.00000 805.57587 0.00129
48.49073 828.00000 804.39492 0.00121
48.50073 788.00000 803.36849 0.00127
48.51073 840.00000 802.51432 0.00119
48.52073 813.00000 801.84951 0.00123
48.53073 737.00000 801.39082 0.00136
48.54073 758.00000 801.15502 0.00132
48.55073 780.00000 801.15953 0.00128
48.56073 796.00000 801.42466 0.00126
48.57073 812.00000 801.97004 0.00123
48.58073 844.00000 802.78482 0.00118
48.59073 855.00000 803.89422 0.00117
48.60073 835.00000 805.32358 0.00120
48.61073 801.00000 807.09124 0.00125
48.62073 830.00000 809.21494 0.00120
48.63073 817.00000 811.71231 0.00122
48.64073 854.00000 814.60062 0.00117
48.65073 899.00000 817.89635 0.00111
48.66073 893.00000 821.61476 0.00112
48.67073 886.00000 825.76943 0.00113
48.68073 813.00000 830.37165 0.00123
48.69073 851.00000 835.42984 0.00118
48.70073 849.00000 840.94900 0.00118
48.71074 846.00000 846.93638 0.00118
48.72073 807.00000 853.37178 0.00124
48.73074 817.00000 860.27222 0.00122
48.74073 893.00000 867.57471 0.00112
48.75074 838.00000 875.28787 0.00119
48.76073 835.00000 883.35424 0.00120
48.77074 904.00000 891.76484 0.00111
48.78074 884.00000 900.44385 0.00113
48.79074 916.00000 909.33798 0.00109
48.80074 959.00000 918.37503 0.00104
48.81074 916.00000 927.47185 0.00109
48.82074 940.00000 936.53429 0.00106
48.83074 921.00000 945.45770 0.00109
48.84074 915.00000 954.12811 0.00109
48.85074 978.00000 962.42413 0.00102
48.86074 940.00000 970.22001 0.00106
48.87074 916.00000 977.38992 0.00109
48.88074 931.00000 983.81337 0.00107
48.89074 955.00000 989.38171 0.00105
48.90074 968.00000 994.00530 0.00103
48.91074 1009.00000 997.62050 0.00099
48.92074 987.00000 1000.19576 0.00101
48.93074 1001.00000 1001.73575 0.00100
48.94074 993.00000 1002.28280 0.00101
48.95074 1021.00000 1001.91532 0.00098
48.96074 988.00000 1000.74331 0.00101
48.97074 972.00000 998.90144 0.00103
48.98074 989.00000 996.54101 0.00101
48.99074 992.00000 993.82146 0.00101
49.00074 948.00000 990.90270 0.00105
49.01074 949.00000 987.93868 0.00105
49.02074 949.00000 985.07265 0.00105
49.03074 978.00000 982.43396 0.00102
49.04074 951.00000 980.13625 0.00105
49.05074 905.00000 978.27669 0.00110
49.06074 913.00000 976.93591 0.00110
49.07074 976.00000 976.17826 0.00102
49.08074 971.00000 976.05236 0.00103
49.09074 952.00000 976.59161 0.00105
49.10074 912.00000 977.81461 0.00110
49.11074 909.00000 979.72551 0.00110
49.12074 945.00000 982.31427 0.00106
49.13074 934.00000 985.55679 0.00107
49.14074 924.00000 989.41491 0.00108
49.15075 966.00000 993.84110 0.00104
49.16074 1006.00000 998.75561 0.00099
49.17075 965.00000 1004.09761 0.00104
49.18074 994.00000 1009.75314 0.00101
49.19075 956.00000 1015.63751 0.00105
49.20074 935.00000 1021.60972 0.00107
49.21075 928.00000 1027.56299 0.00108
49.22075 926.00000 1033.34181 0.00108
49.23075 920.00000 1038.80690 0.00109
49.24075 1017.00000 1043.80999 0.00098
49.25075 985.00000 1048.20336 0.00102
49.26075 1008.00000 1051.84437 0.00099
49.27075 924.00000 1054.60045 0.00108
49.28075 995.00000 1056.35425 0.00101
49.29075 955.00000 1057.00864 0.00105
49.30075 948.00000 1056.49107 0.00105
49.31075 979.00000 1054.75700 0.00102
49.32075 964.00000 1051.79182 0.00104
49.33075 993.00000 1047.61128 0.00101
49.34075 944.00000 1042.26006 0.00106
49.35075 976.00000 1035.80891 0.00102
49.36075 1025.00000 1028.35037 0.00098
49.37075 926.00000 1019.99364 0.00108
49.38075 933.00000 1010.85911 0.00107
49.39075 1003.00000 1001.07277 0.00100
49.40075 931.00000 990.76110 0.00107
49.41075 884.00000 980.04633 0.00113
49.42075 857.00000 969.04036 0.00117
49.43075 886.00000 957.84598 0.00113
49.44075 892.00000 946.59286 0.00112
49.45075 868.00000 935.37534 0.00115
49.46075 847.00000 924.25221 0.00118
49.47075 848.00000 913.28405 0.00118
49.48075 838.00000 902.52538 0.00119
49.49075 810.00000 892.02177 0.00123
49.50075 829.00000 881.81027 0.00121
49.51075 828.00000 871.92038 0.00121
49.52075 811.00000 862.37490 0.00123
49.53075 834.00000 853.19073 0.00120
49.54075 833.00000 844.37969 0.00120
49.55075 903.00000 835.94908 0.00111
49.56075 806.00000 827.90235 0.00124
49.57076 850.00000 820.23228 0.00118
49.58075 812.00000 812.95796 0.00123
49.59076 834.00000 806.04558 0.00120
49.60075 743.00000 799.51469 0.00135
49.61076 780.00000 793.33050 0.00128
49.62075 726.00000 787.50635 0.00138
49.63076 765.00000 782.00748 0.00131
49.64075 759.00000 776.84232 0.00132
49.65076 788.00000 771.97692 0.00127
49.66076 776.00000 767.41159 0.00129
49.67076 764.00000 763.12675 0.00131
49.68076 733.00000 759.10747 0.00136
49.69076 742.00000 755.33881 0.00135
49.70076 777.00000 751.80588 0.00129
49.71076 736.00000 748.49406 0.00136
49.72076 734.00000 745.38900 0.00136
49.73076 732.00000 742.47681 0.00137
49.74076 818.00000 739.74405 0.00122
49.75076 744.00000 737.17786 0.00134
49.76076 713.00000 734.76598 0.00140
49.77076 732.00000 732.49676 0.00137
49.78076 801.00000 730.35922 0.00125
49.79076 751.00000 728.34307 0.00133
49.80076 787.00000 726.43866 0.00127
49.81076 763.00000 724.63703 0.00131
49.82076 719.00000 722.92987 0.00139
49.83076 753.00000 721.30951 0.00133
49.84076 754.00000 719.76887 0.00133
49.85076 711.00000 718.30149 0.00141
49.86076 712.00000 716.90143 0.00140
49.87076 756.00000 715.56330 0.00132
49.88076 736.00000 714.28217 0.00136
49.89076 727.00000 713.05360 0.00138
49.90076 748.00000 711.87353 0.00134
49.91076 784.00000 710.73832 0.00128
49.92076 747.00000 709.64465 0.00134
49.93076 694.00000 708.58955 0.00144
49.94076 687.00000 707.57033 0.00146
49.95076 698.00000 706.58456 0.00143
49.96076 764.00000 705.63006 0.00131
49.97076 722.00000 704.70485 0.00139
49.98076 737.00000 703.80717 0.00136
49.99076 723.00000 702.93540 0.00138
50.00076 731.00000 702.08808 0.00137
50.01077 768.00000 701.26310 0.00130
50.02076 721.00000 700.46168 0.00139
50.03077 704.00000 699.67956 0.00142
50.04076 721.00000 698.91884 0.00139
50.05077 720.00000 698.17561 0.00139
50.06076 761.00000 697.45199 0.00131
50.07077 732.00000 696.74434 0.00137
50.08076 760.00000 696.05480 0.00132
50.09077 704.00000 695.37998 0.00142
50.10077 732.00000 694.72133 0.00137
50.11077 701.00000 694.07764 0.00143
50.12077 719.00000 693.44840 0.00139
50.13077 713.00000 692.83317 0.00140
50.14077 698.00000 692.23151 0.00143
50.15077 705.00000 691.64304 0.00142
50.16077 676.00000 691.06740 0.00148
50.17077 683.00000 690.50425 0.00146
50.18077 746.00000 689.95329 0.00134
50.19077 748.00000 689.41423 0.00134
50.20077 741.00000 688.88682 0.00135
50.21077 714.00000 688.37081 0.00140
50.22077 768.00000 687.86599 0.00130
50.23077 716.00000 687.37217 0.00140
50.24077 687.00000 686.88917 0.00146
50.25077 745.00000 686.41682 0.00134
50.26077 742.00000 685.95500 0.00135
50.27077 748.00000 685.50357 0.00134
50.28077 731.00000 685.06244 0.00137
50.29077 737.00000 684.63152 0.00136
50.30077 702.00000 684.21074 0.00142
50.31077 733.00000 683.80005 0.00136
50.32077 748.00000 683.39940 0.00134
50.33077 694.00000 683.00873 0.00144
50.34077 742.00000 682.62801 0.00135
50.35077 708.00000 682.25720 0.00141
50.36077 741.00000 681.89628 0.00135
50.37077 758.00000 681.54521 0.00132
50.38077 717.00000 681.20390 0.00139
50.39077 745.00000 680.87229 0.00134
50.40077 754.00000 680.55028 0.00133
50.41077 744.00000 680.23776 0.00134
50.42077 757.00000 679.93457 0.00132
50.43077 734.00000 679.64049 0.00136
50.44077 749.00000 679.35514 0.00134
50.45078 733.00000 679.07766 0.00136
50.46077 735.00000 678.80774 0.00136
50.47078 658.00000 678.54208 0.00152
50.48077 680.00000 678.27639 0.00147
50.49078 688.00000 677.99608 0.00145
50.50077 704.00000 677.70430 0.00142
50.51078 736.00000 677.48244 0.00136
50.52077 747.00000 677.29265 0.00134
50.53078 711.00000 677.10792 0.00141
50.54078 751.00000 676.91294 0.00133
50.55078 747.00000 676.69640 0.00134
50.56078 700.00000 676.56375 0.00143
50.57078 712.00000 676.49968 0.00140
50.58078 746.00000 676.46676 0.00134
50.59078 764.00000 676.46316 0.00131
50.60078 737.00000 676.49033 0.00136
50.61078 712.00000 676.55124 0.00140
50.62078 750.00000 676.64921 0.00133
50.63078 694.00000 676.78788 0.00144
50.64078 746.00000 676.97129 0.00134
50.65078 676.00000 677.20388 0.00148
50.66078 688.00000 677.49048 0.00145
50.67078 772.00000 677.83634 0.00130
50.68078 688.00000 678.24709 0.00145
50.69078 723.00000 678.72881 0.00138
50.70078 740.00000 679.28789 0.00135
50.71078 739.00000 679.93112 0.00135
50.72078 721.00000 680.66558 0.00139
50.73078 712.00000 681.49859 0.00140
50.74078 695.00000 682.43770 0.00144
50.75078 747.00000 683.49052 0.00134
50.76078 738.00000 684.66471 0.00136
50.77078 744.00000 685.96782 0.00134
50.78078 707.00000 687.40720 0.00141
50.79078 763.00000 688.98983 0.00131
50.80078 720.00000 690.72219 0.00139
50.81078 767.00000 692.61010 0.00130
50.82078 801.00000 694.65852 0.00125
50.83078 788.00000 696.87136 0.00127
50.84078 766.00000 699.25128 0.00131
50.85078 779.00000 701.79945 0.00128
50.86078 756.00000 704.51522 0.00132
50.87078 714.00000 707.39576 0.00140
50.88078 761.00000 710.43489 0.00131
50.89079 771.00000 713.62715 0.00130
50.90078 750.00000 716.96284 0.00133
50.91079 760.00000 720.44710 0.00132
50.92078 779.00000 724.04389 0.00128
50.93079 799.00000 727.74656 0.00125
50.94078 813.00000 731.51689 0.00123
50.95079 835.00000 735.34246 0.00120
50.96078 823.00000 739.17580 0.00122
50.97079 775.00000 742.99456 0.00129
50.98079 822.00000 746.74600 0.00122
50.99079 808.00000 750.39722 0.00124
51.00079 783.00000 753.89541 0.00128
51.01079 797.00000 757.18564 0.00125
51.02079 808.00000 760.21299 0.00124
51.03079 864.00000 762.92195 0.00116
51.04079 830.00000 765.25824 0.00120
51.05079 846.00000 767.17110 0.00118
51.06079 830.00000 768.61578 0.00120
51.07079 867.00000 769.55604 0.00115
51.08079 878.00000 769.96649 0.00114
51.09079 861.00000 769.83439 0.00116
51.10079 862.00000 769.16070 0.00116
51.11079 840.00000 767.96028 0.00119
51.12079 810.00000 766.26106 0.00123
51.13079 838.00000 764.10242 0.00119
51.14079 855.00000 761.53282 0.00117
51.15079 867.00000 758.60711 0.00115
51.16079 829.00000 755.38377 0.00121
51.17079 804.00000 751.92228 0.00124
51.18079 839.00000 748.28111 0.00119
51.19079 838.00000 744.51639 0.00119
51.20079 764.00000 740.67916 0.00131
51.21079 771.00000 736.80897 0.00130
51.22079 769.00000 732.94875 0.00130
51.23079 828.00000 729.13584 0.00121
51.24079 809.00000 725.40082 0.00124
51.25079 851.00000 721.76942 0.00118
51.26079 813.00000 718.26303 0.00123
51.27079 749.00000 714.89917 0.00134
51.28079 710.00000 711.69183 0.00141
51.29079 753.00000 708.65191 0.00133
51.30079 770.00000 705.78751 0.00130
51.31079 776.00000 703.10430 0.00129
51.32079 747.00000 700.60576 0.00134
51.33080 735.00000 698.29130 0.00136
51.34079 746.00000 696.16737 0.00134
51.35080 714.00000 694.22410 0.00140
51.36079 745.00000 692.46635 0.00134
51.37080 767.00000 690.88345 0.00130
51.38079 762.00000 689.47695 0.00131
51.39080 741.00000 688.23604 0.00135
51.40079 756.00000 687.15980 0.00132
51.41080 712.00000 686.23786 0.00140
51.42080 723.00000 685.46680 0.00138
51.43080 760.00000 684.83922 0.00132
51.44080 745.00000 684.34875 0.00134
51.45080 729.00000 683.98916 0.00137
51.46080 724.00000 683.75444 0.00138
51.47080 733.00000 683.63890 0.00136
51.48080 711.00000 683.63719 0.00141
51.49080 720.00000 683.74441 0.00139
51.50080 750.00000 683.95608 0.00133
51.51080 722.00000 684.26819 0.00139
51.52080 732.00000 684.67722 0.00137
51.53080 684.00000 685.18015 0.00146
51.54080 718.00000 685.77443 0.00139
51.55080 681.00000 686.45799 0.00147
51.56080 709.00000 687.22922 0.00141
51.57080 742.00000 688.08693 0.00135
51.58080 741.00000 689.03039 0.00135
51.59080 711.00000 690.05922 0.00141
51.60080 702.00000 691.17343 0.00142
51.61080 678.00000 692.37335 0.00147
51.62080 716.00000 693.65961 0.00140
51.63080 719.00000 695.03310 0.00139
51.64080 687.00000 696.49497 0.00146
51.65080 701.00000 698.04658 0.00143
51.66080 678.00000 699.68949 0.00147
51.67080 727.00000 701.42541 0.00138
51.68080 738.00000 703.25622 0.00136
51.69080 686.00000 705.18389 0.00146
51.70080 723.00000 707.21048 0.00138
51.71080 684.00000 709.33811 0.00146
51.72080 720.00000 711.56892 0.00139
51.73080 730.00000 713.90507 0.00137
51.74080 696.00000 716.34862 0.00144
51.75080 752.00000 718.90155 0.00133
51.76080 773.00000 721.56562 0.00129
51.77081 731.00000 724.34503 0.00137
51.78080 709.00000 727.23210 0.00141
51.79081 715.00000 730.23743 0.00140
51.80080 699.00000 733.34417 0.00143
51.81081 737.00000 736.55194 0.00136
51.82080 738.00000 739.86447 0.00136
51.83081 733.00000 743.37615 0.00136
51.84081 740.00000 747.03376 0.00135
51.85081 746.00000 750.82155 0.00134
51.86081 737.00000 754.74031 0.00136
51.87081 727.00000 758.79078 0.00138
51.88081 767.00000 762.96614 0.00130
51.89081 743.00000 767.26632 0.00135
51.90081 709.00000 771.69139 0.00141
51.91081 734.00000 776.23900 0.00136
51.92081 745.00000 780.90560 0.00134
51.93081 779.00000 785.68667 0.00128
51.94081 777.00000 790.57665 0.00129
51.95081 752.00000 795.56882 0.00133
51.96081 780.00000 800.65519 0.00128
51.97081 759.00000 805.82642 0.00132
51.98081 825.00000 811.07169 0.00121
51.99081 770.00000 816.37865 0.00130
52.00081 810.00000 821.73332 0.00123
52.01081 754.00000 827.12004 0.00133
52.02081 753.00000 832.52143 0.00133
52.03081 791.00000 837.91839 0.00126
52.04081 861.00000 843.29013 0.00116
52.05081 800.00000 848.61426 0.00125
52.06081 800.00000 853.86688 0.00125
52.07081 798.00000 859.02276 0.00125
52.08081 780.00000 864.05561 0.00128
52.09081 820.00000 868.93832 0.00122
52.10081 812.00000 873.64335 0.00123
52.11081 859.00000 878.14310 0.00116
52.12081 768.00000 882.41041 0.00130
52.13081 807.00000 886.41903 0.00124
52.14081 867.00000 890.14419 0.00115
52.15081 847.00000 893.56311 0.00118
52.16081 810.00000 896.65557 0.00123
52.17081 830.00000 899.40442 0.00120
52.18081 802.00000 901.79610 0.00125
52.19081 851.00000 903.82100 0.00118
52.20081 817.00000 905.47386 0.00122
52.21082 856.00000 906.75525 0.00117
52.22081 836.00000 907.66523 0.00120
52.23082 802.00000 908.21692 0.00125
52.24081 812.00000 908.42048 0.00123
52.25082 796.00000 908.29512 0.00126
52.26081 874.00000 907.86203 0.00114
52.27082 796.00000 907.14535 0.00126
52.28082 823.00000 906.17434 0.00122
52.29082 801.00000 904.97915 0.00125
52.30082 778.00000 903.59218 0.00129
52.31082 793.00000 902.04705 0.00126
52.32082 818.00000 900.37799 0.00122
52.33082 844.00000 898.61925 0.00118
52.34082 826.00000 896.80455 0.00121
52.35082 838.00000 894.96651 0.00119
52.36082 771.00000 893.13622 0.00130
52.37082 748.00000 891.34283 0.00134
52.38082 779.00000 889.61309 0.00128
52.39082 745.00000 887.97107 0.00134
52.40082 811.00000 886.43769 0.00123
52.41082 804.00000 885.03015 0.00124
52.42082 847.00000 883.76075 0.00118
52.43082 788.00000 882.63170 0.00127
52.44082 823.00000 881.64386 0.00122
52.45082 769.00000 880.86693 0.00130
52.46082 798.00000 880.28661 0.00125
52.47082 780.00000 879.87747 0.00128
52.48082 778.00000 879.63174 0.00129
52.49082 784.00000 879.53751 0.00128
52.50082 777.00000 879.57936 0.00129
52.51082 752.00000 879.73757 0.00133
52.52082 784.00000 879.98808 0.00128
52.53082 807.00000 880.30256 0.00124
52.54082 802.00000 880.64859 0.00125
52.55082 804.00000 880.98994 0.00124
52.56082 840.00000 881.28699 0.00119
52.57082 787.00000 881.49734 0.00127
52.58082 765.00000 881.57656 0.00131
52.59082 752.00000 881.47913 0.00133
52.60082 825.00000 881.15959 0.00121
52.61082 797.00000 880.57372 0.00125
52.62082 772.00000 879.67997 0.00130
52.63083 837.00000 878.43922 0.00119
52.64082 815.00000 876.82391 0.00123
52.65083 813.00000 874.80141 0.00123
52.66082 721.00000 872.36224 0.00139
52.67083 723.00000 869.48634 0.00138
52.68082 820.00000 866.18454 0.00122
52.69083 802.00000 862.45065 0.00125
52.70082 756.00000 858.31576 0.00132
52.71083 773.00000 853.78612 0.00129
52.72083 719.00000 848.90477 0.00139
52.73083 745.00000 843.70215 0.00134
52.74083 767.00000 838.21699 0.00130
52.75083 719.00000 832.49043 0.00139
52.76083 787.00000 826.56472 0.00127
52.77083 781.00000 820.48197 0.00128
52.78083 729.00000 814.28311 0.00137
52.79083 723.00000 808.00709 0.00138
52.80083 734.00000 801.69017 0.00136
52.81083 782.00000 795.36559 0.00128
52.82083 720.00000 789.06329 0.00139
52.83083 720.00000 782.80990 0.00139
52.84083 728.00000 776.62876 0.00137
52.85083 735.00000 770.54019 0.00136
52.86083 708.00000 764.56179 0.00141
52.87083 711.00000 758.70903 0.00141
52.88083 738.00000 752.99697 0.00136
52.89083 667.00000 747.44195 0.00150
52.90083 706.00000 742.04635 0.00142
52.91083 711.00000 736.78581 0.00141
52.92083 696.00000 731.67585 0.00144
52.93083 702.00000 726.73098 0.00142
52.94083 755.00000 721.95687 0.00132
52.95083 712.00000 717.35778 0.00140
52.96083 711.00000 712.92669 0.00141
52.97083 731.00000 708.65374 0.00137
52.98083 696.00000 704.54345 0.00144
52.99083 762.00000 700.59810 0.00131
53.00083 669.00000 696.81597 0.00149
53.01083 697.00000 693.19443 0.00143
53.02083 695.00000 689.73042 0.00144
53.03083 712.00000 686.42056 0.00140
53.04083 686.00000 683.26112 0.00146
53.05083 720.00000 680.24816 0.00139
53.06083 681.00000 677.37750 0.00147
53.07084 666.00000 674.64214 0.00150
53.08083 714.00000 672.04562 0.00140
53.09084 675.00000 669.57304 0.00148
53.10083 702.00000 667.22969 0.00142
53.11084 648.00000 665.00167 0.00154
53.12083 672.00000 662.89334 0.00149
53.13084 668.00000 660.89186 0.00150
53.14083 698.00000 659.00088 0.00143
53.15084 714.00000 657.20866 0.00140
53.16084 698.00000 655.51670 0.00143
53.17084 661.00000 653.91934 0.00151
53.18084 725.00000 652.41296 0.00138
53.19084 693.00000 650.99419 0.00144
53.20084 645.00000 649.65990 0.00155
53.21084 703.00000 648.40721 0.00142
53.22084 706.00000 647.23355 0.00142
53.23084 687.00000 646.13661 0.00146
53.24084 720.00000 645.11440 0.00139
53.25084 715.00000 644.16520 0.00140
53.26084 649.00000 643.28764 0.00154
53.27084 719.00000 642.48063 0.00139
53.28084 688.00000 641.74340 0.00145
53.29084 658.00000 641.07550 0.00152
53.30084 666.00000 640.47677 0.00150
53.31084 674.00000 639.94736 0.00148
53.32084 703.00000 639.48771 0.00142
53.33084 652.00000 639.09855 0.00153
53.34084 684.00000 638.78085 0.00146
53.35084 694.00000 638.53586 0.00144
53.36084 690.00000 638.36505 0.00145
53.37084 735.00000 638.27008 0.00136
53.38084 691.00000 638.25283 0.00145
53.39084 709.00000 638.31529 0.00141
53.40084 731.00000 638.45961 0.00137
53.41084 664.00000 638.68799 0.00151
53.42084 701.00000 639.00270 0.00143
53.43084 710.00000 639.40600 0.00141
53.44084 699.00000 639.90010 0.00143
53.45084 693.00000 640.48713 0.00144
53.46084 762.00000 641.16908 0.00131
53.47084 757.00000 641.94770 0.00132
53.48084 722.00000 642.82452 0.00139
53.49084 742.00000 643.80071 0.00135
53.50084 712.00000 644.87705 0.00140
53.51085 687.00000 646.05505 0.00146
53.52084 707.00000 647.33090 0.00141
53.53085 684.00000 648.70866 0.00146
53.54084 712.00000 650.18138 0.00140
53.55085 700.00000 651.75233 0.00143
53.56084 713.00000 653.41201 0.00140
53.57085 747.00000 655.16241 0.00134
53.58084 755.00000 656.99102 0.00132
53.59085 715.00000 658.89798 0.00140
53.60085 746.00000 660.86926 0.00134
53.61085 732.00000 662.89652 0.00137
53.62085 764.00000 664.96777 0.00131
53.63085 744.00000 667.06912 0.00134
53.64085 724.00000 669.18459 0.00138
53.65085 780.00000 671.29610 0.00128
53.66085 746.00000 673.38341 0.00134
53.67085 697.00000 675.42424 0.00143
53.68085 715.00000 677.39438 0.00140
53.69085 704.00000 679.26802 0.00142
53.70085 735.00000 681.01818 0.00136
53.71085 734.00000 682.61736 0.00136
53.72085 727.00000 684.03820 0.00138
53.73085 786.00000 685.25450 0.00127
53.74085 761.00000 686.24214 0.00131
53.75085 726.00000 686.98018 0.00138
53.76085 811.00000 687.45189 0.00123
53.77085 806.00000 687.64568 0.00124
53.78085 774.00000 687.55578 0.00129
53.79085 776.00000 687.18277 0.00129
53.80085 749.00000 686.53363 0.00134
53.81085 698.00000 685.62151 0.00143
53.82085 747.00000 684.46522 0.00134
53.83085 718.00000 683.08830 0.00139
53.84085 695.00000 681.51802 0.00144
53.85085 721.00000 679.78417 0.00139
53.86085 766.00000 677.91794 0.00131
53.87085 718.00000 675.95070 0.00139
53.88085 697.00000 673.91312 0.00143
53.89085 682.00000 671.83430 0.00147
53.90085 717.00000 669.74114 0.00139
53.91085 699.00000 667.65789 0.00143
53.92085 735.00000 665.60587 0.00136
53.93085 672.00000 663.60329 0.00149
53.94085 679.00000 661.66523 0.00147
53.95086 673.00000 659.80179 0.00149
53.96085 688.00000 658.02734 0.00145
53.97086 681.00000 656.34069 0.00147
53.98085 693.00000 654.75177 0.00144
53.99086 670.00000 653.25457 0.00149
54.00085 693.00000 651.85311 0.00144
54.01086 701.00000 650.53711 0.00143
54.02085 676.00000 649.30528 0.00148
54.03086 684.00000 648.14368 0.00146
54.04086 698.00000 647.04532 0.00143
54.05086 663.00000 645.99665 0.00151
54.06086 676.00000 644.98402 0.00148
54.07086 669.00000 643.99284 0.00149
54.08086 680.00000 643.00811 0.00147
54.09086 650.00000 642.01498 0.00154
54.10086 625.00000 640.99944 0.00160
54.11086 660.00000 639.94904 0.00152
54.12086 650.00000 638.85363 0.00154
54.13086 659.00000 637.70595 0.00152
54.14086 632.00000 636.50205 0.00158
54.15086 619.00000 635.24145 0.00162
54.16086 645.00000 633.92705 0.00155
54.17086 646.00000 632.56473 0.00155
54.18086 663.00000 631.16274 0.00151
54.19086 673.00000 629.73100 0.00149
54.20086 607.00000 628.28039 0.00165
54.21086 666.00000 626.82208 0.00150
54.22086 687.00000 625.36699 0.00146
54.23086 647.00000 623.92543 0.00155
54.24086 663.00000 622.50678 0.00151
54.25086 671.00000 621.11942 0.00149
54.26086 675.00000 619.77062 0.00148
54.27086 670.00000 618.46652 0.00149
54.28086 640.00000 617.21222 0.00156
54.29086 657.00000 616.01175 0.00152
54.30086 664.00000 614.86821 0.00151
54.31086 630.00000 613.78376 0.00159
54.32086 647.00000 612.75973 0.00155
54.33086 671.00000 611.79667 0.00149
54.34086 699.00000 610.89441 0.00143
54.35086 674.00000 610.05218 0.00148
54.36086 648.00000 609.26861 0.00154
54.37086 670.00000 608.54189 0.00149
54.38086 636.00000 607.86979 0.00157
54.39087 682.00000 607.24916 0.00147
54.40086 659.00000 606.67895 0.00152
54.41087 635.00000 606.15388 0.00157
54.42086 667.00000 605.67288 0.00150
54.43087 630.00000 605.23087 0.00159
54.44086 646.00000 604.82639 0.00155
54.45087 646.00000 604.45470 0.00155
54.46087 662.00000 604.11386 0.00151
54.47087 658.00000 603.80053 0.00152
54.48087 641.00000 603.51181 0.00156
54.49087 673.00000 603.24495 0.00149
54.50087 651.00000 602.99725 0.00154
54.51087 616.00000 602.76602 0.00162
54.52087 673.00000 602.54848 0.00149
54.53087 661.00000 602.34148 0.00151
54.54087 614.00000 602.14078 0.00163
54.55087 633.00000 601.93893 0.00158
54.56087 673.00000 601.71817 0.00149
54.57087 666.00000 601.47352 0.00150
54.58087 654.00000 601.31048 0.00153
54.59087 655.00000 601.18574 0.00153
54.60087 652.00000 601.07006 0.00153
54.61087 669.00000 600.96154 0.00149
54.62087 634.00000 600.85965 0.00158
54.63087 682.00000 600.76396 0.00147
54.64087 677.00000 600.67407 0.00148
54.65087 640.00000 600.58964 0.00156
54.66087 659.00000 600.51039 0.00152
54.67087 691.00000 600.43606 0.00145
54.68087 639.00000 600.36644 0.00156
54.69087 629.00000 600.30131 0.00159
54.70087 619.00000 600.24052 0.00162
54.71087 633.00000 600.18390 0.00158
54.72087 659.00000 600.13132 0.00152
54.73087 607.00000 600.08265 0.00165
54.74087 664.00000 600.03779 0.00151
54.75087 671.00000 599.99662 0.00149
54.76087 674.00000 599.95905 0.00148
54.77087 650.00000 599.92500 0.00154
54.78087 617.00000 599.89439 0.00162
54.79087 607.00000 599.86713 0.00165
54.80087 654.00000 599.84317 0.00153
54.81087 654.00000 599.82244 0.00153
54.82087 631.00000 599.80488 0.00158
54.83088 614.00000 599.79041 0.00163
54.84087 615.00000 599.77904 0.00163
54.85088 630.00000 599.77065 0.00159
54.86087 622.00000 599.76525 0.00161
54.87088 602.00000 599.76276 0.00166
54.88087 638.00000 599.76316 0.00157
54.89088 610.00000 599.76640 0.00164
54.90088 611.00000 599.77246 0.00164
54.91088 654.00000 599.78130 0.00153
54.92088 620.00000 599.79289 0.00161
54.93088 633.00000 599.80720 0.00158
54.94088 645.00000 599.82422 0.00155
54.95088 645.00000 599.84391 0.00155
54.96088 606.00000 599.86625 0.00165
54.97088 619.00000 599.89123 0.00162
54.98088 626.00000 599.91883 0.00160
54.99088 626.00000 599.94903 0.00160
55.00088 636.00000 599.98182 0.00157
55.01088 666.00000 600.01719 0.00150
55.02088 665.00000 600.05513 0.00150
55.03088 649.00000 600.09563 0.00154
55.04088 697.00000 600.13868 0.00143
55.05088 662.00000 600.18428 0.00151
55.06088 632.00000 600.23243 0.00158
55.07088 629.00000 600.28312 0.00159
55.08088 647.00000 600.33636 0.00155
55.09088 654.00000 600.39214 0.00153
55.10088 633.00000 600.45046 0.00158
55.11088 687.00000 600.51134 0.00146
55.12088 673.00000 600.57478 0.00149
55.13088 636.00000 600.64079 0.00157
55.14088 674.00000 600.70937 0.00148
55.15088 636.00000 600.78053 0.00157
55.16088 658.00000 600.85426 0.00152
55.17088 627.00000 600.93057 0.00159
55.18088 625.00000 601.00943 0.00160
55.19088 612.00000 601.09083 0.00163
55.20088 638.00000 601.17474 0.00157
55.21088 604.00000 601.26114 0.00166
55.22088 677.00000 601.34998 0.00148
55.23088 653.00000 601.44120 0.00153
55.24088 641.00000 601.53471 0.00156
55.25089 634.00000 601.63048 0.00158
55.26088 657.00000 601.72804 0.00152
55.27089 640.00000 601.82746 0.00156
55.28088 639.00000 601.92783 0.00156
55.29089 612.00000 602.02850 0.00163
55.30088 602.00000 602.12638 0.00166
55.31089 598.00000 602.21651 0.00167
55.32088 623.00000 602.30440 0.00161
55.33089 629.00000 602.41736 0.00159
55.34089 654.00000 602.54189 0.00153
55.35089 624.00000 602.67018 0.00160
55.36089 634.00000 602.80169 0.00158
55.37089 641.00000 602.93647 0.00156
55.38089 654.00000 603.07458 0.00153
55.39089 655.00000 603.21609 0.00153
55.40089 602.00000 603.36106 0.00166
55.41089 659.00000 603.50955 0.00152
55.42089 672.00000 603.66165 0.00149
55.43089 596.00000 603.81741 0.00168
55.44089 668.00000 603.97692 0.00150
55.45089 640.00000 604.14026 0.00156
55.46089 616.00000 604.30752 0.00162
55.47089 625.00000 604.47878 0.00160
55.48089 649.00000 604.65414 0.00154
55.49089 618.00000 604.83376 0.00162
55.50089 574.00000 605.01782 0.00174
55.51089 632.00000 605.20653 0.00158
55.52089 593.00000 605.40016 0.00169
55.53089 607.00000 605.59900 0.00165
55.54089 661.00000 605.80341 0.00151
55.55089 579.00000 606.01385 0.00173
55.56089 658.00000 606.23091 0.00152
55.57089 638.00000 606.45540 0.00157
55.58089 630.00000 606.68859 0.00159
55.59089 598.00000 606.93287 0.00167
55.60089 572.00000 607.19173 0.00175
55.61089 623.00000 607.46973 0.00161
55.62089 670.00000 607.77871 0.00149
55.63089 660.00000 608.07772 0.00152
55.64089 632.00000 608.35200 0.00158
55.65089 639.00000 608.62210 0.00156
55.66089 673.00000 608.89849 0.00149
55.67089 615.00000 609.18252 0.00163
55.68089 624.00000 609.47453 0.00160
55.69090 597.00000 609.77515 0.00168
55.70089 626.00000 610.08384 0.00160
55.71090 639.00000 610.40222 0.00156
55.72089 595.00000 610.72944 0.00168
55.73090 647.00000 611.06722 0.00155
55.74089 634.00000 611.41473 0.00158
55.75090 634.00000 611.77394 0.00158
55.76089 651.00000 612.14411 0.00154
55.77090 662.00000 612.52745 0.00151
55.78090 614.00000 612.92370 0.00163
55.79090 640.00000 613.33416 0.00156
55.80090 655.00000 613.75995 0.00153
55.81090 662.00000 614.20234 0.00151
55.82090 673.00000 614.66292 0.00149
55.83090 664.00000 615.14374 0.00151
55.84090 678.00000 615.64766 0.00147
55.85090 656.00000 616.17932 0.00152
55.86090 648.00000 616.74875 0.00154
55.87090 633.00000 617.38059 0.00158
55.88090 652.00000 618.07952 0.00153
55.89090 637.00000 618.71269 0.00157
55.90090 617.00000 619.32056 0.00162
55.91090 615.00000 619.94630 0.00163
55.92090 573.00000 620.59588 0.00175
55.93090 634.00000 621.27036 0.00158
55.94090 623.00000 621.97081 0.00161
55.95090 649.00000 622.69831 0.00154
55.96090 629.00000 623.45396 0.00159
55.97090 677.00000 624.23888 0.00148
55.98090 603.00000 625.05420 0.00166
55.99090 656.00000 625.90106 0.00152
56.00090 686.00000 626.78062 0.00146
56.01090 655.00000 627.69402 0.00153
56.02090 676.00000 628.64240 0.00148
56.03090 716.00000 629.62689 0.00140
56.04090 624.00000 630.64862 0.00160
56.05090 611.00000 631.70868 0.00164
56.06090 625.00000 632.80814 0.00160
56.07090 673.00000 633.94803 0.00149
56.08090 616.00000 635.12934 0.00162
56.09090 678.00000 636.35299 0.00147
56.10090 633.00000 637.61984 0.00158
56.11090 649.00000 638.93069 0.00154
56.12090 649.00000 640.28621 0.00154
56.13091 662.00000 641.68840 0.00151
56.14090 668.00000 643.13348 0.00150
56.15091 677.00000 644.62748 0.00148
56.16090 651.00000 646.16463 0.00154
56.17091 626.00000 647.75096 0.00160
56.18090 660.00000 649.37990 0.00152
56.19091 634.00000 651.05738 0.00158
56.20090 682.00000 652.77595 0.00147
56.21091 689.00000 654.54127 0.00145
56.22091 667.00000 656.34667 0.00150
56.23091 623.00000 658.19200 0.00161
56.24091 651.00000 660.07492 0.00154
56.25091 658.00000 661.99265 0.00152
56.26091 678.00000 663.94191 0.00147
56.27091 675.00000 665.91888 0.00148
56.28091 668.00000 667.91922 0.00150
56.29091 668.00000 669.93802 0.00150
56.30091 629.00000 671.96981 0.00159
56.31091 664.00000 674.00863 0.00151
56.32091 741.00000 676.04801 0.00135
56.33091 663.00000 678.08109 0.00151
56.34091 671.00000 680.10068 0.00149
56.35091 646.00000 682.09939 0.00155
56.36091 700.00000 684.06980 0.00143
56.37091 699.00000 686.00461 0.00143
56.38091 670.00000 687.89684 0.00149
56.39091 668.00000 689.74007 0.00150
56.40091 701.00000 691.52864 0.00143
56.41091 686.00000 693.25790 0.00146
56.42091 683.00000 694.92439 0.00146
56.43091 695.00000 696.52611 0.00144
56.44091 721.00000 698.06257 0.00139
56.45091 715.00000 699.53504 0.00140
56.46091 672.00000 700.94652 0.00149
56.47091 712.00000 702.30179 0.00140
56.48091 662.00000 703.60745 0.00151
56.49091 674.00000 704.87176 0.00148
56.50091 692.00000 706.10450 0.00145
56.51091 698.00000 707.31678 0.00143
56.52091 727.00000 708.52085 0.00138
56.53091 700.00000 709.72982 0.00143
56.54091 631.00000 710.95751 0.00158
56.55091 704.00000 712.21820 0.00142
56.56091 708.00000 713.52655 0.00141
56.57092 693.00000 714.89891 0.00144
56.58091 692.00000 716.34678 0.00145
56.59092 674.00000 717.89370 0.00148
56.60091 654.00000 719.56154 0.00153
56.61092 665.00000 721.38250 0.00150
56.62091 664.00000 723.26645 0.00151
56.63092 651.00000 725.24411 0.00154
56.64091 672.00000 727.34788 0.00149
56.65092 694.00000 729.60034 0.00144
56.66092 677.00000 732.00215 0.00148
56.67092 688.00000 734.56101 0.00145
56.68092 680.00000 737.28135 0.00147
56.69092 696.00000 740.16648 0.00144
56.70092 753.00000 743.21849 0.00133
56.71092 683.00000 746.43819 0.00146
56.72092 644.00000 749.82505 0.00155
56.73092 709.00000 753.37702 0.00141
56.74092 674.00000 757.09039 0.00148
56.75092 662.00000 760.95939 0.00151
56.76092 675.00000 764.97549 0.00148
56.77092 689.00000 769.12511 0.00145
56.78092 724.00000 773.38527 0.00138
56.79092 696.00000 777.75061 0.00144
56.80092 724.00000 782.28787 0.00138
56.81092 692.00000 786.94168 0.00145
56.82092 656.00000 791.67374 0.00152
56.83092 663.00000 796.46438 0.00151
56.84092 683.00000 801.29207 0.00146
56.85092 725.00000 806.13344 0.00138
56.86092 733.00000 810.96352 0.00136
56.87092 745.00000 815.75613 0.00134
56.88092 732.00000 820.48424 0.00137
56.89092 685.00000 825.12042 0.00146
56.90092 727.00000 829.63741 0.00138
56.91092 722.00000 834.00865 0.00139
56.92092 692.00000 838.20885 0.00145
56.93092 751.00000 842.21450 0.00133
56.94092 788.00000 846.00435 0.00127
56.95092 748.00000 849.55975 0.00134
56.96092 753.00000 852.86485 0.00133
56.97092 781.00000 855.90669 0.00128
56.98092 754.00000 858.67510 0.00133
56.99092 744.00000 861.16251 0.00134
57.00092 741.00000 863.36353 0.00135
57.01093 719.00000 865.27648 0.00139
57.02092 751.00000 866.89343 0.00133
57.03093 745.00000 868.21997 0.00134
57.04092 796.00000 869.24939 0.00126
57.05093 756.00000 869.98544 0.00132
57.06092 731.00000 870.42371 0.00137
57.07093 719.00000 870.56497 0.00139
57.08092 755.00000 870.40596 0.00132
57.09093 794.00000 869.94512 0.00126
57.10093 718.00000 869.18822 0.00139
57.11093 749.00000 868.13203 0.00134
57.12093 780.00000 866.77476 0.00128
57.13093 746.00000 865.11736 0.00134
57.14093 792.00000 863.16232 0.00126
57.15093 775.00000 860.91380 0.00129
57.16093 733.00000 858.37785 0.00136
57.17093 722.00000 855.56255 0.00139
57.18093 731.00000 852.47812 0.00137
57.19093 770.00000 849.13687 0.00130
57.20093 746.00000 845.55313 0.00134
57.21093 760.00000 841.74311 0.00132
57.22093 761.00000 837.72463 0.00131
57.23093 735.00000 833.51688 0.00136
57.24093 723.00000 829.14010 0.00138
57.25093 703.00000 824.61526 0.00142
57.26093 739.00000 819.96373 0.00135
57.27093 707.00000 815.20692 0.00141
57.28093 705.00000 810.36605 0.00142
57.29093 682.00000 805.46178 0.00147
57.30093 674.00000 800.51404 0.00148
57.31093 659.00000 795.54180 0.00152
57.32093 694.00000 790.56290 0.00144
57.33093 653.00000 785.59394 0.00153
57.34093 675.00000 780.65020 0.00148
57.35093 668.00000 775.74557 0.00150
57.36093 686.00000 770.89255 0.00146
57.37093 670.00000 766.10227 0.00149
57.38093 688.00000 761.38453 0.00145
57.39093 685.00000 756.74779 0.00146
57.40093 629.00000 752.19933 0.00159
57.41093 642.00000 747.74526 0.00156
57.42093 658.00000 743.39061 0.00152
57.43093 659.00000 739.13947 0.00152
57.44093 663.00000 734.99499 0.00151
57.45094 632.00000 730.95553 0.00158
57.46093 622.00000 727.03478 0.00161
57.47094 625.00000 723.21790 0.00160
57.48093 671.00000 719.52072 0.00149
57.49094 664.00000 715.92822 0.00151
57.50093 623.00000 712.45443 0.00161
57.51094 613.00000 709.08439 0.00163
57.52094 638.00000 705.82730 0.00157
57.53094 666.00000 702.67824 0.00150
57.54094 610.00000 699.63552 0.00164
57.55094 677.00000 696.69725 0.00148
57.56094 645.00000 693.86139 0.00155
57.57094 665.00000 691.12576 0.00150
57.58094 643.00000 688.48811 0.00156
57.59094 655.00000 685.94613 0.00153
57.60094 641.00000 683.49748 0.00156
57.61094 632.00000 681.13981 0.00158
57.62094 611.00000 678.87077 0.00164
57.63094 640.00000 676.68802 0.00156
57.64094 636.00000 674.58930 0.00157
57.65094 678.00000 672.57243 0.00147
57.66094 648.00000 670.63539 0.00154
57.67094 624.00000 668.77642 0.00160
57.68094 614.00000 666.99431 0.00163
57.69094 638.00000 665.28908 0.00157
57.70094 609.00000 663.66528 0.00164
57.71094 611.00000 662.13127 0.00164
57.72094 587.00000 660.66007 0.00170
57.73094 622.00000 659.21593 0.00161
57.74094 634.00000 657.81544 0.00158
57.75094 640.00000 656.47020 0.00156
57.76094 616.00000 655.17987 0.00162
57.77094 634.00000 653.94240 0.00158
57.78094 610.00000 652.75574 0.00164
57.79094 618.00000 651.61794 0.00162
57.80094 620.00000 650.52708 0.00161
57.81094 679.00000 649.48129 0.00147
57.82094 623.00000 648.47878 0.00161
57.83094 640.00000 647.51778 0.00156
57.84094 595.00000 646.59662 0.00168
57.85094 616.00000 645.71367 0.00162
57.86094 661.00000 644.86734 0.00151
57.87094 654.00000 644.05611 0.00153
57.88094 620.00000 643.27853 0.00161
57.89095 618.00000 642.53246 0.00162
57.90094 648.00000 641.81875 0.00154
57.91095 616.00000 641.13322 0.00162
57.92094 632.00000 640.47740 0.00158
57.93095 614.00000 639.84745 0.00163
57.94094 581.00000 639.24477 0.00172
57.95095 619.00000 638.66584 0.00162
57.96095 624.00000 638.11141 0.00160
57.97095 616.00000 637.57991 0.00162
57.98095 647.00000 637.07038 0.00155
57.99095 659.00000 636.58193 0.00152
58.00095 651.00000 636.11372 0.00154
58.01095 633.00000 635.66494 0.00158
58.02095 617.00000 635.23481 0.00162
58.03095 636.00000 634.82262 0.00157
58.04095 600.00000 634.42768 0.00167
58.05095 643.00000 634.04933 0.00156
58.06095 603.00000 633.68696 0.00166
58.07095 595.00000 633.34000 0.00168
58.08095 615.00000 633.00789 0.00163
58.09095 630.00000 632.69012 0.00159
58.10095 594.00000 632.38620 0.00168
58.11095 612.00000 632.09568 0.00163
58.12095 624.00000 631.81812 0.00160
58.13095 601.00000 631.55313 0.00166
58.14095 608.00000 631.30032 0.00164
58.15095 645.00000 631.05934 0.00155
58.16095 606.00000 630.82987 0.00165
58.17095 611.00000 630.61158 0.00164
58.18095 602.00000 630.40420 0.00166
58.19095 631.00000 630.20745 0.00158
58.20095 615.00000 630.02109 0.00163
58.21095 669.00000 629.84488 0.00149
58.22095 657.00000 629.67862 0.00152
58.23095 632.00000 629.52210 0.00158
58.24095 632.00000 629.37516 0.00158
58.25095 624.00000 629.23762 0.00160
58.26095 634.00000 629.10933 0.00158
58.27095 608.00000 628.99018 0.00164
58.28095 638.00000 628.88003 0.00157
58.29095 642.00000 628.77880 0.00156
58.30095 603.00000 628.68639 0.00166
58.31096 632.00000 628.60266 0.00158
58.32095 620.00000 628.52779 0.00161
58.33096 620.00000 628.46143 0.00161
58.34095 611.00000 628.40384 0.00164
58.35096 591.00000 628.35481 0.00169
58.36095 617.00000 628.31459 0.00162
58.37096 619.00000 628.28309 0.00162
58.38095 584.00000 628.26057 0.00171
58.39096 635.00000 628.24709 0.00157
58.40096 632.00000 628.24295 0.00158
58.41096 638.00000 628.24845 0.00157
58.42096 656.00000 628.26409 0.00152
58.43096 663.00000 628.29076 0.00151
58.44096 602.00000 628.33058 0.00166
58.45096 585.00000 628.38787 0.00171
58.46096 645.00000 628.45964 0.00155
58.47096 602.00000 628.52807 0.00166
58.48096 619.00000 628.59877 0.00162
58.49096 612.00000 628.67817 0.00163
58.50096 630.00000 628.76790 0.00159
58.51096 627.00000 628.86826 0.00159
58.52096 603.00000 628.97955 0.00166
58.53096 610.00000 629.10209 0.00164
58.54096 624.00000 629.23622 0.00160
58.55096 613.00000 629.38235 0.00163
58.56096 638.00000 629.54089 0.00157
58.57096 620.00000 629.71234 0.00161
58.58096 615.00000 629.89721 0.00163
58.59096 672.00000 630.09609 0.00149
58.60096 650.00000 630.30966 0.00154
58.61096 627.00000 630.53865 0.00159
58.62096 616.00000 630.78388 0.00162
58.63096 643.00000 631.04632 0.00156
58.64096 628.00000 631.32703 0.00159
58.65096 682.00000 631.62722 0.00147
58.66096 662.00000 631.94828 0.00151
58.67096 606.00000 632.29181 0.00165
58.68096 614.00000 632.65962 0.00163
58.69096 605.00000 633.05379 0.00165
58.70096 648.00000 633.47671 0.00154
58.71096 655.00000 633.93111 0.00153
58.72096 598.00000 634.42011 0.00167
58.73096 636.00000 634.94731 0.00157
58.74096 634.00000 635.51678 0.00158
58.75097 589.00000 636.13382 0.00170
58.76096 624.00000 636.80179 0.00160
58.77097 629.00000 637.52936 0.00159
58.78096 682.00000 638.32038 0.00147
58.79097 650.00000 639.18559 0.00154
58.80096 635.00000 640.13003 0.00157
58.81097 665.00000 641.16694 0.00150
58.82096 625.00000 642.30266 0.00160
58.83097 631.00000 643.55325 0.00158
58.84097 686.00000 644.92782 0.00146
58.85097 651.00000 646.44133 0.00154
58.86097 636.00000 648.10867 0.00157
58.87097 691.00000 649.94583 0.00145
58.88097 613.00000 651.96988 0.00163
58.89097 685.00000 654.19886 0.00146
58.90097 664.00000 656.65171 0.00151
58.91097 688.00000 659.34817 0.00145
58.92097 679.00000 662.30851 0.00147
58.93097 679.00000 665.55347 0.00147
58.94097 702.00000 669.10390 0.00142
58.95097 693.00000 672.98056 0.00144
58.96097 681.00000 677.20380 0.00147
58.97097 688.00000 681.79320 0.00145
58.98097 673.00000 686.76719 0.00149
58.99097 703.00000 692.14251 0.00142
59.00097 691.00000 697.93340 0.00145
59.01097 709.00000 704.14918 0.00141
59.02097 742.00000 710.79787 0.00135
59.03097 741.00000 717.91519 0.00135
59.04097 785.00000 725.49697 0.00127
59.05097 783.00000 733.53635 0.00128
59.06097 760.00000 742.02976 0.00132
59.07097 749.00000 750.96985 0.00134
59.08097 819.00000 760.34460 0.00122
59.09097 803.00000 770.13710 0.00125
59.10097 847.00000 780.32580 0.00118
59.11097 869.00000 790.88697 0.00115
59.12097 817.00000 801.79209 0.00122
59.13097 879.00000 812.97260 0.00114
59.14097 859.00000 824.36507 0.00116
59.15097 885.00000 835.92594 0.00113
59.16097 950.00000 847.59895 0.00105
59.17097 919.00000 859.31438 0.00109
59.18097 931.00000 870.99480 0.00107
59.19098 1010.00000 882.56689 0.00099
59.20097 989.00000 893.90509 0.00101
59.21098 1014.00000 904.99292 0.00099
59.22097 1076.00000 915.73883 0.00093
59.23098 1063.00000 926.09616 0.00094
59.24097 1034.00000 935.95379 0.00097
59.25098 1066.00000 945.30898 0.00094
59.26097 1093.00000 954.09942 0.00091
59.27098 1098.00000 962.35997 0.00091
59.28098 1062.00000 970.08421 0.00094
59.29098 1039.00000 977.32289 0.00096
59.30098 1091.00000 984.13655 0.00092
59.31098 1049.00000 990.60032 0.00095
59.32098 1087.00000 996.79867 0.00092
59.33098 1040.00000 1002.81943 0.00096
59.34098 1120.00000 1008.74706 0.00089
59.35098 1147.00000 1014.65872 0.00087
59.36098 1139.00000 1020.61878 0.00088
59.37098 1167.00000 1026.67464 0.00086
59.38098 1145.00000 1032.85383 0.00087
59.39098 1110.00000 1039.16196 0.00090
59.40098 1139.00000 1045.58132 0.00088
59.41098 1133.00000 1052.07018 0.00088
59.42098 1136.00000 1058.56262 0.00088
59.43098 1191.00000 1064.96901 0.00084
59.44098 1177.00000 1071.17716 0.00085
59.45098 1228.00000 1077.05413 0.00081
59.46098 1177.00000 1082.44914 0.00085
59.47098 1172.00000 1087.19747 0.00085
59.48098 1196.00000 1091.12563 0.00084
59.49098 1246.00000 1094.05782 0.00080
59.50098 1153.00000 1095.82352 0.00087
59.51098 1176.00000 1096.26583 0.00085
59.52098 1208.00000 1095.25020 0.00083
59.53098 1153.00000 1092.67253 0.00087
59.54098 1168.00000 1088.46604 0.00086
59.55098 1124.00000 1082.60604 0.00089
59.56098 1207.00000 1075.11185 0.00083
59.57098 1151.00000 1066.04582 0.00087
59.58098 1153.00000 1055.50945 0.00087
59.59098 1124.00000 1043.63708 0.00089
59.60098 1091.00000 1030.58818 0.00092
59.61098 1118.00000 1016.53888 0.00089
59.62098 1090.00000 1001.67378 0.00092
59.63099 1123.00000 986.16268 0.00089
59.64098 1067.00000 970.23489 0.00094
59.65099 1060.00000 953.99784 0.00094
59.66098 1024.00000 937.67682 0.00098
59.67099 986.00000 921.35221 0.00101
59.68098 930.00000 905.22062 0.00108
59.69099 930.00000 889.33418 0.00108
59.70098 944.00000 873.85819 0.00106
59.71099 937.00000 858.81964 0.00107
59.72099 886.00000 844.33943 0.00113
59.73099 844.00000 830.46575 0.00118
59.74099 821.00000 817.25061 0.00122
59.75099 784.00000 804.73553 0.00128
59.76099 859.00000 792.95228 0.00116
59.77099 817.00000 781.92367 0.00122
59.78099 740.00000 771.66428 0.00135
59.79099 778.00000 762.18119 0.00129
59.80099 779.00000 753.47473 0.00128
59.81099 754.00000 745.53924 0.00133
59.82099 746.00000 738.36381 0.00134
59.83099 714.00000 731.93304 0.00140
59.84099 792.00000 726.22788 0.00126
59.85099 796.00000 721.22663 0.00126
59.86099 719.00000 716.90534 0.00139
59.87099 711.00000 713.23481 0.00141
59.88099 714.00000 710.18694 0.00140
59.89099 719.00000 707.73499 0.00139
59.90099 744.00000 705.85177 0.00134
59.91099 712.00000 704.51003 0.00140
59.92099 667.00000 703.68329 0.00150
59.93099 708.00000 703.34623 0.00141
59.94099 723.00000 703.47500 0.00138
59.95099 727.00000 704.04733 0.00138
59.96099 738.00000 705.04277 0.00136
59.97099 727.00000 706.44274 0.00138
59.98099 716.00000 708.23067 0.00140
59.99099 732.00000 710.39211 0.00137
60.00099 729.00000 712.91484 0.00137
60.01099 737.00000 715.78910 0.00136
60.02099 686.00000 719.00783 0.00146
60.03099 753.00000 722.56741 0.00133
60.04099 745.00000 726.46732 0.00134
60.05099 732.00000 730.70399 0.00137
60.06099 780.00000 735.28094 0.00128
60.07100 747.00000 740.21268 0.00134
60.08099 740.00000 745.49506 0.00135
60.09100 775.00000 751.16069 0.00129
60.10099 717.00000 757.20001 0.00139
60.11100 802.00000 763.64910 0.00125
60.12099 742.00000 770.49357 0.00135
60.13100 803.00000 777.76828 0.00125
60.14100 806.00000 785.45635 0.00124
60.15100 817.00000 793.56312 0.00122
60.16100 812.00000 802.08052 0.00123
60.17100 853.00000 810.99297 0.00117
60.18100 840.00000 820.27650 0.00119
60.19100 860.00000 829.89804 0.00116
60.20100 830.00000 839.81470 0.00120
60.21100 821.00000 849.97331 0.00122
60.22100 916.00000 860.30985 0.00109
60.23100 920.00000 870.74919 0.00109
60.24100 888.00000 881.20488 0.00113
60.25100 901.00000 891.57930 0.00111
60.26100 886.00000 901.76402 0.00113
60.27100 862.00000 911.64082 0.00116
60.28100 916.00000 921.08315 0.00109
60.29100 947.00000 929.95843 0.00106
60.30100 937.00000 938.13114 0.00107
60.31100 913.00000 945.46671 0.00110
60.32100 951.00000 951.83631 0.00105
60.33100 914.00000 957.12203 0.00109
60.34100 965.00000 961.22238 0.00104
60.35100 913.00000 964.05751 0.00110
60.36100 931.00000 965.57362 0.00107
60.37100 968.00000 965.74602 0.00103
60.38100 1035.00000 964.58051 0.00097
60.39100 1002.00000 962.11277 0.00100
60.40100 984.00000 958.40581 0.00102
60.41100 922.00000 953.54593 0.00108
60.42100 941.00000 947.63748 0.00106
60.43100 954.00000 940.79716 0.00105
60.44100 959.00000 933.14836 0.00104
60.45100 941.00000 924.81605 0.00106
60.46100 896.00000 915.92258 0.00112
60.47100 936.00000 906.58441 0.00107
60.48100 901.00000 896.90994 0.00111
60.49100 884.00000 886.99817 0.00113
60.50100 878.00000 876.93819 0.00114
60.51101 850.00000 866.79891 0.00118
60.52100 809.00000 856.68043 0.00124
60.53101 873.00000 846.60263 0.00115
60.54100 870.00000 836.65833 0.00115
60.55101 797.00000 826.85201 0.00125
60.56100 796.00000 817.26100 0.00126
60.57101 781.00000 807.87834 0.00128
60.58101 843.00000 798.76180 0.00119
60.59101 805.00000 789.92239 0.00124
60.60101 831.00000 781.37651 0.00120
60.61101 746.00000 773.13712 0.00134
60.62101 757.00000 765.21351 0.00132
60.63101 756.00000 757.61163 0.00132
60.64101 777.00000 750.33435 0.00129
60.65101 700.00000 743.38177 0.00143
60.66101 760.00000 736.75151 0.00132
60.67101 719.00000 730.43899 0.00139
60.68101 707.00000 724.43773 0.00141
60.69101 696.00000 718.73957 0.00144
60.70101 685.00000 713.33502 0.00146
60.71101 676.00000 708.21347 0.00148
60.72101 711.00000 703.36348 0.00141
60.73101 693.00000 698.77311 0.00144
60.74101 689.00000 694.43012 0.00145
60.75101 688.00000 690.32241 0.00145
60.76101 684.00000 686.43859 0.00146
60.77101 679.00000 682.77046 0.00147
60.78101 734.00000 679.31079 0.00136
60.79101 693.00000 676.02574 0.00144
60.80101 695.00000 672.89909 0.00144
60.81101 691.00000 669.92910 0.00145
60.82101 715.00000 667.11005 0.00140
60.83101 681.00000 664.43312 0.00147
60.84101 634.00000 661.88956 0.00158
60.85101 590.00000 659.47127 0.00169
60.86101 643.00000 657.17080 0.00156
60.87101 627.00000 654.98135 0.00159
60.88101 638.00000 652.89670 0.00157
60.89101 633.00000 650.91120 0.00158
60.90101 650.00000 649.01971 0.00154
60.91101 641.00000 647.21757 0.00156
60.92101 643.00000 645.50056 0.00156
60.93102 667.00000 643.86324 0.00150
60.94101 673.00000 642.30694 0.00149
60.95102 625.00000 640.82222 0.00160
60.96101 610.00000 639.41217 0.00164
60.97102 659.00000 638.06846 0.00152
60.98101 645.00000 636.79409 0.00155
60.99102 641.00000 635.58172 0.00156
61.00101 614.00000 634.43420 0.00163
61.01102 600.00000 633.34507 0.00167
61.02102 645.00000 632.31600 0.00155
61.03102 665.00000 631.34435 0.00150
61.04102 630.00000 630.42875 0.00159
61.05102 626.00000 629.56795 0.00160
61.06102 629.00000 628.76091 0.00159
61.07102 650.00000 628.00673 0.00154
61.08102 641.00000 627.30468 0.00156
61.09102 632.00000 626.65424 0.00158
61.10102 626.00000 626.05509 0.00160
61.11102 615.00000 625.50712 0.00163
61.12102 611.00000 625.01052 0.00164
61.13102 663.00000 624.56570 0.00151
61.14102 661.00000 624.17343 0.00151
61.15102 670.00000 623.83477 0.00149
61.16102 658.00000 623.55120 0.00152
61.17102 577.00000 623.32457 0.00173
61.18102 619.00000 623.15719 0.00162
61.19102 605.00000 623.05187 0.00165
61.20102 622.00000 623.01195 0.00161
61.21102 605.00000 623.04132 0.00165
61.22102 610.00000 623.14449 0.00164
61.23102 652.00000 623.32661 0.00153
61.24102 661.00000 623.59349 0.00151
61.25102 667.00000 623.95169 0.00150
61.26102 630.00000 624.40849 0.00159
61.27102 676.00000 624.97199 0.00148
61.28102 617.00000 625.65125 0.00162
61.29102 630.00000 626.45703 0.00159
61.30102 633.00000 627.40072 0.00158
61.31102 660.00000 628.48477 0.00152
61.32102 663.00000 629.72109 0.00151
61.33102 633.00000 631.12413 0.00158
61.34102 651.00000 632.70684 0.00154
61.35102 651.00000 634.48169 0.00154
61.36102 660.00000 636.46126 0.00152
61.37103 661.00000 638.66039 0.00151
61.38102 642.00000 641.08449 0.00156
61.39103 592.00000 643.75527 0.00169
61.40102 655.00000 646.67332 0.00153
61.41103 691.00000 649.86087 0.00145
61.42102 688.00000 653.31444 0.00145
61.43103 651.00000 657.05592 0.00154
61.44102 660.00000 661.07656 0.00152
61.45103 659.00000 665.39689 0.00152
61.46103 679.00000 670.00643 0.00147
61.47103 718.00000 674.90893 0.00139
61.48103 687.00000 680.10108 0.00146
61.49103 668.00000 685.57641 0.00150
61.50103 737.00000 691.32500 0.00136
61.51103 701.00000 697.33316 0.00143
61.52103 761.00000 703.58309 0.00131
61.53103 706.00000 710.05262 0.00142
61.54103 757.00000 716.71481 0.00132
61.55103 692.00000 723.53769 0.00145
61.56103 748.00000 730.48390 0.00134
61.57103 778.00000 737.51045 0.00129
61.58103 790.00000 744.56848 0.00127
61.59103 763.00000 751.60312 0.00131
61.60103 777.00000 758.55350 0.00129
61.61103 775.00000 765.35291 0.00129
61.62103 767.00000 771.92927 0.00130
61.63103 781.00000 778.20588 0.00128
61.64103 766.00000 784.10264 0.00131
61.65103 769.00000 789.53763 0.00130
61.66103 798.00000 794.42921 0.00125
61.67103 826.00000 798.69841 0.00121
61.68103 763.00000 802.27146 0.00131
61.69103 812.00000 805.08146 0.00123
61.70103 826.00000 807.06493 0.00121
61.71103 809.00000 808.17621 0.00124
61.72103 797.00000 808.48355 0.00125
61.73103 801.00000 807.96441 0.00125
61.74103 802.00000 806.60720 0.00125
61.75103 784.00000 804.45007 0.00128
61.76103 823.00000 801.54372 0.00122
61.77103 787.00000 797.95350 0.00127
61.78103 771.00000 793.75469 0.00130
61.79103 791.00000 789.02915 0.00126
61.80103 789.00000 783.86203 0.00127
61.81104 792.00000 778.33325 0.00126
61.82103 745.00000 772.54350 0.00134
61.83104 740.00000 766.54950 0.00135
61.84103 719.00000 760.44984 0.00139
61.85104 685.00000 754.28902 0.00146
61.86103 747.00000 748.15405 0.00134
61.87104 760.00000 742.07652 0.00132
61.88103 724.00000 736.13031 0.00138
61.89104 732.00000 730.33531 0.00137
61.90104 723.00000 724.74684 0.00138
61.91104 733.00000 719.39133 0.00136
61.92104 705.00000 714.29589 0.00142
61.93104 692.00000 709.48289 0.00145
61.94104 685.00000 704.97021 0.00146
61.95104 693.00000 700.77159 0.00144
61.96104 706.00000 696.89693 0.00142
61.97104 658.00000 693.35261 0.00152
61.98104 622.00000 690.14173 0.00161
61.99104 674.00000 687.26445 0.00148
62.00104 680.00000 684.71820 0.00147
62.01104 635.00000 682.49804 0.00157
62.02104 665.00000 680.59682 0.00150
62.03104 632.00000 679.00555 0.00158
62.04104 605.00000 677.71355 0.00165
62.05104 666.00000 676.70875 0.00150
62.06104 653.00000 675.97788 0.00153
62.07104 686.00000 675.50670 0.00146
62.08104 701.00000 675.28012 0.00143
62.09104 704.00000 675.28244 0.00142
62.10104 640.00000 675.49743 0.00156
62.11104 645.00000 675.90847 0.00155
62.12104 635.00000 676.49866 0.00157
62.13104 674.00000 677.25085 0.00148
62.14104 682.00000 678.14774 0.00147
62.15104 653.00000 679.17191 0.00153
62.16104 665.00000 680.30582 0.00150
62.17104 654.00000 681.53186 0.00153
62.18104 653.00000 682.83234 0.00153
62.19104 661.00000 684.18953 0.00151
62.20104 653.00000 685.58563 0.00153
62.21104 666.00000 687.00283 0.00150
62.22104 666.00000 688.42333 0.00150
62.23104 620.00000 689.82937 0.00161
62.24104 651.00000 691.20333 0.00154
62.25105 651.00000 692.52904 0.00154
62.26104 677.00000 693.78560 0.00148
62.27105 670.00000 694.96123 0.00149
62.28104 669.00000 696.03528 0.00149
62.29105 685.00000 696.99660 0.00146
62.30104 625.00000 697.82708 0.00160
62.31105 624.00000 698.51661 0.00160
62.32104 702.00000 699.05062 0.00142
62.33105 701.00000 699.42056 0.00143
62.34105 653.00000 699.61633 0.00153
62.35105 603.00000 699.63127 0.00166
62.36105 630.00000 699.46018 0.00159
62.37105 624.00000 699.09984 0.00160
62.38105 666.00000 698.54906 0.00150
62.39105 670.00000 697.80861 0.00149
62.40105 697.00000 696.88124 0.00143
62.41105 657.00000 695.77153 0.00152
62.42105 638.00000 694.48582 0.00157
62.43105 634.00000 693.03198 0.00158
62.44105 633.00000 691.41925 0.00158
62.45105 634.00000 689.65803 0.00158
62.46105 625.00000 687.75965 0.00160
62.47105 645.00000 685.73614 0.00155
62.48105 639.00000 683.60002 0.00156
62.49105 615.00000 681.36412 0.00163
62.50105 617.00000 679.04147 0.00162
62.51105 598.00000 676.64529 0.00167
62.52105 599.00000 674.18746 0.00167
62.53105 592.00000 671.67743 0.00169
62.54105 669.00000 669.12737 0.00149
62.55105 652.00000 666.54890 0.00153
62.56105 619.00000 663.95230 0.00162
62.57105 601.00000 661.34695 0.00166
62.58105 606.00000 658.74148 0.00165
62.59105 592.00000 656.14380 0.00169
62.60105 605.00000 653.56105 0.00165
62.61105 596.00000 650.99969 0.00168
62.62105 586.00000 648.46552 0.00171
62.63105 586.00000 645.96368 0.00171
62.64105 596.00000 643.49872 0.00168
62.65105 565.00000 641.07465 0.00177
62.66105 610.00000 638.69504 0.00164
62.67105 618.00000 636.36311 0.00162
62.68105 653.00000 634.08223 0.00153
62.69106 663.00000 631.85345 0.00151
62.70105 621.00000 629.68247 0.00161
62.71106 591.00000 627.56482 0.00169
62.72105 592.00000 625.51113 0.00169
62.73106 603.00000 623.49926 0.00166
62.74105 609.00000 621.54144 0.00164
62.75106 611.00000 619.63496 0.00164
62.76105 576.00000 617.78868 0.00174
62.77106 598.00000 615.99522 0.00167
62.78106 569.00000 614.25981 0.00176
62.79106 549.00000 612.58032 0.00182
62.80106 570.00000 610.95627 0.00175
62.81106 580.00000 609.38711 0.00172
62.82106 587.00000 607.87218 0.00170
62.83106 597.00000 606.41073 0.00168
62.84106 651.00000 605.00198 0.00154
62.85106 588.00000 603.64508 0.00170
62.86106 610.00000 602.33914 0.00164
62.87106 632.00000 601.08326 0.00158
62.88106 537.00000 599.87681 0.00186
62.89106 610.00000 598.71883 0.00164
62.90106 567.00000 597.60359 0.00176
62.91106 616.00000 596.52790 0.00162
62.92106 619.00000 595.48268 0.00162
62.93106 619.00000 594.45635 0.00162
62.94106 597.00000 593.49820 0.00168
62.95106 566.00000 592.62645 0.00177
62.96106 605.00000 591.81712 0.00165
62.97106 578.00000 591.05122 0.00173
62.98106 564.00000 590.32966 0.00177
62.99106 589.00000 589.65527 0.00170
63.00106 570.00000 589.02925 0.00175
63.01106 575.00000 588.45248 0.00174
63.02106 551.00000 587.92607 0.00181
63.03106 574.00000 587.45139 0.00174
63.04106 551.00000 587.03012 0.00181
63.05106 595.00000 586.66422 0.00168
63.06106 596.00000 586.35600 0.00168
63.07106 614.00000 586.10811 0.00163
63.08106 586.00000 585.92352 0.00171
63.09106 590.00000 585.80558 0.00169
63.10106 591.00000 585.75792 0.00169
63.11106 562.00000 585.78450 0.00178
63.12106 581.00000 585.88961 0.00172
63.13107 589.00000 586.07811 0.00170
63.14106 540.00000 586.35421 0.00185
63.15107 577.00000 586.72413 0.00173
63.16106 593.00000 587.19170 0.00169
63.17107 647.00000 587.76409 0.00155
63.18106 624.00000 588.44418 0.00160
63.19107 565.00000 589.23922 0.00177
63.20107 561.00000 590.15009 0.00178
63.21107 598.00000 591.17558 0.00167
63.22107 601.00000 592.29980 0.00166
63.23107 580.00000 593.52509 0.00172
63.24107 661.00000 594.98706 0.00151
63.25107 588.00000 596.65278 0.00170
63.26107 634.00000 598.48655 0.00158
63.27107 623.00000 600.48829 0.00161
63.28107 644.00000 602.66195 0.00155
63.29107 608.00000 605.01059 0.00164
63.30107 625.00000 607.53621 0.00160
63.31107 603.00000 610.23962 0.00166
63.32107 664.00000 613.12023 0.00151
63.33107 626.00000 616.17578 0.00160
63.34107 614.00000 619.40197 0.00163
63.35107 626.00000 622.79148 0.00160
63.36107 631.00000 626.33424 0.00158
63.37107 694.00000 630.02487 0.00144
63.38107 651.00000 633.84793 0.00154
63.39107 596.00000 637.81677 0.00168
63.40107 667.00000 641.90509 0.00150
63.41107 661.00000 646.08418 0.00151
63.42107 697.00000 650.33062 0.00143
63.43107 648.00000 654.61871 0.00154
63.44107 690.00000 658.91938 0.00145
63.45107 688.00000 663.20015 0.00145
63.46107 661.00000 667.42510 0.00151
63.47107 677.00000 671.55494 0.00148
63.48107 662.00000 675.54725 0.00151
63.49107 677.00000 679.35687 0.00148
63.50107 718.00000 682.93650 0.00139
63.51107 714.00000 686.23758 0.00140
63.52107 671.00000 689.21129 0.00149
63.53107 701.00000 691.80996 0.00143
63.54107 705.00000 693.98853 0.00142
63.55107 710.00000 695.70625 0.00141
63.56107 705.00000 696.92833 0.00142
63.57108 678.00000 697.62802 0.00147
63.58107 706.00000 697.78554 0.00142
63.59108 703.00000 697.39334 0.00142
63.60107 684.00000 696.45478 0.00146
63.61108 685.00000 694.97876 0.00146
63.62107 664.00000 692.99321 0.00151
63.63108 647.00000 690.52147 0.00155
63.64108 658.00000 687.60846 0.00152
63.65108 678.00000 684.29603 0.00147
63.66108 633.00000 680.63205 0.00158
63.67108 625.00000 676.66653 0.00160
63.68108 645.00000 672.45003 0.00155
63.69108 655.00000 668.03250 0.00153
63.70108 635.00000 663.46263 0.00157
63.71108 654.00000 658.78761 0.00153
63.72108 654.00000 654.04713 0.00153
63.73108 663.00000 649.26936 0.00151
63.74108 596.00000 644.49176 0.00168
63.75108 623.00000 639.74853 0.00161
63.76108 638.00000 635.06773 0.00157
63.77108 620.00000 630.47330 0.00161
63.78108 577.00000 625.98602 0.00173
63.79108 626.00000 621.62375 0.00160
63.80108 593.00000 617.40160 0.00169
63.81108 602.00000 613.33223 0.00166
63.82108 635.00000 609.42593 0.00157
63.83108 635.00000 605.69092 0.00157
63.84108 632.00000 602.13346 0.00158
63.85108 626.00000 598.75805 0.00160
63.86108 618.00000 595.56755 0.00162
63.87108 585.00000 592.56341 0.00171
63.88108 611.00000 589.74572 0.00164
63.89108 581.00000 587.11345 0.00172
63.90108 600.00000 584.66450 0.00167
63.91108 565.00000 582.39591 0.00177
63.92108 585.00000 580.30395 0.00171
63.93108 576.00000 578.38423 0.00174
63.94108 564.00000 576.63185 0.00177
63.95108 518.00000 575.04147 0.00193
63.96108 601.00000 573.60743 0.00166
63.97108 549.00000 572.32385 0.00182
63.98108 555.00000 571.18467 0.00180
63.99109 561.00000 570.18280 0.00178
64.00108 570.00000 569.31491 0.00175
64.01109 608.00000 568.57123 0.00164
64.02108 587.00000 567.94858 0.00170
64.03108 604.00000 567.43869 0.00166
64.04108 598.00000 567.03613 0.00167
64.05109 582.00000 566.73457 0.00172
64.06108 582.00000 566.52874 0.00172
64.07108 578.00000 566.41176 0.00173
64.08109 559.00000 566.37770 0.00179
64.09109 572.00000 566.42027 0.00175
64.10108 581.00000 566.53235 0.00172
64.11108 572.00000 566.70630 0.00175
64.12109 565.00000 566.93168 0.00177
64.13109 590.00000 567.18650 0.00169
64.14108 539.00000 567.45088 0.00186
64.15108 557.00000 567.81478 0.00180
64.16109 570.00000 568.25554 0.00175
64.17109 573.00000 568.73351 0.00175
64.18108 583.00000 569.23448 0.00172
64.19109 586.00000 569.74957 0.00171
64.20109 563.00000 570.26737 0.00178
64.21109 590.00000 570.79995 0.00169
64.22108 613.00000 571.33383 0.00163
64.23109 604.00000 571.85500 0.00166
64.24109 597.00000 572.35470 0.00168
64.25109 615.00000 572.82517 0.00163
64.26109 603.00000 573.26043 0.00166
64.27109 612.00000 573.65620 0.00163
64.28109 611.00000 573.99652 0.00164
64.29109 553.00000 574.26610 0.00181
64.30109 615.00000 574.46449 0.00163
64.31109 578.00000 574.59179 0.00173
64.32109 566.00000 574.64683 0.00177
64.33109 595.00000 574.62895 0.00168
64.34109 582.00000 574.53903 0.00172
64.35109 556.00000 574.37938 0.00180
64.36109 551.00000 574.15357 0.00181
64.37109 628.00000 573.86623 0.00159
64.38109 572.00000 573.52275 0.00175
64.39109 582.00000 573.12899 0.00172
64.40109 609.00000 572.69102 0.00164
64.41109 590.00000 572.21487 0.00169
64.42109 583.00000 571.70633 0.00172
64.43109 581.00000 571.17082 0.00172
64.44109 562.00000 570.61324 0.00178
64.45110 561.00000 570.03738 0.00178
64.46109 562.00000 569.44879 0.00178
64.47109 571.00000 568.84894 0.00175
64.48109 587.00000 568.24114 0.00170
64.49110 590.00000 567.62700 0.00169
64.50109 594.00000 567.01017 0.00168
64.51109 598.00000 566.39029 0.00167
64.52110 611.00000 565.76853 0.00164
64.53110 595.00000 565.14710 0.00168
64.54109 549.00000 564.52681 0.00182
64.55109 546.00000 563.90714 0.00183
64.56110 569.00000 563.28877 0.00176
64.57110 549.00000 562.67360 0.00182
64.58109 555.00000 562.06232 0.00180
64.59109 559.00000 561.45447 0.00179
64.60110 558.00000 560.85090 0.00179
64.61110 594.00000 560.25381 0.00168
64.62109 591.00000 559.66459 0.00169
64.63110 565.00000 559.08298 0.00177
64.64110 589.00000 558.50887 0.00170
64.65110 607.00000 557.94312 0.00165
64.66109 604.00000 557.38810 0.00166
64.67110 581.00000 556.84353 0.00172
64.68110 611.00000 556.31216 0.00164
64.69110 580.00000 555.79446 0.00172
64.70110 549.00000 555.29140 0.00182
64.71110 585.00000 554.80399 0.00171
64.72110 569.00000 554.33340 0.00176
64.73110 529.00000 553.88080 0.00189
64.74110 532.00000 553.44472 0.00188
64.75110 520.00000 553.02549 0.00192
64.76110 557.00000 552.62427 0.00180
64.77110 550.00000 552.24177 0.00182
64.78110 564.00000 551.87834 0.00177
64.79110 536.00000 551.53422 0.00187
64.80110 575.00000 551.20956 0.00174
64.81110 585.00000 550.90450 0.00171
64.82110 529.00000 550.61911 0.00189
64.83110 537.00000 550.35345 0.00186
64.84110 586.00000 550.10760 0.00171
64.85110 549.00000 549.88173 0.00182
64.86110 600.00000 549.67627 0.00167
64.87110 557.00000 549.49259 0.00180
64.88110 548.00000 549.33488 0.00182
64.89111 579.00000 549.20376 0.00173
64.90110 554.00000 549.07508 0.00181
64.91110 572.00000 548.95314 0.00175
64.92110 559.00000 548.84489 0.00179
64.93111 598.00000 548.75161 0.00167
64.94110 559.00000 548.67322 0.00179
64.95110 533.00000 548.60987 0.00188
64.96111 540.00000 548.56197 0.00185
64.97111 569.00000 548.52093 0.00176
64.98110 536.00000 548.48690 0.00187
64.99110 529.00000 548.46087 0.00189
65.00111 515.00000 548.44241 0.00194
65.01111 536.00000 548.43044 0.00187
65.02110 590.00000 548.42372 0.00169
65.03111 547.00000 548.42104 0.00183
65.04111 546.00000 548.42124 0.00183
65.05111 576.00000 548.42318 0.00174
65.06110 573.00000 548.42578 0.00175
65.07111 562.00000 548.42803 0.00178
65.08111 579.00000 548.42910 0.00173
65.09111 514.00000 548.42825 0.00195
65.10110 572.00000 548.42494 0.00175
65.11111 585.00000 548.41878 0.00171
65.12111 599.00000 548.40968 0.00167
65.13111 559.00000 548.39774 0.00179
65.14111 580.00000 548.38333 0.00172
65.15111 577.00000 548.36712 0.00173
65.16111 531.00000 548.35004 0.00188
65.17111 547.00000 548.33331 0.00183
65.18111 547.00000 548.31844 0.00183
65.19111 521.00000 548.30723 0.00192
65.20111 540.00000 548.30172 0.00185
65.21111 542.00000 548.30421 0.00185
65.22111 501.00000 548.31721 0.00200
65.23111 530.00000 548.34344 0.00189
65.24111 574.00000 548.38576 0.00174
65.25111 583.00000 548.44718 0.00172
65.26111 583.00000 548.53079 0.00172
65.27111 560.00000 548.63975 0.00179
65.28111 593.00000 548.77724 0.00169
65.29111 571.00000 548.94643 0.00175
65.30111 553.00000 549.15046 0.00181
65.31111 605.00000 549.39237 0.00165
65.32111 574.00000 549.67511 0.00174
65.33112 570.00000 550.00182 0.00175
65.34111 568.00000 550.37416 0.00176
65.35111 591.00000 550.79559 0.00169
65.36111 531.00000 551.26802 0.00188
65.37112 564.00000 551.79399 0.00177
65.38111 571.00000 552.37367 0.00175
65.39111 595.00000 553.01014 0.00168
65.40112 587.00000 553.70473 0.00170
65.41112 588.00000 554.45695 0.00170
65.42111 570.00000 555.26712 0.00175
65.43111 563.00000 556.13695 0.00178
65.44112 577.00000 557.06634 0.00173
65.45112 597.00000 558.05274 0.00168
65.46111 553.00000 559.09477 0.00181
65.47112 571.00000 560.19395 0.00175
65.48112 601.00000 561.34487 0.00166
65.49112 550.00000 562.54583 0.00182
65.50111 583.00000 563.79222 0.00172
65.51112 577.00000 565.08396 0.00173
65.52112 576.00000 566.41280 0.00174
65.53112 570.00000 567.77511 0.00175
65.54111 588.00000 569.16416 0.00170
65.55112 571.00000 570.57863 0.00175
65.56112 555.00000 572.00861 0.00180
65.57112 571.00000 573.44998 0.00175
65.58112 587.00000 574.89757 0.00170
65.59112 590.00000 576.34687 0.00169
65.60112 584.00000 577.79425 0.00171
65.61112 520.00000 579.23721 0.00192
65.62112 583.00000 580.67457 0.00172
65.63112 590.00000 582.10656 0.00169
65.64112 603.00000 583.53486 0.00166
65.65112 557.00000 584.96254 0.00180
65.66112 599.00000 586.39383 0.00167
65.67112 572.00000 587.83386 0.00175
65.68112 573.00000 589.28829 0.00175
65.69112 561.00000 590.76287 0.00178
65.70112 508.00000 592.26291 0.00197
65.71112 591.00000 593.79269 0.00169
65.72112 597.00000 595.35432 0.00168
65.73112 608.00000 596.94412 0.00164
65.74112 555.00000 598.55336 0.00180
65.75112 588.00000 600.20827 0.00170
65.76112 573.00000 601.93864 0.00175
65.77113 593.00000 603.72306 0.00169
65.78112 595.00000 605.53626 0.00168
65.79112 614.00000 607.37333 0.00163
65.80112 594.00000 609.22143 0.00168
65.81113 580.00000 611.06907 0.00172
65.82112 568.00000 612.89497 0.00176
65.83112 560.00000 614.68672 0.00179
65.84113 567.00000 616.42417 0.00176
65.85113 559.00000 618.08198 0.00179
65.86112 604.00000 619.63721 0.00166
65.87112 610.00000 621.06892 0.00164
65.88113 584.00000 622.35226 0.00171
65.89113 662.00000 623.46053 0.00151
65.90112 650.00000 624.37138 0.00154
65.91113 603.00000 625.06650 0.00166
65.92113 627.00000 625.52523 0.00159
65.93113 602.00000 625.73390 0.00166
65.94112 615.00000 625.68229 0.00163
65.95113 567.00000 625.36430 0.00176
65.96113 614.00000 624.77949 0.00163
65.97113 583.00000 623.93177 0.00172
65.98112 563.00000 622.83097 0.00178
65.99113 598.00000 621.48643 0.00167
66.00113 594.00000 619.91803 0.00168
66.01113 601.00000 618.14377 0.00166
66.02113 577.00000 616.18472 0.00173
66.03113 631.00000 614.06313 0.00158
66.04113 582.00000 611.80155 0.00172
66.05113 644.00000 609.42222 0.00155
66.06113 594.00000 606.94648 0.00168
66.07113 558.00000 604.39431 0.00179
66.08113 575.00000 601.78406 0.00174
66.09113 566.00000 599.13225 0.00177
66.10113 560.00000 596.45352 0.00179
66.11113 566.00000 593.76063 0.00177
66.12113 555.00000 591.06461 0.00180
66.13113 567.00000 588.37488 0.00176
66.14113 583.00000 585.69952 0.00172
66.15113 580.00000 583.04547 0.00172
66.16113 557.00000 580.41877 0.00180
66.17113 562.00000 577.82483 0.00178
66.18113 549.00000 575.26861 0.00182
66.19113 527.00000 572.75479 0.00190
66.20113 532.00000 570.28789 0.00188
66.21114 618.00000 567.86990 0.00162
66.22113 587.00000 565.51241 0.00170
66.23113 559.00000 563.21233 0.00179
66.24113 551.00000 560.97610 0.00181
66.25114 586.00000 558.80527 0.00171
66.26113 550.00000 556.70968 0.00182
66.27113 544.00000 554.68578 0.00184
66.28114 577.00000 552.73625 0.00173
66.29114 539.00000 550.86695 0.00186
66.30113 579.00000 549.07905 0.00173
66.31113 547.00000 547.36983 0.00183
66.32114 576.00000 545.73995 0.00174
66.33114 575.00000 544.19264 0.00174
66.34113 543.00000 542.72722 0.00184
66.35114 564.00000 541.33858 0.00177
66.36114 557.00000 540.03009 0.00180
66.37114 534.00000 538.79930 0.00187
66.38113 582.00000 537.64684 0.00172
66.39114 574.00000 536.57191 0.00174
66.40114 557.00000 535.58072 0.00180
66.41114 569.00000 534.64410 0.00176
66.42113 549.00000 533.75982 0.00182
66.43114 543.00000 532.93092 0.00184
66.44114 556.00000 532.16096 0.00180
66.45114 619.00000 531.44685 0.00162
66.46114 575.00000 530.78583 0.00174
66.47114 559.00000 530.17516 0.00179
66.48114 522.00000 529.61212 0.00192
66.49114 549.00000 529.09409 0.00182
66.50114 553.00000 528.61851 0.00181
66.51114 552.00000 528.18293 0.00181
66.52114 560.00000 527.78499 0.00179
66.53114 531.00000 527.42248 0.00188
66.54114 556.00000 527.09331 0.00180
66.55114 551.00000 526.79551 0.00181
66.56114 555.00000 526.52724 0.00180
66.57114 566.00000 526.28680 0.00177
66.58114 561.00000 526.07261 0.00178
66.59114 580.00000 525.88321 0.00172
66.60114 581.00000 525.71730 0.00172
66.61115 555.00000 525.57355 0.00180
66.62114 543.00000 525.45127 0.00184
66.63114 603.00000 525.34905 0.00166
66.64114 533.00000 525.26606 0.00188
66.65115 555.00000 525.20126 0.00180
66.66114 574.00000 525.15364 0.00174
66.67114 565.00000 525.12138 0.00177
66.68114 561.00000 525.10132 0.00178
66.69115 536.00000 525.08386 0.00187
66.70114 510.00000 525.06022 0.00196
66.71114 577.00000 525.08763 0.00173
66.72115 578.00000 525.16315 0.00173
66.73115 603.00000 525.26119 0.00166
66.74114 575.00000 525.38222 0.00174
66.75114 545.00000 525.52503 0.00183
66.76115 551.00000 525.69036 0.00181
66.77115 568.00000 525.87870 0.00176
66.78114 534.00000 526.09106 0.00187
66.79115 546.00000 526.32989 0.00183
66.80115 519.00000 526.59524 0.00193
66.81115 610.00000 526.88286 0.00164
66.82114 545.00000 527.19431 0.00183
66.83115 572.00000 527.53284 0.00175
66.84115 534.00000 527.89869 0.00187
66.85115 556.00000 528.29290 0.00180
66.86115 572.00000 528.71610 0.00175
66.87115 585.00000 529.16891 0.00171
66.88115 545.00000 529.65188 0.00183
66.89115 535.00000 530.16548 0.00187
66.90115 617.00000 530.71012 0.00162
66.91115 553.00000 531.28612 0.00181
66.92115 534.00000 531.89370 0.00187
66.93115 526.00000 532.53294 0.00190
66.94115 576.00000 533.20379 0.00174
66.95115 557.00000 533.90604 0.00180
66.96115 602.00000 534.63931 0.00166
66.97115 560.00000 535.40302 0.00179
66.98115 543.00000 536.19637 0.00184
66.99115 563.00000 537.01834 0.00178
67.00115 585.00000 537.86768 0.00171
67.01115 554.00000 538.74290 0.00181
67.02115 586.00000 539.64231 0.00171
67.03115 605.00000 540.56399 0.00165
67.04115 595.00000 541.50591 0.00168
67.05116 607.00000 542.46691 0.00165
67.06115 602.00000 543.44187 0.00166
67.07115 617.00000 544.43166 0.00162
67.08115 641.00000 545.43338 0.00156
67.09116 628.00000 546.44640 0.00159
67.10115 600.00000 547.46628 0.00167
67.11115 599.00000 548.49524 0.00167
67.12115 589.00000 549.53180 0.00170
67.13116 578.00000 550.57701 0.00173
67.14115 598.00000 551.62810 0.00167
67.15115 615.00000 552.68905 0.00163
67.16116 646.00000 553.76087 0.00155
67.17116 589.00000 554.84247 0.00170
67.18115 606.00000 555.93485 0.00165
67.19115 578.00000 557.04100 0.00173
67.20116 631.00000 558.16135 0.00158
67.21116 606.00000 559.29348 0.00165
67.22115 609.00000 560.43651 0.00164
67.23116 613.00000 561.59227 0.00163
67.24116 645.00000 562.75479 0.00155
67.25116 629.00000 563.92181 0.00159
67.26115 602.00000 565.08781 0.00166
67.27116 594.00000 566.25102 0.00168
67.28116 613.00000 567.40184 0.00163
67.29116 603.00000 568.53458 0.00166
67.30116 630.00000 569.64181 0.00159
67.31116 552.00000 570.71567 0.00181
67.32116 605.00000 571.74818 0.00165
67.33116 614.00000 572.73144 0.00163
67.34116 629.00000 573.65799 0.00159
67.35116 621.00000 574.52106 0.00161
67.36116 590.00000 575.31494 0.00169
67.37116 633.00000 576.03518 0.00158
67.38116 581.00000 576.67887 0.00172
67.39116 552.00000 577.24477 0.00181
67.40116 648.00000 577.73338 0.00154
67.41116 594.00000 578.14698 0.00168
67.42116 618.00000 578.48952 0.00162
67.43116 578.00000 578.76650 0.00173
67.44116 614.00000 578.98475 0.00163
67.45116 582.00000 579.15221 0.00172
67.46116 614.00000 579.27765 0.00163
67.47116 629.00000 579.37042 0.00159
67.48116 643.00000 579.44018 0.00156
67.49117 571.00000 579.49671 0.00175
67.50116 574.00000 579.54939 0.00174
67.51116 591.00000 579.60765 0.00169
67.52116 609.00000 579.68016 0.00164
67.53117 577.00000 579.77518 0.00173
67.54116 582.00000 579.89976 0.00172
67.55116 573.00000 580.06095 0.00175
67.56116 629.00000 580.26460 0.00159
67.57117 597.00000 580.51644 0.00168
67.58116 593.00000 580.82029 0.00169
67.59116 604.00000 581.17766 0.00166
67.60117 574.00000 581.59111 0.00174
67.61117 600.00000 582.06217 0.00167
67.62116 643.00000 582.59194 0.00156
67.63116 597.00000 583.18160 0.00168
67.64117 624.00000 583.83064 0.00160
67.65117 598.00000 584.53626 0.00167
67.66116 579.00000 585.29613 0.00173
67.67117 626.00000 586.10977 0.00160
67.68117 617.00000 586.97127 0.00162
67.69117 622.00000 587.87727 0.00161
67.70116 579.00000 588.82207 0.00173
67.71117 589.00000 589.80334 0.00170
67.72117 562.00000 590.81244 0.00178
67.73117 561.00000 591.84421 0.00178
67.74117 603.00000 592.89222 0.00166
67.75117 621.00000 593.94978 0.00161
67.76117 596.00000 595.01009 0.00168
67.77117 638.00000 596.06630 0.00157
67.78117 650.00000 597.11163 0.00154
67.79117 544.00000 598.13950 0.00184
67.80117 610.00000 599.14362 0.00164
67.81117 589.00000 600.11810 0.00170
67.82117 620.00000 601.05756 0.00161
67.83117 582.00000 601.95719 0.00172
67.84117 562.00000 602.81279 0.00178
67.85117 568.00000 603.62078 0.00176
67.86117 568.00000 604.37834 0.00176
67.87117 573.00000 605.08460 0.00175
67.88117 612.00000 605.73825 0.00163
67.89117 597.00000 606.33842 0.00168
67.90117 584.00000 606.88512 0.00171
67.91117 597.00000 607.37896 0.00168
67.92117 577.00000 607.82093 0.00173
67.93118 590.00000 608.21263 0.00169
67.94117 576.00000 608.55436 0.00174
67.95117 585.00000 608.84844 0.00171
67.96117 616.00000 609.09554 0.00162
67.97118 599.00000 609.29643 0.00167
67.98117 554.00000 609.45070 0.00181
67.99117 598.00000 609.55816 0.00167
68.00117 601.00000 609.61717 0.00166
68.01118 575.00000 609.62521 0.00174
68.02117 569.00000 609.57884 0.00176
68.03117 600.00000 609.47325 0.00167
68.04118 627.00000 609.30219 0.00159
68.05118 619.00000 609.05815 0.00162
68.06117 567.00000 608.72886 0.00176
68.07117 608.00000 608.29923 0.00164
68.08118 640.00000 607.78873 0.00156
68.09118 599.00000 607.20372 0.00167
68.10117 589.00000 606.52444 0.00170
68.11118 610.00000 605.73549 0.00164
68.12118 624.00000 604.83396 0.00160
68.13118 590.00000 603.81661 0.00169
68.14117 592.00000 602.68428 0.00169
68.15118 584.00000 601.43530 0.00171
68.16118 584.00000 600.07786 0.00171
68.17118 566.00000 598.61874 0.00177
68.18118 667.00000 597.06753 0.00150
68.19118 589.00000 595.42262 0.00170
68.20118 592.00000 593.70495 0.00169
68.21118 578.00000 591.92792 0.00173
68.22118 611.00000 590.10430 0.00164
68.23118 582.00000 588.24815 0.00172
68.24118 633.00000 586.37355 0.00158
68.25118 571.00000 584.49425 0.00175
68.26118 577.00000 582.62350 0.00173
68.27118 543.00000 580.77382 0.00184
68.28118 546.00000 578.95696 0.00183
68.29118 604.00000 577.18375 0.00166
68.30118 601.00000 575.46414 0.00166
68.31118 592.00000 573.80717 0.00169
68.32118 579.00000 572.22096 0.00173
68.33118 534.00000 570.71280 0.00187
68.34118 573.00000 569.28910 0.00175
68.35118 574.00000 567.95550 0.00174
68.36118 566.00000 566.71686 0.00177
68.37119 570.00000 565.57628 0.00175
68.38118 553.00000 564.54036 0.00181
68.39118 551.00000 563.60870 0.00181
68.40118 579.00000 562.78449 0.00173
68.41119 552.00000 562.06864 0.00181
68.42118 535.00000 561.46398 0.00187
68.43118 616.00000 560.96890 0.00162
68.44118 552.00000 560.58379 0.00181
68.45119 522.00000 560.30778 0.00192
68.46118 562.00000 560.14020 0.00178
68.47118 608.00000 560.07875 0.00164
68.48119 577.00000 560.12152 0.00173
68.49119 553.00000 560.26567 0.00181
68.50118 577.00000 560.50774 0.00173
68.51118 587.00000 560.84465 0.00170
68.52119 523.00000 561.27259 0.00191
68.53119 545.00000 561.78610 0.00183
68.54118 513.00000 562.37992 0.00195
68.55119 549.00000 563.05050 0.00182
68.56119 576.00000 563.78985 0.00174
68.57119 583.00000 564.59206 0.00172
68.58118 557.00000 565.44907 0.00180
68.59119 564.00000 566.35567 0.00177
68.60119 581.00000 567.30002 0.00172
68.61119 570.00000 568.27319 0.00175
68.62119 565.00000 569.27097 0.00177
68.63119 590.00000 570.28421 0.00169
68.64119 561.00000 571.30027 0.00178
68.65119 577.00000 572.30715 0.00173
68.66119 543.00000 573.29323 0.00184
68.67119 553.00000 574.24662 0.00181
68.68119 549.00000 575.15525 0.00182
68.69119 602.00000 576.00701 0.00166
68.70119 576.00000 576.78997 0.00174
68.71119 528.00000 577.49266 0.00189
68.72119 569.00000 578.10430 0.00176
68.73119 578.00000 578.61513 0.00173
68.74119 572.00000 579.01666 0.00175
68.75119 586.00000 579.30197 0.00171
68.76119 513.00000 579.46590 0.00195
68.77119 512.00000 579.50528 0.00195
68.78119 507.00000 579.41906 0.00197
68.79119 564.00000 579.20827 0.00177
68.80119 575.00000 578.87611 0.00174
68.81120 562.00000 578.42721 0.00178
68.82119 580.00000 577.87017 0.00172
68.83119 527.00000 577.21197 0.00190
68.84119 577.00000 576.46313 0.00173
68.85120 579.00000 575.63377 0.00173
68.86119 568.00000 574.73831 0.00176
68.87119 560.00000 573.78637 0.00179
68.88120 540.00000 572.79032 0.00185
68.89120 549.00000 571.76471 0.00182
68.90119 577.00000 570.72196 0.00173
68.91119 526.00000 569.67205 0.00190
68.92120 564.00000 568.62664 0.00177
68.93120 571.00000 567.59901 0.00175
68.94119 569.00000 566.59972 0.00176
68.95119 558.00000 565.63693 0.00179
68.96120 576.00000 564.72034 0.00174
68.97120 519.00000 563.86077 0.00193
68.98119 576.00000 563.06653 0.00174
68.99120 566.00000 562.34340 0.00177
69.00120 578.00000 561.70108 0.00173
69.01120 539.00000 561.14580 0.00186
69.02119 574.00000 560.68446 0.00174
69.03120 574.00000 560.32194 0.00174
69.04120 549.00000 560.06492 0.00182
69.05120 579.00000 559.91804 0.00173
69.06120 537.00000 559.88581 0.00186
69.07120 587.00000 559.97222 0.00170
69.08120 575.00000 560.18065 0.00174
69.09120 606.00000 560.51393 0.00165
69.10120 552.00000 560.97426 0.00181
69.11120 545.00000 561.56328 0.00183
69.12120 562.00000 562.28237 0.00178
69.13120 544.00000 563.13238 0.00184
69.14120 593.00000 564.10907 0.00169
69.15120 577.00000 565.20943 0.00173
69.16120 588.00000 566.43198 0.00170
69.17120 562.00000 567.77389 0.00178
69.18120 572.00000 569.23070 0.00175
69.19120 556.00000 570.79667 0.00180
69.20120 613.00000 572.46494 0.00163
69.21120 561.00000 574.22748 0.00178
69.22120 631.00000 576.07504 0.00158
69.23120 577.00000 577.99706 0.00173
69.24120 555.00000 579.98166 0.00180
69.25121 562.00000 582.01761 0.00178
69.26120 561.00000 584.08401 0.00178
69.27120 560.00000 586.17085 0.00179
69.28120 578.00000 588.25840 0.00173
69.29121 548.00000 590.32961 0.00182
69.30120 558.00000 592.35794 0.00179
69.31120 577.00000 594.32788 0.00173
69.32121 546.00000 596.21658 0.00183
69.33121 586.00000 597.99712 0.00171
69.34120 589.00000 599.64646 0.00170
69.35120 578.00000 601.14462 0.00173
69.36121 579.00000 602.46884 0.00173
69.37121 596.00000 603.59588 0.00168
69.38120 586.00000 604.50776 0.00171
69.39120 581.00000 605.18979 0.00172
69.40121 588.00000 605.62868 0.00170
69.41121 574.00000 605.82263 0.00174
69.42120 575.00000 605.76771 0.00174
69.43121 611.00000 605.46247 0.00164
69.44121 610.00000 604.91342 0.00164
69.45121 614.00000 604.13041 0.00163
69.46120 613.00000 603.12851 0.00163
69.47121 525.00000 601.92107 0.00190
69.48121 571.00000 600.53105 0.00175
69.49121 613.00000 598.97824 0.00163
69.50121 575.00000 597.28459 0.00174
69.51121 591.00000 595.47228 0.00169
69.52121 565.00000 593.56323 0.00177
69.53121 563.00000 591.57857 0.00178
69.54121 596.00000 589.53831 0.00168
69.55121 588.00000 587.46109 0.00170
69.56121 575.00000 585.36401 0.00174
69.57121 594.00000 583.26254 0.00168
69.58121 605.00000 581.17050 0.00165
69.59121 591.00000 579.10003 0.00169
69.60121 597.00000 577.06169 0.00168
69.61121 553.00000 575.06448 0.00181
69.62121 557.00000 573.11595 0.00180
69.63121 552.00000 571.22227 0.00181
69.64121 529.00000 569.38835 0.00189
69.65121 554.00000 567.61791 0.00181
69.66121 556.00000 565.91364 0.00180
69.67121 510.00000 564.27729 0.00196
69.68121 529.00000 562.70980 0.00189
69.69122 526.00000 561.20997 0.00190
69.70121 569.00000 559.78177 0.00176
69.71121 554.00000 558.42012 0.00181
69.72121 594.00000 557.12531 0.00168
69.73122 577.00000 555.89478 0.00173
69.74121 542.00000 554.73041 0.00185
69.75121 531.00000 553.62702 0.00188
69.76122 515.00000 552.58296 0.00194
69.77122 508.00000 551.59838 0.00197
69.78121 559.00000 550.67115 0.00179
69.79121 532.00000 549.79747 0.00188
69.80122 547.00000 548.97542 0.00183
69.81122 550.00000 548.20441 0.00182
69.82121 578.00000 547.48213 0.00173
69.83121 553.00000 546.80498 0.00181
69.84122 548.00000 546.16995 0.00182
69.85122 539.00000 545.57462 0.00186
69.86121 544.00000 545.01585 0.00184
69.87122 519.00000 544.49001 0.00193
69.88122 515.00000 543.99824 0.00194
69.89122 564.00000 543.53628 0.00177
69.90121 536.00000 543.10069 0.00187
69.91122 526.00000 542.68710 0.00190
69.92122 536.00000 542.29377 0.00187
69.93122 555.00000 541.91739 0.00180
69.94122 575.00000 541.55506 0.00174
69.95122 534.00000 541.20378 0.00187
69.96122 538.00000 540.85973 0.00186
69.97122 526.00000 540.51931 0.00190
69.98122 529.00000 540.18890 0.00189
69.99122 533.00000 539.86576 0.00188
70.00122 555.00000 539.54552 0.00180
70.01122 526.00000 539.22601 0.00190
70.02122 534.00000 538.90605 0.00187
70.03122 555.00000 538.58471 0.00180
70.04122 535.00000 538.26126 0.00187
70.05122 524.00000 537.93521 0.00191
70.06122 572.00000 537.60623 0.00175
70.07122 500.00000 537.27417 0.00200
70.08122 502.00000 536.93908 0.00199
70.09122 513.00000 536.60110 0.00195
70.10122 551.00000 536.26054 0.00181
70.11122 520.00000 535.91780 0.00192
70.12122 509.00000 535.57341 0.00196
70.13123 516.00000 535.22765 0.00194
70.14122 510.00000 534.88227 0.00196
70.15122 537.00000 534.53701 0.00186
70.16122 531.00000 534.19307 0.00188
70.17123 532.00000 533.85109 0.00188
70.18122 504.00000 533.51326 0.00198
70.19122 528.00000 533.18017 0.00189
70.20123 553.00000 532.85538 0.00181
70.21123 564.00000 532.54433 0.00177
70.22122 551.00000 532.23509 0.00181
70.23122 489.00000 531.92080 0.00204
70.24123 558.00000 531.60710 0.00179
70.25123 539.00000 531.29896 0.00186
70.26122 488.00000 530.99800 0.00205
70.27122 516.00000 530.70425 0.00194
70.28123 560.00000 530.41830 0.00179
70.29123 545.00000 530.14141 0.00183
70.30122 529.00000 529.87444 0.00189
70.31123 487.00000 529.61846 0.00205
70.32123 557.00000 529.37795 0.00180
70.33123 568.00000 529.15084 0.00176
70.34122 541.00000 528.92364 0.00185
70.35123 543.00000 528.69956 0.00184
70.36123 521.00000 528.48322 0.00192
70.37123 540.00000 528.27631 0.00185
70.38123 554.00000 528.07923 0.00181
70.39123 559.00000 527.89215 0.00179
70.40123 532.00000 527.71523 0.00188
70.41123 501.00000 527.54863 0.00200
70.42123 496.00000 527.39255 0.00202
70.43123 522.00000 527.24719 0.00192
70.44123 553.00000 527.11276 0.00181
70.45123 525.00000 526.98953 0.00190
70.46123 538.00000 526.87777 0.00186
70.47123 540.00000 526.77781 0.00185
70.48123 553.00000 526.69002 0.00181
70.49123 529.00000 526.61481 0.00189
70.50123 513.00000 526.55266 0.00195
70.51123 508.00000 526.50412 0.00197
70.52123 500.00000 526.46980 0.00200
70.53123 551.00000 526.45041 0.00181
70.54123 560.00000 526.44672 0.00179
70.55123 511.00000 526.45963 0.00196
70.56123 483.00000 526.49013 0.00207
70.57124 539.00000 526.53941 0.00186
70.58123 553.00000 526.60853 0.00181
70.59123 533.00000 526.69905 0.00188
70.60123 511.00000 526.81247 0.00196
70.61124 546.00000 526.95078 0.00183
70.62123 563.00000 527.11567 0.00178
70.63123 512.00000 527.30876 0.00195
70.64124 493.00000 527.53141 0.00203
70.65124 521.00000 527.78582 0.00192
70.66123 531.00000 528.07463 0.00188
70.67123 591.00000 528.40107 0.00169
70.68124 545.00000 528.76801 0.00183
70.69124 464.00000 529.17759 0.00216
70.70123 534.00000 529.63271 0.00187
70.71124 495.00000 530.13786 0.00202
70.72124 564.00000 530.69490 0.00177
70.73124 561.00000 531.30762 0.00178
70.74123 522.00000 531.97873 0.00192
70.75124 493.00000 532.71370 0.00203
70.76124 528.00000 533.51393 0.00189
70.77124 523.00000 534.38353 0.00191
70.78123 576.00000 535.32488 0.00174
70.79124 525.00000 536.34411 0.00190
70.80124 527.00000 537.44147 0.00190
70.81124 520.00000 538.62084 0.00192
70.82124 537.00000 539.88488 0.00186
70.83124 557.00000 541.23599 0.00180
70.84124 557.00000 542.67620 0.00180
70.85124 517.00000 544.20716 0.00193
70.86124 569.00000 545.83004 0.00176
70.87124 566.00000 547.54551 0.00177
70.88124 578.00000 549.35366 0.00173
70.89124 582.00000 551.25395 0.00172
70.90124 548.00000 553.24516 0.00182
70.91124 535.00000 555.32529 0.00187
70.92124 564.00000 557.49156 0.00177
70.93124 545.00000 559.74030 0.00183
70.94124 556.00000 562.06689 0.00180
70.95124 537.00000 564.46572 0.00186
70.96124 555.00000 566.93013 0.00180
70.97124 612.00000 569.45227 0.00163
70.98124 566.00000 572.02311 0.00177
70.99124 589.00000 574.63236 0.00170
71.00124 515.00000 577.26832 0.00194
71.01125 512.00000 579.92058 0.00195
71.02124 560.00000 582.56659 0.00179
71.03124 547.00000 585.19823 0.00183
71.04124 550.00000 587.79524 0.00182
71.05125 592.00000 590.34105 0.00169
71.06124 561.00000 592.80757 0.00178
71.07124 558.00000 595.18063 0.00179
71.08125 568.00000 597.43707 0.00176
71.09125 590.00000 599.54862 0.00169
71.10124 565.00000 601.49151 0.00177
71.11124 580.00000 603.24508 0.00172
71.12125 586.00000 604.78186 0.00171
71.13125 573.00000 606.07269 0.00175
71.14124 558.00000 607.12241 0.00179
71.15125 560.00000 607.92201 0.00179
71.16125 605.00000 608.44693 0.00165
71.17125 540.00000 608.68551 0.00185
71.18124 556.00000 608.63338 0.00180
71.19125 601.00000 608.29082 0.00166
71.20125 567.00000 607.66332 0.00176
71.21125 582.00000 606.76031 0.00172
71.22124 559.00000 605.59654 0.00179
71.23125 564.00000 604.18531 0.00177
71.24125 610.00000 602.54995 0.00164
71.25125 559.00000 600.71101 0.00179
71.26125 564.00000 598.69163 0.00177
71.27125 563.00000 596.51562 0.00178
71.28125 580.00000 594.20689 0.00172
71.29125 580.00000 591.78895 0.00172
71.30125 563.00000 589.28448 0.00178
71.31125 570.00000 586.71507 0.00175
71.32125 571.00000 584.10097 0.00175
71.33125 559.00000 581.46097 0.00179
71.34125 565.00000 578.81236 0.00177
71.35125 545.00000 576.17091 0.00183
71.36125 571.00000 573.55087 0.00175
71.37125 566.00000 570.96503 0.00177
71.38125 558.00000 568.42475 0.00179
71.39125 590.00000 565.94011 0.00169
71.40125 563.00000 563.51991 0.00178
71.41125 544.00000 561.17178 0.00184
71.42125 534.00000 558.90225 0.00187
71.43125 587.00000 556.71679 0.00170
71.44125 563.00000 554.61993 0.00178
71.45126 519.00000 552.61331 0.00193
71.46125 543.00000 550.70563 0.00184
71.47125 537.00000 548.89293 0.00186
71.48125 510.00000 547.17847 0.00196
71.49126 518.00000 545.56124 0.00193
71.50125 541.00000 544.04600 0.00185
71.51125 516.00000 542.62740 0.00194
71.52126 554.00000 541.30466 0.00181
71.53126 532.00000 540.07891 0.00188
71.54125 555.00000 538.94781 0.00180
71.55125 525.00000 537.90628 0.00190
71.56126 527.00000 536.95150 0.00190
71.57126 549.00000 536.08598 0.00182
71.58125 540.00000 535.30670 0.00185
71.59126 552.00000 534.60719 0.00181
71.60126 578.00000 533.98611 0.00173
71.61126 559.00000 533.43949 0.00179
71.62125 541.00000 532.96455 0.00185
71.63126 554.00000 532.55671 0.00181
71.64126 505.00000 532.21415 0.00198
71.65126 515.00000 531.93325 0.00194
71.66125 534.00000 531.71113 0.00187
71.67126 517.00000 531.54417 0.00193
71.68126 515.00000 531.43006 0.00194
71.69126 505.00000 531.36576 0.00198
71.70126 541.00000 531.34855 0.00185
71.71126 523.00000 531.37578 0.00191
71.72126 529.00000 531.44493 0.00189
71.73126 556.00000 531.55352 0.00180
71.74126 548.00000 531.69918 0.00182
71.75126 537.00000 531.87956 0.00186
71.76126 534.00000 532.09237 0.00187
71.77126 515.00000 532.33538 0.00194
71.78126 486.00000 532.60636 0.00206
71.79126 547.00000 532.90219 0.00183
71.80126 527.00000 533.21861 0.00190
71.81126 573.00000 533.55328 0.00175
71.82126 570.00000 533.91141 0.00175
71.83126 557.00000 534.28844 0.00180
71.84126 539.00000 534.67848 0.00186
71.85126 545.00000 535.07522 0.00183
71.86126 527.00000 535.46964 0.00190
71.87126 521.00000 535.86673 0.00192
71.88126 522.00000 536.29207 0.00192
71.89127 547.00000 536.73245 0.00183
71.90126 525.00000 537.17355 0.00190
71.91126 507.00000 537.61219 0.00197
71.92126 526.00000 538.04480 0.00190
71.93127 564.00000 538.46853 0.00177
71.94126 583.00000 538.87888 0.00172
71.95126 528.00000 539.27377 0.00189
71.96127 514.00000 539.64986 0.00195
71.97127 515.00000 540.00320 0.00194
71.98126 495.00000 540.33073 0.00202
71.99126 523.00000 540.62972 0.00191
72.00127 588.00000 540.89710 0.00170
72.01127 551.00000 541.13401 0.00181
72.02126 537.00000 541.33824 0.00186
72.03127 536.00000 541.50808 0.00187
72.04127 520.00000 541.64219 0.00192
72.05127 573.00000 541.74074 0.00175
72.06126 569.00000 541.80426 0.00176
72.07127 518.00000 541.83398 0.00193
72.08127 512.00000 541.83148 0.00195
72.09127 556.00000 541.79896 0.00180
72.10126 540.00000 541.73909 0.00185
72.11127 547.00000 541.65455 0.00183
72.12127 537.00000 541.54885 0.00186
72.13127 530.00000 541.42531 0.00189
72.14127 520.00000 541.28747 0.00192
72.15127 538.00000 541.13891 0.00186
72.16127 533.00000 540.98314 0.00188
72.17127 555.00000 540.82357 0.00180
72.18127 550.00000 540.66345 0.00182
72.19127 536.00000 540.50579 0.00187
72.20127 530.00000 540.35335 0.00189
72.21127 534.00000 540.20859 0.00187
72.22127 542.00000 540.07364 0.00185
72.23127 491.00000 539.95030 0.00204
72.24127 500.00000 539.84004 0.00200
72.25127 511.00000 539.74392 0.00196
72.26127 511.00000 539.66269 0.00196
72.27127 544.00000 539.59670 0.00184
72.28127 551.00000 539.54593 0.00181
72.29128 544.00000 539.50997 0.00184
72.30127 554.00000 539.48814 0.00181
72.31127 487.00000 539.47924 0.00205
72.32127 521.00000 539.48180 0.00192
72.33128 507.00000 539.49398 0.00197
72.34127 511.00000 539.51352 0.00196
72.35127 535.00000 539.53794 0.00187
72.36127 531.00000 539.56438 0.00188
72.37128 514.00000 539.58971 0.00195
72.38127 549.00000 539.61050 0.00182
72.39127 544.00000 539.62326 0.00184
72.40128 526.00000 539.62428 0.00190
72.41128 565.00000 539.60985 0.00177
72.42127 551.00000 539.57635 0.00181
72.43127 539.00000 539.52019 0.00186
72.44128 548.00000 539.43806 0.00182
72.45128 548.00000 539.32732 0.00182
72.46127 543.00000 539.18573 0.00184
72.47128 523.00000 539.01104 0.00191
72.48128 496.00000 538.80272 0.00202
72.49128 501.00000 538.56039 0.00200
72.50127 556.00000 538.28523 0.00180
72.51128 542.00000 537.97921 0.00185
72.52128 529.00000 537.64996 0.00189
72.53128 511.00000 537.29862 0.00196
72.54128 561.00000 536.90235 0.00178
72.55128 543.00000 536.46952 0.00184
72.56128 501.00000 536.00934 0.00200
72.57128 502.00000 535.52714 0.00199
72.58128 521.00000 535.02460 0.00192
72.59128 548.00000 534.50770 0.00182
72.60128 561.00000 533.98962 0.00178
72.61128 530.00000 533.47083 0.00189
72.62128 575.00000 532.95141 0.00174
72.63128 551.00000 532.43390 0.00181
72.64128 554.00000 531.92140 0.00181
72.65128 576.00000 531.41681 0.00174
72.66128 541.00000 530.92287 0.00185
72.67128 541.00000 530.44211 0.00185
72.68128 539.00000 529.97685 0.00186
72.69128 517.00000 529.52927 0.00193
72.70128 541.00000 529.10139 0.00185
72.71128 526.00000 528.69506 0.00190
72.72128 517.00000 528.31203 0.00193
72.73129 529.00000 527.95360 0.00189
72.74128 552.00000 527.62233 0.00181
72.75128 555.00000 527.31867 0.00180
72.76128 544.00000 527.04437 0.00184
72.77129 529.00000 526.80058 0.00189
72.78128 535.00000 526.58930 0.00187
72.79128 507.00000 526.41118 0.00197
72.80128 528.00000 526.26775 0.00189
72.81129 501.00000 526.16026 0.00200
72.82128 534.00000 526.09030 0.00187
72.83128 520.00000 526.05898 0.00192
72.84129 531.00000 526.06779 0.00188
72.85129 588.00000 526.11818 0.00170
72.86128 529.00000 526.21152 0.00189
72.87128 536.00000 526.34956 0.00187
72.88129 564.00000 526.53405 0.00177
72.89129 540.00000 526.76631 0.00185
72.90128 548.00000 527.04796 0.00182
72.91129 535.00000 527.38172 0.00187
72.92129 537.00000 527.76858 0.00186
72.93129 549.00000 528.21078 0.00182
72.94128 544.00000 528.70982 0.00184
72.95129 546.00000 529.26929 0.00183
72.96129 551.00000 529.88974 0.00181
72.97129 559.00000 530.57379 0.00179
72.98129 506.00000 531.32358 0.00198
72.99129 565.00000 532.14122 0.00177
73.00129 587.00000 533.02881 0.00170
73.01129 573.00000 533.98839 0.00175
73.02129 546.00000 535.02194 0.00183
73.03129 572.00000 536.13134 0.00175
73.04129 555.00000 537.31834 0.00180
73.05129 556.00000 538.58457 0.00180
73.06129 572.00000 539.93144 0.00175
73.07129 522.00000 541.36018 0.00192
73.08129 546.00000 542.87176 0.00183
73.09129 542.00000 544.46688 0.00185
73.10129 587.00000 546.14593 0.00170
73.11129 580.00000 547.90895 0.00172
73.12129 555.00000 549.75561 0.00180
73.13129 537.00000 551.68516 0.00186
73.14129 520.00000 553.69639 0.00192
73.15129 570.00000 555.78759 0.00175
73.16129 524.00000 557.95652 0.00191
73.17130 546.00000 560.20262 0.00183
73.18129 522.00000 562.51566 0.00192
73.19129 571.00000 564.89830 0.00175
73.20129 539.00000 567.34344 0.00186
73.21130 585.00000 569.84799 0.00171
73.22129 551.00000 572.39795 0.00181
73.23129 575.00000 574.99355 0.00174
73.24129 563.00000 577.62399 0.00178
73.25130 553.00000 580.28267 0.00181
73.26129 586.00000 582.95119 0.00171
73.27129 583.00000 585.62562 0.00172
73.28130 559.00000 588.29294 0.00179
73.29130 552.00000 590.93843 0.00181
73.30129 596.00000 593.54881 0.00168
73.31129 558.00000 596.11285 0.00179
73.32130 552.00000 598.61407 0.00181
73.33130 584.00000 601.03124 0.00171
73.34129 562.00000 603.34835 0.00178
73.35130 609.00000 605.55620 0.00164
73.36130 585.00000 607.63230 0.00171
73.37130 529.00000 609.56426 0.00189
73.38129 571.00000 611.33534 0.00175
73.39130 616.00000 612.93873 0.00162
73.40130 582.00000 614.35923 0.00172
73.41130 565.00000 615.59072 0.00177
73.42130 582.00000 616.62757 0.00172
73.43130 578.00000 617.46664 0.00173
73.44130 587.00000 618.10729 0.00170
73.45130 559.00000 618.55123 0.00179
73.46130 576.00000 618.80233 0.00174
73.47130 536.00000 618.86634 0.00187
73.48130 582.00000 618.75049 0.00172
73.49130 579.00000 618.46318 0.00173
73.50130 616.00000 618.01351 0.00162
73.51130 583.00000 617.41104 0.00172
73.52130 607.00000 616.66535 0.00165
73.53130 587.00000 615.78589 0.00170
73.54130 580.00000 614.78171 0.00172
73.55130 552.00000 613.66137 0.00181
73.56130 630.00000 612.43285 0.00159
73.57130 582.00000 611.10356 0.00172
73.58130 548.00000 609.68031 0.00182
73.59130 561.00000 608.16944 0.00178
73.60130 578.00000 606.57685 0.00173
73.61131 515.00000 604.90643 0.00194
73.62130 523.00000 603.16865 0.00191
73.63130 551.00000 601.36362 0.00181
73.64130 590.00000 599.49822 0.00169
73.65131 579.00000 597.57572 0.00173
73.66130 558.00000 595.60726 0.00179
73.67130 545.00000 593.59237 0.00183
73.68130 551.00000 591.53852 0.00181
73.69131 540.00000 589.44920 0.00185
73.70130 566.00000 587.33652 0.00177
73.71130 486.00000 585.19990 0.00206
73.72131 564.00000 583.04508 0.00177
73.73131 565.00000 580.88219 0.00177
73.74130 567.00000 578.71692 0.00176
73.75130 565.00000 576.55041 0.00177
73.76131 554.00000 574.38800 0.00181
73.77131 499.00000 572.23913 0.00200
73.78130 534.00000 570.10853 0.00187
73.79131 514.00000 567.99419 0.00195
73.80131 506.00000 565.90664 0.00198
73.81131 540.00000 563.84740 0.00185
73.82130 527.00000 561.82183 0.00190
73.83131 542.00000 559.82671 0.00185
73.84131 563.00000 557.87064 0.00178
73.85131 514.00000 555.95371 0.00195
73.86131 489.00000 554.07761 0.00204
73.87131 496.00000 552.24369 0.00202
73.88131 523.00000 550.45295 0.00191
73.89131 527.00000 548.70607 0.00190
73.90131 522.00000 547.00339 0.00192
73.91131 562.00000 545.34495 0.00178
73.92131 520.00000 543.73041 0.00192
73.93131 533.00000 542.15890 0.00188
73.94131 542.00000 540.62839 0.00185
73.95131 546.00000 539.13390 0.00183
73.96131 581.00000 537.67445 0.00172
73.97131 515.00000 536.27274 0.00194
73.98131 499.00000 534.92265 0.00200
73.99131 562.00000 533.61608 0.00178
74.00131 538.00000 532.35038 0.00186
74.01131 523.00000 531.12472 0.00191
74.02131 528.00000 529.93849 0.00189
74.03131 505.00000 528.79131 0.00198
74.04131 488.00000 527.68136 0.00205
74.05132 498.00000 526.60511 0.00201
74.06131 489.00000 525.56539 0.00204
74.07131 478.00000 524.55864 0.00209
74.08131 529.00000 523.58523 0.00189
74.09132 488.00000 522.64335 0.00205
74.10131 540.00000 521.73493 0.00185
74.11131 530.00000 520.85633 0.00189
74.12132 510.00000 520.00679 0.00196
74.13132 484.00000 519.18726 0.00207
74.14131 537.00000 518.39702 0.00186
74.15131 553.00000 517.63398 0.00181
74.16132 511.00000 516.89634 0.00196
74.17132 534.00000 516.18464 0.00187
74.18131 512.00000 515.49832 0.00195
74.19131 509.00000 514.83543 0.00196
74.20132 542.00000 514.19539 0.00185
74.21132 509.00000 513.57876 0.00196
74.22131 535.00000 512.98475 0.00187
74.23132 527.00000 512.41092 0.00190
74.24132 526.00000 511.85834 0.00190
74.25132 527.00000 511.32574 0.00190
74.26131 502.00000 510.81299 0.00199
74.27132 530.00000 510.31792 0.00189
74.28132 542.00000 509.84143 0.00185
74.29132 528.00000 509.38240 0.00189
74.30132 481.00000 508.94023 0.00208
74.31132 500.00000 508.51435 0.00200
74.32132 535.00000 508.10420 0.00187
74.33132 510.00000 507.70923 0.00196
74.34132 516.00000 507.32891 0.00194
74.35132 492.00000 506.96273 0.00203
74.36132 496.00000 506.61020 0.00202
74.37132 581.00000 506.27084 0.00172
74.38132 536.00000 505.94418 0.00187
74.39132 490.00000 505.62980 0.00204
74.40132 525.00000 505.32726 0.00190
74.41132 484.00000 505.03615 0.00207
74.42132 502.00000 504.75610 0.00199
74.43132 498.00000 504.48673 0.00201
74.44132 534.00000 504.22768 0.00187
74.45132 514.00000 503.97862 0.00195
74.46132 533.00000 503.73924 0.00188
74.47132 520.00000 503.50922 0.00192
74.48132 545.00000 503.28830 0.00183
74.49133 516.00000 503.07599 0.00194
74.50132 470.00000 502.87266 0.00213
74.51132 550.00000 502.67747 0.00182
74.52132 523.00000 502.49040 0.00191
74.53133 486.00000 502.31111 0.00206
74.54132 471.00000 502.13994 0.00212
74.55132 542.00000 501.97603 0.00185
74.56133 525.00000 501.81929 0.00190
74.57133 510.00000 501.66990 0.00196
74.58132 507.00000 501.52771 0.00197
74.59132 496.00000 501.39233 0.00202
74.60133 524.00000 501.26365 0.00191
74.61133 549.00000 501.14183 0.00182
74.62132 521.00000 501.02673 0.00192
74.63132 521.00000 500.91804 0.00192
74.64133 519.00000 500.81568 0.00193
74.65133 527.00000 500.71978 0.00190
74.66132 560.00000 500.63022 0.00179
74.67133 487.00000 500.54666 0.00205
74.68133 516.00000 500.46926 0.00194
74.69133 489.00000 500.39780 0.00204
74.70132 536.00000 500.33216 0.00187
74.71133 474.00000 500.27176 0.00211
74.72133 473.00000 500.21589 0.00211
74.73133 518.00000 500.16394 0.00193
74.74133 500.00000 500.11962 0.00200
74.75133 502.00000 500.08396 0.00199
74.76133 547.00000 500.05572 0.00183
74.77133 522.00000 500.03385 0.00192
74.78133 511.00000 500.01792 0.00196
74.79133 502.00000 500.00780 0.00199
74.80133 524.00000 500.00333 0.00191
74.81133 536.00000 500.00421 0.00187
74.82133 523.00000 500.00993 0.00191
74.83133 538.00000 500.01923 0.00186
74.84133 508.00000 500.02914 0.00197
74.85133 508.00000 500.04038 0.00197
74.86133 538.00000 500.06754 0.00186
74.87133 529.00000 500.10685 0.00189
74.88133 524.00000 500.15358 0.00191
74.89133 525.00000 500.20661 0.00190
74.90133 507.00000 500.26588 0.00197
74.91133 518.00000 500.33140 0.00193
74.92133 515.00000 500.40314 0.00194
74.93134 508.00000 500.48118 0.00197
74.94133 508.00000 500.56524 0.00197
74.95133 505.00000 500.65552 0.00198
74.96133 492.00000 500.75191 0.00203
74.97134 474.00000 500.85444 0.00211
74.98133 519.00000 500.96275 0.00193
74.99133 508.00000 501.07704 0.00197
75.00134 522.00000 501.19726 0.00192
75.01134 506.00000 501.32306 0.00198
75.02133 516.00000 501.45430 0.00194
75.03133 508.00000 501.59113 0.00197
75.04134 511.00000 501.73343 0.00196
75.05134 498.00000 501.88080 0.00201
75.06133 498.00000 502.03310 0.00201
75.07133 515.00000 502.19059 0.00194
75.08134 528.00000 502.35338 0.00189
75.09134 511.00000 502.52169 0.00196
75.10133 495.00000 502.69627 0.00202
75.11134 559.00000 502.87489 0.00179
75.12134 482.00000 503.05823 0.00207
75.13134 502.00000 503.24651 0.00199
75.14133 491.00000 503.44175 0.00204
75.15134 542.00000 503.65057 0.00185
75.16134 510.00000 503.87091 0.00196
75.17134 475.00000 504.07891 0.00211
75.18134 539.00000 504.28072 0.00186
75.19134 504.00000 504.48197 0.00198
75.20134 506.00000 504.68576 0.00198
75.21134 552.00000 504.89286 0.00181
75.22134 499.00000 505.10349 0.00200
75.23134 535.00000 505.31793 0.00187
75.24134 514.00000 505.53653 0.00195
75.25134 519.00000 505.75971 0.00193
75.26134 508.00000 505.98796 0.00197
75.27134 535.00000 506.22183 0.00187
75.28134 522.00000 506.46196 0.00192
75.29134 505.00000 506.70901 0.00198
75.30134 494.00000 506.96373 0.00202
75.31134 541.00000 507.22689 0.00185
75.32134 487.00000 507.49931 0.00205
75.33134 517.00000 507.78181 0.00193
75.34134 503.00000 508.07525 0.00199
75.35134 509.00000 508.38049 0.00196
75.36134 477.00000 508.69838 0.00210
75.37135 511.00000 509.03007 0.00196
75.38134 510.00000 509.37537 0.00196
75.39134 533.00000 509.73606 0.00188
75.40134 537.00000 510.11250 0.00186
75.41135 521.00000 510.50576 0.00192
75.42134 545.00000 510.91525 0.00183
75.43134 523.00000 511.34269 0.00191
75.44135 564.00000 511.78869 0.00177
75.45135 504.00000 512.25271 0.00198
75.46134 531.00000 512.73414 0.00188
75.47134 517.00000 513.23418 0.00193
75.48135 512.00000 513.75294 0.00195
75.49135 497.00000 514.28926 0.00201
75.50134 528.00000 514.84272 0.00189
75.51134 530.00000 515.41392 0.00189
75.52135 515.00000 516.00220 0.00194
75.53135 505.00000 516.60554 0.00198
75.54134 560.00000 517.22286 0.00179
75.55135 519.00000 517.85485 0.00193
75.56135 538.00000 518.49830 0.00186
75.57135 518.00000 519.15233 0.00193
75.58134 483.00000 519.81470 0.00207
75.59135 489.00000 520.48570 0.00204
75.60135 508.00000 521.16158 0.00197
75.61135 519.00000 521.84127 0.00193
75.62135 507.00000 522.52304 0.00197
75.63135 564.00000 523.20526 0.00177
75.64135 514.00000 523.88645 0.00195
75.65135 556.00000 524.56535 0.00180
75.66135 523.00000 525.24096 0.00191
75.67135 544.00000 525.91259 0.00184
75.68135 525.00000 526.57992 0.00190
75.69135 544.00000 527.24302 0.00184
75.70135 507.00000 527.90240 0.00197
75.71135 555.00000 528.55895 0.00180
75.72135 580.00000 529.21402 0.00172
75.73135 538.00000 529.86931 0.00186
75.74135 534.00000 530.52688 0.00187
75.75135 541.00000 531.18908 0.00185
75.76135 532.00000 531.85848 0.00188
75.77135 544.00000 532.53780 0.00184
75.78135 540.00000 533.22984 0.00185
75.79135 546.00000 533.93738 0.00183
75.80135 532.00000 534.66311 0.00188
75.81136 550.00000 535.41030 0.00182
75.82135 520.00000 536.17892 0.00192
75.83135 551.00000 536.97318 0.00181
75.84135 500.00000 537.79385 0.00200
75.85136 526.00000 538.64283 0.00190
75.86135 538.00000 539.51809 0.00186
75.87135 530.00000 540.42211 0.00189
75.88136 567.00000 541.35424 0.00176
75.89136 549.00000 542.31118 0.00182
75.90135 543.00000 543.29067 0.00184
75.91135 524.00000 544.29168 0.00191
75.92136 558.00000 545.31039 0.00179
75.93136 533.00000 546.33992 0.00188
75.94135 555.00000 547.37427 0.00180
75.95135 573.00000 548.40792 0.00175
75.96136 542.00000 549.42904 0.00185
75.97136 556.00000 550.42259 0.00180
75.98135 534.00000 551.40628 0.00187
75.99136 583.00000 552.37307 0.00172
76.00136 564.00000 553.30150 0.00177
76.01136 522.00000 554.17783 0.00192
76.02135 508.00000 554.98984 0.00197
76.03136 557.00000 555.72825 0.00180
76.04136 526.00000 556.37910 0.00190
76.05136 569.00000 556.93173 0.00176
76.06136 600.00000 557.37515 0.00167
76.07136 569.00000 557.69909 0.00176
76.08136 534.00000 557.89427 0.00187
76.09136 534.00000 557.95272 0.00187
76.10136 547.00000 557.86800 0.00183
76.11136 523.00000 557.63545 0.00191
76.12136 606.00000 557.25232 0.00165
76.13136 553.00000 556.71789 0.00181
76.14136 555.00000 556.03348 0.00180
76.15136 577.00000 555.20242 0.00173
76.16136 518.00000 554.22991 0.00193
76.17136 556.00000 553.12284 0.00180
76.18136 523.00000 551.88958 0.00191
76.19136 556.00000 550.53971 0.00180
76.20136 541.00000 549.08374 0.00185
76.21136 565.00000 547.53280 0.00177
76.22136 549.00000 545.89840 0.00182
76.23136 553.00000 544.19217 0.00181
76.24136 547.00000 542.42564 0.00183
76.25137 542.00000 540.60822 0.00185
76.26136 551.00000 538.75620 0.00181
76.27136 558.00000 536.87435 0.00179
76.28136 529.00000 534.97412 0.00189
76.29137 553.00000 533.06256 0.00181
76.30136 481.00000 531.15364 0.00208
76.31136 509.00000 529.24918 0.00196
76.32137 511.00000 527.35603 0.00196
76.33137 576.00000 525.48416 0.00174
76.34136 512.00000 523.63902 0.00195
76.35136 554.00000 521.82179 0.00181
76.36137 539.00000 520.03688 0.00186
76.37137 538.00000 518.29166 0.00186
76.38136 539.00000 516.58924 0.00186
76.39137 511.00000 514.92737 0.00196
76.40137 507.00000 513.31344 0.00197
76.41137 525.00000 511.74769 0.00190
76.42136 546.00000 510.23319 0.00183
76.43137 556.00000 508.76664 0.00180
76.44137 512.00000 507.35342 0.00195
76.45137 515.00000 505.99263 0.00194
76.46136 533.00000 504.68587 0.00188
76.47137 556.00000 503.42938 0.00180
76.48137 508.00000 502.22700 0.00197
76.49137 523.00000 501.07762 0.00191
76.50137 548.00000 499.98120 0.00182
76.51137 525.00000 498.93336 0.00190
76.52137 507.00000 497.93377 0.00197
76.53137 501.00000 496.98203 0.00200
76.54137 537.00000 496.07731 0.00186
76.55137 486.00000 495.21831 0.00206
76.56137 525.00000 494.40360 0.00190
76.57137 515.00000 493.63172 0.00194
76.58137 523.00000 492.90115 0.00191
76.59137 492.00000 492.21038 0.00203
76.60137 524.00000 491.55792 0.00191
76.61137 556.00000 490.94243 0.00180
76.62137 539.00000 490.36295 0.00186
76.63137 499.00000 489.81997 0.00200
76.64137 536.00000 489.31356 0.00187
76.65137 559.00000 488.83016 0.00179
76.66137 530.00000 488.37084 0.00189
76.67137 510.00000 487.93614 0.00196
76.68137 495.00000 487.52579 0.00202
76.69138 506.00000 487.13834 0.00198
76.70137 517.00000 486.77348 0.00193
76.71137 485.00000 486.42873 0.00206
76.72137 506.00000 486.10314 0.00198
76.73138 518.00000 485.79516 0.00193
76.74137 512.00000 485.50451 0.00195
76.75137 512.00000 485.22916 0.00195
76.76138 526.00000 484.96808 0.00190
76.77138 532.00000 484.72081 0.00188
76.78137 499.00000 484.48636 0.00200
76.79137 502.00000 484.26338 0.00199
76.80138 535.00000 484.05109 0.00187
76.81138 517.00000 483.84915 0.00193
76.82137 530.00000 483.65682 0.00189
76.83138 523.00000 483.47287 0.00191
76.84138 519.00000 483.29725 0.00193
76.85138 479.00000 483.12922 0.00209
76.86137 481.00000 482.96842 0.00208
76.87138 514.00000 482.81389 0.00195
76.88138 520.00000 482.66566 0.00192
76.89138 482.00000 482.52318 0.00207
76.90137 549.00000 482.38621 0.00182
76.91138 486.00000 482.25401 0.00206
76.92138 530.00000 482.12667 0.00189
76.93138 512.00000 482.00377 0.00195
76.94138 493.00000 481.88506 0.00203
76.95138 537.00000 481.77029 0.00186
76.96138 514.00000 481.65926 0.00195
76.97138 525.00000 481.55176 0.00190
76.98138 520.00000 481.44761 0.00192
76.99138 524.00000 481.34665 0.00191
77.00138 528.00000 481.24873 0.00189
77.01138 522.00000 481.15370 0.00192
77.02138 542.00000 481.06145 0.00185
77.03138 502.00000 480.97186 0.00199
77.04138 516.00000 480.88481 0.00194
77.05138 502.00000 480.80021 0.00199
77.06138 515.00000 480.71798 0.00194
77.07138 501.00000 480.63802 0.00200
77.08138 477.00000 480.56026 0.00210
77.09138 478.00000 480.48463 0.00209
77.10138 503.00000 480.41106 0.00199
77.11138 475.00000 480.33949 0.00211
77.12138 505.00000 480.26987 0.00198
77.13139 504.00000 480.20206 0.00198
77.14138 536.00000 480.13623 0.00187
77.15138 462.00000 480.07212 0.00216
77.16138 508.00000 480.00975 0.00197
77.17139 517.00000 479.94902 0.00193
77.18138 503.00000 479.89001 0.00199
77.19138 507.00000 479.83247 0.00197
77.20139 496.00000 479.77629 0.00202
77.21139 490.00000 479.72146 0.00204
77.22138 496.00000 479.66780 0.00202
77.23138 527.00000 479.61491 0.00190
77.24139 509.00000 479.56242 0.00196
77.25139 494.00000 479.51054 0.00202
77.26138 539.00000 479.45839 0.00186
77.27139 507.00000 479.40350 0.00197
77.28139 494.00000 479.34183 0.00202
77.29139 476.00000 479.27773 0.00210
77.30138 487.00000 479.22792 0.00205
77.31139 501.00000 479.18669 0.00200
77.32139 537.00000 479.14813 0.00186
77.33139 533.00000 479.11090 0.00188
77.34138 535.00000 479.07499 0.00187
77.35139 538.00000 479.04026 0.00186
77.36139 499.00000 479.00681 0.00200
77.37139 504.00000 478.97460 0.00198
77.38139 500.00000 478.94361 0.00200
77.39139 489.00000 478.91383 0.00204
77.40139 455.00000 478.88525 0.00220
77.41139 484.00000 478.85786 0.00207
77.42139 481.00000 478.83166 0.00208
77.43139 494.00000 478.80663 0.00202
77.44139 487.00000 478.78277 0.00205
77.45139 538.00000 478.76008 0.00186
77.46139 524.00000 478.73854 0.00191
77.47139 529.00000 478.71817 0.00189
77.48139 479.00000 478.69894 0.00209
77.49139 483.00000 478.68087 0.00207
77.50139 477.00000 478.66394 0.00210
77.51139 467.00000 478.64817 0.00214
77.52139 458.00000 478.63354 0.00218
77.53139 476.00000 478.62007 0.00210
77.54139 488.00000 478.60775 0.00205
77.55139 480.00000 478.59660 0.00208
77.56139 487.00000 478.58662 0.00205
77.57140 489.00000 478.57780 0.00204
77.58139 516.00000 478.57018 0.00194
77.59139 506.00000 478.56375 0.00198
77.60139 536.00000 478.55853 0.00187
77.61140 505.00000 478.55453 0.00198
77.62139 504.00000 478.55177 0.00198
77.63139 512.00000 478.55027 0.00195
77.64140 484.00000 478.55005 0.00207
77.65140 484.00000 478.55114 0.00207
77.66139 491.00000 478.55356 0.00204
77.67139 510.00000 478.55734 0.00196
77.68140 519.00000 478.56253 0.00193
77.69140 522.00000 478.56914 0.00192
77.70139 480.00000 478.57722 0.00208
77.71140 472.00000 478.58684 0.00212
77.72140 514.00000 478.59802 0.00195
77.73140 506.00000 478.61083 0.00198
77.74139 501.00000 478.62530 0.00200
77.75140 510.00000 478.64154 0.00196
77.76140 513.00000 478.65959 0.00195
77.77140 505.00000 478.67952 0.00198
77.78139 490.00000 478.70139 0.00204
77.79140 472.00000 478.72537 0.00212
77.80140 509.00000 478.75147 0.00196
77.81140 490.00000 478.77980 0.00204
77.82140 490.00000 478.81048 0.00204
77.83140 496.00000 478.84360 0.00202
77.84140 508.00000 478.87929 0.00197
77.85140 505.00000 478.91766 0.00198
77.86140 503.00000 478.95883 0.00199
77.87140 477.00000 479.00294 0.00210
77.88140 492.00000 479.05011 0.00203
77.89140 508.00000 479.10047 0.00197
77.90140 530.00000 479.15418 0.00189
77.91140 524.00000 479.21136 0.00191
77.92140 536.00000 479.27217 0.00187
77.93140 502.00000 479.33673 0.00199
77.94140 506.00000 479.40520 0.00198
77.95140 511.00000 479.47771 0.00196
77.96140 475.00000 479.55440 0.00211
77.97141 489.00000 479.63549 0.00204
77.98140 513.00000 479.72084 0.00195
77.99140 516.00000 479.81084 0.00194
78.00140 471.00000 479.90550 0.00212
78.01141 493.00000 480.00503 0.00203
78.02140 489.00000 480.10921 0.00204
78.03140 486.00000 480.21842 0.00206
78.04140 477.00000 480.33263 0.00210
78.05141 512.00000 480.45198 0.00195
78.06140 492.00000 480.57615 0.00203
78.07140 506.00000 480.70552 0.00198
78.08141 493.00000 480.84016 0.00203
78.09141 497.00000 480.97987 0.00201
78.10140 466.00000 481.12474 0.00215
78.11140 458.00000 481.27523 0.00218
78.12141 479.00000 481.43168 0.00209
78.13141 488.00000 481.59452 0.00205
78.14140 467.00000 481.76630 0.00214
78.15141 510.00000 481.95223 0.00196
78.16141 487.00000 482.13946 0.00205
78.17141 457.00000 482.32078 0.00219
78.18140 466.00000 482.49803 0.00215
78.19141 489.00000 482.67502 0.00204
78.20141 530.00000 482.85776 0.00189
78.21141 553.00000 483.04602 0.00181
78.22141 491.00000 483.23809 0.00204
78.23141 499.00000 483.42936 0.00200
78.24141 502.00000 483.62007 0.00199
78.25141 524.00000 483.81043 0.00191
78.26141 544.00000 484.00034 0.00184
78.27141 497.00000 484.18929 0.00201
78.28141 502.00000 484.37628 0.00199
78.29141 487.00000 484.56077 0.00205
78.30141 482.00000 484.74221 0.00207
78.31141 482.00000 484.92004 0.00207
78.32141 546.00000 485.09374 0.00183
78.33141 522.00000 485.26283 0.00192
78.34141 510.00000 485.42694 0.00196
78.35141 538.00000 485.58579 0.00186
78.36141 513.00000 485.73923 0.00195
78.37141 519.00000 485.88727 0.00193
78.38141 494.00000 486.03006 0.00202
78.39141 502.00000 486.16792 0.00199
78.40141 515.00000 486.30134 0.00194
78.41142 511.00000 486.43110 0.00196
78.42141 527.00000 486.55759 0.00190
78.43141 483.00000 486.68216 0.00207
78.44141 496.00000 486.80575 0.00202
78.45142 490.00000 486.92968 0.00204
78.46141 473.00000 487.05483 0.00211
78.47141 527.00000 487.18296 0.00190
78.48141 470.00000 487.31536 0.00213
78.49142 485.00000 487.45364 0.00206
78.50141 526.00000 487.59889 0.00190
78.51141 486.00000 487.75306 0.00206
78.52142 497.00000 487.91777 0.00201
78.53142 533.00000 488.09426 0.00188
78.54141 553.00000 488.28409 0.00181
78.55141 491.00000 488.48927 0.00204
78.56142 512.00000 488.71147 0.00195
78.57142 506.00000 488.95186 0.00198
78.58141 512.00000 489.21196 0.00195
78.59142 449.00000 489.49413 0.00223
78.60142 548.00000 489.79906 0.00182
78.61142 521.00000 490.12933 0.00192
78.62141 507.00000 490.48600 0.00197
78.63142 455.00000 490.87147 0.00220
78.64142 508.00000 491.28583 0.00197
78.65142 503.00000 491.73018 0.00199
78.66142 492.00000 492.20262 0.00203
78.67142 513.00000 492.70106 0.00195
78.68142 519.00000 493.24820 0.00193
78.69142 514.00000 493.84469 0.00195
78.70142 521.00000 494.48639 0.00192
78.71142 494.00000 495.17209 0.00202
78.72142 501.00000 495.90369 0.00200
78.73142 530.00000 496.68293 0.00189
78.74142 504.00000 497.51163 0.00198
78.75142 534.00000 498.39160 0.00187
78.76142 502.00000 499.32460 0.00199
78.77142 505.00000 500.31232 0.00198
78.78142 528.00000 501.35640 0.00189
78.79142 506.00000 502.45839 0.00198
78.80142 551.00000 503.61972 0.00181
78.81142 543.00000 504.84177 0.00184
78.82142 475.00000 506.12573 0.00211
78.83142 506.00000 507.47271 0.00198
78.84142 523.00000 508.88363 0.00191
78.85143 516.00000 510.36079 0.00194
78.86142 513.00000 511.90018 0.00195
78.87142 509.00000 513.50676 0.00196
78.88142 506.00000 515.17915 0.00198
78.89143 442.00000 516.91904 0.00226
78.90142 518.00000 518.72074 0.00193
78.91142 510.00000 520.58897 0.00196
78.92142 473.00000 522.52100 0.00211
78.93143 488.00000 524.51765 0.00205
78.94142 509.00000 526.57116 0.00196
78.95142 529.00000 528.68573 0.00189
78.96143 497.00000 530.85916 0.00201
78.97143 524.00000 533.08435 0.00191
78.98142 529.00000 535.35795 0.00189
78.99142 497.00000 537.68097 0.00201
79.00143 493.00000 540.04946 0.00203
79.01143 529.00000 542.45416 0.00189
79.02142 506.00000 544.88998 0.00198
79.03143 499.00000 547.35886 0.00200
79.04143 495.00000 549.84750 0.00202
79.05143 546.00000 552.35196 0.00183
79.06142 546.00000 554.86286 0.00183
79.07143 578.00000 557.38045 0.00173
79.08143 523.00000 559.88939 0.00191
79.09143 490.00000 562.38400 0.00204
79.10143 516.00000 564.85562 0.00194
79.11143 564.00000 567.29513 0.00177
79.12143 531.00000 569.69297 0.00188
79.13143 524.00000 572.03895 0.00191
79.14143 514.00000 574.32168 0.00195
79.15143 521.00000 576.52970 0.00192
79.16143 500.00000 578.65999 0.00200
79.17143 534.00000 580.70047 0.00187
79.18143 587.00000 582.63828 0.00170
79.19143 531.00000 584.46218 0.00188
79.20143 579.00000 586.16190 0.00173
79.21143 509.00000 587.72770 0.00196
79.22143 519.00000 589.15062 0.00193
79.23143 553.00000 590.42263 0.00181
79.24143 513.00000 591.53692 0.00195
79.25143 490.00000 592.48804 0.00204
79.26143 542.00000 593.27215 0.00185
79.27143 552.00000 593.88715 0.00181
79.28143 507.00000 594.33277 0.00197
79.29144 512.00000 594.61074 0.00195
79.30143 543.00000 594.72412 0.00184
79.31143 525.00000 594.67862 0.00190
79.32143 529.00000 594.48106 0.00189
79.33144 529.00000 594.13945 0.00189
79.34143 539.00000 593.66489 0.00186
79.35143 550.00000 593.06684 0.00182
79.36143 511.00000 592.35734 0.00196
79.37144 508.00000 591.54766 0.00197
79.38143 563.00000 590.65285 0.00178
79.39143 528.00000 589.68273 0.00189
79.40144 504.00000 588.64938 0.00198
79.41144 527.00000 587.56683 0.00190
79.42143 544.00000 586.44658 0.00184
79.43143 535.00000 585.29707 0.00187
79.44144 549.00000 584.12820 0.00182
79.45144 554.00000 582.95142 0.00181
79.46143 534.00000 581.77494 0.00187
79.47144 546.00000 580.60252 0.00183
79.48144 566.00000 579.44400 0.00177
79.49144 555.00000 578.30359 0.00180
79.50143 529.00000 577.18683 0.00189
79.51144 506.00000 576.09394 0.00198
79.52144 574.00000 575.03087 0.00174
79.53144 561.00000 573.99829 0.00178
79.54144 507.00000 572.99715 0.00197
79.55144 521.00000 572.02763 0.00192
79.56144 490.00000 571.08919 0.00204
79.57144 481.00000 570.18057 0.00208
79.58144 511.00000 569.29992 0.00196
79.59144 478.00000 568.44479 0.00209
79.60144 536.00000 567.61224 0.00187
79.61144 516.00000 566.79887 0.00194
79.62144 520.00000 566.00093 0.00192
79.63144 549.00000 565.21436 0.00182
79.64144 527.00000 564.43490 0.00190
79.65144 541.00000 563.65816 0.00185
79.66144 536.00000 562.87971 0.00187
79.67144 519.00000 562.09516 0.00193
79.68144 507.00000 561.30024 0.00197
79.69144 494.00000 560.49092 0.00202
79.70144 500.00000 559.66344 0.00200
79.71144 517.00000 558.81441 0.00193
79.72144 549.00000 557.94085 0.00182
79.73145 520.00000 557.03935 0.00192
79.74144 532.00000 556.11067 0.00188
79.75144 517.00000 555.15061 0.00193
79.76144 480.00000 554.15920 0.00208
79.77145 482.00000 553.13505 0.00207
79.78144 516.00000 552.08149 0.00194
79.79144 509.00000 550.99609 0.00196
79.80145 509.00000 549.87997 0.00196
79.81145 522.00000 548.73700 0.00192
79.82144 499.00000 547.56930 0.00200
79.83144 534.00000 546.37688 0.00187
79.84145 523.00000 545.16234 0.00191
79.85145 532.00000 543.93099 0.00188
79.86144 552.00000 542.68594 0.00181
79.87144 503.00000 541.42784 0.00199
79.88145 536.00000 540.15993 0.00187
79.89145 496.00000 538.88798 0.00202
79.90144 509.00000 537.61526 0.00196
79.91145 490.00000 536.34112 0.00204
79.92145 475.00000 535.07246 0.00211
79.93145 511.00000 533.81099 0.00196
79.94144 507.00000 532.56077 0.00197
79.95145 533.00000 531.32073 0.00188
79.96145 507.00000 530.09709 0.00197
79.97145 495.00000 528.89090 0.00202
79.98145 521.00000 527.70426 0.00192
79.99145 504.00000 526.53905 0.00198
80.00145 550.00000 525.39697 0.00182
80.01145 503.00000 524.27948 0.00199
80.02145 501.00000 523.18786 0.00200
80.03145 506.00000 522.12315 0.00198
80.04145 538.00000 521.08621 0.00186
80.05145 521.00000 520.07768 0.00192
80.06145 510.00000 519.09800 0.00196
80.07145 503.00000 518.14742 0.00199
80.08145 520.00000 517.22600 0.00192
80.09145 529.00000 516.33359 0.00189
80.10145 481.00000 515.46988 0.00208
80.11145 543.00000 514.63435 0.00184
80.12145 550.00000 513.82630 0.00182
80.13145 513.00000 513.04487 0.00195
80.14145 495.00000 512.28901 0.00202
80.15145 527.00000 511.55752 0.00190
80.16145 489.00000 510.84902 0.00204
80.17146 500.00000 510.16133 0.00200
80.18145 496.00000 509.49476 0.00202
80.19145 487.00000 508.84544 0.00205
80.20145 494.00000 508.21172 0.00202
80.21146 480.00000 507.59080 0.00208
80.22145 524.00000 506.98650 0.00191
80.23145 494.00000 506.39352 0.00202
80.24146 540.00000 505.80732 0.00185
80.25146 512.00000 505.22726 0.00195
80.26145 537.00000 504.65198 0.00186
80.27145 514.00000 504.07889 0.00195
80.28146 485.00000 503.50656 0.00206
80.29146 484.00000 502.93477 0.00207
80.30145 477.00000 502.36248 0.00210
80.31145 512.00000 501.78777 0.00195
80.32146 504.00000 501.21013 0.00198
80.33146 507.00000 500.63045 0.00197
80.34145 497.00000 500.04880 0.00201
80.35146 522.00000 499.46378 0.00192
80.36146 462.00000 498.87763 0.00216
80.37146 475.00000 498.29053 0.00211
80.38145 519.00000 497.70394 0.00193
80.39146 484.00000 497.11717 0.00207
80.40146 475.00000 496.53305 0.00211
80.41146 483.00000 495.95215 0.00207
80.42146 473.00000 495.37564 0.00211
80.43146 487.00000 494.80466 0.00205
80.44146 502.00000 494.24034 0.00199
80.45146 507.00000 493.68372 0.00197
80.46146 479.00000 493.13578 0.00209
80.47146 485.00000 492.59743 0.00206
80.48146 513.00000 492.06948 0.00195
80.49146 489.00000 491.55264 0.00204
80.50146 512.00000 491.04756 0.00195
80.51146 465.00000 490.55475 0.00215
80.52146 496.00000 490.07467 0.00202
80.53146 500.00000 489.60767 0.00200
80.54146 506.00000 489.15403 0.00198
80.55146 500.00000 488.71393 0.00200
80.56146 469.00000 488.28750 0.00213
80.57146 455.00000 487.87476 0.00220
80.58146 485.00000 487.47570 0.00206
80.59146 480.00000 487.09019 0.00208
80.60146 495.00000 486.71809 0.00202
80.61147 521.00000 486.35881 0.00192
80.62146 492.00000 486.01313 0.00203
80.63146 475.00000 485.67966 0.00211
80.64146 476.00000 485.35836 0.00210
80.65147 529.00000 485.04850 0.00189
80.66146 522.00000 484.75052 0.00192
80.67146 464.00000 484.46299 0.00216
80.68147 483.00000 484.18541 0.00207
80.69147 489.00000 483.91777 0.00204
80.70146 486.00000 483.65945 0.00206
80.71146 499.00000 483.40933 0.00200
80.72147 544.00000 483.16682 0.00184
80.73147 493.00000 482.93179 0.00203
80.74146 514.00000 482.70361 0.00195
80.75146 500.00000 482.48119 0.00200
80.76147 487.00000 482.26397 0.00205
80.77147 462.00000 482.05181 0.00216
80.78146 520.00000 481.84413 0.00192
80.79147 534.00000 481.63978 0.00187
80.80147 483.00000 481.43890 0.00207
80.81147 523.00000 481.24081 0.00191
80.82146 489.00000 481.04529 0.00204
80.83147 484.00000 480.85138 0.00207
80.84147 514.00000 480.65932 0.00195
80.85147 503.00000 480.46863 0.00199
80.86147 465.00000 480.27908 0.00215
80.87147 462.00000 480.09047 0.00216
80.88147 468.00000 479.90269 0.00214
80.89147 511.00000 479.71574 0.00196
80.90147 465.00000 479.52981 0.00215
80.91147 518.00000 479.34423 0.00193
80.92147 479.00000 479.15849 0.00209
80.93147 468.00000 478.97284 0.00214
80.94147 472.00000 478.78749 0.00212
80.95147 467.00000 478.60256 0.00214
80.96147 471.00000 478.41813 0.00212
80.97147 460.00000 478.23430 0.00217
80.98147 499.00000 478.05113 0.00200
80.99147 459.00000 477.86874 0.00218
81.00147 449.00000 477.68722 0.00223
81.01147 479.00000 477.50668 0.00209
81.02147 487.00000 477.32725 0.00205
81.03147 493.00000 477.14902 0.00203
81.04147 489.00000 476.97212 0.00204
81.05148 483.00000 476.79647 0.00207
81.06147 461.00000 476.62272 0.00217
81.07147 482.00000 476.45044 0.00207
81.08147 485.00000 476.27991 0.00206
81.09148 486.00000 476.11105 0.00206
81.10147 509.00000 475.94446 0.00196
81.11147 503.00000 475.77973 0.00199
81.12148 505.00000 475.61695 0.00198
81.13148 453.00000 475.45651 0.00221
81.14147 487.00000 475.29850 0.00205
81.15147 499.00000 475.14266 0.00200
81.16148 465.00000 474.98907 0.00215
81.17148 466.00000 474.83812 0.00215
81.18147 470.00000 474.68985 0.00213
81.19147 466.00000 474.54404 0.00215
81.20148 483.00000 474.40075 0.00207
81.21148 471.00000 474.26035 0.00212
81.22147 491.00000 474.12288 0.00204
81.23148 473.00000 473.98802 0.00211
81.24148 471.00000 473.85623 0.00212
81.25148 496.00000 473.72746 0.00202
81.26147 492.00000 473.60191 0.00203
81.27148 465.00000 473.47928 0.00215
81.28148 505.00000 473.36004 0.00198
81.29148 475.00000 473.24416 0.00211
81.30148 494.00000 473.13173 0.00202
81.31148 456.00000 473.02286 0.00219
81.32148 500.00000 472.91767 0.00200
81.33148 540.00000 472.81627 0.00185
81.34148 530.00000 472.71881 0.00189
81.35148 483.00000 472.62540 0.00207
81.36148 493.00000 472.53622 0.00203
81.37148 490.00000 472.45140 0.00204
81.38148 510.00000 472.37113 0.00196
81.39148 476.00000 472.29557 0.00210
81.40148 464.00000 472.22492 0.00216
81.41148 496.00000 472.15936 0.00202
81.42148 470.00000 472.09911 0.00213
81.43148 502.00000 472.04439 0.00199
81.44148 490.00000 471.99544 0.00204
81.45148 468.00000 471.95249 0.00214
81.46148 430.00000 471.91583 0.00233
81.47148 488.00000 471.88585 0.00205
81.48148 468.00000 471.86299 0.00214
81.49149 438.00000 471.84668 0.00228
81.50148 463.00000 471.83734 0.00216
81.51148 490.00000 471.83543 0.00204
81.52148 474.00000 471.84143 0.00211
81.53149 479.00000 471.85590 0.00209
81.54148 473.00000 471.87943 0.00211
81.55148 501.00000 471.91334 0.00200
81.56149 482.00000 471.96083 0.00207
81.57149 479.00000 472.02405 0.00209
81.58148 532.00000 472.08760 0.00188
81.59148 501.00000 472.15578 0.00200
81.60149 519.00000 472.23117 0.00193
81.61149 500.00000 472.31508 0.00200
81.62148 493.00000 472.40827 0.00203
81.63148 483.00000 472.51107 0.00207
81.64149 499.00000 472.62356 0.00200
81.65149 438.00000 472.74554 0.00228
81.66148 495.00000 472.87702 0.00202
81.67149 480.00000 473.01859 0.00208
81.68149 470.00000 473.17036 0.00213
81.69149 448.00000 473.33163 0.00223
81.70148 478.00000 473.49998 0.00209
81.71149 486.00000 473.67636 0.00206
81.72149 479.00000 473.86030 0.00209
81.73149 468.00000 474.05180 0.00214
81.74149 487.00000 474.25048 0.00205
81.75149 470.00000 474.45578 0.00213
81.76149 492.00000 474.66709 0.00203
81.77149 477.00000 474.88373 0.00210
81.78149 473.00000 475.10493 0.00211
81.79149 443.00000 475.32984 0.00226
81.80149 467.00000 475.55755 0.00214
81.81149 480.00000 475.78706 0.00208
81.82149 456.00000 476.01728 0.00219
81.83149 476.00000 476.24703 0.00210
81.84149 455.00000 476.47509 0.00220
81.85149 505.00000 476.70013 0.00198
81.86149 490.00000 476.92077 0.00204
81.87149 467.00000 477.13558 0.00214
81.88149 475.00000 477.34310 0.00211
81.89149 479.00000 477.54183 0.00209
81.90149 444.00000 477.73030 0.00225
81.91149 500.00000 477.90709 0.00200
81.92149 469.00000 478.07082 0.00213
81.93150 481.00000 478.22038 0.00208
81.94149 509.00000 478.35425 0.00196
81.95149 495.00000 478.47186 0.00202
81.96149 465.00000 478.57232 0.00215
81.97150 507.00000 478.65513 0.00197
81.98149 485.00000 478.71980 0.00206
81.99149 457.00000 478.76645 0.00219
82.00150 558.00000 478.79518 0.00179
82.01150 477.00000 478.80620 0.00210
82.02149 476.00000 478.79962 0.00210
82.03149 541.00000 478.77382 0.00185
82.04150 475.00000 478.72618 0.00211
82.05150 437.00000 478.67188 0.00229
82.06149 461.00000 478.61894 0.00217
82.07150 484.00000 478.56428 0.00207
82.08150 531.00000 478.50619 0.00188
82.09150 464.00000 478.44637 0.00216
82.10149 486.00000 478.38703 0.00206
82.11150 478.00000 478.33043 0.00209
82.12150 481.00000 478.27917 0.00208
82.13150 461.00000 478.23560 0.00217
82.14149 488.00000 478.20212 0.00205
82.15150 500.00000 478.18097 0.00200
82.16150 498.00000 478.17452 0.00201
82.17150 517.00000 478.18495 0.00193
82.18150 503.00000 478.21438 0.00199
82.19150 494.00000 478.26488 0.00202
82.20150 515.00000 478.33844 0.00194
82.21150 487.00000 478.43698 0.00205
82.22150 485.00000 478.56232 0.00206
82.23150 463.00000 478.71618 0.00216
82.24150 506.00000 478.90009 0.00198
82.25150 492.00000 479.11502 0.00203
82.26150 499.00000 479.36166 0.00200
82.27150 493.00000 479.64512 0.00203
82.28150 467.00000 479.96787 0.00214
82.29150 463.00000 480.33016 0.00216
82.30150 495.00000 480.73243 0.00202
82.31150 468.00000 481.17589 0.00214
82.32150 424.00000 481.66169 0.00236
82.33150 485.00000 482.19100 0.00206
82.34150 488.00000 482.76486 0.00205
82.35150 494.00000 483.38426 0.00202
82.36150 516.00000 484.05008 0.00194
82.37151 507.00000 484.76385 0.00197
82.38150 497.00000 485.52401 0.00201
82.39150 494.00000 486.33341 0.00202
82.40150 515.00000 487.19179 0.00194
82.41151 512.00000 488.10049 0.00195
82.42150 484.00000 489.05695 0.00207
82.43150 485.00000 490.06425 0.00206
82.44151 489.00000 491.12276 0.00204
82.45151 461.00000 492.23118 0.00217
82.46150 472.00000 493.39062 0.00212
82.47150 490.00000 494.59602 0.00204
82.48151 539.00000 495.84839 0.00186
82.49151 548.00000 497.14531 0.00182
82.50150 509.00000 498.48617 0.00196
82.51151 525.00000 499.87411 0.00190
82.52151 488.00000 501.30369 0.00205
82.53151 479.00000 502.77510 0.00209
82.54150 490.00000 504.28453 0.00204
82.55151 526.00000 505.83210 0.00190
82.56151 481.00000 507.41140 0.00208
82.57151 483.00000 509.02160 0.00207
82.58150 504.00000 510.65822 0.00198
82.59151 520.00000 512.32301 0.00192
82.60151 485.00000 514.00737 0.00206
82.61151 492.00000 515.70902 0.00203
82.62151 512.00000 517.42375 0.00195
82.63151 510.00000 519.14701 0.00196
82.64151 492.00000 520.87397 0.00203
82.65151 519.00000 522.59950 0.00193
82.66151 472.00000 524.31814 0.00212
82.67151 496.00000 526.02420 0.00202
82.68151 518.00000 527.71180 0.00193
82.69151 478.00000 529.37551 0.00209
82.70151 493.00000 531.01128 0.00203
82.71151 492.00000 532.60937 0.00203
82.72151 489.00000 534.15170 0.00204
82.73151 509.00000 535.63357 0.00196
82.74151 482.00000 537.04867 0.00207
82.75151 517.00000 538.38954 0.00193
82.76151 483.00000 539.64787 0.00207
82.77151 467.00000 540.81485 0.00214
82.78151 481.00000 541.88172 0.00208
82.79151 465.00000 542.83991 0.00215
82.80151 518.00000 543.68118 0.00193
82.81152 514.00000 544.39836 0.00195
82.82151 491.00000 544.98245 0.00204
82.83151 537.00000 545.42895 0.00186
82.84151 514.00000 545.73177 0.00195
82.85152 496.00000 545.88660 0.00202
82.86151 519.00000 545.89010 0.00193
82.87151 476.00000 545.74044 0.00210
82.88152 473.00000 545.43657 0.00211
82.89152 457.00000 544.97990 0.00219
82.90151 480.00000 544.37298 0.00208
82.91151 505.00000 543.61792 0.00198
82.92152 515.00000 542.71889 0.00194
82.93152 492.00000 541.68350 0.00203
82.94151 468.00000 540.51886 0.00214
82.95152 494.00000 539.22875 0.00202
82.96152 475.00000 537.82519 0.00211
82.97152 496.00000 536.31565 0.00202
82.98151 526.00000 534.71085 0.00190
82.99152 509.00000 533.01486 0.00196
83.00152 516.00000 531.24148 0.00194
83.01152 491.00000 529.39616 0.00204
83.02151 492.00000 527.48662 0.00203
83.03152 484.00000 525.52593 0.00207
83.04152 438.00000 523.53664 0.00228
83.05152 494.00000 521.52043 0.00202
83.06152 505.00000 519.48129 0.00198
83.07152 498.00000 517.42590 0.00201
83.08152 496.00000 515.36107 0.00202
83.09152 454.00000 513.29329 0.00220
83.10152 463.00000 511.22851 0.00216
83.11152 485.00000 509.17219 0.00206
83.12152 443.00000 507.12932 0.00226
83.13152 490.00000 505.10442 0.00204
83.14152 467.00000 503.10156 0.00214
83.15152 477.00000 501.12441 0.00210
83.16152 444.00000 499.17623 0.00225
83.17152 484.00000 497.25993 0.00207
83.18152 470.00000 495.37811 0.00213
83.19152 467.00000 493.53305 0.00214
83.20152 478.00000 491.72677 0.00209
83.21152 470.00000 489.96109 0.00213
83.22152 461.00000 488.23790 0.00217
83.23152 467.00000 486.55942 0.00214
83.24152 450.00000 484.92558 0.00222
83.25153 485.00000 483.33211 0.00206
83.26152 467.00000 481.78532 0.00214
83.27152 486.00000 480.28159 0.00206
83.28152 475.00000 478.82305 0.00211
83.29153 538.00000 477.40857 0.00186
83.30152 511.00000 476.04221 0.00196
83.31152 465.00000 474.71959 0.00215
83.32153 429.00000 473.44051 0.00233
83.33153 453.00000 472.20704 0.00221
83.34152 455.00000 471.01858 0.00220
83.35152 465.00000 469.87220 0.00215
83.36153 507.00000 468.76745 0.00197
83.37153 475.00000 467.70595 0.00211
83.38152 469.00000 466.68708 0.00213
83.39153 441.00000 465.70780 0.00227
83.40153 459.00000 464.77267 0.00218
83.41153 506.00000 463.88126 0.00198
83.42152 464.00000 463.02098 0.00216
83.43153 475.00000 462.19165 0.00211
83.44153 452.00000 461.39667 0.00221
83.45153 503.00000 460.63539 0.00199
83.46152 472.00000 459.90801 0.00212
83.47153 449.00000 459.21146 0.00223
83.48153 475.00000 458.54686 0.00211
83.49153 456.00000 457.91256 0.00219
83.50153 481.00000 457.30760 0.00208
83.51153 449.00000 456.73107 0.00223
83.52153 469.00000 456.18208 0.00213
83.53153 461.00000 455.65980 0.00217
83.54153 458.00000 455.16339 0.00218
83.55153 496.00000 454.69204 0.00202
83.56153 472.00000 454.24500 0.00212
83.57153 458.00000 453.82154 0.00218
83.58153 440.00000 453.42097 0.00227
83.59153 474.00000 453.04265 0.00211
83.60153 460.00000 452.68595 0.00217
83.61153 493.00000 452.35029 0.00203
83.62153 446.00000 452.03513 0.00224
83.63153 481.00000 451.73997 0.00208
83.64153 435.00000 451.46431 0.00230
83.65154 444.00000 451.20747 0.00225
83.66153 443.00000 450.96976 0.00226
83.67153 440.00000 450.75003 0.00227
83.68153 480.00000 450.54817 0.00208
83.69154 447.00000 450.36365 0.00224
83.70153 473.00000 450.19663 0.00211
83.71153 411.00000 450.04627 0.00243
83.72153 475.00000 449.91238 0.00211
83.73154 468.00000 449.79456 0.00214
83.74153 465.00000 449.69295 0.00215
83.75153 478.00000 449.60690 0.00209
83.76154 457.00000 449.53609 0.00219
83.77154 463.00000 449.48034 0.00216
83.78153 452.00000 449.43924 0.00221
83.79153 461.00000 449.41239 0.00217
83.80154 453.00000 449.39944 0.00221
83.81154 486.00000 449.40003 0.00206
83.82153 469.00000 449.41367 0.00213
83.83154 496.00000 449.43999 0.00202
83.84154 467.00000 449.47841 0.00214
83.85154 506.00000 449.52842 0.00198
83.86153 496.00000 449.58934 0.00202
83.87154 466.00000 449.66073 0.00215
83.88154 460.00000 449.74169 0.00217
83.89154 452.00000 449.83149 0.00221
83.90154 456.00000 449.92926 0.00219
83.91154 487.00000 450.03398 0.00205
83.92154 470.00000 450.14421 0.00213
83.93154 439.00000 450.25835 0.00228
83.94154 431.00000 450.37812 0.00232
83.95154 488.00000 450.50223 0.00205
83.96154 439.00000 450.62869 0.00228
83.97154 446.00000 450.75566 0.00224
83.98154 439.00000 450.88175 0.00228
83.99154 467.00000 451.00543 0.00214
84.00154 471.00000 451.12511 0.00212
84.01154 439.00000 451.23917 0.00228
84.02154 480.00000 451.34590 0.00208
84.03154 469.00000 451.44359 0.00213
84.04154 471.00000 451.53048 0.00212
84.05154 440.00000 451.60482 0.00227
84.06154 438.00000 451.66491 0.00228
84.07154 424.00000 451.70908 0.00236
84.08154 447.00000 451.73578 0.00224
84.09155 460.00000 451.74355 0.00217
84.10154 481.00000 451.73114 0.00208
84.11154 437.00000 451.69740 0.00229
84.12154 467.00000 451.64148 0.00214
84.13155 476.00000 451.56267 0.00210
84.14154 442.00000 451.46083 0.00226
84.15154 466.00000 451.33548 0.00215
84.16154 443.00000 451.18678 0.00226
84.17155 480.00000 451.01474 0.00208
84.18154 466.00000 450.82023 0.00215
84.19154 444.00000 450.60380 0.00225
84.20155 474.00000 450.36763 0.00211
84.21155 492.00000 450.11291 0.00203
84.22154 447.00000 449.84053 0.00224
84.23154 484.00000 449.55110 0.00207
84.24155 471.00000 449.24597 0.00212
84.25155 453.00000 448.92715 0.00221
84.26154 478.00000 448.59608 0.00209
84.27155 490.00000 448.25310 0.00204
84.28155 475.00000 447.90054 0.00211
84.29155 455.00000 447.53933 0.00220
84.30154 451.00000 447.17104 0.00222
84.31155 463.00000 446.79565 0.00216
84.32155 453.00000 446.41534 0.00221
84.33155 448.00000 446.03069 0.00223
84.34155 445.00000 445.64259 0.00225
84.35155 450.00000 445.25186 0.00222
84.36155 482.00000 444.85925 0.00207
84.37155 447.00000 444.46545 0.00224
84.38155 466.00000 444.07110 0.00215
84.39155 469.00000 443.67678 0.00213
84.40155 480.00000 443.28303 0.00208
84.41155 426.00000 442.89037 0.00235
84.42155 450.00000 442.49926 0.00222
84.43155 475.00000 442.11015 0.00211
84.44155 472.00000 441.72345 0.00212
84.45155 444.00000 441.33957 0.00225
84.46155 462.00000 440.95888 0.00216
84.47155 450.00000 440.58175 0.00222
84.48155 461.00000 440.20856 0.00217
84.49155 481.00000 439.83971 0.00208
84.50155 454.00000 439.47562 0.00220
84.51155 462.00000 439.11675 0.00216
84.52155 442.00000 438.76375 0.00226
84.53156 458.00000 438.41778 0.00218
84.54155 463.00000 438.08254 0.00216
84.55155 437.00000 437.75058 0.00229
84.56155 416.00000 437.42083 0.00240
84.57156 445.00000 437.09497 0.00225
84.58155 457.00000 436.77512 0.00219
84.59155 441.00000 436.46101 0.00227
84.60155 475.00000 436.15319 0.00211
84.61156 458.00000 435.85141 0.00218
84.62155 447.00000 435.55662 0.00224
84.63155 470.00000 435.26792 0.00213
84.64156 469.00000 434.98533 0.00213
84.65156 484.00000 434.70938 0.00207
84.66155 437.00000 434.44002 0.00229
84.67155 429.00000 434.17666 0.00233
84.68156 432.00000 433.91923 0.00231
84.69156 454.00000 433.66818 0.00220
84.70155 462.00000 433.42339 0.00216
84.71156 433.00000 433.18404 0.00231
84.72156 433.00000 432.95075 0.00231
84.73156 445.00000 432.72316 0.00225
84.74155 455.00000 432.50138 0.00220
84.75156 440.00000 432.28463 0.00227
84.76156 460.00000 432.07345 0.00217
84.77156 474.00000 431.86750 0.00211
84.78156 477.00000 431.66667 0.00210
84.79156 453.00000 431.47083 0.00221
84.80156 482.00000 431.27987 0.00207
84.81156 454.00000 431.09368 0.00220
84.82156 427.00000 430.91215 0.00234
84.83156 445.00000 430.73518 0.00225
84.84156 479.00000 430.56266 0.00209
84.85156 461.00000 430.39450 0.00217
84.86156 487.00000 430.23061 0.00205
84.87156 450.00000 430.07090 0.00222
84.88156 437.00000 429.91529 0.00229
84.89156 457.00000 429.76371 0.00219
84.90156 438.00000 429.61608 0.00228
84.91156 459.00000 429.47233 0.00218
84.92156 463.00000 429.33242 0.00216
84.93156 435.00000 429.19627 0.00230
84.94156 447.00000 429.06384 0.00224
84.95156 436.00000 428.93508 0.00229
84.96156 436.00000 428.80996 0.00229
84.97157 399.00000 428.68831 0.00251
84.98156 457.00000 428.57045 0.00219
84.99156 432.00000 428.45601 0.00231
85.00156 457.00000 428.34508 0.00219
85.01157 473.00000 428.23753 0.00211
85.02156 432.00000 428.13367 0.00231
85.03156 462.00000 428.03316 0.00216
85.04156 456.00000 427.93612 0.00219
85.05157 448.00000 427.84243 0.00223
85.06156 441.00000 427.75239 0.00227
85.07156 464.00000 427.66572 0.00216
85.08157 451.00000 427.58245 0.00222
85.09157 453.00000 427.50275 0.00221
85.10156 428.00000 427.42666 0.00234
85.11156 424.00000 427.35404 0.00236
85.12157 431.00000 427.28497 0.00232
85.13157 440.00000 427.21964 0.00227
85.14156 466.00000 427.15813 0.00215
85.15157 450.00000 427.10048 0.00222
85.16157 453.00000 427.04721 0.00221
85.17157 423.00000 426.99767 0.00236
85.18156 418.00000 426.95152 0.00239
85.19157 427.00000 426.90895 0.00234
85.20157 462.00000 426.87033 0.00216
85.21157 468.00000 426.83578 0.00214
85.22157 433.00000 426.80545 0.00231
85.23157 484.00000 426.77942 0.00207
85.24157 466.00000 426.75782 0.00215
85.25157 458.00000 426.74076 0.00218
85.26157 449.00000 426.72836 0.00223
85.27157 473.00000 426.72077 0.00211
85.28157 456.00000 426.71812 0.00219
85.29157 456.00000 426.72056 0.00219
85.30157 457.00000 426.72826 0.00219
85.31157 504.00000 426.74140 0.00198
85.32157 419.00000 426.76014 0.00239
85.33157 440.00000 426.78468 0.00227
85.34157 430.00000 426.81523 0.00233
85.35157 440.00000 426.85199 0.00227
85.36157 443.00000 426.89519 0.00226
85.37157 480.00000 426.94506 0.00208
85.38157 447.00000 427.00187 0.00224
85.39157 473.00000 427.06594 0.00211
85.40157 448.00000 427.13766 0.00223
85.41158 437.00000 427.21761 0.00229
85.42157 420.00000 427.30618 0.00238
85.43157 454.00000 427.40476 0.00220
85.44157 445.00000 427.51593 0.00225
85.45158 426.00000 427.64160 0.00235
85.46157 418.00000 427.77002 0.00239
85.47157 432.00000 427.90441 0.00231
85.48158 466.00000 428.04698 0.00215
85.49158 417.00000 428.19865 0.00240
85.50157 432.00000 428.36041 0.00231
85.51157 470.00000 428.53290 0.00213
85.52158 431.00000 428.71595 0.00232
85.53158 480.00000 428.90892 0.00208
85.54157 429.00000 429.11543 0.00233
85.55157 425.00000 429.33573 0.00235
85.56158 440.00000 429.56951 0.00227
85.57158 442.00000 429.81627 0.00226
85.58157 440.00000 430.07626 0.00227
85.59158 416.00000 430.35064 0.00240
85.60158 456.00000 430.63896 0.00219
85.61158 442.00000 430.94183 0.00226
85.62157 446.00000 431.25923 0.00224
85.63158 423.00000 431.59249 0.00236
85.64158 433.00000 431.94091 0.00231
85.65158 437.00000 432.30510 0.00229
85.66158 485.00000 432.68533 0.00206
85.67158 450.00000 433.08184 0.00222
85.68158 480.00000 433.49484 0.00208
85.69158 443.00000 433.92453 0.00226
85.70158 468.00000 434.37107 0.00214
85.71158 462.00000 434.83458 0.00216
85.72158 445.00000 435.31516 0.00225
85.73158 462.00000 435.81286 0.00216
85.74158 442.00000 436.32770 0.00226
85.75158 454.00000 436.85966 0.00220
85.76158 409.00000 437.40865 0.00244
85.77158 473.00000 437.97455 0.00211
85.78158 437.00000 438.55718 0.00229
85.79158 446.00000 439.15629 0.00224
85.80158 461.00000 439.77159 0.00217
85.81158 449.00000 440.40271 0.00223
85.82158 449.00000 441.04918 0.00223
85.83158 446.00000 441.71048 0.00224
85.84158 462.00000 442.38600 0.00216
85.85159 438.00000 443.07569 0.00228
85.86158 468.00000 443.77656 0.00214
85.87158 451.00000 444.48934 0.00222
85.88158 454.00000 445.21192 0.00220
85.89159 468.00000 445.94696 0.00214
85.90158 454.00000 446.69056 0.00220
85.91158 447.00000 447.44294 0.00224
85.92159 434.00000 448.20244 0.00230
85.93159 441.00000 448.96604 0.00227
85.94158 427.00000 449.73211 0.00234
85.95158 427.00000 450.50044 0.00234
85.96159 448.00000 451.26912 0.00223
85.97159 433.00000 452.03453 0.00231
85.98158 429.00000 452.79441 0.00233
85.99158 460.00000 453.54788 0.00217
86.00159 415.00000 454.29229 0.00241
86.01159 454.00000 455.02306 0.00220
86.02158 448.00000 455.73574 0.00223
86.03159 403.00000 456.42482 0.00248
86.04159 477.00000 457.08789 0.00210
86.05159 457.00000 457.74824 0.00219
86.06158 456.00000 458.39883 0.00219
86.07159 470.00000 459.02868 0.00213
86.08159 462.00000 459.63011 0.00216
86.09159 440.00000 460.20274 0.00227
86.10159 444.00000 460.74568 0.00225
86.11159 451.00000 461.25794 0.00222
86.12159 479.00000 461.73848 0.00209
86.13159 439.00000 462.18642 0.00228
86.14159 463.00000 462.60112 0.00216
86.15159 473.00000 462.98224 0.00211
86.16159 455.00000 463.32974 0.00220
86.17159 438.00000 463.64391 0.00228
86.18159 437.00000 463.92533 0.00229
86.19159 455.00000 464.17492 0.00220
86.20159 490.00000 464.39395 0.00204
86.21159 441.00000 464.58395 0.00227
86.22159 461.00000 464.74678 0.00217
86.23159 429.00000 464.88460 0.00233
86.24159 443.00000 464.99979 0.00226
86.25159 417.00000 465.09500 0.00240
86.26159 424.00000 465.17308 0.00236
86.27159 459.00000 465.23702 0.00218
86.28159 466.00000 465.29000 0.00215
86.29160 453.00000 465.33528 0.00221
86.30159 473.00000 465.37611 0.00211
86.31159 455.00000 465.41591 0.00220
86.32159 472.00000 465.45801 0.00212
86.33160 471.00000 465.50575 0.00212
86.34159 478.00000 465.56226 0.00209
86.35159 457.00000 465.63079 0.00219
86.36160 456.00000 465.71444 0.00219
86.37160 486.00000 465.81594 0.00206
86.38159 476.00000 465.93795 0.00210
86.39159 449.00000 466.08328 0.00223
86.40160 483.00000 466.25436 0.00207
86.41160 457.00000 466.45305 0.00219
86.42159 478.00000 466.68122 0.00209
86.43159 454.00000 466.94109 0.00220
86.44160 464.00000 467.23429 0.00216
86.45160 430.00000 467.56157 0.00233
86.46159 436.00000 467.92392 0.00229
86.47160 441.00000 468.32336 0.00227
86.48160 431.00000 468.75940 0.00232
86.49160 452.00000 469.23284 0.00221
86.50159 463.00000 469.74333 0.00216
86.51160 449.00000 470.29244 0.00223
86.52160 436.00000 470.87828 0.00229
86.53160 488.00000 471.50089 0.00205
86.54160 468.00000 472.15952 0.00214
86.55160 466.00000 472.85316 0.00215
86.56160 448.00000 473.58060 0.00223
86.57160 458.00000 474.34034 0.00218
86.58160 490.00000 475.13067 0.00204
86.59160 475.00000 475.94961 0.00211
86.60160 469.00000 476.79492 0.00213
86.61160 450.00000 477.66410 0.00222
86.62160 450.00000 478.55442 0.00222
86.63160 463.00000 479.46296 0.00216
86.64160 435.00000 480.38664 0.00230
86.65160 468.00000 481.32202 0.00214
86.66160 475.00000 482.26465 0.00211
86.67160 452.00000 483.21081 0.00221
86.68160 459.00000 484.15651 0.00218
86.69160 458.00000 485.09750 0.00218
86.70160 461.00000 486.02938 0.00217
86.71160 496.00000 486.94756 0.00202
86.72160 460.00000 487.84733 0.00217
86.73161 457.00000 488.72478 0.00219
86.74160 457.00000 489.57242 0.00219
86.75160 454.00000 490.38799 0.00220
86.76160 454.00000 491.16572 0.00220
86.77161 432.00000 491.90147 0.00231
86.78160 461.00000 492.58824 0.00217
86.79160 436.00000 493.22346 0.00229
86.80161 469.00000 493.80234 0.00213
86.81161 485.00000 494.31922 0.00206
86.82160 468.00000 494.76999 0.00214
86.83160 464.00000 495.15153 0.00216
86.84161 441.00000 495.45983 0.00227
86.85161 443.00000 495.69075 0.00226
86.86160 429.00000 495.84143 0.00233
86.87160 441.00000 495.90946 0.00227
86.88161 423.00000 495.89226 0.00236
86.89161 490.00000 495.78793 0.00204
86.90160 442.00000 495.59599 0.00226
86.91161 499.00000 495.31571 0.00200
86.92161 502.00000 494.94757 0.00199
86.93161 451.00000 494.49181 0.00222
86.94160 479.00000 493.95018 0.00209
86.95161 479.00000 493.32285 0.00209
86.96161 477.00000 492.61400 0.00210
86.97161 488.00000 491.82608 0.00205
86.98161 495.00000 490.96261 0.00202
86.99161 417.00000 490.02758 0.00240
87.00161 467.00000 489.02536 0.00214
87.01161 474.00000 487.96065 0.00211
87.02161 445.00000 486.83840 0.00225
87.03161 480.00000 485.66375 0.00208
87.04161 444.00000 484.44196 0.00225
87.05161 420.00000 483.17835 0.00238
87.06161 440.00000 481.87822 0.00227
87.07161 488.00000 480.54680 0.00205
87.08161 444.00000 479.18922 0.00225
87.09161 433.00000 477.81045 0.00231
87.10161 425.00000 476.41526 0.00235
87.11161 481.00000 475.00823 0.00208
87.12161 432.00000 473.59367 0.00231
87.13161 437.00000 472.17564 0.00229
87.14161 451.00000 470.75796 0.00222
87.15161 475.00000 469.34415 0.00211
87.16161 435.00000 467.93749 0.00230
87.17162 404.00000 466.53959 0.00248
87.18161 459.00000 465.15735 0.00218
87.19161 450.00000 463.78911 0.00222
87.20161 452.00000 462.43849 0.00221
87.21162 472.00000 461.10621 0.00212
87.22161 461.00000 459.79802 0.00217
87.23161 452.00000 458.51156 0.00221
87.24162 461.00000 457.24831 0.00217
87.25162 479.00000 456.01202 0.00209
87.26161 463.00000 454.80367 0.00216
87.27161 456.00000 453.62173 0.00219
87.28162 465.00000 452.46705 0.00215
87.29162 465.00000 451.34256 0.00215
87.30161 419.00000 450.24866 0.00239
87.31161 428.00000 449.18354 0.00234
87.32162 429.00000 448.14758 0.00233
87.33162 437.00000 447.14301 0.00229
87.34161 450.00000 446.16984 0.00222
87.35162 479.00000 445.22519 0.00209
87.36162 451.00000 444.31187 0.00222
87.37162 447.00000 443.42877 0.00224
87.38161 446.00000 442.57654 0.00224
87.39162 449.00000 441.75239 0.00223
87.40162 407.00000 440.95852 0.00246
87.41162 431.00000 440.19371 0.00232
87.42162 448.00000 439.45754 0.00223
87.43162 415.00000 438.74953 0.00241
87.44162 438.00000 438.06917 0.00228
87.45162 435.00000 437.41589 0.00230
87.46162 453.00000 436.78906 0.00221
87.47162 454.00000 436.18788 0.00220
87.48162 441.00000 435.61116 0.00227
87.49162 462.00000 435.05779 0.00216
87.50162 450.00000 434.53059 0.00222
87.51162 430.00000 434.02827 0.00233
87.52162 454.00000 433.54945 0.00220
87.53162 458.00000 433.09310 0.00218
87.54162 439.00000 432.65853 0.00228
87.55162 426.00000 432.24512 0.00235
87.56162 467.00000 431.85238 0.00214
87.57162 457.00000 431.48000 0.00219
87.58162 444.00000 431.12707 0.00225
87.59162 427.00000 430.79176 0.00234
87.60162 443.00000 430.47380 0.00226
87.61163 434.00000 430.17248 0.00230
87.62162 435.00000 429.88821 0.00230
87.63162 408.00000 429.61956 0.00245
87.64162 425.00000 429.36624 0.00235
87.65163 422.00000 429.12743 0.00237
87.66162 440.00000 428.90326 0.00227
87.67162 427.00000 428.69247 0.00234
87.68163 417.00000 428.49458 0.00240
87.69163 462.00000 428.30946 0.00216
87.70162 450.00000 428.13659 0.00222
87.71162 434.00000 427.97515 0.00230
87.72163 418.00000 427.82476 0.00239
87.73163 446.00000 427.68533 0.00224
87.74162 498.00000 427.55658 0.00201
87.75163 453.00000 427.43809 0.00221
87.76163 446.00000 427.32933 0.00224
87.77163 468.00000 427.22888 0.00214
87.78162 441.00000 427.13680 0.00227
87.79163 414.00000 427.05273 0.00242
87.80163 452.00000 426.97676 0.00221
87.81163 475.00000 426.90856 0.00211
87.82162 458.00000 426.84793 0.00218
87.83163 418.00000 426.79447 0.00239
87.84163 455.00000 426.74811 0.00220
87.85163 444.00000 426.70859 0.00225
87.86163 441.00000 426.67574 0.00227
87.87163 452.00000 426.64945 0.00221
87.88163 419.00000 426.62964 0.00239
87.89163 406.00000 426.61633 0.00246
87.90163 425.00000 426.60963 0.00235
87.91163 448.00000 426.60994 0.00223
87.92163 400.00000 426.61856 0.00250
87.93163 411.00000 426.63633 0.00243
87.94163 422.00000 426.65654 0.00237
87.95163 452.00000 426.68057 0.00221
87.96163 454.00000 426.70957 0.00220
87.97163 437.00000 426.74415 0.00229
87.98163 432.00000 426.78483 0.00231
87.99163 451.00000 426.83177 0.00222
88.00163 438.00000 426.88512 0.00228
88.01163 457.00000 426.94502 0.00219
88.02163 445.00000 427.01166 0.00225
88.03163 417.00000 427.08523 0.00240
88.04163 422.00000 427.16597 0.00237
88.05164 435.00000 427.25421 0.00230
88.06163 434.00000 427.34994 0.00230
88.07163 462.00000 427.45375 0.00216
88.08163 458.00000 427.56587 0.00218
88.09164 450.00000 427.68676 0.00222
88.10163 429.00000 427.81642 0.00233
88.11163 451.00000 427.95561 0.00222
88.12164 411.00000 428.10479 0.00243
88.13164 422.00000 428.26410 0.00237
88.14163 453.00000 428.43398 0.00221
88.15163 424.00000 428.61526 0.00236
88.16164 434.00000 428.80854 0.00230
88.17164 469.00000 429.01402 0.00213
88.18163 442.00000 429.23194 0.00226
88.19164 442.00000 429.46354 0.00226
88.20164 428.00000 429.70875 0.00234
88.21164 423.00000 429.96841 0.00236
88.22163 433.00000 430.24288 0.00231
88.23164 448.00000 430.53363 0.00223
88.24164 450.00000 430.84042 0.00222
88.25164 417.00000 431.16419 0.00240
88.26163 447.00000 431.50519 0.00224
88.27164 433.00000 431.86514 0.00231
88.28164 447.00000 432.24362 0.00224
88.29164 444.00000 432.64160 0.00225
88.30164 432.00000 433.05972 0.00231
88.31164 441.00000 433.49858 0.00227
88.32164 451.00000 433.95880 0.00222
88.33164 408.00000 434.44095 0.00245
88.34164 454.00000 434.94559 0.00220
88.35164 444.00000 435.47326 0.00225
88.36164 452.00000 436.02446 0.00221
88.37164 444.00000 436.59965 0.00225
88.38164 433.00000 437.19925 0.00231
88.39164 424.00000 437.82363 0.00236
88.40164 458.00000 438.47312 0.00218
88.41164 469.00000 439.14797 0.00213
88.42164 475.00000 439.84836 0.00211
88.43164 422.00000 440.57442 0.00237
88.44164 455.00000 441.32617 0.00220
88.45164 429.00000 442.10355 0.00233
88.46164 458.00000 442.90641 0.00218
88.47164 449.00000 443.73448 0.00223
88.48164 426.00000 444.58737 0.00235
88.49165 445.00000 445.46548 0.00225
88.50164 459.00000 446.36549 0.00218
88.51164 476.00000 447.28932 0.00210
88.52164 436.00000 448.23516 0.00229
88.53165 457.00000 449.20294 0.00219
88.54164 536.00000 450.18854 0.00187
88.55164 475.00000 451.19374 0.00211
88.56165 444.00000 452.21731 0.00225
88.57165 464.00000 453.25411 0.00216
88.58164 470.00000 454.30239 0.00213
88.59164 469.00000 455.36238 0.00213
88.60165 493.00000 456.43198 0.00203
88.61165 468.00000 457.50678 0.00214
88.62164 510.00000 458.58429 0.00196
88.63165 484.00000 459.66516 0.00207
88.64165 448.00000 460.74349 0.00223
88.65165 469.00000 461.81764 0.00213
88.66164 511.00000 462.88382 0.00196
88.67165 496.00000 463.94246 0.00202
88.68165 432.00000 464.98771 0.00231
88.69165 523.00000 466.01797 0.00191
88.70164 501.00000 467.02970 0.00200
88.71165 499.00000 468.02341 0.00200
88.72165 470.00000 468.99376 0.00213
88.73165 475.00000 469.93949 0.00211
88.74165 484.00000 470.85846 0.00207
88.75165 507.00000 471.74861 0.00197
88.76165 486.00000 472.60796 0.00206
88.77165 473.00000 473.43457 0.00211
88.78165 487.00000 474.22657 0.00205
88.79165 469.00000 474.98204 0.00213
88.80165 485.00000 475.69907 0.00206
88.81165 504.00000 476.37572 0.00198
88.82165 476.00000 477.00998 0.00210
88.83165 498.00000 477.59980 0.00201
88.84165 485.00000 478.14307 0.00206
88.85165 495.00000 478.63765 0.00202
88.86165 499.00000 479.08142 0.00200
88.87165 511.00000 479.47229 0.00196
88.88165 467.00000 479.80827 0.00214
88.89165 519.00000 480.08752 0.00193
88.90165 518.00000 480.30843 0.00193
88.91165 478.00000 480.46969 0.00209
88.92165 469.00000 480.57034 0.00213
88.93166 442.00000 480.60987 0.00226
88.94165 477.00000 480.58825 0.00210
88.95165 482.00000 480.50601 0.00207
88.96165 474.00000 480.36422 0.00211
88.97166 503.00000 480.16433 0.00199
88.98165 502.00000 479.90933 0.00199
88.99165 484.00000 479.60135 0.00207
89.00166 461.00000 479.24364 0.00217
89.01166 531.00000 478.84079 0.00188
89.02165 477.00000 478.39727 0.00210
89.03165 506.00000 477.91684 0.00198
89.04166 506.00000 477.40439 0.00198
89.05166 504.00000 476.86612 0.00198
89.06165 489.00000 476.30742 0.00204
89.07166 499.00000 475.73191 0.00200
89.08166 497.00000 475.14661 0.00201
89.09166 470.00000 474.55614 0.00213
89.10165 497.00000 473.96612 0.00201
89.11166 467.00000 473.37955 0.00214
89.12166 483.00000 472.80247 0.00207
89.13166 489.00000 472.23793 0.00204
89.14165 505.00000 471.68998 0.00198
89.15166 468.00000 471.15840 0.00214
89.16166 489.00000 470.65126 0.00204
89.17166 434.00000 470.18415 0.00230
89.18166 486.00000 469.75640 0.00206
89.19166 465.00000 469.36726 0.00215
89.20166 456.00000 469.01772 0.00219
89.21166 485.00000 468.70993 0.00206
89.22166 489.00000 468.44602 0.00204
89.23166 550.00000 468.22791 0.00182
89.24166 495.00000 468.05728 0.00202
89.25166 474.00000 467.93553 0.00211
89.26166 447.00000 467.86246 0.00224
89.27166 494.00000 467.83877 0.00202
89.28166 479.00000 467.86515 0.00209
89.29166 459.00000 467.94188 0.00218
89.30166 461.00000 468.06894 0.00217
89.31166 457.00000 468.24598 0.00219
89.32166 472.00000 468.47237 0.00212
89.33167 521.00000 468.74752 0.00192
89.34166 487.00000 469.06933 0.00205
89.35166 488.00000 469.43734 0.00205
89.36166 447.00000 469.84954 0.00224
89.37167 446.00000 470.30451 0.00224
89.38166 467.00000 470.79861 0.00214
89.39166 462.00000 471.33086 0.00216
89.40166 509.00000 471.89810 0.00196
89.41167 475.00000 472.49802 0.00211
89.42166 504.00000 473.12560 0.00198
89.43166 484.00000 473.77931 0.00207
89.44167 445.00000 474.45565 0.00225
89.45167 446.00000 475.14956 0.00224
89.46166 483.00000 475.85646 0.00207
89.47166 435.00000 476.57307 0.00230
89.48167 463.00000 477.29500 0.00216
89.49167 481.00000 478.01614 0.00208
89.50166 446.00000 478.73163 0.00224
89.51167 476.00000 479.43853 0.00210
89.52167 453.00000 480.12953 0.00221
89.53167 453.00000 480.80000 0.00221
89.54166 512.00000 481.44396 0.00195
89.55167 454.00000 482.05787 0.00220
89.56167 478.00000 482.63453 0.00209
89.57167 450.00000 483.16930 0.00222
89.58167 495.00000 483.65704 0.00202
89.59167 482.00000 484.09288 0.00207
89.60167 519.00000 484.47219 0.00193
89.61167 468.00000 484.79070 0.00214
89.62167 470.00000 485.04456 0.00213
89.63167 518.00000 485.23042 0.00193
89.64167 493.00000 485.34544 0.00203
89.65167 477.00000 485.38739 0.00210
89.66167 435.00000 485.35464 0.00230
89.67167 458.00000 485.24623 0.00218
89.68167 486.00000 485.06184 0.00206
89.69167 458.00000 484.80180 0.00218
89.70167 457.00000 484.46709 0.00219
89.71167 450.00000 484.05923 0.00222
89.72167 450.00000 483.58034 0.00222
89.73167 467.00000 483.03298 0.00214
89.74167 484.00000 482.42016 0.00207
89.75167 478.00000 481.74524 0.00209
89.76167 473.00000 481.01185 0.00211
89.77168 429.00000 480.22303 0.00233
89.78167 455.00000 479.38530 0.00220
89.79167 470.00000 478.50029 0.00213
89.80167 461.00000 477.57302 0.00217
89.81168 469.00000 476.60669 0.00213
89.82167 492.00000 475.60846 0.00203
89.83167 458.00000 474.57946 0.00218
89.84167 458.00000 473.52474 0.00218
89.85168 457.00000 472.44716 0.00219
89.86167 465.00000 471.35385 0.00215
89.87167 462.00000 470.24529 0.00216
89.88168 438.00000 469.12506 0.00228
89.89168 475.00000 467.99888 0.00211
89.90167 465.00000 466.87010 0.00215
89.91167 462.00000 465.73966 0.00216
89.92168 452.00000 464.61062 0.00221
89.93168 452.00000 463.48814 0.00221
89.94167 462.00000 462.37492 0.00216
89.95168 486.00000 461.27023 0.00206
89.96168 477.00000 460.17982 0.00210
89.97168 426.00000 459.10483 0.00235
89.98167 421.00000 458.04838 0.00238
89.99168 443.00000 457.00926 0.00226
90.00168 483.00000 455.99234 0.00207
90.01168 486.00000 454.99814 0.00206
90.02168 467.00000 454.02808 0.00214
90.03168 449.00000 453.08339 0.00223
90.04168 413.00000 452.16510 0.00242
90.05168 445.00000 451.27400 0.00225
90.06168 477.00000 450.41034 0.00210
90.07168 418.00000 449.57508 0.00239
90.08168 453.00000 448.77283 0.00221
90.09168 426.00000 448.00184 0.00235
90.10168 453.00000 447.26271 0.00221
90.11168 449.00000 446.55658 0.00223
90.12168 484.00000 445.87997 0.00207
90.13168 453.00000 445.23320 0.00221
90.14168 480.00000 444.61707 0.00208
90.15168 450.00000 444.03198 0.00222
90.16168 442.00000 443.47825 0.00226
90.17168 444.00000 442.95624 0.00225
90.18168 475.00000 442.46624 0.00211
90.19168 468.00000 442.00584 0.00214
90.20168 445.00000 441.57516 0.00225
90.21169 486.00000 441.17380 0.00206
90.22168 451.00000 440.80244 0.00222
90.23168 459.00000 440.45935 0.00218
90.24168 425.00000 440.14624 0.00235
90.25169 419.00000 439.86287 0.00239
90.26168 453.00000 439.60929 0.00221
90.27168 451.00000 439.38411 0.00222
90.28168 470.00000 439.18720 0.00213
90.29169 451.00000 439.01813 0.00222
90.30168 425.00000 438.87708 0.00235
90.31168 417.00000 438.76336 0.00240
90.32169 437.00000 438.67680 0.00229
90.33169 448.00000 438.61735 0.00223
90.34168 416.00000 438.58470 0.00240
90.35168 457.00000 438.57859 0.00219
90.36169 477.00000 438.59890 0.00210
90.37169 413.00000 438.64537 0.00242
90.38168 453.00000 438.71775 0.00221
90.39169 445.00000 438.81607 0.00225
90.40169 384.00000 438.93990 0.00260
90.41169 469.00000 439.08910 0.00213
90.42168 448.00000 439.26327 0.00223
90.43169 421.00000 439.46273 0.00238
90.44169 456.00000 439.68668 0.00219
90.45169 436.00000 439.93501 0.00229
90.46169 420.00000 440.20743 0.00238
90.47169 445.00000 440.50361 0.00225
90.48169 433.00000 440.82316 0.00231
90.49169 426.00000 441.16569 0.00235
90.50169 466.00000 441.53073 0.00215
90.51169 433.00000 441.91777 0.00231
90.52169 461.00000 442.32623 0.00217
90.53169 438.00000 442.75539 0.00228
90.54169 445.00000 443.20442 0.00225
90.55169 412.00000 443.67235 0.00243
90.56169 440.00000 444.15804 0.00227
90.57169 419.00000 444.66004 0.00239
90.58169 440.00000 445.17639 0.00227
90.59169 450.00000 445.70349 0.00222
90.60169 432.00000 446.23453 0.00231
90.61169 448.00000 446.77134 0.00223
90.62169 473.00000 447.33529 0.00211
90.63169 413.00000 447.91869 0.00242
90.64169 448.00000 448.51441 0.00223
90.65170 458.00000 449.11840 0.00218
90.66169 445.00000 449.72643 0.00225
90.67169 431.00000 450.33838 0.00232
90.68169 471.00000 450.95156 0.00212
90.69170 469.00000 451.56445 0.00213
90.70169 449.00000 452.17289 0.00223
90.71169 426.00000 452.77639 0.00235
90.72169 453.00000 453.37188 0.00221
90.73170 454.00000 453.95743 0.00220
90.74169 448.00000 454.52875 0.00223
90.75169 400.00000 455.08504 0.00250
90.76170 442.00000 455.62373 0.00226
90.77170 415.00000 456.14127 0.00241
90.78169 454.00000 456.63537 0.00220
90.79169 426.00000 457.10485 0.00235
90.80170 426.00000 457.54762 0.00235
90.81170 441.00000 457.96102 0.00227
90.82169 441.00000 458.34365 0.00227
90.83170 456.00000 458.69550 0.00219
90.84170 474.00000 459.01460 0.00211
90.85170 469.00000 459.30092 0.00213
90.86169 456.00000 459.55415 0.00219
90.87170 476.00000 459.77539 0.00210
90.88170 482.00000 459.96463 0.00207
90.89170 464.00000 460.12320 0.00216
90.90170 454.00000 460.25257 0.00220
90.91170 448.00000 460.35449 0.00223
90.92170 458.00000 460.43099 0.00218
90.93170 436.00000 460.48431 0.00229
90.94170 470.00000 460.51690 0.00213
90.95170 477.00000 460.53131 0.00210
90.96170 498.00000 460.53017 0.00201
90.97170 463.00000 460.51618 0.00216
90.98170 443.00000 460.49199 0.00226
90.99170 437.00000 460.46023 0.00229
91.00170 460.00000 460.42345 0.00217
91.01170 398.00000 460.38409 0.00251
91.02170 437.00000 460.34445 0.00229
91.03170 442.00000 460.30670 0.00226
91.04170 431.00000 460.27285 0.00232
91.05170 427.00000 460.24472 0.00234
91.06170 451.00000 460.22401 0.00222
91.07170 433.00000 460.21223 0.00231
91.08170 453.00000 460.21091 0.00221
91.09171 481.00000 460.22148 0.00208
91.10170 441.00000 460.24365 0.00227
91.11170 450.00000 460.27851 0.00222
91.12170 449.00000 460.32595 0.00223
91.13171 453.00000 460.38564 0.00221
91.14170 444.00000 460.45778 0.00225
91.15170 448.00000 460.54256 0.00223
91.16171 437.00000 460.63971 0.00229
91.17171 461.00000 460.74844 0.00217
91.18170 476.00000 460.86787 0.00210
91.19170 424.00000 460.99717 0.00236
91.20171 455.00000 461.13508 0.00220
91.21171 446.00000 461.27980 0.00224
91.22170 439.00000 461.42953 0.00228
91.23170 451.00000 461.58244 0.00222
91.24171 459.00000 461.73715 0.00218
91.25171 439.00000 461.89162 0.00228
91.26170 429.00000 462.04326 0.00233
91.27171 427.00000 462.18986 0.00234
91.28171 473.00000 462.32831 0.00211
91.29171 441.00000 462.45607 0.00227
91.30170 454.00000 462.57029 0.00220
91.31171 425.00000 462.66848 0.00235
91.32171 489.00000 462.74757 0.00204
91.33171 438.00000 462.80488 0.00228
91.34171 420.00000 462.83771 0.00238
91.35171 466.00000 462.84345 0.00215
91.36171 422.00000 462.81960 0.00237
91.37171 424.00000 462.76384 0.00236
91.38171 419.00000 462.67405 0.00239
91.39171 442.00000 462.54833 0.00226
91.40171 448.00000 462.38502 0.00223
91.41171 415.00000 462.18275 0.00241
91.42171 444.00000 461.94046 0.00225
91.43171 436.00000 461.65738 0.00229
91.44171 424.00000 461.33307 0.00236
91.45171 451.00000 460.96742 0.00222
91.46171 431.00000 460.56063 0.00232
91.47171 482.00000 460.11323 0.00207
91.48171 442.00000 459.62602 0.00226
91.49171 448.00000 459.10012 0.00223
91.50171 452.00000 458.53687 0.00221
91.51171 473.00000 457.93786 0.00211
91.52171 433.00000 457.30491 0.00231
91.53172 453.00000 456.63927 0.00221
91.54171 437.00000 455.94516 0.00229
91.55171 467.00000 455.22272 0.00214
91.56171 442.00000 454.47496 0.00226
91.57172 442.00000 453.70346 0.00226
91.58171 445.00000 452.91301 0.00225
91.59171 456.00000 452.10362 0.00219
91.60172 448.00000 451.27764 0.00223
91.61172 421.00000 450.43909 0.00238
91.62171 458.00000 449.59030 0.00218
91.63171 412.00000 448.73180 0.00243
91.64172 419.00000 447.86571 0.00239
91.65172 431.00000 446.99586 0.00232
91.66171 450.00000 446.12421 0.00222
91.67171 420.00000 445.25092 0.00238
91.68172 422.00000 444.37775 0.00237
91.69172 451.00000 443.50814 0.00222
91.70171 411.00000 442.64366 0.00243
91.71172 451.00000 441.78323 0.00222
91.72172 438.00000 440.93081 0.00228
91.73172 446.00000 440.08684 0.00224
91.74171 427.00000 439.25338 0.00234
91.75172 420.00000 438.42907 0.00238
91.76172 433.00000 437.61745 0.00231
91.77172 457.00000 436.81865 0.00219
91.78172 447.00000 436.03357 0.00224
91.79172 424.00000 435.26305 0.00236
91.80172 438.00000 434.50782 0.00228
91.81172 432.00000 433.76844 0.00231
91.82172 414.00000 433.04533 0.00242
91.83172 410.00000 432.33974 0.00244
91.84172 402.00000 431.65285 0.00249
91.85172 418.00000 430.98492 0.00239
91.86172 430.00000 430.33623 0.00233
91.87172 436.00000 429.70713 0.00229
91.88172 439.00000 429.09806 0.00228
91.89172 457.00000 428.50941 0.00219
91.90172 434.00000 427.94156 0.00230
91.91172 369.00000 427.39486 0.00271
91.92172 436.00000 426.86961 0.00229
91.93172 412.00000 426.36611 0.00243
91.94172 426.00000 425.88460 0.00235
91.95172 410.00000 425.42533 0.00244
91.96172 447.00000 424.98850 0.00224
91.97173 395.00000 424.57389 0.00253
91.98172 435.00000 424.18285 0.00230
91.99172 410.00000 423.81431 0.00244
92.00172 434.00000 423.46877 0.00230
92.01173 442.00000 423.14598 0.00226
92.02172 444.00000 422.84692 0.00225
92.03172 446.00000 422.57065 0.00224
92.04173 453.00000 422.31728 0.00221
92.05173 422.00000 422.08729 0.00237
92.06172 445.00000 421.88050 0.00225
92.07172 423.00000 421.69641 0.00236
92.08173 443.00000 421.53492 0.00226
92.09173 436.00000 421.39618 0.00229
92.10172 433.00000 421.27993 0.00231
92.11172 417.00000 421.18567 0.00240
92.12173 467.00000 421.11319 0.00214
92.13173 440.00000 421.06230 0.00227
92.14172 416.00000 421.03258 0.00240
92.15173 427.00000 421.02357 0.00234
92.16173 405.00000 421.03485 0.00247
92.17173 425.00000 421.06593 0.00235
92.18172 446.00000 421.11618 0.00224
92.19173 441.00000 421.18520 0.00227
92.20173 424.00000 421.27216 0.00236
92.21173 410.00000 421.37642 0.00244
92.22173 439.00000 421.49724 0.00228
92.23173 432.00000 421.63380 0.00231
92.24173 433.00000 421.78523 0.00231
92.25173 502.00000 421.95061 0.00199
92.26173 408.00000 422.12895 0.00245
92.27173 406.00000 422.31917 0.00246
92.28173 463.00000 422.52017 0.00216
92.29173 435.00000 422.73074 0.00230
92.30173 402.00000 422.94961 0.00249
92.31173 443.00000 423.17545 0.00226
92.32173 426.00000 423.40685 0.00235
92.33173 426.00000 423.64232 0.00235
92.34173 427.00000 423.88031 0.00234
92.35173 450.00000 424.11922 0.00222
92.36173 394.00000 424.35736 0.00254
92.37173 419.00000 424.59302 0.00239
92.38173 425.00000 424.82442 0.00235
92.39173 451.00000 425.04979 0.00222
92.40173 437.00000 425.26732 0.00229
92.41174 437.00000 425.47543 0.00229
92.42173 419.00000 425.67174 0.00239
92.43173 446.00000 425.85517 0.00224
92.44173 388.00000 426.02389 0.00258
92.45174 415.00000 426.17655 0.00241
92.46173 431.00000 426.31134 0.00232
92.47173 465.00000 426.42751 0.00215
92.48174 408.00000 426.52405 0.00245
92.49174 421.00000 426.60000 0.00238
92.50173 454.00000 426.65513 0.00220
92.51173 442.00000 426.68960 0.00226
92.52174 434.00000 426.70214 0.00230
92.53174 424.00000 426.69251 0.00236
92.54173 407.00000 426.66152 0.00246
92.55173 437.00000 426.60996 0.00229
92.56174 450.00000 426.53881 0.00222
92.57174 449.00000 426.44940 0.00223
92.58173 418.00000 426.34317 0.00239
92.59174 458.00000 426.22152 0.00218
92.60174 414.00000 426.08659 0.00242
92.61174 416.00000 425.93845 0.00240
92.62173 408.00000 425.77925 0.00245
92.63174 411.00000 425.61051 0.00243
92.64174 436.00000 425.43459 0.00229
92.65174 404.00000 425.25317 0.00248
92.66174 412.00000 425.06804 0.00243
92.67174 414.00000 424.88087 0.00242
92.68174 433.00000 424.69328 0.00231
92.69174 413.00000 424.50681 0.00242
92.70174 427.00000 424.32291 0.00234
92.71174 414.00000 424.14295 0.00242
92.72174 437.00000 423.96818 0.00229
92.73174 427.00000 423.79974 0.00234
92.74174 456.00000 423.63868 0.00219
92.75174 445.00000 423.48592 0.00225
92.76174 417.00000 423.34229 0.00240
92.77174 416.00000 423.20848 0.00240
92.78174 386.00000 423.08508 0.00259
92.79174 437.00000 422.97257 0.00229
92.80174 421.00000 422.87130 0.00238
92.81174 414.00000 422.78154 0.00242
92.82174 410.00000 422.70342 0.00244
92.83174 406.00000 422.63695 0.00246
92.84174 387.00000 422.58208 0.00258
92.85175 429.00000 422.53855 0.00233
92.86174 416.00000 422.50621 0.00240
92.87174 406.00000 422.48452 0.00246
92.88174 446.00000 422.47304 0.00224
92.89175 412.00000 422.47117 0.00243
92.90174 420.00000 422.47823 0.00238
92.91174 416.00000 422.49345 0.00240
92.92175 464.00000 422.51599 0.00216
92.93175 475.00000 422.54491 0.00211
92.94174 421.00000 422.57920 0.00238
92.95174 394.00000 422.61789 0.00254
92.96175 462.00000 422.65990 0.00216
92.97175 419.00000 422.70403 0.00239
92.98174 423.00000 422.74915 0.00236
92.99174 442.00000 422.79419 0.00226
93.00175 432.00000 422.83799 0.00231
93.01175 387.00000 422.87934 0.00258
93.02174 385.00000 422.91714 0.00260
93.03175 401.00000 422.95041 0.00249
93.04175 422.00000 422.97802 0.00237
93.05175 406.00000 422.99904 0.00246
93.06174 407.00000 423.01257 0.00246
93.07175 434.00000 423.01778 0.00230
93.08175 444.00000 423.01392 0.00225
93.09175 431.00000 423.00033 0.00232
93.10175 390.00000 422.97643 0.00256
93.11175 408.00000 422.94174 0.00245
93.12175 406.00000 422.89587 0.00246
93.13175 438.00000 422.83850 0.00228
93.14175 460.00000 422.76942 0.00217
93.15175 424.00000 422.68848 0.00236
93.16175 426.00000 422.59560 0.00235
93.17175 437.00000 422.49079 0.00229
93.18175 439.00000 422.37409 0.00228
93.19175 393.00000 422.24559 0.00254
93.20175 411.00000 422.10543 0.00243
93.21175 425.00000 421.95377 0.00235
93.22175 395.00000 421.79078 0.00253
93.23175 384.00000 421.61661 0.00260
93.24175 412.00000 421.43143 0.00243
93.25175 452.00000 421.23536 0.00221
93.26175 456.00000 421.02848 0.00219
93.27175 427.00000 420.81079 0.00234
93.28175 402.00000 420.58192 0.00249
93.29176 399.00000 420.34087 0.00251
93.30175 405.00000 420.09058 0.00247
93.31175 430.00000 419.83162 0.00233
93.32175 435.00000 419.56351 0.00230
93.33176 423.00000 419.28545 0.00236
93.34175 448.00000 418.99810 0.00223
93.35175 413.00000 418.70059 0.00242
93.36176 419.00000 418.39299 0.00239
93.37176 427.00000 418.07603 0.00234
93.38175 426.00000 417.74992 0.00235
93.39175 429.00000 417.41422 0.00233
93.40176 397.00000 417.06918 0.00252
93.41176 401.00000 416.71584 0.00249
93.42175 387.00000 416.35467 0.00258
93.43176 420.00000 415.98505 0.00238
93.44176 437.00000 415.60866 0.00229
93.45176 424.00000 415.22578 0.00236
93.46175 448.00000 414.83751 0.00223
93.47176 429.00000 414.44345 0.00233
93.48176 423.00000 414.04561 0.00236
93.49176 433.00000 413.64445 0.00231
93.50175 457.00000 413.24128 0.00219
93.51176 442.00000 412.83581 0.00226
93.52176 387.00000 412.43019 0.00258
93.53176 426.00000 412.02494 0.00235
93.54176 421.00000 411.62100 0.00238
93.55176 449.00000 411.21927 0.00223
93.56176 449.00000 410.82063 0.00223
93.57176 441.00000 410.42596 0.00227
93.58176 436.00000 410.03606 0.00229
93.59176 425.00000 409.65174 0.00235
93.60176 398.00000 409.27372 0.00251
93.61176 449.00000 408.90273 0.00223
93.62176 402.00000 408.53943 0.00249
93.63176 409.00000 408.18442 0.00244
93.64176 423.00000 407.83830 0.00236
93.65176 444.00000 407.50160 0.00225
93.66176 429.00000 407.17482 0.00233
93.67176 432.00000 406.85841 0.00231
93.68176 449.00000 406.55280 0.00223
93.69176 419.00000 406.25837 0.00239
93.70176 376.00000 405.97548 0.00266
93.71176 420.00000 405.70446 0.00238
93.72176 415.00000 405.44558 0.00241
93.73177 398.00000 405.19888 0.00251
93.74176 390.00000 404.96532 0.00256
93.75176 415.00000 404.74438 0.00241
93.76176 435.00000 404.53651 0.00230
93.77177 428.00000 404.34168 0.00234
93.78176 413.00000 404.16061 0.00242
93.79176 426.00000 403.99286 0.00235
93.80177 401.00000 403.83859 0.00249
93.81177 434.00000 403.69820 0.00230
93.82176 435.00000 403.57175 0.00230
93.83176 430.00000 403.45904 0.00233
93.84177 415.00000 403.36018 0.00241
93.85177 419.00000 403.27541 0.00239
93.86176 420.00000 403.20473 0.00238
93.87177 372.00000 403.14798 0.00269
93.88177 438.00000 403.10535 0.00228
93.89177 425.00000 403.07681 0.00235
93.90176 409.00000 403.06237 0.00244
93.91177 407.00000 403.06198 0.00246
93.92177 410.00000 403.07568 0.00244
93.93177 403.00000 403.10344 0.00248
93.94176 431.00000 403.14519 0.00232
93.95177 434.00000 403.20105 0.00230
93.96177 440.00000 403.27083 0.00227
93.97177 433.00000 403.35457 0.00231
93.98177 429.00000 403.45220 0.00233
93.99177 419.00000 403.56369 0.00239
94.00177 400.00000 403.68898 0.00250
94.01177 403.00000 403.82800 0.00248
94.02177 386.00000 403.98069 0.00259
94.03177 426.00000 404.14697 0.00235
94.04177 435.00000 404.32675 0.00230
94.05177 418.00000 404.51994 0.00239
94.06177 415.00000 404.72641 0.00241
94.07177 450.00000 404.94605 0.00222
94.08177 395.00000 405.17872 0.00253
94.09177 430.00000 405.42425 0.00233
94.10177 442.00000 405.68247 0.00226
94.11177 409.00000 405.95319 0.00244
94.12177 417.00000 406.23617 0.00240
94.13177 443.00000 406.53119 0.00226
94.14177 455.00000 406.83795 0.00220
94.15177 422.00000 407.15617 0.00237
94.16177 428.00000 407.48550 0.00234
94.17178 426.00000 407.82594 0.00235
94.18177 420.00000 408.17604 0.00238
94.19177 412.00000 408.53642 0.00243
94.20177 369.00000 408.90625 0.00271
94.21178 427.00000 409.28543 0.00234
94.22177 438.00000 409.67226 0.00228
94.23177 404.00000 410.06733 0.00248
94.24178 425.00000 410.47007 0.00235
94.25178 431.00000 410.87904 0.00232
94.26177 386.00000 411.29357 0.00259
94.27177 394.00000 411.71382 0.00254
94.28178 427.00000 412.13912 0.00234
94.29178 382.00000 412.56792 0.00262
94.30177 403.00000 412.99950 0.00248
94.31178 434.00000 413.43445 0.00230
94.32178 465.00000 413.87077 0.00215
94.33178 419.00000 414.30819 0.00239
94.34177 453.00000 414.74558 0.00221
94.35178 432.00000 415.18356 0.00231
94.36178 434.00000 415.62015 0.00230
94.37178 425.00000 416.05513 0.00235
94.38177 425.00000 416.48742 0.00235
94.39178 399.00000 416.91764 0.00251
94.40178 445.00000 417.34384 0.00225
94.41178 438.00000 417.76581 0.00228
94.42178 426.00000 418.18285 0.00235
94.43178 426.00000 418.59426 0.00235
94.44178 426.00000 418.99932 0.00235
94.45178 440.00000 419.39723 0.00227
94.46178 443.00000 419.78720 0.00226
94.47178 387.00000 420.16835 0.00258
94.48178 431.00000 420.53977 0.00232
94.49178 443.00000 420.90048 0.00226
94.50178 408.00000 421.24945 0.00245
94.51178 444.00000 421.58560 0.00225
94.52178 401.00000 421.90782 0.00249
94.53178 437.00000 422.21495 0.00229
94.54178 396.00000 422.50580 0.00253
94.55178 438.00000 422.77919 0.00228
94.56178 435.00000 423.03395 0.00230
94.57178 438.00000 423.26891 0.00228
94.58178 423.00000 423.48299 0.00236
94.59178 456.00000 423.67516 0.00219
94.60178 411.00000 423.84448 0.00243
94.61179 420.00000 423.99028 0.00238
94.62178 433.00000 424.11151 0.00231
94.63178 393.00000 424.20800 0.00254
94.64178 397.00000 424.27930 0.00252
94.65179 412.00000 424.32523 0.00243
94.66178 403.00000 424.34576 0.00248
94.67178 430.00000 424.34113 0.00233
94.68179 418.00000 424.31161 0.00239
94.69179 410.00000 424.25766 0.00244
94.70178 431.00000 424.17982 0.00232
94.71178 372.00000 424.08000 0.00269
94.72179 415.00000 423.95928 0.00241
94.73179 446.00000 423.81881 0.00224
94.74178 441.00000 423.65977 0.00227
94.75179 389.00000 423.48290 0.00257
94.76179 405.00000 423.29016 0.00247
94.77179 446.00000 423.08284 0.00224
94.78178 435.00000 422.86264 0.00230
94.79179 418.00000 422.63034 0.00239
94.80179 457.00000 422.38810 0.00219
94.81179 416.00000 422.13714 0.00240
94.82178 437.00000 421.87911 0.00229
94.83179 459.00000 421.61457 0.00218
94.84179 403.00000 421.34561 0.00248
94.85179 436.00000 421.07321 0.00229
94.86179 425.00000 420.79856 0.00235
94.87179 448.00000 420.52277 0.00223
94.88179 391.00000 420.24689 0.00256
94.89179 469.00000 419.97193 0.00213
94.90179 414.00000 419.69880 0.00242
94.91179 427.00000 419.42839 0.00234
94.92179 440.00000 419.16148 0.00227
94.93179 425.00000 418.89880 0.00235
94.94179 411.00000 418.64098 0.00243
94.95179 417.00000 418.38859 0.00240
94.96179 430.00000 418.14208 0.00233
94.97179 411.00000 417.90167 0.00243
94.98179 443.00000 417.66680 0.00226
94.99179 429.00000 417.43650 0.00233
95.00179 472.00000 417.21785 0.00212
95.01180 421.00000 417.00941 0.00238
95.02179 438.00000 416.81109 0.00228
95.03179 427.00000 416.62200 0.00234
95.04179 420.00000 416.44235 0.00238
95.05180 414.00000 416.27218 0.00242
95.06179 421.00000 416.11219 0.00238
95.07179 422.00000 415.96204 0.00237
95.08179 422.00000 415.82201 0.00237
95.09180 387.00000 415.69210 0.00258
95.10179 424.00000 415.57273 0.00236
95.11179 418.00000 415.46360 0.00239
95.12180 425.00000 415.36475 0.00235
95.13180 428.00000 415.27638 0.00234
95.14179 407.00000 415.19841 0.00246
95.15179 426.00000 415.13061 0.00235
95.16180 400.00000 415.07287 0.00250
95.17180 416.00000 415.02507 0.00240
95.18179 428.00000 414.98688 0.00234
95.19180 424.00000 414.95768 0.00236
95.20180 429.00000 414.93622 0.00233
95.21180 418.00000 414.91945 0.00239
95.22179 468.00000 414.90989 0.00214
95.23180 376.00000 414.91680 0.00266
95.24180 410.00000 414.93677 0.00244
95.25180 435.00000 414.96769 0.00230
95.26180 415.00000 415.00833 0.00241
95.27180 445.00000 415.05819 0.00225
95.28180 435.00000 415.11715 0.00230
95.29180 427.00000 415.18510 0.00234
95.30180 439.00000 415.26195 0.00228
95.31180 414.00000 415.34760 0.00242
95.32180 443.00000 415.44198 0.00226
95.33180 410.00000 415.54499 0.00244
95.34180 420.00000 415.65658 0.00238
95.35180 439.00000 415.77668 0.00228
95.36180 413.00000 415.90524 0.00242
95.37180 414.00000 416.04221 0.00242
95.38180 409.00000 416.18756 0.00244
95.39180 447.00000 416.34125 0.00224
95.40180 439.00000 416.50326 0.00228
95.41180 442.00000 416.67359 0.00226
95.42180 416.00000 416.85223 0.00240
95.43180 420.00000 417.03917 0.00238
95.44180 423.00000 417.23444 0.00236
95.45181 416.00000 417.43824 0.00240
95.46180 424.00000 417.64997 0.00236
95.47180 429.00000 417.87028 0.00233
95.48180 380.00000 418.09900 0.00263
95.49181 388.00000 418.33638 0.00258
95.50180 427.00000 418.58173 0.00234
95.51180 448.00000 418.83582 0.00223
95.52180 416.00000 419.09842 0.00240
95.53181 414.00000 419.36985 0.00242
95.54180 432.00000 419.64930 0.00231
95.55180 444.00000 419.93763 0.00225
95.56181 423.00000 420.23488 0.00236
95.57181 409.00000 420.54046 0.00244
95.58180 440.00000 420.85437 0.00227
95.59180 428.00000 421.17723 0.00234
95.60181 427.00000 421.50907 0.00234
95.61181 436.00000 421.84920 0.00229
95.62180 422.00000 422.19756 0.00237
95.63181 430.00000 422.55510 0.00233
95.64181 404.00000 422.92061 0.00248
95.65181 421.00000 423.29421 0.00238
95.66180 461.00000 423.67517 0.00217
95.67181 465.00000 424.06410 0.00215
95.68181 433.00000 424.45877 0.00231
95.69181 421.00000 424.85655 0.00238
95.70181 451.00000 425.25228 0.00222
95.71181 396.00000 425.65900 0.00253
95.72181 399.00000 426.08187 0.00251
95.73181 426.00000 426.51553 0.00235
95.74181 446.00000 426.95465 0.00224
95.75181 451.00000 427.39666 0.00222
95.76181 411.00000 427.85233 0.00243
95.77181 442.00000 428.31870 0.00226
95.78181 429.00000 428.79346 0.00233
95.79181 441.00000 429.27513 0.00227
95.80181 386.00000 429.76305 0.00259
95.81181 441.00000 430.25693 0.00227
95.82181 429.00000 430.75644 0.00233
95.83181 443.00000 431.26126 0.00226
95.84181 422.00000 431.77102 0.00237
95.85181 418.00000 432.28534 0.00239
95.86181 420.00000 432.80380 0.00238
95.87181 442.00000 433.32591 0.00226
95.88181 417.00000 433.85115 0.00240
95.89182 438.00000 434.37946 0.00228
95.90181 438.00000 434.90858 0.00228
95.91181 443.00000 435.43924 0.00226
95.92181 439.00000 435.96940 0.00228
95.93182 431.00000 436.49635 0.00232
95.94181 465.00000 437.01848 0.00215
95.95181 411.00000 437.54868 0.00243
95.96181 404.00000 438.08246 0.00248
95.97182 428.00000 438.61794 0.00234
95.98181 405.00000 439.15201 0.00247
95.99181 442.00000 439.68554 0.00226
96.00182 424.00000 440.21827 0.00236
96.01182 440.00000 440.74892 0.00227
96.02181 444.00000 441.27734 0.00225
96.03181 416.00000 441.80447 0.00240
96.04182 465.00000 442.33020 0.00215
96.05182 420.00000 442.85341 0.00238
96.06181 475.00000 443.37403 0.00211
96.07182 427.00000 443.89358 0.00234
96.08182 445.00000 444.41044 0.00225
96.09182 462.00000 444.92505 0.00216
96.10181 450.00000 445.43682 0.00222
96.11182 395.00000 445.94716 0.00253
96.12182 431.00000 446.45436 0.00232
96.13182 428.00000 446.95872 0.00234
96.14182 450.00000 447.45995 0.00222
96.15182 443.00000 447.95770 0.00226
96.16182 429.00000 448.45156 0.00233
96.17182 421.00000 448.94101 0.00238
96.18182 412.00000 449.42548 0.00243
96.19182 441.00000 449.90428 0.00227
96.20182 450.00000 450.37666 0.00222
96.21182 450.00000 450.84175 0.00222
96.22182 405.00000 451.29864 0.00247
96.23182 408.00000 451.74629 0.00245
96.24182 420.00000 452.18362 0.00238
96.25182 425.00000 452.60946 0.00235
96.26182 441.00000 453.02258 0.00227
96.27182 444.00000 453.42170 0.00225
96.28182 445.00000 453.80552 0.00225
96.29182 434.00000 454.17269 0.00230
96.30182 430.00000 454.52184 0.00233
96.31182 424.00000 454.85162 0.00236
96.32182 420.00000 455.16069 0.00238
96.33183 424.00000 455.44801 0.00236
96.34182 448.00000 455.71154 0.00223
96.35182 440.00000 455.95086 0.00227
96.36182 436.00000 456.16460 0.00229
96.37183 439.00000 456.35192 0.00228
96.38182 416.00000 456.51142 0.00240
96.39182 418.00000 456.64280 0.00239
96.40182 444.00000 456.74525 0.00225
96.41183 420.00000 456.81831 0.00238
96.42182 441.00000 456.86147 0.00227
96.43182 459.00000 456.87464 0.00218
96.44183 452.00000 456.85769 0.00221
96.45183 481.00000 456.81074 0.00208
96.46182 464.00000 456.73412 0.00216
96.47182 453.00000 456.62800 0.00221
96.48183 441.00000 456.49280 0.00227
96.49183 399.00000 456.32943 0.00251
96.50182 440.00000 456.13868 0.00227
96.51183 408.00000 455.92074 0.00245
96.52183 363.00000 455.67714 0.00275
96.53183 413.00000 455.40865 0.00242
96.54182 426.00000 455.11659 0.00235
96.55183 433.00000 454.80109 0.00231
96.56183 404.00000 454.46420 0.00248
96.57183 413.00000 454.10671 0.00242
96.58183 441.00000 453.72977 0.00227
96.59183 455.00000 453.33450 0.00220
96.60183 440.00000 452.92203 0.00227
96.61183 424.00000 452.49350 0.00236
96.62183 417.00000 452.05002 0.00240
96.63183 427.00000 451.59268 0.00234
96.64183 438.00000 451.12259 0.00228
96.65183 439.00000 450.64081 0.00228
96.66183 465.00000 450.14841 0.00215
96.67183 460.00000 449.64644 0.00217
96.68183 433.00000 449.13592 0.00231
96.69183 407.00000 448.61789 0.00246
96.70183 438.00000 448.09336 0.00228
96.71183 416.00000 447.56331 0.00240
96.72183 448.00000 447.02872 0.00223
96.73183 471.00000 446.49056 0.00212
96.74183 465.00000 445.94976 0.00215
96.75183 431.00000 445.40723 0.00232
96.76183 402.00000 444.86387 0.00249
96.77184 437.00000 444.31998 0.00229
96.78183 432.00000 443.77799 0.00231
96.79183 435.00000 443.23708 0.00230
96.80183 441.00000 442.69851 0.00227
96.81184 421.00000 442.16246 0.00238
96.82183 426.00000 441.63115 0.00235
96.83183 389.00000 441.10360 0.00257
96.84184 417.00000 440.58038 0.00240
96.85184 418.00000 440.06304 0.00239
96.86183 396.00000 439.55201 0.00253
96.87183 437.00000 439.04671 0.00229
96.88184 421.00000 438.54751 0.00238
96.89184 426.00000 438.05576 0.00235
96.90183 434.00000 437.57170 0.00230
96.91183 451.00000 437.09465 0.00222
96.92184 402.00000 436.62484 0.00249
96.93184 456.00000 436.16338 0.00219
96.94183 463.00000 435.71040 0.00216
96.95184 413.00000 435.26467 0.00242
96.96184 384.00000 434.82761 0.00260
96.97184 401.00000 434.39882 0.00249
96.98183 379.00000 433.97872 0.00264
96.99184 403.00000 433.56603 0.00248
97.00184 406.00000 433.16192 0.00246
97.01184 439.00000 432.76586 0.00228
97.02184 425.00000 432.37769 0.00235
97.03184 455.00000 431.99718 0.00220
97.04184 428.00000 431.62409 0.00234
97.05184 393.00000 431.25809 0.00254
97.06184 391.00000 430.89880 0.00256
97.07184 394.00000 430.54578 0.00254
97.08184 425.00000 430.19855 0.00235
97.09184 429.00000 429.85651 0.00233
97.10184 388.00000 429.51903 0.00258
97.11184 429.00000 429.18534 0.00233
97.12184 421.00000 428.85458 0.00238
97.13184 415.00000 428.52564 0.00241
97.14184 446.00000 428.19691 0.00224
97.15184 425.00000 427.86758 0.00235
97.16184 416.00000 427.53763 0.00240
97.17184 415.00000 427.20300 0.00241
97.18184 401.00000 426.86948 0.00249
97.19184 389.00000 426.53716 0.00257
97.20184 429.00000 426.20332 0.00233
97.21185 435.00000 425.86583 0.00230
97.22184 403.00000 425.52436 0.00248
97.23184 443.00000 425.17719 0.00226
97.24184 441.00000 424.82408 0.00227
97.25185 426.00000 424.46419 0.00235
97.26184 429.00000 424.09824 0.00233
97.27184 415.00000 423.72492 0.00241
97.28185 398.00000 423.34406 0.00251
97.29185 431.00000 422.95641 0.00232
97.30184 420.00000 422.56208 0.00238
97.31184 431.00000 422.16051 0.00232
97.32185 431.00000 421.75201 0.00232
97.33185 430.00000 421.33782 0.00233
97.34184 425.00000 420.91847 0.00235
97.35184 427.00000 420.49374 0.00234
97.36185 385.00000 420.06429 0.00260
97.37185 421.00000 419.63171 0.00238
97.38184 416.00000 419.19678 0.00240
97.39185 400.00000 418.75902 0.00250
97.40185 446.00000 418.32054 0.00224
97.41185 419.00000 417.88173 0.00239
97.42184 400.00000 417.44383 0.00250
97.43185 417.00000 417.00629 0.00240
97.44185 404.00000 416.57097 0.00248
97.45185 369.00000 416.13757 0.00271
97.46185 418.00000 415.70768 0.00239
97.47185 418.00000 415.28391 0.00239
97.48185 402.00000 414.86627 0.00249
97.49185 420.00000 414.45503 0.00238
97.50185 393.00000 414.05061 0.00254
97.51185 422.00000 413.65353 0.00237
97.52185 403.00000 413.26435 0.00248
97.53185 429.00000 412.88359 0.00233
97.54185 402.00000 412.51173 0.00249
97.55185 392.00000 412.14920 0.00255
97.56185 431.00000 411.79639 0.00232
97.57185 466.00000 411.45364 0.00215
97.58185 431.00000 411.12124 0.00232
97.59185 441.00000 410.79943 0.00227
97.60185 446.00000 410.48841 0.00224
97.61185 425.00000 410.18833 0.00235
97.62185 440.00000 409.89936 0.00227
97.63185 421.00000 409.62155 0.00238
97.64185 389.00000 409.35491 0.00257
97.65186 415.00000 409.09915 0.00241
97.66185 429.00000 408.85498 0.00233
97.67185 404.00000 408.62151 0.00248
97.68185 438.00000 408.39885 0.00228
97.69186 438.00000 408.18659 0.00228
97.70185 421.00000 407.98511 0.00238
97.71185 405.00000 407.79352 0.00247
97.72186 431.00000 407.61153 0.00232
97.73186 435.00000 407.43915 0.00230
97.74185 466.00000 407.27599 0.00215
97.75185 426.00000 407.12131 0.00235
97.76186 434.00000 406.97470 0.00230
97.77186 441.00000 406.83601 0.00227
97.78185 422.00000 406.70477 0.00237
97.79185 411.00000 406.58023 0.00243
97.80186 418.00000 406.46194 0.00239
97.81186 407.00000 406.34969 0.00246
97.82185 418.00000 406.24300 0.00239
97.83186 405.00000 406.14112 0.00247
97.84186 443.00000 406.04395 0.00226
97.85186 460.00000 405.95099 0.00217
97.86185 441.00000 405.86198 0.00227
97.87186 379.00000 405.77632 0.00264
97.88186 452.00000 405.69401 0.00221
97.89186 450.00000 405.61470 0.00222
97.90186 411.00000 405.53820 0.00243
97.91186 443.00000 405.46432 0.00226
97.92186 445.00000 405.39294 0.00225
97.93186 433.00000 405.32396 0.00231
97.94186 410.00000 405.25731 0.00244
97.95186 459.00000 405.19294 0.00218
97.96186 414.00000 405.13083 0.00242
97.97186 403.00000 405.07097 0.00248
97.98186 419.00000 405.01335 0.00239
97.99186 452.00000 404.95800 0.00221
98.00186 385.00000 404.90491 0.00260
98.01186 423.00000 404.85409 0.00236
98.02186 435.00000 404.80555 0.00230
98.03186 420.00000 404.75929 0.00238
98.04186 430.00000 404.71529 0.00233
98.05186 413.00000 404.67354 0.00242
98.06186 453.00000 404.63401 0.00221
98.07186 436.00000 404.59668 0.00229
98.08186 441.00000 404.56149 0.00227
98.09187 410.00000 404.52837 0.00244
98.10186 421.00000 404.49739 0.00238
98.11186 423.00000 404.46839 0.00236
98.12186 425.00000 404.44133 0.00235
98.13187 440.00000 404.41605 0.00227
98.14186 437.00000 404.39263 0.00229
98.15186 426.00000 404.37173 0.00235
98.16187 428.00000 404.35324 0.00234
98.17187 412.00000 404.33716 0.00243
98.18186 378.00000 404.32351 0.00265
98.19186 459.00000 404.31242 0.00218
98.20187 394.00000 404.30405 0.00254
98.21187 420.00000 404.29863 0.00238
98.22186 447.00000 404.29640 0.00224
98.23186 458.00000 404.29760 0.00218
98.24187 433.00000 404.30254 0.00231
98.25187 423.00000 404.31148 0.00236
98.26186 466.00000 404.32474 0.00215
98.27187 416.00000 404.34269 0.00240
98.28187 417.00000 404.36560 0.00240
98.29187 412.00000 404.39383 0.00243
98.30186 421.00000 404.42766 0.00238
98.31187 423.00000 404.46753 0.00236
98.32187 412.00000 404.51366 0.00243
98.33187 408.00000 404.56638 0.00245
98.34187 451.00000 404.62600 0.00222
98.35187 424.00000 404.69278 0.00236
98.36187 400.00000 404.76701 0.00250
98.37187 420.00000 404.84893 0.00238
98.38187 410.00000 404.93877 0.00244
98.39187 424.00000 405.03674 0.00236
98.40187 444.00000 405.14304 0.00225
98.41187 468.00000 405.25785 0.00214
98.42187 426.00000 405.38133 0.00235
98.43187 433.00000 405.51362 0.00231
98.44187 435.00000 405.65485 0.00230
98.45187 448.00000 405.80512 0.00223
98.46187 450.00000 405.96453 0.00222
98.47187 405.00000 406.13315 0.00247
98.48187 393.00000 406.31105 0.00254
98.49187 428.00000 406.49828 0.00234
98.50187 380.00000 406.69486 0.00263
98.51187 411.00000 406.90083 0.00243
98.52187 416.00000 407.11619 0.00240
98.53188 423.00000 407.34117 0.00236
98.54187 401.00000 407.57507 0.00249
98.55187 409.00000 407.81855 0.00244
98.56187 429.00000 408.07136 0.00233
98.57188 457.00000 408.33370 0.00219
98.58187 423.00000 408.60473 0.00236
98.59187 401.00000 408.88519 0.00249
98.60188 407.00000 409.17503 0.00246
98.61188 406.00000 409.47359 0.00246
98.62187 405.00000 409.78077 0.00247
98.63187 404.00000 410.09709 0.00248
98.64188 414.00000 410.42246 0.00242
98.65188 413.00000 410.75613 0.00242
98.66187 414.00000 411.09797 0.00242
98.67188 423.00000 411.44890 0.00236
98.68188 394.00000 411.80774 0.00254
98.69188 393.00000 412.17472 0.00254
98.70187 431.00000 412.54933 0.00232
98.71188 409.00000 412.93255 0.00244
98.72188 426.00000 413.32311 0.00235
98.73188 435.00000 413.72124 0.00230
98.74187 413.00000 414.12638 0.00242
98.75188 436.00000 414.53960 0.00229
98.76188 406.00000 414.95951 0.00246
98.77188 403.00000 415.38635 0.00248
98.78188 448.00000 415.81996 0.00223
98.79188 422.00000 416.26016 0.00237
98.80188 422.00000 416.70679 0.00237
98.81188 416.00000 417.15966 0.00240
98.82188 442.00000 417.61860 0.00226
98.83188 402.00000 418.08341 0.00249
98.84188 437.00000 418.55391 0.00229
98.85188 443.00000 419.02991 0.00226
98.86188 439.00000 419.51121 0.00228
98.87188 390.00000 419.99762 0.00256
98.88188 411.00000 420.48893 0.00243
98.89188 400.00000 420.98493 0.00250
98.90188 415.00000 421.48540 0.00241
98.91188 422.00000 421.99009 0.00237
98.92188 439.00000 422.49871 0.00228
98.93188 423.00000 423.01097 0.00236
98.94188 439.00000 423.52646 0.00228
98.95188 426.00000 424.04467 0.00235
98.96188 425.00000 424.56448 0.00235
98.97189 419.00000 425.08465 0.00239
98.98188 394.00000 425.60805 0.00254
98.99188 443.00000 426.13662 0.00226
99.00188 443.00000 426.66844 0.00226
99.01189 455.00000 427.20308 0.00220
99.02188 396.00000 427.73818 0.00253
99.03188 425.00000 428.27500 0.00235
99.04189 455.00000 428.81318 0.00220
99.05189 428.00000 429.35133 0.00234
99.06188 455.00000 429.88911 0.00220
99.07188 460.00000 430.42723 0.00217
99.08189 394.00000 430.96534 0.00254
99.09189 444.00000 431.50197 0.00225
99.10188 421.00000 432.03673 0.00238
99.11189 410.00000 432.57082 0.00244
99.12189 443.00000 433.10222 0.00226
99.13189 410.00000 433.63101 0.00244
99.14188 442.00000 434.15622 0.00226
99.15189 410.00000 434.67893 0.00244
99.16189 442.00000 435.19709 0.00226
99.17189 444.00000 435.71071 0.00225
99.18188 409.00000 436.21875 0.00244
99.19189 430.00000 436.72218 0.00233
99.20189 405.00000 437.21890 0.00247
99.21189 407.00000 437.70882 0.00246
99.22189 390.00000 438.19129 0.00256
99.23189 395.00000 438.66567 0.00253
99.24189 430.00000 439.13122 0.00233
99.25189 421.00000 439.58711 0.00238
99.26189 409.00000 440.03229 0.00244
99.27189 392.00000 440.46633 0.00255
99.28189 438.00000 440.88961 0.00228
99.29189 430.00000 441.30097 0.00233
99.30189 389.00000 441.69939 0.00257
99.31189 447.00000 442.08389 0.00224
99.32189 436.00000 442.45354 0.00229
99.33189 418.00000 442.80744 0.00239
99.34189 438.00000 443.14468 0.00228
99.35189 401.00000 443.46431 0.00249
99.36189 413.00000 443.76535 0.00242
99.37189 396.00000 444.04680 0.00253
99.38189 431.00000 444.30764 0.00232
99.39189 401.00000 444.54680 0.00249
99.40189 422.00000 444.76323 0.00237
99.41190 410.00000 444.95598 0.00244
99.42189 442.00000 445.12341 0.00226
99.43189 424.00000 445.26491 0.00236
99.44189 430.00000 445.37916 0.00233
99.45190 421.00000 445.46507 0.00238
99.46189 394.00000 445.52125 0.00254
99.47189 407.00000 445.54675 0.00246
99.48190 427.00000 445.54031 0.00234
99.49190 413.00000 445.50078 0.00242
99.50189 408.00000 445.42711 0.00245
99.51189 410.00000 445.31803 0.00244
99.52190 432.00000 445.17231 0.00231
99.53190 449.00000 444.98916 0.00223
99.54189 442.00000 444.76762 0.00226
99.55190 399.00000 444.50595 0.00251
99.56190 460.00000 444.20386 0.00217
99.57190 462.00000 443.86014 0.00216
99.58189 438.00000 443.47425 0.00228
99.59190 430.00000 443.04406 0.00233
99.60190 420.00000 442.56990 0.00238
99.61190 437.00000 442.05050 0.00229
99.62189 423.00000 441.48559 0.00236
99.63190 420.00000 440.87258 0.00238
99.64190 365.00000 440.21239 0.00274
99.65190 456.00000 439.50361 0.00219
99.66190 400.00000 438.74539 0.00250
99.67190 407.00000 437.93688 0.00246
99.68190 417.00000 437.07716 0.00240
99.69190 414.00000 436.16521 0.00242
99.70190 411.00000 435.20015 0.00243
99.71190 397.00000 434.18175 0.00252
99.72190 437.00000 433.10888 0.00229
99.73190 449.00000 431.98045 0.00223
99.74190 443.00000 430.79536 0.00226
99.75190 411.00000 429.55251 0.00243
99.76190 453.00000 428.25080 0.00221
99.77190 448.00000 426.88908 0.00223
99.78190 451.00000 425.46615 0.00222
99.79190 445.00000 423.98078 0.00225
99.80190 428.00000 422.43168 0.00234
99.81190 402.00000 420.81750 0.00249
99.82190 417.00000 419.13687 0.00240
99.83190 410.00000 417.38833 0.00244
99.84190 425.00000 415.57040 0.00235
99.85191 454.00000 413.67961 0.00220
99.86190 457.00000 411.72014 0.00219
99.87190 426.00000 409.68457 0.00235
99.88190 432.00000 407.57311 0.00231
99.89191 450.00000 405.38180 0.00222
99.90190 491.00000 403.11551 0.00204
99.91190 391.00000 400.76569 0.00256
99.92191 413.00000 398.33020 0.00242
99.93191 393.00000 395.81193 0.00254
99.94190 370.00000 393.20912 0.00270
99.95000 470.00000 391.03364 0.00213
99.96000 443.00000 388.26517 0.00226
99.97000 436.00000 385.40357 0.00229
99.98000 454.00000 382.44664 0.00220
99.99191 433.00000 378.79721 0.00231

_cod_database_fobs_code 2108753
