#------------------------------------------------------------------------------
#$Date: 2022-01-01 06:19:30 +0200 (Sat, 01 Jan 2022) $
#$Revision: 271667 $
#$URL: file:///home/coder/svn-repositories/cod/cif/2/10/89/2108920.cif $
#------------------------------------------------------------------------------
#
# This file is available in the Crystallography Open Database (COD),
# http://www.crystallography.net/. The original data for this entry
# were provided by IUCr Journals, http://journals.iucr.org/.
#
# The file may be used within the scientific community so long as
# proper attribution is given to the journal article from which the
# data were obtained.
#
data_2108920
loop_
_publ_author_name
'Rejnhardt, Piotr'
'Drozd, Marek'
'Daszkiewicz, Marek'
_publ_section_title
;
 Low-temperature phase transition and high-pressure phase stability of
 1<i>H</i>-pyrazole-1-carboxamidine nitrate
;
_journal_issue                   6
_journal_name_full               'Acta Crystallographica Section B'
_journal_page_first              996
_journal_page_last               1002
_journal_paper_doi               10.1107/S2052520621010970
_journal_volume                  77
_journal_year                    2021
_chemical_formula_moiety         'C4 H7 N4, N O3'
_chemical_formula_sum            'C4 H7 N5 O3'
_chemical_formula_weight         173.15
_space_group_crystal_system      monoclinic
_space_group_IT_number           14
_space_group_name_Hall           '-P 2ybc'
_space_group_name_H-M_alt        'P 1 21/c 1'
_atom_sites_solution_hydrogens   geom
_atom_sites_solution_primary     direct
_audit_creation_date             2021-07-19
_audit_creation_method
;
Olex2 1.2
(compiled 2018.05.29 svn.r3508 for OlexSys, GUI svn.r5506)
;
_cell_angle_alpha                90
_cell_angle_beta                 97.88(18)
_cell_angle_gamma                90
_cell_formula_units_Z            4
_cell_length_a                   5.024(5)
_cell_length_b                   10.158(4)
_cell_length_c                   13.43(4)
_cell_measurement_reflns_used    239
_cell_measurement_temperature    293(2)
_cell_measurement_theta_max      19.5230
_cell_measurement_theta_min      3.9810
_cell_volume                     679(2)
_computing_cell_refinement       'CrysAlisPro 1.171.39.46 (Rigaku OD, 2018)'
_computing_data_collection       'CrysAlisPro 1.171.39.46 (Rigaku OD, 2018)'
_computing_data_reduction        'CrysAlisPro 1.171.39.46 (Rigaku OD, 2018)'
_computing_molecular_graphics    'Olex2 (Dolomanov et al., 2009)'
_computing_publication_material  'Olex2 (Dolomanov et al., 2009)'
_computing_structure_refinement  'ShelXL (Sheldrick, 2015)'
_computing_structure_solution    'ShelXS (Sheldrick, 2008)'
_diffrn_ambient_temperature      293(2)
_diffrn_detector                 'CCD plate'
_diffrn_detector_area_resol_mean 8.2214
_diffrn_detector_type            'Sapphire2, large Be window'
_diffrn_measured_fraction_theta_full 0.348
_diffrn_measured_fraction_theta_max 0.348
_diffrn_measurement_details
;
List of Runs (angles in degrees, time in seconds):

  # Type    Start    End  Width  t~exp~   \w     \q     \k     \f   Frames
--------------------------------------------------------------------------
  1  \w    -20.00  31.60   0.60   30.00    --   25.00   0.00   0.00   86
  2  \w    -20.00  35.80   0.60   30.00    --   25.00   0.00 180.00   93
  3  \w     -3.00  46.80   0.60   30.00    --   25.00 -40.00-170.00   83
  4  \w     -3.00  46.80   0.60   30.00    --   25.00 -40.00  10.00   83
  5  \w      8.00  65.00   0.60   30.00    --   25.00 -82.00  30.00   95
  6  \w      8.00  65.00   0.60   30.00    --   25.00 -82.00-150.00   95
  7  \w     32.50  88.90   0.60   30.00    --   25.00-135.00-122.00   94
  8  \w     32.00  89.00   0.60   30.00    --   25.00-135.00  58.00   95
  9  \w     25.00  46.60   0.60   30.00    --  -25.00-135.00  58.00   36
 10  \w     25.00  46.60   0.60   30.00    --  -25.00-135.00-122.00   36
 11  \w      0.00  22.80   0.60   30.00    --  -25.00 -82.00-150.00   38
 12  \w      0.00  22.80   0.60   30.00    --  -25.00 -82.00  30.00   38
 13  \w    -19.00  17.00   0.60   30.00    --  -25.00 -40.00  10.00   60
 14  \w    -19.00  17.00   0.60   30.00    --  -25.00 -40.00-170.00   60
 15  \w    -33.00  21.60   0.60   30.00    --  -25.00   0.00 180.00   91
 16  \w    -33.00  21.60   0.60   30.00    --  -25.00   0.00   0.00   91
;
_diffrn_measurement_device       'four-circle diffractometer'
_diffrn_measurement_device_type  'Xcalibur, Sapphire2, large Be window'
_diffrn_measurement_method       '\w scans'
_diffrn_orient_matrix_type
'CrysAlisPro convention (1999,Acta A55,543-557)'
_diffrn_orient_matrix_UB_11      0.0585051000
_diffrn_orient_matrix_UB_12      -0.0141531000
_diffrn_orient_matrix_UB_13      -0.0437826000
_diffrn_orient_matrix_UB_21      0.1302950000
_diffrn_orient_matrix_UB_22      0.0039352000
_diffrn_orient_matrix_UB_23      0.0282326000
_diffrn_orient_matrix_UB_31      -0.0046499000
_diffrn_orient_matrix_UB_32      -0.0682594000
_diffrn_orient_matrix_UB_33      0.0107351000
_diffrn_radiation_monochromator  graphite
_diffrn_radiation_probe          x-ray
_diffrn_radiation_type           MoK\a
_diffrn_radiation_wavelength     0.71073
_diffrn_reflns_av_R_equivalents  0.1010
_diffrn_reflns_av_unetI/netI     0.0676
_diffrn_reflns_Laue_measured_fraction_full 0.348
_diffrn_reflns_Laue_measured_fraction_max 0.348
_diffrn_reflns_limit_h_max       5
_diffrn_reflns_limit_h_min       -5
_diffrn_reflns_limit_k_max       12
_diffrn_reflns_limit_k_min       -12
_diffrn_reflns_limit_l_max       8
_diffrn_reflns_limit_l_min       -9
_diffrn_reflns_number            3583
_diffrn_reflns_point_group_measured_fraction_full 0.348
_diffrn_reflns_point_group_measured_fraction_max 0.348
_diffrn_reflns_theta_full        25.035
_diffrn_reflns_theta_max         25.035
_diffrn_reflns_theta_min         4.012
_diffrn_source                   'fine-focus sealed X-ray tube'
_diffrn_source_type              'Enhance (Mo) X-ray Source'
_exptl_absorpt_coefficient_mu    0.145
_exptl_absorpt_correction_T_max  1.00000
_exptl_absorpt_correction_T_min  0.06610
_exptl_absorpt_correction_type   multi-scan
_exptl_absorpt_process_details
;
CrysAlisPro 1.171.39.46 (Rigaku Oxford Diffraction, 2018)
Empirical absorption correction using spherical harmonics,
 implemented in SCALE3 ABSPACK scaling algorithm.
;
_exptl_crystal_colour            colourless
_exptl_crystal_density_diffrn    1.693
_exptl_crystal_description       prism
_exptl_crystal_F_000             360
_refine_diff_density_max         0.138
_refine_diff_density_min         -0.127
_refine_diff_density_rms         0.037
_refine_ls_extinction_coef       0.027(18)
_refine_ls_extinction_expression Fc^*^=kFc[1+0.001xFc^2^\l^3^/sin(2\q)]^-1/4^
_refine_ls_extinction_method     'SHELXL-2018/3 (Sheldrick 2018)'
_refine_ls_goodness_of_fit_ref   1.053
_refine_ls_hydrogen_treatment    constr
_refine_ls_matrix_type           full
_refine_ls_number_parameters     110
_refine_ls_number_reflns         413
_refine_ls_number_restraints     0
_refine_ls_restrained_S_all      1.053
_refine_ls_R_factor_all          0.1123
_refine_ls_R_factor_gt           0.0540
_refine_ls_shift/su_max          0.000
_refine_ls_shift/su_mean         0.000
_refine_ls_structure_factor_coef Fsqd
_refine_ls_weighting_details
'w=1/[\s^2^(Fo^2^)+(0.0811P)^2^+0.7055P] where P=(Fo^2^+2Fc^2^)/3'
_refine_ls_weighting_scheme      calc
_refine_ls_wR_factor_gt          0.1291
_refine_ls_wR_factor_ref         0.1634
_reflns_Friedel_coverage         0.000
_reflns_number_gt                236
_reflns_number_total             413
_reflns_threshold_expression     'I > 2\s(I)'
_cod_data_source_file            xk5086sup1.cif
_cod_data_source_block           1.11GPa
_cod_database_code               2108920
_shelx_shelxl_version_number     2018/3
_chemical_oxdiff_formula         C4N4NO3H7
_shelx_space_group_comment
;
The symmetry employed for this shelxl refinement is uniquely defined
by the following loop, which should always be used as a source of
symmetry information in preference to the above space-group names.
They are only intended as comments.
;
_reflns_odcompleteness_completeness 34.20
_reflns_odcompleteness_iscentric 1
_reflns_odcompleteness_theta     24.98
_olex2_refinement_description
;
1. Fixed Uiso
 At 1.2 times of:
  All C(H) groups, All N(H,H) groups
2.a Aromatic/amide H refined with riding coordinates:
 C1(H1), C2(H2), C3(H3)
2.b X=CH2 refined with riding coordinates:
 N3(H3A,H3B), N4(H4A,H4B)
;
_shelx_res_file
;
TITL instrument in P21/c #14
    instrument.res
    created by SHELXL-2018/3 at 13:26:35 on 19-Jul-2021
REM reset to P21/c #14
CELL 0.71073 5.024376 10.158499 13.432423 90 97.8822 90
ZERR 4 0.004859 0.004324 0.042213 0 0.1771 0
LATT 1
SYMM -X,0.5+Y,0.5-Z
SFAC C H N O
UNIT 16 28 20 12

L.S. 99
PLAN  20
BOND
fmap 2 53
ACTA
OMIT 3 6 5
OMIT 3 7 5
OMIT 2 8 7
REM <olex2.extras>
REM <HklSrc "%.\\instrument.hkl">
REM </olex2.extras>

WGHT    0.081100    0.705500
EXTI    0.027405
FVAR       2.05098
C1    1    0.103594    0.792148    0.538523    11.00000    0.07359    0.05413 =
         0.14026   -0.00514   -0.04397    0.00781
AFIX  43
H1    2   -0.045567    0.831751    0.501851    11.00000   -1.20000
AFIX   0
C2    1    0.321287    0.862369    0.587840    11.00000    0.06560    0.04837 =
         0.07307   -0.00246   -0.00389   -0.00954
AFIX  43
H2    2    0.342663    0.953298    0.590322    11.00000   -1.20000
AFIX   0
C3    1    0.493381    0.771426    0.630942    11.00000    0.06877    0.03729 =
         0.16227   -0.01620   -0.04057    0.00116
AFIX  43
H3    2    0.659806    0.786939    0.668695    11.00000   -1.20000
AFIX   0
C4    1    0.472674    0.524248    0.633608    11.00000    0.07582    0.03178 =
         0.18386    0.01407   -0.05171   -0.01081
N1    3    0.375121    0.649830    0.608314    11.00000    0.05964    0.03227 =
         0.23325    0.00430   -0.06195   -0.00456
N2    3    0.131693    0.663343    0.549414    11.00000    0.06230    0.04048 =
         0.14675    0.00070   -0.03801   -0.00129
N3    3    0.339693    0.424681    0.588211    11.00000    0.07224    0.03733 =
         0.16697    0.01282   -0.04267   -0.00035
AFIX  93
H3A   2    0.409986    0.347346    0.591466    11.00000   -1.20000
H3B   2    0.182438    0.436907    0.555269    11.00000   -1.20000
AFIX   0
N4    3    0.709738    0.511449    0.684167    11.00000    0.07692    0.06063 =
         0.11390   -0.00296   -0.04932    0.00575
AFIX  93
H4A   2    0.786317    0.435568    0.689049    11.00000   -1.20000
H4B   2    0.790687    0.578824    0.712880    11.00000   -1.20000
AFIX   0
N5    3    0.244764    0.648314    0.828527    11.00000    0.08336    0.04673 =
         0.12794   -0.01288   -0.04371    0.00341
O1    4    0.487323    0.673835    0.856645    11.00000    0.05009    0.04558 =
         0.14121   -0.00392   -0.02162   -0.00548
O2    4    0.163693    0.531451    0.827270    11.00000    0.07512    0.04388 =
         0.16494    0.00591   -0.02669   -0.01430
O3    4    0.083786    0.737995    0.794460    11.00000    0.06406    0.05545 =
         0.17438    0.02105   -0.03302    0.00609
HKLF 4




REM  instrument in P21/c #14
REM wR2 = 0.1634, GooF = S = 1.053, Restrained GooF = 1.053 for all data
REM R1 = 0.0540 for 236 Fo > 4sig(Fo) and 0.1123 for all 413 data
REM 110 parameters refined using 0 restraints

END

WGHT      0.0813      0.7050

REM Highest difference peak  0.138,  deepest hole -0.127,  1-sigma level  0.037
Q1    1   0.0262  0.6606  0.4815  11.00000  0.05    0.14
Q2    1   0.5000  1.0000  0.5000  10.50000  0.05    0.14
Q3    1   0.7315  0.2908  0.5936  11.00000  0.05    0.12
Q4    1   0.3459  0.8606  0.7030  11.00000  0.05    0.12
Q5    1  -0.0553  0.8276  0.4585  11.00000  0.05    0.12
Q6    1  -0.0280  0.8272  0.4422  11.00000  0.05    0.11
Q7    1   0.7608  0.3101  0.5767  11.00000  0.05    0.11
Q8    1   0.1602  0.8117  0.6376  11.00000  0.05    0.11
Q9    1   0.4657  0.7802  0.8423  11.00000  0.05    0.11
Q10   1   0.1695  0.6669  0.7258  11.00000  0.05    0.10
Q11   1  -0.1633  0.6549  0.8157  11.00000  0.05    0.10
Q12   1   0.3877  1.0595  0.6072  11.00000  0.05    0.10
Q13   1   0.2515  0.4984  0.9319  11.00000  0.05    0.10
Q14   1   0.7949  0.4233  0.6604  11.00000  0.05    0.09
Q15   1   0.8036  0.4833  0.7799  11.00000  0.05    0.09
Q16   1   0.1715  0.4056  0.8202  11.00000  0.05    0.09
Q17   1   0.1217  0.7803  0.7786  11.00000  0.05    0.09
Q18   1   0.2569  1.0813  0.5660  11.00000  0.05    0.09
Q19   1   0.1677  0.5766  0.5270  11.00000  0.05    0.08
Q20   1   0.0331  0.7000  0.6159  11.00000  0.05    0.08
;
_shelx_res_checksum              5592
_shelx_hkl_file
;
   0  -2   0 2350.16 94.5497   5
   0  -2   0 2500.14 106.008   8
   0   2   0 2398.05 112.474   9
   0  -2   0 2498.75 109.744   6
   0  -2   0 2373.63 84.8938   3
   0  -2   0 2612.65 113.475   7
   0   2   0 2548.50 104.550  12
   0  -2   1 8824.47 194.674   5
   0  -2   1 8897.37 163.624   4
   0  -2   1 8782.25 196.515   8
   0  -2   1 8998.17 189.195   6
   0   2  -1 8940.42 179.633  11
   0  -2   1 9217.29 212.643   7
   0  -2   1 8862.95 134.689   3
   0   2  -1 8995.08 139.132  14
   0   2  -2 1423.27 92.2393  10
   0  -2   2 1394.49 86.4898   8
   0  -2   2 1380.13 91.4201   7
   0  -2   2 1340.75 86.6626   5
   0  -3   0 16.0001 18.8884   8
   0   3   0 4.50439 12.7052   9
   0  -3   0 14.4174 10.9784   4
   0  -3   0-15.1941 20.5409   6
   0   3   0-3.79567 13.7283  12
   0  -3   0 18.4323 16.6027   7
   0  -3   0 16.9968 14.0956   5
   0  -3   1 3117.66 138.563   5
   0   3  -1 3218.09 118.178  13
   0  -3  -1 3616.31 193.061   7
   0  -3   1 3114.23 103.026   3
   0   3  -1 3103.61 131.229  11
   0   3   1 3519.98 185.107   9
   0  -3   1 3198.12 113.260   4
   0  -3  -1 2800.77 235.801   6
   0  -3   1 3055.63 141.796   8
   0   3  -1 3137.32 101.052  14
   0  -3   1 3189.53 152.839   7
   0  -3   1 3199.18 144.128   6
   0  -3  -1 3077.31 169.009   8
   0  -3   2 966.667 83.8343   5
   0  -3   2 881.462 40.2491   2
   0  -3   2 913.441 76.9219   6
   0   3  -2 956.375 86.1401  10
   0  -3   2 944.727 73.7809   4
   0  -3   2 939.474 87.9559   7
   0   3  -2 982.709 75.1000  11
   0   3  -2 871.867 45.6520   1
   0  -3   2 1018.92 87.0008   8
   0  -3   3 7089.17 241.291   8
   0  -3   3 7419.45 237.166   6
   0  -3   3 7491.01 257.046   5
   0  -3   3 7201.18 255.109   7
   0   3  -3 7565.68 265.402  10
   0  -4   0 776.134 61.3414   4
   0  -4   0 862.910 96.3387   7
   0  -4   0 953.608 99.7374   6
   0   4   0 832.378 84.8886  12
   0   4   0 887.961 100.510   9
   0  -4   0 777.939 86.7728   8
   0  -4   0 823.277 82.0705   5
   0  -4  -1 842.469 101.087   8
   0   4  -1 852.643 87.7395  12
   0  -4  -1 919.456 100.803   5
   0  -4  -1 966.150 149.334   6
   0  -4   1 794.768 83.4889   5
   0  -4   1 810.990 88.0648   8
   0  -4   1 818.176 66.0307   4
   0  -4   1 890.123 95.5622   7
   0   4  -1 840.107 68.5394  13
   0  -4   1 820.084 88.7791   6
   0   4  -1 801.870 62.0411  14
   0  -4  -1 962.622 119.265   7
   0   4   1 938.947 112.709   9
   0  -4   1 737.116 59.9876   3
   0  -4   2 5662.32 220.469   6
   0  -4   2 5507.69 222.531   5
   0   4  -2 5510.09 204.695  11
   0   4  -2 5461.30 232.753  10
   0   4  -2 5563.20 189.162  13
   0  -4   2 5562.97 189.921   4
   0  -4   2 5310.92 148.536   3
   0  -4   2 5682.93 233.234   8
   0  -4   2 5353.86 238.098   7
   0  -4   3 1300.66 108.544   6
   0  -4   3 1232.37 114.662   8
   0  -4   3 1226.26 118.657   7
   0  -4   3 1204.20 111.287   5
   0   4  -3 1267.58 118.934  10
   0  -4   3 1197.09 64.7960  15
   0  -4   4 342.346 71.5837   7
   0  -4   4 329.586 73.3786   5
   0  -4   4 299.974 60.5242   8
   0  -4   4 221.176 50.7136   6
   0  -5   0 69.6150 38.5030   5
   0  -5   0 52.9864 45.1099   7
   0  -5   0-5.86548 26.6375   8
   0   5   0 30.0875 32.4840  12
   0  -5   0 26.7021 25.6118   4
   0   5   0 20.8532 26.3603   9
   0  -5   0 14.0893 38.8013   6
   0  -5   1 1106.07 96.9389   3
   0  -5   1 1277.89 124.109   8
   0  -5  -1 1167.55 130.248   8
   0  -5   1 1172.54 87.0914   4
   0  -5  -1 1335.89 150.641   7
   0  -5  -1 1289.64 129.511   5
   0  -5   1 1225.21 117.177   5
   0  -5   1 1244.31 124.808   6
   0   5   1 1331.35 147.593   9
   0   5  -1 1086.97 123.029   9
   0  -5   1 1202.61 127.863   7
   0  -5  -1 1076.08 198.765   6
   0   5  -1 1213.35 86.5579  14
   0   5  -1 1238.46 118.697  12
   0   5  -1 1387.23 106.080  13
   0   5  -2 513.765 74.5958  11
   0  -5   2 439.386 78.6567   8
   0   5  -2 544.309 82.1282  12
   0  -5   2 437.581 78.2838   6
   0  -5   2 521.076 88.0271   7
   0  -5   2 500.108 76.5954   5
   0  -5   2 477.956 52.3932   3
   0   5  -2 531.367 86.3331  10
   0  -5   2 529.661 64.5855   4
   0   5  -2 509.242 64.9561  13
   0  -5   3 129.467 45.8567   6
   0   5  -3 137.654 52.7604  10
   0  -5   3 89.6449 44.4792   5
   0  -5   3 67.5247 43.4311   7
   0   5  -3 121.598 40.2146  11
   0   5  -3 73.9494 14.0739  16
   0   5  -3 77.8354 13.9336   1
   0  -5   3 82.2318 24.0281   3
   0  -5   3 78.7340 40.8622   8
   0   5  -3 126.663 41.0944  13
   0  -5   4 1622.72 98.5825   3
   0  -5   4 1598.20 84.8186  15
   0  -5   4 1447.65 150.020   7
   0  -5   4 1724.69 154.021   8
   0   5  -4 1710.71 159.332  10
   0  -5   4 1724.03 165.599   5
   0  -5   4 1568.63 134.050   6
   0   5  -4 1398.29 81.6644  16
   0  -6   0 4579.51 242.546   5
   0  -6   0 4233.04 175.401   4
   0   6   0 4773.86 213.947  14
   0  -6   0 4243.15 251.801   8
   0  -6   0 5065.22 302.517   6
   0   6   0 4355.67 273.714   9
   0  -6   0 4489.01 273.842   7
   0  -6   1 385.797 88.5726   7
   0  -6  -1 425.514 92.6032   8
   0  -6   1 507.547 84.5799   5
   0   6  -1 473.725 61.9101  14
   0  -6   1 402.507 58.2968   4
   0  -6  -1 424.922 80.8484   5
   0  -6   1 555.167 96.0108   6
   0   6   1 420.864 93.0997   9
   0   6  -1 503.358 84.6681  12
   0   6  -1 464.337 83.8133  11
   0  -6  -1 425.729 94.6797   7
   0  -6   1 405.311 83.0421   8
   0   6  -1 434.306 90.3402   9
   0   6  -2-11.1503 26.3754  13
   0   6  -2 28.1691 35.1780   9
   0  -6   2-8.99689 37.3845   8
   0  -6   2 55.9939 47.8442   7
   0   6  -2 29.8608 32.8193  11
   0  -6   2-45.2971 30.6558   4
   0   6  -2 27.0136 37.0223  10
   0  -6   2 93.2181 31.0774   3
   0  -6   2 10.0008 36.4598   5
   0  -6   2-45.5301 47.0047   6
   0   6  -2 58.1538 44.7684  12
   0  -6   3 371.667 69.2760   4
   0  -6   3 519.248 94.0537   5
   0  -6   3 432.599 55.2768   3
   0   6  -3 428.301 71.7114  13
   0  -6   3 507.162 102.044   7
   0  -6   3 519.936 92.4254   6
   0   6  -3 398.063 76.4998  11
   0  -6   3 536.261 97.7616   8
   0   6  -3 378.340 84.6962  10
   0   6  -3 403.382 83.4246  12
   0  -6   4 722.893 112.033   8
   0  -6   4 546.213 57.7145   3
   0  -6   4 636.408 97.8631   6
   0  -6   4 561.495 106.603   7
   0   6  -4 653.019 108.411  10
   0   6  -4 386.900 95.7207  13
   0  -6   4 824.374 124.258   5
   0  -6   5 158.102 60.9694   7
   0  -6   5 195.275 60.5157   6
   0  -6   5 69.2149 44.7405   5
   0  -6   5 66.0346 26.3255  15
   0  -6   5 178.779 38.1712   3
   0  -6   5 153.667 56.5117   8
   0   7   0 15.6891 34.9386  14
   0  -7   0 31.6996 55.0682   7
   0   7   0 12.9632 37.4338   9
   0  -7   0 20.3944 29.2827   4
   0  -7   0 87.9711 57.5867   5
   0  -7   0 43.5926 52.7507   6
   0  -7   0-12.9230 41.9591   8
   0  -7   1 254.221 55.4672   4
   0   7  -1 198.457 73.2078   9
   0   7  -1 218.736 50.4998  14
   0  -7   1 306.571 87.5884   8
   0  -7  -1 101.312 63.1098   8
   0  -7   1 277.297 82.3515   6
   0  -7   1 254.981 84.0550   7
   0  -7   1 295.679 80.0847   5
   0   7  -1 178.259 63.1687  12
   0   7  -1 313.932 80.2520  11
   0  -7  -1 152.845 65.8572   5
   0   7  -2-4.76205 46.3132  10
   0  -7   2-14.2015 42.1572   6
   0   7  -2 73.9393 49.4458  11
   0  -7   2 33.3541 55.1555   8
   0  -7   2-49.9264 36.2122   4
   0  -7   2 42.0852 43.2160   5
   0   7  -2 24.3136 43.4133   9
   0   7  -2 43.1822 46.5812  12
   0  -7   2-4.76664 47.9522   7
   0   7  -2 75.5331 57.2325  13
   0  -7   3-73.8154 35.5893   3
   0   7  -3 60.9630 55.8564  10
   0  -7   3-25.0978 56.3543   7
   0  -7   3 38.5228 46.3787   5
   0   7  -3 9.79223 34.7639  13
   0   7  -3 77.7651 52.7610  12
   0  -7   3-63.2301 61.5030   8
   0  -7   3-8.85827 40.9286   6
   0   7  -3-33.7471 45.2194   9
   0   7  -3 86.2171 55.0128  11
   0   7  -4 326.066 85.7189  12
   0  -7   4 384.085 96.1374   6
   0  -7   4 375.609 94.8997   8
   0   7  -4 322.868 81.2840  13
   0   7  -4 287.476 86.3866  10
   0  -7   4 259.063 79.4956   5
   0  -7   4 259.331 80.7240   7
   0  -7   5 57.2048 52.1179   5
   0  -7   5 110.221 64.6986   8
   0  -7   5 25.6272 55.9555   7
   0   7  -5-43.4225 58.9653  10
   0  -7   5 49.0263 39.8577   6
   0   7  -5 78.7397 54.3403  13
   0   8   0 109.167 53.7236  14
   0   8   0 133.112 74.9953   9
   0  -8   0 236.214 150.137   6
   0  -8   0 192.253 78.0062   5
   0  -8   0 94.5604 66.5770   8
   0  -8   0 72.6508 66.0470   7
   0   8  -1 2983.25 246.104  12
   0  -8   1 3048.43 267.569   8
   0   8  -1 2870.56 268.856   9
   0  -8   1 3348.59 298.014   6
   0  -8   1 3224.89 251.472   5
   0  -8   1 3006.56 272.672   7
   0  -8   1 2987.75 188.210   4
   0   8  -1 3146.31 254.636  11
   0   8  -2 368.509 100.405   9
   0  -8   2 535.853 122.788   7
   0   8  -2 462.219 102.085  11
   0  -8   2 565.798 126.883   8
   0  -8   2 405.280 97.8058   5
   0   8  -2 526.503 112.544  12
   0  -8   2 478.571 111.378   6
   0   8  -2 440.716 113.657  10
   0  -8   2 527.588 97.1531   4
   0   8  -3 1244.64 150.277  11
   0  -8   3 1079.51 164.265   7
   0  -8   3 1261.37 171.842   6
   0   8  -3 1460.92 180.970  12
   0  -8   3 1396.65 171.404   5
   0   8  -3 1363.18 184.126  10
   0  -8   3 1311.94 181.158   8
   0   8  -3 1089.88 165.861   9
   0   8  -4 23.3499 48.9971   9
   0   8  -4-33.3492 49.7678  12
   0  -8   4 109.881 76.8832   8
   0  -8   4 141.244 84.1999   7
   0  -8   4 185.531 81.0062   6
   0   8  -4 112.998 68.6328  10
   0  -8   4 25.1094 55.0068   5
   0  -8   5 411.472 115.804   5
   0   8  -5 585.899 125.733  12
   0   8  -5 241.362 84.4236  13
   0   8  -5 385.117 119.950  10
   0  -8   5 348.322 102.246   7
   0  -8   5 461.287 109.430   8
   0  -8   5 610.664 132.184   6
   0  -9   0-68.8609 77.1629   8
   0  -9   0-136.985 93.1755   7
   0  -9   0 56.9456 82.8933   5
   0   9   0-62.6530 66.9633   9
   0   9  -1 242.236 97.3484  11
   0  -9   1 160.731 115.061   6
   0   9  -1 203.795 94.8874   9
   0  -9   1 284.826 103.701   5
   0  -9   1 382.986 122.666   8
   0  -9   1 145.480 91.3859   7
   0  -9   2 456.544 131.434   6
   0  -9   2 451.561 127.438   8
   0   9  -2 335.203 112.991   9
   0   9  -2 465.904 110.984  11
   0  -9   2 357.202 119.226   7
   0   9  -2 514.730 140.122  10
   0   9  -2 415.795 105.228  12
   0  -9   2 425.780 110.054   5
   0   9  -3 301.424 88.0621  11
   0  -9   3 191.648 81.0250   5
   0  -9   3 206.692 98.6205   7
   0  -9   3 288.608 105.791   8
   0   9  -3 180.266 83.7762   9
   0  -9   3 105.475 71.3548   6
   0   9  -3 187.697 106.755  10
   0   9  -3 319.899 100.845  12
   0   9  -4 424.142 130.023  10
   0   9  -4 475.787 123.783  12
   0  -9   4 499.346 127.911   6
   0  -9   4 482.047 124.059   5
   0  -9   4 409.963 115.854   8
   0   9  -4 481.530 127.857   9
   0  -9   4 429.300 125.783   7
   0   9  -5 19.2485 61.2621   9
   0  -9   5 18.3774 65.5542   6
   0  -9   5 121.181 83.9976   7
   0   9  -5-45.7193 79.6503  10
   0   9  -5 157.067 91.7946  12
   0  -9   5 41.0487 69.4319   8
   0  -9   5-14.6921 63.8582   5
   0   9  -6 85.8202 72.8050  12
   0  -9   6 216.995 86.7365   7
   0  10  -1 107.884 91.5384  11
   0 -10   1-36.4049 74.8253   5
   0  10  -1 15.4857 59.6967   9
   0 -10   1-92.2479 95.2031   7
   0 -10   1-80.8318 99.9474   8
   0  10  -1 43.8962 92.5613  10
   0 -10   2 46.1048 93.6478   7
   0  10  -2 43.1012 69.8341  11
   0 -10   2 73.0274 81.3158   5
   0  10  -2 262.849 127.285  10
   0  10  -2 98.6508 86.1393   9
   0 -10   2-71.6060 92.6139   8
   0 -10   2-131.482 123.957   6
   0 -10   3 222.767 99.1834   8
   0  10  -3-154.167 80.9221  11
   0 -10   3 283.331 124.334   6
   0 -10   3 261.594 98.7979   5
   0  10  -3 181.508 98.0060   9
   0 -10   3-27.4559 78.9472   7
   0  10  -3 167.295 87.5569  12
   0  10  -3-192.689 103.111  10
   0  10  -4 236.041 103.790  12
   0 -10   4 41.1038 83.0117   7
   0 -10   4 115.826 92.3213   6
   0  10  -4 95.9343 109.002  10
   0 -10   4 282.897 112.600   5
   0  10  -4 98.3596 77.9259   9
   0 -10   4 132.017 99.3710   8
   0  10  -5 44.2909 68.9718  10
   0 -10   5-85.0411 74.3028   5
   0 -10   5 154.121 87.7810   8
   0  10  -5 59.4911 74.2880   9
   0 -10   5 83.1352 93.4348   7
   0  10  -5 42.1632 92.4665  12
   0 -10   5 77.5074 80.8490   6
   0  10  -6-129.291 83.9071   9
   0  10  -6-45.4401 94.0986  12
   0 -10   6-80.2709 94.0008   7
   0  11  -1 95.6335 113.103  10
   0 -11   1 220.609 110.836   7
   0  11  -1 253.381 107.983  11
   0 -11   1 3.43569 96.0749   8
   0 -11   2 243.635 145.093   8
   0  11  -2 150.534 97.4381  11
   0  11  -2 81.7256 116.960  10
   0 -11   2-23.6290 86.9829   5
   0  11  -2 177.568 101.679   9
   0 -11   2 329.603 129.750   7
   0 -11   3 45.1029 161.633   6
   0 -11   3 161.803 119.934   7
   0 -11   3 61.6579 102.157   8
   0  11  -3-19.2008 69.0966  11
   0  11  -3 83.2313 95.9232   9
   0 -11   3-24.5996 93.4479   5
   0  11  -4-58.4029 89.7548  10
   0 -11   4 80.0336 100.216   5
   0  11  -4 135.019 101.961  12
   0 -11   4-67.2867 84.3525   7
   0 -11   4 164.754 170.958   6
   0 -11   4-164.248 126.776   8
   0  11  -4 228.463 118.819   9
   0  11  -5-116.879 100.629   9
   0 -11   5 94.6414 95.5504   7
   0 -11   5 9.94329 83.1034   8
   0  11  -5 34.3743 89.6091  12
   0  11  -5 9.61447 84.1575  10
   0 -11   5 16.9657 67.2212   5
   0 -12   2 120.141 106.933   7
   0  12  -2 24.5120 88.8146  10
   0 -12   2-2.81444 101.111   8
   1   0   0 5747.49 168.276  15
  -1   0   0 5717.61 147.744  16
  -1   0   0 5673.85 202.872  13
   1   0   0 5584.98 182.332  14
  -1   0  -1 6.77452 11.0899  16
  -1   0  -1 14.8792 10.2809  12
   1   0   1 2.59043 8.46179  14
  -1   0  -1 11.5724 7.82355   6
   1   0   1 6.62192 9.44417   4
   1   0   1 13.5796 8.93077  11
  -1   0  -1 16.3053 14.3113  13
   1   0   1 11.7139 8.79988   5
  -1   0  -1 6.44947 10.6924   3
  -1   0  -1 35.1108 15.1597   2
   1   0   1 7.81794 12.0939   1
   1   0   1 11.9187 13.6584  15
  -1   0  -2 42.3354 18.5093  16
   1   0   2 39.1988 17.4251   4
  -1   0  -2 10.3952 23.0121   6
  -1   0  -2 40.9814 19.5126   3
   1   0   2 35.6153 12.3993   5
  -1   0  -2 31.2277 15.9492   2
   1   0   2 36.5066 19.3506   1
   1   0   2 29.1948 18.1430  15
   1   0   3 2.53543 13.3098  15
   1   0   3-0.56889 15.8550   4
  -1   0  -3 25.1130 18.8077  16
   1   0   3 7.92555 13.9638   1
  -1   0  -3-6.06389 17.5342   2
  -1  -1   0 21000.3 336.421   3
   1   1   0 20921.2 339.484  14
   1   1   0 20922.3 308.420  11
   1   1   0 20804.4 316.273  15
  -1  -1   0 20497.4 308.400   6
  -1  -1   0 20616.4 278.520  16
   1   1   0 21097.2 313.296   1
  -1  -1   0 20399.7 288.788   2
  -1   1   0 20684.1 406.715  13
  -1   1  -1 6162.89 180.780  12
   1  -1   1 6006.06 184.196   4
   1   1   1 6255.94 177.160  15
  -1  -1  -1 5976.56 163.349   2
   1   1   1 6196.63 113.479  10
   1  -1   1 6097.14 145.178  14
  -1  -1  -1 6001.28 150.671  13
   1  -1   1 5993.68 176.319  15
  -1  -1  -1 5992.31 104.543   8
  -1  -1  -1 5903.68 184.507   3
  -1  -1  -1 5861.50 155.007  16
   1   1   1 6178.48 144.804   4
  -1   1  -1 5847.55 141.197   3
   1   1   1 6217.47 182.260   1
   1  -1   1 6013.87 165.708   5
  -1  -1  -1 6044.99 113.190   7
  -1   1  -1 6130.19 167.573   2
  -1  -1  -1 5868.06 163.494   6
   1  -1   1 6002.20 125.116   8
   1   1   1 6252.18 162.072  11
   1   1   1 6061.58 185.630  14
  -1   1  -1 6319.65 161.409  16
  -1   1  -1 5945.39 189.320  13
   1   1   1 6095.45 108.753   8
   1  -1   1 6162.05 180.475   1
   1   1   2 270.195 27.2602   7
  -1  -1  -2 271.025 41.4106   2
   1   1   2 303.127 49.1677   1
   1   1   2 279.859 37.8851   4
  -1  -1  -2 314.286 46.7552   6
   1   1   2 254.550 41.9593  15
  -1  -1  -2 297.589 24.5576   5
  -1  -1  -2 282.827 41.5686  16
  -1  -1  -2 318.474 49.4363   3
  -1  -1  -2 287.041 26.7017   8
   1  -1   3-1.83793 14.8927   4
   1   1   3-8.96833 15.6142  15
   1  -1   3-6.39069 12.4831   7
   1   1   3 41.0859 15.9465   1
  -1   1  -3 0.82037 15.2414   2
   1  -1   3 2.80763 16.1188   1
  -1  -1  -3-30.2250 29.0865   2
  -1  -1  -3-9.33514 23.2156  16
  -1  -1  -3 58.8165 32.7379   3
  -1   1  -3-2.10722 14.1150  16
   1  -1   3 26.9768 18.6047   5
   1  -1   3 3.22203 16.7513  15
   1  -1   4 1254.05 121.603  15
   1  -1   4 1198.97 116.748   4
  -1   1  -4 1540.48 271.296   2
  -1   1  -4 1079.46 113.302  16
   1   2  -1 1252.45 101.704  14
  -1  -2   1 1228.01 94.9255   6
  -1  -2   1 1207.68 91.4003   7
  -1  -2   0 1246.41 77.8480   7
   1   2   0 1244.05 79.5322  10
  -1  -2   0 1266.37 70.3618  16
   1   2   0 1291.89 80.6985  15
   1   2   0 1303.15 78.1507   1
  -1  -2   0 1251.70 90.4617   6
   1   2   0 1187.55 86.7448  11
  -1  -2   0 1168.42 72.0800   8
  -1  -2   0 1178.67 89.4652   3
   1   2   0 1165.08 47.5053   5
   1   2   0 1232.38 90.6818  14
   1   2   0 1186.28 43.7388   4
  -1  -2   0 1268.20 71.6564   2
  -1  -2  -1 2757.95 142.115   3
   1  -2   1 2595.60 117.417  15
   1  -2   1 2530.53 117.142   1
   1   2   1 2819.00 143.169  14
  -1   2  -1 2730.10 141.929  13
  -1   2  -1 2348.29 85.4917   6
  -1  -2  -1 2560.23 84.1084  13
  -1   2  -1 2575.38 130.109   9
  -1  -2  -1 2802.80 114.446   7
   1  -2   1 2907.44 135.385   7
  -1   2  -1 2620.72 110.164   2
   1  -2   1 2591.62 111.746   8
   1  -2   1 2652.97 136.394   4
   1   2   1 2850.10 129.313   1
  -1   2  -1 2484.63 134.691  12
  -1  -2  -1 2657.42 108.107  16
   1   2   1 2760.95 117.825   9
  -1  -2  -1 2707.01 137.731   6
  -1  -2  -1 2705.99 103.576   8
  -1  -2  -1 2717.32 115.430   2
  -1   2  -1 2601.04 102.112  16
   1   2   1 2839.29 123.381  15
   1  -2   1 2565.85 129.923   5
   1  -2   2 365.910 54.9909   4
  -1   2  -2 444.596 44.3994  16
  -1   2  -2 485.682 51.4620   2
  -1  -2  -2 432.285 44.5780   8
   1  -2   2 429.074 50.6516  15
   1   2   2 494.528 60.8337   1
  -1   2  -2 411.904 59.5995  13
  -1  -2  -2 514.607 61.3044   2
  -1   2  -2 383.449 54.9621  12
  -1  -2  -2 426.016 51.3499  16
  -1  -2  -2 479.859 68.0399   6
   1  -2   2 403.615 48.0419   7
   1  -2   2 430.130 33.6528  14
   1   2   2 447.811 55.3445  15
  -1   2  -2 443.545 35.8080   3
   1  -2   2 439.671 57.0691   5
  -1   2  -2 396.586 48.2469   9
  -1  -2  -2 455.556 65.0074   3
   1  -2   2 429.205 53.3913   1
   1  -2   2 433.712 45.9770   8
   1  -2   3 2318.13 137.550   1
  -1   2  -3 2313.57 114.902  10
   1   2   3 2455.98 185.468  15
   1  -2   3 2106.24 121.520  15
   1  -2   3 2196.40 139.267   4
  -1  -2  -3 2277.01 203.526   3
  -1  -2  -3 1906.67 174.952  16
   1  -2   3 2374.24 113.241   8
   1  -2   3 2129.93 112.014   7
   1  -2   3 2214.34 133.370   5
  -1   2  -3 2334.54 124.708   2
  -1   2  -3 2256.49 110.495  16
  -1   2  -4 4264.30 316.515   2
   1  -2   4 4508.06 221.555   4
   1  -2   4 4800.37 217.734   5
   1  -2   4 4735.64 207.725  15
  -1   2  -4 5262.97 198.676  16
  -1  -3   2 338.098 66.6448   6
  -1  -3   2 326.654 59.7027   7
   1   3  -1 8820.91 266.197  10
   1   3  -1 8340.52 260.497  11
  -1  -3   1 8562.84 245.674   8
  -1  -3   1 8662.13 255.980   3
  -1  -3   1 8834.74 182.546   2
  -1  -3   1 8950.10 279.946   6
   1   3  -1 8601.46 192.909   1
   1   3  -1 8724.83 266.497  14
  -1  -3   1 8510.76 257.617   7
  -1  -3   0 154.036 26.5882   5
  -1  -3   0 182.380 37.8228   8
  -1  -3   0 134.175 26.0300   2
   1   3   0 137.843 36.0958  14
  -1  -3   0 133.074 38.5786   6
  -1  -3   0 161.333 38.0857   7
   1   3   0 154.279 30.4483  15
  -1  -3   0 155.637 28.0332  16
   1   3   0 178.536 30.6470   1
   1  -3   0 207.060 57.3521   5
   1   3   0 123.174 32.6677  11
   1   3   0 118.775 30.7665  10
  -1  -3   0 148.327 37.3131   3
  -1  -3  -1 35.7592 25.0025   6
   1  -3   1-15.0668 19.6658   5
   1  -3   1 12.5031 18.7589   4
  -1  -3  -1 34.8279 25.9120   3
  -1  -3  -1 64.9862 26.9794   7
   1   3   1 32.2612 22.2429  14
  -1   3  -1 30.0957 22.7338  12
  -1  -3  -1 49.5322 24.6912   8
   1   3   1 20.0146 14.1057   1
   1  -3   1 15.4812 24.8462   7
   1   3   1 25.4166 16.1678  15
   1   3   1 11.5662 16.0382   9
  -1  -3  -1 37.0580 20.1458   2
   1  -3   1 25.2238 17.5476   1
   1  -3   1 44.0211 23.5795   8
  -1  -3  -1 28.4871 15.8770  16
  -1  -3  -1 47.5962 14.9200   5
  -1   3  -1 11.5220 15.8431   9
  -1   3  -1 33.8134 26.7416  13
  -1   3  -1 44.0753 19.2635   2
  -1  -3  -2 14.5475 22.6026   8
  -1  -3  -2-37.1241 23.7443  16
  -1  -3  -2-1.88919 23.2547   6
  -1  -3  -2-17.3355 20.9767   3
   1  -3   2 15.9775 18.1735  15
  -1   3  -2-4.53492 17.6524  12
   1  -3   2 5.43726 17.7792   8
   1  -3   2-7.70586 18.6345   4
   1  -3   2-13.5005 17.9821   1
  -1   3  -2-29.0853 20.9217  13
  -1   3  -2 5.77012 14.6533   9
   1   3   2 18.5335 18.3839  15
  -1   3  -2-29.2450 17.3223  11
  -1   3  -2 37.2213 19.5174  16
   1  -3   2 2.66100 18.7812   7
   1   3   2 33.4172 22.7239   1
  -1   3  -2-7.11205 15.0528   2
  -1  -3  -2 53.1470 48.5915   2
   1  -3   2-1.95328 19.5426   5
   1  -3   3 2937.40 140.315  15
  -1   3  -3 3167.58 142.427   2
   1  -3   3 2879.56 153.321   7
   1  -3   3 2953.38 169.960   5
   1  -3   3 3219.94 156.691   8
   1  -3   3 3080.68 174.481   4
  -1   3  -3 3034.62 124.154  16
  -1   3  -3 3022.58 153.257  10
  -1   3  -3 3104.46 177.057  13
   1  -3   3 2970.75 104.018   6
   1  -3   3 2918.76 151.806   1
   1  -3   4 1293.46 120.559   5
  -1   3  -4 1212.31 110.338  10
  -1   3  -4 1382.08 98.3764  16
   1  -3   4 1262.52 71.0381   6
   1  -3   4 1255.36 103.459  15
   1  -3   4 1220.01 107.552   7
   1  -3   4 1266.46 105.439   8
  -1   3  -4 1430.43 214.003   2
   1  -3   4 1272.98 124.216   4
   1  -3   5-0.84732 27.5785   4
   1  -3   5 43.0650 38.8329   5
  -1   3  -5-8.86600 29.2632  16
   1  -3   5-8.83265 25.8641  15
   1  -3   5 6.75183 27.9162   7
  -1  -4   2 6002.63 246.610   8
  -1  -4   2 5857.03 263.153   6
  -1  -4   2 6083.01 226.901   3
   1   4  -2 5827.58 248.693  11
   1   4  -2 6008.65 263.964  10
  -1  -4   2 6067.22 264.709   7
   1   4  -1 3064.82 177.227  10
  -1  -4   1 2976.51 102.245   2
   1   4  -1 2974.98 167.513  14
  -1  -4   1 3160.38 172.985   8
  -1  -4   1 3001.04 147.120   5
  -1  -4   1 3196.44 180.188   7
   1   4  -1 2866.47 107.487   1
  -1  -4   1 3180.89 188.336   6
   1   4  -1 2855.80 170.010  11
  -1  -4   1 3100.85 167.206   3
  -1  -4   0 1045.14 103.419   7
  -1  -4   0 1022.43 63.3595  16
  -1  -4   0 1018.54 67.0238   2
   1   4   0 1064.93 80.6796  12
   1   4   0 1011.88 72.3094   1
   1   4   0 1023.28 104.528  11
  -1  -4   0 1076.14 76.4107   5
   1  -4   0 1344.23 150.188   5
   1   4   0 1015.92 71.8249  15
  -1  -4   0 1044.52 99.2223   8
   1   4   0 1033.90 101.778  14
  -1  -4   0 1143.98 119.908   6
  -1  -4   0 1080.50 104.240   3
   1  -4   0 814.349 109.913   8
  -1  -4  -1 215.449 47.0339   8
  -1  -4  -1 300.630 96.3868   2
   1  -4   1 221.901 49.3266   4
   1   4   1 252.185 50.8791   1
  -1  -4  -1 247.342 35.8359  16
   1   4   1 249.012 39.6159  15
  -1  -4  -1 235.941 51.5521   7
  -1  -4  -1 223.140 51.8743   3
   1   4   1 314.177 61.6260  14
  -1   4  -1 256.436 56.9457  12
  -1  -4  -1 225.186 58.5351   6
   1  -4   1 258.565 51.7033   8
  -1   4  -1 233.320 57.6679   9
   1   4   1 287.843 59.3795   9
   1  -4   1 144.850 45.2434   7
   1  -4   1 240.917 38.5110   1
  -1   4  -1 241.826 51.4669  13
  -1  -4  -1 234.332 33.7820   5
   1  -4   1 211.852 53.3280   5
  -1   4  -1 203.794 32.1710   2
   1   4   2 2460.77 134.387  15
  -1   4  -2 2415.32 113.736   2
  -1   4  -2 2390.87 167.259   9
   1  -4   2 2287.37 154.032   4
  -1  -4  -2 2532.70 191.030   6
  -1   4  -2 2423.84 170.854  12
   1  -4   2 2453.90 122.947  15
  -1  -4  -2 2610.85 185.039   3
  -1   4  -2 2344.59 113.171  11
  -1   4  -2 2347.47 102.724  16
  -1  -4  -2 2259.16 170.014   7
  -1  -4  -2 2738.85 118.934   5
  -1  -4  -2 2368.35 125.456  16
  -1   4  -2 2500.71 165.938  13
   1  -4   2 2309.69 162.794   5
   1  -4   2 2426.21 127.337   1
   1  -4   2 3047.64 209.306   6
   1  -4   2 2375.54 163.795   7
   1   4   2 2686.42 180.959   9
   1  -4   2 2352.09 150.457   8
  -1  -4  -2 2442.56 149.499   8
   1  -4   3 612.093 69.5770   1
   1  -4   3 701.813 93.3663   4
  -1   4  -3 822.281 66.7587  16
   1  -4   3 686.898 66.2897   6
  -1   4  -3 751.025 90.8005  10
   1  -4   3 741.511 100.476   5
   1  -4   3 645.218 67.4450  15
  -1   4  -3 665.192 87.5470  13
  -1   4  -3 697.408 67.5498   2
   1  -4   3 622.883 81.7418   7
   1  -4   3 678.587 84.8222   8
   1  -4   4 17.1857 33.4930   8
   1  -4   4 55.2040 37.3879   4
   1  -4   4-33.1759 25.5410  15
  -1   4  -4 6.22988 19.2595  16
  -1   4  -4 61.7117 32.3037  10
   1  -4   4 2.78571 19.7409   6
   1  -4   4 79.7058 41.7070   7
  -1   4  -4 41.2537 34.9617  13
   1  -4   4-21.8384 34.2929   5
  -1   4  -5 60.3517 32.7140  16
   1  -4   5-11.7003 20.5529   6
   1  -4   5-14.3334 34.8543   7
   1  -4   5 21.7350 28.8198  15
   1  -4   5 19.7893 35.1708   5
   1  -4   5-15.5358 34.6733   4
  -1  -5   3 184.058 59.3908   7
  -1  -5   3 148.093 58.3891   6
   1   5  -3 163.498 58.7551  10
  -1  -5   3 195.537 52.9317   3
  -1  -5   3 173.596 55.9458   8
   1   5  -2 184.459 27.7792  13
   1   5  -2 247.747 30.5855   1
  -1  -5   2 147.223 47.0326   5
  -1  -5   2 233.284 59.7480   8
   1   5  -2 295.454 67.3941  11
  -1  -5   2 344.585 74.0093   6
   1   5  -2 324.965 70.9267  10
  -1  -5   2 267.668 67.7032   7
  -1  -5   2 228.552 27.8273   2
  -1  -5   2 295.758 58.1118   3
  -1  -5   1 39.9991 26.7288   5
   1   5  -1 49.4377 32.9770  14
   1   5  -1-25.8665 32.4230  10
   1   5  -1 42.3495 37.3099  11
  -1  -5   1 19.5462 29.2878   8
   1   5  -1 16.4258 21.5997  12
  -1  -5   1 0.08208 29.0539   7
  -1  -5   1-9.39965 29.2462   3
   1   5  -1 16.2250 13.9492   1
  -1  -5   1 14.4279 17.0039   2
  -1  -5   0 3193.96 219.781   6
   1  -5   0 2970.75 237.220   5
  -1  -5   0 3062.31 113.290  16
   1   5   0 3017.33 200.539  11
  -1  -5   0 3132.27 191.761   3
   1   5   0 3145.15 192.965  14
   1   5   0 2872.25 120.802  15
  -1  -5   0 2891.50 191.334   7
  -1  -5   0 3023.14 189.102   8
   1   5   0 3186.61 163.663  12
  -1  -5   0 3031.47 151.727   5
   1   5   0 2633.72 190.005   9
   1  -5   0 2205.77 193.391   8
   1   5   1 17.5525 33.1700  14
  -1  -5  -1 79.1571 40.7796   8
  -1  -5  -1 35.1410 40.2555   6
  -1  -5  -1-38.4188 33.1453   7
  -1  -5  -1 8.76421 20.0418  16
   1   5   1 13.9875 23.9345  15
   1  -5   1-25.2747 31.7309   4
  -1   5  -1 36.9444 34.4606  12
   1  -5   1-15.0278 42.7662   7
   1  -5   1 20.5158 16.1050   1
   1   5   1-49.8675 33.8284   9
   1  -5   1-35.5204 39.9332   8
  -1   5  -1-24.5049 29.8417  13
  -1  -5  -1 11.0283 22.8879   5
  -1  -5  -1-29.1354 27.5942   3
  -1   5  -1-14.5533 26.6959   9
   1  -5   1 17.7287 34.2174   5
  -1   5  -1-5.63002 20.5716   2
  -1   5  -2 5697.12 264.039  13
  -1   5  -2 5419.51 169.225   2
   1  -5   2 5299.73 247.082   4
   1  -5   2 5146.53 269.010   7
   1  -5   2 5187.24 184.183   1
  -1  -5  -2 5463.60 193.134  16
   1  -5   2 5149.28 265.032   5
   1   5   2 5480.01 208.264  15
   1  -5   2 5226.34 384.782   6
  -1   5  -2 5315.09 201.752  11
  -1  -5  -2 6039.85 317.959   6
  -1  -5  -2 5941.58 326.469   3
  -1   5  -2 5441.89 283.098   9
   1   5   2 6125.14 312.229   9
  -1  -5  -2 5695.47 197.280   5
   1  -5   2 5615.15 258.804   8
  -1  -5  -2 5669.32 259.252   8
  -1  -5  -2 5022.63 279.823   7
   1  -5   3 74.3789 43.6871   8
  -1   5  -3-4.32988 40.2254  13
  -1   5  -3 3.92143 19.8472  16
   1  -5   3 42.6198 42.9833   5
  -1   5  -3 2.61743 30.3796  10
   1  -5   3-45.2983 37.9262   7
   1  -5   3 23.3010 20.4636  15
   1  -5   3 5.81201 30.0114   1
   1  -5   3 38.8081 29.3584   6
   1  -5   3 9.47433 33.6021   4
  -1   5  -3-13.5205 34.3794  12
  -1   5  -3 21.5246 21.5865   2
  -1   5  -3-8.41937 26.0218   9
  -1   5  -3 21.9763 23.5499  11
   1  -5   4 3736.61 233.802   7
   1  -5   4 4192.90 254.991   5
   1  -5   4 4243.53 191.839   6
  -1   5  -4 3678.71 230.037  10
   1  -5   4 4078.31 242.353   4
  -1   5  -4 4126.31 157.251  16
   1  -5   4 4356.26 239.917   8
   1  -5   5 363.144 79.0354   8
   1  -5   5 330.171 79.7113   5
   1  -5   5 286.456 79.6935   4
   1  -5   5 219.046 76.3644   7
   1  -5   5 171.887 51.7752  15
  -1   5  -5 62.9831 73.9342  13
  -1   5  -5 291.207 51.8978  16
   1  -5   5 269.868 54.2323   6
  -1   5  -5 254.346 73.3673  10
   1  -5   6 83.6378 69.4719   7
   1  -5   6 97.5440 60.0505  15
   1  -5   6 110.224 44.7967   6
  -1   5  -6 0.13141 68.9885  13
   1  -5   6 167.475 69.2598   5
  -1   5  -6 215.958 60.1431  16
  -1  -6   4 1154.46 152.820   7
  -1  -6   3 230.524 65.0619   8
  -1  -6   3 324.299 84.5991   6
   1   6  -3 322.995 83.5437  10
  -1  -6   3 278.790 81.4132   7
   1   6  -3 251.148 47.0218  13
  -1  -6   3 370.066 70.5072   3
  -1  -6   2 274.896 74.5241   8
  -1  -6   2 269.322 76.1341   7
  -1  -6   2 286.365 66.9333   5
   1   6  -2 232.271 43.6350  13
   1   6  -2 276.686 75.4370  10
  -1  -6   2 278.625 74.7068   6
   1   6  -2 237.351 64.9878  11
  -1  -6   2 339.407 70.2828   3
   1   6  -2 256.553 72.9635  14
  -1  -6   1 871.031 123.888   7
  -1  -6   1 833.603 105.045   3
  -1  -6   1 839.017 97.7230   5
  -1  -6   1 889.376 130.660   6
   1   6  -1 820.154 104.774  14
   1   6  -1 879.253 105.840  12
   1   6  -1 840.898 121.721  10
   1   6  -1 754.301 112.736  11
  -1  -6   1 851.899 118.804   8
  -1  -6   0 840.286 120.656   7
   1   6   0 829.546 76.4960  15
  -1  -6   0 880.828 110.066   3
  -1  -6   0 948.046 99.7221   5
   1   6   0 868.237 112.182  14
  -1  -6   0 960.640 135.849   6
   1  -6   0 475.255 104.570   8
   1   6   0 1051.24 133.490  11
   1   6   0 786.288 120.264   9
   1   6   0 996.274 105.260  12
   1  -6   0 500.672 108.371   5
  -1  -6   0 1009.61 124.469   8
  -1  -6  -1-20.0161 36.6580   8
  -1  -6  -1-5.58515 28.3399   5
  -1   6  -1-17.6323 16.1675  14
   1  -6   1-5.92799 40.7014   8
   1  -6   1 116.176 49.7014   4
   1   6   1-21.6399 39.1008  14
  -1  -6  -1-21.5931 35.7113   3
  -1  -6  -1 16.5680 41.7701   6
   1   6   1 2.88476 22.2403  15
   1  -6   1-23.4531 49.0498   7
  -1  -6  -1 118.590 59.9961   7
   1   6   1 35.4881 37.7635   9
  -1   6  -1 70.3975 47.7882  12
  -1  -6  -1 32.3132 28.9445  16
   1  -6   1-1.50742 18.8490   1
  -1   6  -1 52.7106 24.8626   2
  -1   6  -1-31.4993 35.3558   9
   1  -6   1 11.3291 46.0209   5
  -1  -6  -2 1046.29 145.407   7
   1  -6   2 1457.28 142.963   4
   1  -6   2 1359.42 161.243   7
   1   6   2 1458.02 113.160  15
  -1  -6  -2 1386.90 102.547  16
  -1   6  -2 1433.92 121.399  11
   1  -6   2 1546.84 163.249   5
  -1   6  -2 1485.91 169.155   9
   1  -6   2 1439.03 149.313   8
  -1   6  -2 1314.61 82.8535   2
  -1  -6  -2 1664.95 197.070   6
  -1  -6  -2 1619.72 127.552   5
  -1  -6  -2 1725.67 166.843   8
   1  -6   3 7.02317 42.3925   8
   1  -6   3-31.0875 39.2649   6
   1  -6   3 26.1240 39.2492   4
  -1   6  -3 39.9582 38.0047  11
  -1   6  -3-13.2891 57.9817  13
   1  -6   3 61.8993 54.2565   7
   1  -6   3-124.925 63.1384   5
  -1   6  -3-56.6258 46.4584  12
  -1   6  -3-25.0658 39.1931  10
  -1   6  -3 45.0778 38.3527   9
   1  -6   4-17.1242 46.9282   4
   1  -6   4 94.8062 54.8978   8
   1  -6   4 90.4114 41.3136   6
   1  -6   4-19.3281 56.7813   7
  -1   6  -4 5.43848 52.4859  12
  -1   6  -4 24.2446 51.6101  13
  -1   6  -4 58.1691 54.0826  10
   1  -6   4 15.5081 35.3183  15
  -1   6  -4 43.7771 38.5524   9
   1  -6   4 120.148 61.9834   5
   1  -6   5 401.639 91.8697   8
   1  -6   5 128.928 49.0265  15
  -1   6  -5 40.7075 86.9989  12
   1  -6   5 267.532 86.9496   4
  -1   6  -5 112.903 85.0604  13
   1  -6   5 113.855 79.9431   7
  -1   6  -5 388.859 61.0461  16
   1  -6   5 295.361 67.3463   6
   1  -6   5 262.078 81.7814   5
  -1   6  -5 207.616 78.4211  10
   1  -6   6 83.0423 78.5532   7
  -1   6  -6 162.042 93.2397  13
   1  -6   6 97.6809 51.2670   6
   1  -6   6 52.3950 38.4312  15
  -1  -7   4-2.53342 42.3878   8
  -1  -7   4 156.782 74.4306   7
   1   7  -4 22.3611 41.0936  10
  -1  -7   4 21.5666 52.2502   6
  -1  -7   4 73.5295 44.9652   3
  -1  -7   3 295.341 87.7211   8
  -1  -7   3 291.675 88.1894   7
   1   7  -3 311.818 84.6507  11
  -1  -7   3 247.091 83.6764   6
   1   7  -3 254.716 85.5737  10
  -1  -7   3 253.809 64.4935   3
   1   7  -2-3.97520 35.4036  14
   1   7  -2 38.5386 50.4339  10
  -1  -7   2 28.4573 48.8458   7
   1   7  -2 66.4805 40.1964  12
   1   7  -2-24.2534 42.1133  11
  -1  -7   2 8.21373 51.1118   6
  -1  -7   2 56.7042 45.6740   5
  -1  -7   2 125.864 55.6382   3
  -1  -7   1 89.0294 50.0082   8
   1   7  -1 57.5084 43.2310  14
   1   7  -1 26.7912 41.6038  12
   1   7  -1 69.4827 53.4359  10
  -1  -7   1 100.152 65.1219   6
  -1  -7   1 29.8721 49.6622   7
   1   7  -1-2.14601 39.7176   9
   1   7  -1-11.2218 48.8134  11
  -1  -7   1 77.2717 45.0438   3
  -1  -7   1 66.0832 44.9448   5
  -1  -7   0 489.343 99.2330   8
  -1  -7   0 438.431 101.510   7
   1   7   0 524.612 109.132  11
   1   7   0 519.455 98.2234  14
  -1  -7   0 531.992 114.214   6
  -1  -7   0 525.675 95.1019   3
  -1  -7   0 505.643 82.5918   5
   1   7   0 452.907 106.566   9
  -1  -7  -1 111.895 56.3380   8
  -1  -7  -1 158.285 76.9749   7
  -1  -7  -1 139.270 76.8819   6
   1  -7   1 11.9589 42.9172   4
   1   7   1 56.1839 47.9450  14
   1  -7   1 109.869 63.3108   7
   1  -7   1 55.3948 58.8053   8
   1   7   1 7.72185 43.8245   9
  -1  -7  -1-56.3224 43.9397   5
  -1   7  -1 58.1147 53.4621   9
   1  -7   1 26.6760 48.3105   5
   1  -7   2 357.918 82.8970   4
   1  -7   2 325.439 88.7817   8
   1  -7   2 200.494 76.2314   7
   1   7   2 330.158 88.9632  14
  -1  -7  -2 418.229 127.727   6
  -1   7  -2 318.101 86.0327  12
  -1  -7  -2 386.899 62.4915  16
  -1   7  -2 150.293 95.0126  13
  -1   7  -2 312.409 66.2787  11
  -1  -7  -2 288.792 89.8211   8
  -1   7  -2 352.453 98.6563   9
   1  -7   2 366.088 95.9885   5
  -1  -7  -2 444.048 94.4898   5
  -1   7  -3 37.1476 72.3459  12
   1  -7   3 357.333 95.1135   8
  -1   7  -3 304.505 77.7425  13
   1  -7   3 476.835 125.284   6
   1  -7   3 218.411 80.0381   7
   1  -7   3 365.812 97.2258   5
  -1   7  -3 301.627 66.3906  11
   1  -7   3 278.775 77.8016   4
  -1   7  -3 266.269 90.7771  10
  -1   7  -3 355.268 94.0256   9
   1  -7   4 21.3862 47.2718   8
  -1   7  -4 5.95600 40.0745   9
   1  -7   4 20.9872 44.2654   6
   1  -7   4 115.258 65.2351   4
   1  -7   4 7.99281 55.2885   7
  -1   7  -4 32.3172 67.2939  12
  -1   7  -4 20.3904 57.8814  13
  -1   7  -4 69.0237 70.3875  10
   1  -7   4 163.513 73.7086   5
   1  -7   5 276.516 87.9731   4
  -1   7  -5 54.9454 59.2698  10
   1  -7   5 97.1543 60.8783   8
   1  -7   5 73.5948 69.6975   7
  -1   7  -5 177.028 80.3190   9
  -1   7  -5 53.7130 79.4450  13
  -1   7  -5-19.1543 54.7639  12
   1  -7   5 229.843 86.4935   5
   1  -7   5 77.4518 41.3189   6
   1  -7   6 87.9739 56.3372   8
  -1   7  -6 22.6678 76.5122  12
   1  -7   6 57.3722 68.5688   7
  -1   7  -6 30.9675 64.0199  13
   1  -7   6 70.9838 56.2512   5
  -1  -8   4 4.65032 56.5138   8
  -1  -8   4 98.2295 75.2935   7
  -1  -8   4-97.1593 65.1134   6
   1   8  -4 44.5662 53.5573  10
  -1  -8   4-31.4828 37.6422   3
   1   8  -3 875.984 152.773  10
  -1  -8   3 545.541 116.555   5
  -1  -8   3 914.135 119.395   3
  -1  -8   3 1101.65 168.636   6
   1   8  -3 929.586 140.666  12
   1   8  -3 1039.73 157.786  11
  -1  -8   3 1092.80 167.822   7
  -1  -8   3 1081.14 161.425   8
   1   8  -2 449.884 112.030  10
  -1  -8   2 475.644 120.465   6
   1   8  -2 549.997 108.963  12
  -1  -8   2 604.972 102.261   3
   1   8  -2 511.653 118.101  11
  -1  -8   2 600.948 123.816   8
  -1  -8   2 745.250 123.099   5
   1   8  -2 531.436 123.413   9
  -1  -8   2 503.589 122.474   7
  -1  -8   1 763.641 130.522   8
  -1  -8   1 803.636 150.039   7
   1   8  -1 734.284 133.945  10
   1   8  -1 780.870 124.736  14
   1   8  -1 836.973 143.274  11
   1   8  -1 662.343 137.145   9
  -1  -8   1 776.361 152.009   6
   1   8  -1 814.899 125.355  12
  -1  -8   1 727.712 110.740   3
  -1  -8   1 862.982 123.102   5
   1   8   0-51.3343 57.1571  10
   1   8   0-61.3715 60.2217  14
  -1  -8   0 12.2675 60.1086   6
  -1  -8   0 33.4527 57.8282   8
   1   8   0 33.7657 56.8165  11
  -1  -8   0 16.7277 44.2525   5
   1   8   0-29.5973 51.8246   9
  -1  -8  -1 312.069 107.447   7
  -1  -8  -1 225.110 85.2243   8
   1  -8   1 200.947 87.8279   8
   1   8   1 301.818 97.0166  14
   1  -8   1 197.109 69.7389   4
   1  -8   1 351.845 114.189   7
   1   8   1 173.048 81.4920  11
  -1  -8  -1 223.970 84.5911   5
  -1  -8  -1 196.093 95.2192   6
   1   8   1 189.987 83.3938   9
   1  -8   1 185.718 78.9596   5
   1   8   2-66.2541 63.0120  14
   1  -8   2 105.283 75.5174   8
  -1  -8  -2-45.4646 85.0133   8
   1  -8   2-62.6169 85.6503   7
   1  -8   2 74.4259 74.1196   5
  -1  -8  -2-36.1067 120.891   6
  -1   8  -2 11.1542 55.2961  12
  -1   8  -2 49.4747 49.0279  11
  -1  -8  -2-56.6003 125.209   5
  -1   8  -2 47.5690 58.7809   9
   1  -8   2-72.9372 56.0747   4
  -1   8  -3 435.679 91.4204  11
  -1   8  -3 84.7773 92.5034  13
   1  -8   3 236.208 82.6462   4
  -1   8  -3 74.9532 103.334  12
   1  -8   3 314.491 99.1385   8
   1  -8   3 442.524 116.361   5
  -1   8  -3 250.294 105.765  10
  -1   8  -3 343.711 103.161   9
   1  -8   3 163.401 121.685   7
   1  -8   4-67.2978 72.9438   8
   1  -8   4 64.6324 69.5195   7
   1  -8   4-35.8407 77.5182   6
   1  -8   4 207.885 83.5557   4
  -1   8  -4 39.3953 64.3180  13
  -1   8  -4-0.29911 57.2291  12
  -1   8  -4 46.4980 62.8016  10
   1  -8   4-65.8189 69.7413   5
  -1   8  -4 131.944 71.2104   9
   1  -8   5 130.144 80.8195   8
   1  -8   5 48.2768 60.7745   7
   1  -8   5-57.5941 59.2292   4
  -1   8  -5 21.3836 59.1123  13
  -1   8  -5 34.3362 60.7631  12
   1  -8   5 132.083 85.7080   5
  -1   8  -5 81.8848 62.8558  10
  -1   8  -5-25.5523 57.0207   9
   1  -8   6 191.081 88.9550   8
   1  -8   6 96.6461 101.829   7
  -1   8  -6 22.8597 80.7452  13
  -1   8  -6 42.9574 87.6797  12
   1  -8   6 302.963 107.262   5
  -1   8  -6 133.154 87.8330  10
  -1   8  -6 165.710 87.4329   9
  -1   8  -7 79.5898 72.9386  12
   1  -8   7 208.835 93.4556   5
  -1  -9   4 322.302 114.100   8
  -1  -9   4 363.606 112.222   6
   1   9  -4 228.065 96.8807  10
   1   9  -4 323.698 116.046  12
  -1  -9   4 295.611 103.110   7
  -1  -9   3 60.5893 59.7106   8
   1   9  -3 124.600 88.9635   9
  -1  -9   3 190.169 97.3468   7
  -1  -9   3 151.852 83.7123   6
   1   9  -3 249.619 94.3623  12
  -1  -9   3 37.2827 54.3944   5
   1   9  -3 81.1446 70.5112  11
   1   9  -3 125.450 83.3035  10
  -1  -9   2 955.803 174.663   7
  -1  -9   2 864.677 162.977   6
   1   9  -2 902.628 166.527  10
  -1  -9   2 902.906 165.910   8
   1   9  -2 899.348 143.272  12
  -1  -9   2 940.139 154.311   5
   1   9  -2 1155.10 181.019  11
   1   9  -2 841.388 166.216   9
  -1  -9   1 458.377 130.071   7
  -1  -9   1 460.969 124.622   8
  -1  -9   1 580.926 135.654   6
   1   9  -1 472.214 126.772  10
   1   9  -1 444.536 125.157  11
  -1  -9   1 637.964 127.577   5
   1   9  -1 480.187 126.272   9
  -1  -9   0 1419.66 216.761   6
   1   9   0 1108.80 183.617  10
   1   9   0 1117.58 165.581  14
  -1  -9   0 1296.19 206.505   7
   1   9   0 1168.56 187.271  11
  -1  -9   0 1242.69 184.701   5
   1   9   0 1080.01 186.845   9
  -1  -9   0 1173.24 183.050   8
  -1  -9  -1 44.0207 79.2020   8
   1  -9   1-79.5143 84.9810   8
   1   9   1 80.0230 74.4464  14
  -1  -9  -1 235.584 130.700   6
  -1  -9  -1 50.0572 175.801   5
   1  -9   1 86.1595 77.8202   5
  -1   9  -1 3.54676 58.4414  11
   1   9   1 112.369 84.7884  11
  -1  -9  -1 92.9162 67.7271   7
   1   9   1 8.39091 49.1748   9
   1  -9   2 1284.85 174.753   4
  -1   9  -2 1647.39 196.042  11
   1  -9   2 755.188 225.441   7
   1  -9   2 1873.97 248.202   5
  -1   9  -2 1195.59 196.909   9
   1  -9   2 1698.05 232.356   8
   1  -9   3 219.417 101.347   8
  -1   9  -3 236.507 97.8086   9
   1  -9   3 115.865 100.458   7
   1  -9   3 9.61390 52.3189   4
  -1   9  -3 51.1662 96.1462  12
  -1   9  -3 116.813 91.9407  10
   1  -9   3 288.224 119.919   5
   1  -9   4 128.603 72.3018   8
   1  -9   4 249.391 91.0779   4
  -1   9  -4-7.39610 74.2149  12
   1  -9   4 79.0128 92.5858   7
  -1   9  -4 0.16647 75.1652  13
   1  -9   4 146.388 89.9208   5
  -1   9  -4 100.576 78.2152  10
  -1   9  -4 7.51212 53.9702   9
   1  -9   5 89.3511 80.2597   8
   1  -9   5 29.0519 91.7710   7
   1  -9   5 34.2367 67.1892   5
  -1   9  -5 22.5010 72.8922  13
  -1   9  -5 37.7691 58.6786  12
  -1   9  -5 53.0601 77.9619  10
  -1   9  -5 85.1947 80.6871   9
   1  -9   6-35.1916 77.6926   5
   1  -9   6-23.1975 81.8141   7
  -1   9  -6 0.18841 63.4164  12
  -1   9  -6-37.5719 78.2131  13
   1  -9   6 71.0385 76.2078   8
  -1   9  -6-3.89907 55.2422  10
  -1   9  -6 62.4979 69.0949   9
  -1   9  -7-10.3686 115.558  12
   1  -9   7-66.9413 85.6316   5
  -1 -10   4 162.738 107.291   8
  -1 -10   4 232.932 108.254   7
   1  10  -4 166.480 109.072  12
  -1 -10   4 232.261 102.288   6
   1  10  -4 176.698 91.6289  10
   1  10  -4 106.156 89.9168   9
  -1 -10   3 128.941 79.6120   8
  -1 -10   3 107.204 89.7839   7
  -1 -10   3 158.542 87.4504   6
   1  10  -3 110.183 79.3844  12
   1  10  -3 104.536 88.9293  10
   1  10  -3-61.0365 77.3541   9
  -1 -10   2 78.6894 83.0855   8
  -1 -10   2 96.2480 85.6589   7
  -1 -10   2-55.0890 78.7669   6
   1  10  -2-217.496 112.790  10
   1  10  -2-2.87422 53.5681  12
   1  10  -2-63.3747 66.3544  11
   1  10  -2-11.6332 70.7927   9
  -1 -10   2 22.7793 83.0453   5
  -1 -10   1 302.395 117.703   7
  -1 -10   1 197.992 96.7870   8
  -1 -10   1 286.065 132.371   6
   1  10  -1 230.274 104.547  11
  -1 -10   1 339.106 146.980   5
   1  10  -1 303.431 113.485  10
   1  10  -1 326.818 120.340   9
  -1 -10   0-83.0013 98.7907   8
   1  10   0-94.6661 81.3735   9
   1  10   0-76.7576 94.1258  11
  -1 -10   0 8.88665 79.7791   7
  -1 -10   0-61.8323 97.9916   6
   1  10   0 63.3898 87.3301  10
  -1 -10  -1 66.9118 120.491   8
   1  10   1 64.4160 80.6195  11
   1  10   1-155.662 114.316  10
   1 -10   2-31.2979 107.191   8
   1 -10   2-85.0902 90.2437   7
  -1  10  -2 147.016 105.735  10
   1 -10   2 160.859 114.949   5
   1 -10   3-100.245 100.173   8
   1 -10   3 23.4526 92.5834   5
  -1  10  -3-63.9343 102.813  10
   1 -10   3 7.23467 82.2451   7
  -1  10  -3-255.237 109.873   9
   1 -10   4 59.5345 83.7700   8
   1 -10   4 0.84163 87.2687   5
  -1  10  -4-9.09733 79.8571  12
  -1  10  -4-12.9117 72.2676  10
   1 -10   4 44.6560 98.6455   7
  -1  10  -4 108.450 83.2697   9
   1 -10   5 539.217 144.728   8
   1 -10   5 239.641 156.589   7
   1 -10   5 477.084 152.255   5
  -1  10  -5 289.755 127.477  10
  -1  10  -5 25.7015 130.106  12
  -1  10  -5 371.109 129.520   9
   1 -10   6 60.9842 71.5950   8
  -1  10  -6-19.7465 73.5491  12
   1 -10   6 42.1737 80.0977   5
   1 -10   6 24.8743 121.140   7
  -1  10  -6-12.7158 70.2698  10
  -1  10  -6 48.5564 86.5181   9
  -1  10  -7 1.54057 71.5219  12
  -1 -11   4 63.0979 82.2393   8
  -1 -11   4-176.203 111.074   7
  -1 -11   4 69.4771 73.2249   6
   1  11  -4-36.6451 102.671  12
   1  11  -4 39.9933 71.7839  10
   1  11  -4-24.6170 90.2429   9
  -1 -11   3 51.3619 96.0738   8
  -1 -11   3 1.87391 72.0334   6
  -1 -11   3-72.6498 105.852   7
   1  11  -3-5.52876 73.2033  10
   1  11  -3 2.31829 83.6822   9
  -1 -11   2 29.4114 77.1599   8
  -1 -11   2 117.125 89.8900   7
  -1 -11   2-51.4141 89.9123   6
   1  11  -2-143.911 117.003  11
   1  11  -2 103.095 102.365  10
   1  11  -2 41.9859 72.1827   9
  -1 -11   1-41.0916 94.8193   8
  -1 -11   1 52.1854 97.1189   6
  -1 -11   1-147.764 118.623   7
   1  11  -1 160.628 111.476  11
   1  11  -1 3.23114 77.4104  10
   1  11  -1-23.9485 82.9893   9
  -1 -11   0-50.1382 106.900   8
   1  11   0 327.050 132.186  11
  -1 -11   0 11.6011 149.877   6
  -1 -11   0-62.6914 92.1867   7
   1  11   0 6.18102 85.2257  10
   1 -11   3 221.873 152.261   8
  -1  11  -3 24.2716 88.9624  10
   1 -11   3-17.6278 98.2964   5
   1 -11   3 26.1971 82.2581   7
   1 -11   4 9.24959 93.5533   7
   1 -11   4-108.903 106.876   8
  -1  11  -4-217.515 118.343  10
   1 -11   4 42.2914 89.5026   5
  -1  11  -4 41.7230 84.6398   9
   1 -11   5-113.805 104.053   8
   1 -11   5-135.460 129.673   7
   1 -11   5-8.73969 89.4254   5
  -1  11  -5-25.6081 91.8304  12
  -1  11  -5 32.7269 83.4568  10
  -1  11  -5-166.554 107.447   9
   2   0   1-19.6624 25.2751  14
   2   0   1 23.3680 22.3811   1
  -2   0  -1 13.4447 20.0656  16
  -2   0  -1-6.43310 15.6289   6
  -2   0  -1-27.9676 30.4094  13
   2   0   1-34.7480 27.5192  15
   2   0   1 25.6698 22.6115   4
  -2   0  -1-15.6847 18.9436   3
   2   0   1 17.0520 19.9529   5
  -2   0  -1 5.48135 19.6952   2
   2   0   2 8228.31 274.757   4
  -2   0  -2 8276.98 273.966   2
   2   0   2 8006.22 293.040  15
  -2   0  -2 7969.56 202.762   6
   2   0   2 8046.49 278.871  14
   2   0   2 7897.64 299.876   1
  -2   0  -2 8328.31 291.140  13
  -2   0  -2 8345.76 263.321  16
   2   0   2 8015.82 206.292   5
  -2   0  -2 8492.76 285.066   3
   2   0   3 24.0982 30.6775   1
   2   0   3 73.9435 39.6377   4
   2   0   3 48.2122 38.6306  15
   2   0   3 22.7265 30.1158  14
  -2   0  -3 26.5058 29.7921  13
  -2   0  -3 136.750 42.5662   6
  -2   0  -3 121.310 35.9290  12
  -2   0  -3 103.529 43.9181  16
  -2   0  -3 182.957 55.4648   2
   2   0   3 56.5467 24.6036  11
  -2   0  -3 91.0661 40.3127   3
   2   0   3 84.5070 30.7810   5
   2   0   4 2763.07 182.759   4
  -2   0  -4 2738.23 176.352   2
   2   0   4 2701.84 198.165   1
   2   0   4 2464.53 180.773  15
  -2   0  -4 2865.13 192.527   3
   2   0   4 2554.14 170.452  14
  -2   0  -4 2500.64 176.783  13
  -2   0  -4 2717.69 169.467  16
   2   0   5-3.72736 31.2112   4
   2   0   5 13.4797 30.6598  15
  -2   0  -5 22.4011 37.0766  16
   2   0   5-1.50262 33.0343   1
   2   0   5 88.8500 19.0912   7
  -2   0  -5-32.1564 41.6736   2
  -2   0  -6 840.746 216.891  16
   2   0   6 997.605 195.732  15
  -2   0  -6 1078.60 356.642   2
   2   1   0 2737.86 155.699   4
   2   1   0 2540.03 169.012  15
  -2  -1   0 2632.96 143.701  16
   2   1   0 2553.69 162.380   1
   2   1   0 2812.29 191.374  14
  -2  -1   0 2656.93 165.940   6
  -2  -1   0 2607.20 146.363   2
  -2  -1   0 2762.90 164.012   3
   2   1   1 421.209 56.5816   4
   2  -1   1 480.494 75.0576   4
  -2  -1  -1 377.747 59.8249   2
  -2   1  -1 480.328 66.8469   2
  -2  -1  -1 368.781 57.9532  16
  -2  -1  -1 425.617 65.6284  13
   2  -1   1 391.671 70.6727   1
   2   1   1 310.931 59.3560  14
   2   1   1 375.928 66.5112   1
  -2   1  -1 419.907 60.4328  16
   2   1   1 393.824 68.3553  15
  -2   1  -1 393.373 71.8961  13
  -2  -1  -1 375.647 63.7647   3
  -2   1  -1 366.305 54.2764   3
  -2  -1  -1 439.144 57.5302   6
   2  -1   1 370.498 65.1154  15
  -2  -1  -1 373.004 33.2808   7
   2   1   1 410.483 39.2182   5
   2  -1   1 486.447 69.4151   5
   2  -1   2-29.5240 15.2691   8
   2  -1   2-18.5543 31.0869  15
   2   1   2-28.5161 26.6745   4
   2  -1   2-23.2596 26.9147   4
  -2   1  -2-23.7844 13.8179   6
   2   1   2-48.5438 35.3358  15
   2  -1   2-59.9892 34.7923   1
   2   1   2-72.9978 30.1303  11
   2  -1   2-64.8966 33.9138  14
   2   1   2-23.3225 28.4587  14
  -2  -1  -2 5.19670 22.5604  16
  -2  -1  -2-46.5310 28.0616   6
  -2   1  -2-41.2740 25.6669  12
  -2  -1  -2-83.2364 37.9100  13
  -2   1  -2-9.11858 25.6136  13
   2   1   2-9.22537 13.5693   5
  -2  -1  -2-66.3661 38.0792   2
  -2  -1  -2-10.3144 28.2809   3
   2   1   2-13.0752 28.0299   1
  -2   1  -2-37.5590 29.9023  16
  -2   1  -2-24.4239 22.5911   3
  -2   1  -2 20.7551 23.1155   2
   2  -1   2-53.6918 24.9386   5
  -2   1  -3 337.477 54.4917  16
  -2  -1  -3 374.496 66.3846   2
   2  -1   3 365.934 74.4925   1
   2   1   3 397.605 72.9902  15
   2  -1   3 316.299 66.5493  15
   2  -1   3 410.281 60.8684   5
   2  -1   3 378.673 69.5404   4
   2   1   3 342.953 69.0637  14
   2  -1   3 374.261 64.0424  14
  -2   1  -3 436.546 66.2252   3
  -2   1  -3 345.044 70.9093  13
  -2   1  -3 369.239 61.7901  12
  -2  -1  -3 387.101 61.9349   6
  -2  -1  -3 357.340 64.2057  13
   2   1   3 372.618 54.0180  11
  -2  -1  -3 410.571 65.8054  16
  -2  -1  -3 296.054 39.4745  12
   2   1   3 364.980 72.8365   1
  -2   1  -3 406.890 66.7382   2
  -2  -1  -3 371.016 69.4068   3
   2   1   3 386.553 64.8437   4
  -2  -1  -4 2185.50 160.610   2
   2  -1   4 2211.58 168.680   4
  -2   1  -4 2141.41 156.010   2
   2   1   4 2104.08 174.841   1
   2  -1   4 2002.37 172.426   1
  -2   1  -4 2211.92 148.989  16
  -2   1  -4 2146.36 146.909  12
   2  -1   4 2046.00 141.279  14
   2  -1   4 2082.36 162.919  15
   2   1   4 2183.24 168.848  15
   2   1   4 2062.77 162.343  14
  -2   1  -4 2572.75 178.527   3
  -2  -1  -4 2262.57 178.947   3
  -2  -1  -4 2246.09 156.424  16
  -2  -1  -4 2150.43 159.864  13
  -2   1  -4 2120.60 168.965  13
   2  -1   4 2312.30 145.695   5
  -2   1  -4 1884.55 108.526   9
   2   1   4 2168.98 161.506   4
   2  -1   5 21.4733 18.8460   7
  -2  -1  -5-22.0433 47.1129  16
   2   1   5 41.6558 38.8482  15
  -2   1  -5 1.69105 35.0549   2
  -2  -1  -5 68.4812 47.3795   2
  -2   1  -5 18.5013 32.7868  13
   2   1   5 29.6993 47.8090   1
  -2   1  -5 23.4293 32.4204  16
   2  -1   5 3.20571 34.3999  15
   2  -1   5 22.1140 34.9283   1
   2  -1   5-6.43156 30.2545   4
  -2   1  -6-54.1848 55.2722  16
   2  -1   6 60.5895 55.9837  15
   2  -1   6-13.8670 24.8662   7
  -2   1  -6-41.6722 82.7236   2
   2   2   0 6957.39 204.606   4
  -2  -2   0 6985.49 233.354  16
  -2  -2   0 7067.69 281.381   3
   2   2   0 6792.08 270.104  15
   2   2   0 6790.34 260.514   1
   2   2   0 6390.75 274.482  14
  -2  -2   0 7020.41 260.311   6
  -2  -2   0 6946.32 239.104   2
  -2  -2   0 6625.29 203.781   7
   2   2   1 786.249 69.9520   4
   2  -2   1 975.820 117.472   4
  -2  -2  -1 753.836 81.4194   2
  -2  -2  -1 793.164 82.2593  16
   2  -2   1 831.002 104.048   1
   2  -2   1 750.599 97.1125  15
   2   2   1 819.015 95.2195   1
  -2  -2  -1 979.960 94.4567  13
   2   2   1 721.460 93.3330  14
  -2  -2  -1 817.865 87.8093   6
  -2   2  -1 844.916 106.735  13
  -2  -2  -1 783.029 96.9183   3
  -2   2  -1 783.014 86.2509   2
   2   2   1 794.127 87.6411  11
   2   2   1 762.048 91.5477  15
   2  -2   1 928.933 108.880   5
  -2   2  -1 711.467 68.5162   3
  -2  -2  -1 691.881 56.5538   7
   2   2   2 2915.44 146.409   4
   2  -2   2 3043.45 192.749   4
  -2  -2  -2 2988.32 170.951   2
  -2   2  -2 2959.97 167.012   2
  -2  -2  -2 2951.26 121.387   7
  -2  -2  -2 2915.67 191.022   3
   2   2   2 2976.55 169.456  11
  -2   2  -2 2967.87 158.096  16
   2   2   2 3027.36 187.984  15
   2   2   2 3079.86 192.493   1
   2   2   2 2739.72 187.541  14
  -2  -2  -2 2952.26 174.544   6
  -2  -2  -2 2883.56 155.371  13
  -2   2  -2 2789.33 186.421  13
   2  -2   2 2546.87 174.321   1
   2  -2   2 2790.88 178.577  15
  -2   2  -2 2911.38 179.468  12
  -2   2  -2 2801.07 140.208   3
   2  -2   2 2800.56 165.746   5
  -2  -2  -2 2938.28 162.863  16
   2   2   2 2990.44 131.894   9
   2  -2   2 2710.26 119.087   8
  -2  -2  -3 2977.71 179.257   2
   2  -2   3 2962.43 199.313   4
  -2   2  -3 3105.63 179.320   2
   2   2   3 3044.46 203.104   1
  -2  -2  -3 2949.48 170.899  16
  -2   2  -3 3099.66 165.400  16
   2  -2   3 2853.48 194.764   1
   2   2   3 2991.01 191.148  15
   2  -2   3 2793.59 183.843  15
   2   2   3 2922.55 200.399  14
  -2  -2  -3 3031.12 186.744   6
   2  -2   3 2781.05 147.479  14
  -2   2  -3 3017.43 202.319  13
  -2   2  -3 2952.91 154.047   3
  -2   2  -3 2886.99 183.616  12
   2  -2   3 3099.42 180.611   5
  -2  -2  -3 3070.65 203.134   3
   2   2   3 2811.25 102.389  10
  -2   2  -3 2534.81 117.089  10
  -2  -2  -3 2953.30 100.760   8
   2  -2   3 2975.72 124.206   8
  -2  -2  -3 2962.28 165.059  13
   2   2   3 3114.31 167.437   4
   2   2   4 1887.01 168.691   1
   2   2   4 1692.32 151.415  15
  -2  -2  -4 1882.87 172.837   3
  -2  -2  -4 1832.45 146.655  16
  -2   2  -4 1886.57 171.878  13
  -2   2  -4 1467.65 105.356   9
  -2  -2  -4 1538.90 75.2355   8
  -2  -2  -4 1878.29 159.336   2
  -2  -2  -5 55.4671 75.6765   2
  -2   2  -5 200.200 55.3555  16
   2   2   5 178.233 70.4781  15
   2  -2   5 175.683 59.5241  15
   2  -2   5 112.046 42.6811  14
   2  -2   5 161.937 60.7545   1
   2   2   5 120.702 64.7916   1
   2  -2   5 168.560 60.9930   4
  -2  -2  -5 140.365 74.7222  16
  -2   2  -5 159.942 53.6085   2
   2  -2   5 149.705 52.6911   5
  -2   2  -5 136.572 60.0407  13
   2  -2   5 142.690 38.6542   7
   2  -2   6 451.325 99.1772   4
  -2   2  -6 433.220 85.9223  16
  -2   2  -6 487.001 148.174   2
   2  -2   6 446.656 95.8278  15
   2  -2   6 261.350 55.5816   7
  -2   2  -6 485.365 106.225  13
   2   3  -1 1721.33 144.349   1
   2   3  -1 1816.58 172.912  14
  -2  -3   1 1611.09 142.907   7
  -2  -3   1 2154.80 173.592   6
  -2  -3   1 1865.34 134.434   2
  -2  -3   1 2240.93 179.210   3
   2   3   0 284.131 38.0896   4
   2   3   0 186.849 55.3596  14
  -2  -3   0 274.573 49.2250  16
   2   3   0 261.352 58.9018  15
  -2  -3   0 262.206 45.2127   7
   2   3   0 210.943 50.6127   1
  -2  -3   0 228.995 58.1985   6
   2   3   0 254.682 59.5139  11
  -2  -3   0 257.102 60.2073   3
  -2  -3   0 261.798 49.5857   2
  -2  -3  -1 11.1336 19.6907   8
  -2   3  -1 118.789 43.9521   2
   2  -3   1-21.4738 45.2084   8
   2   3   1 48.6010 21.4174   4
   2   3   1 71.4296 35.0685  15
   2  -3   1 110.606 59.0041   4
   2   3   1 55.4194 29.4116   1
  -2  -3  -1 83.3049 28.9791   7
  -2   3  -1 227.172 63.6477  13
   2  -3   1 31.1777 33.5756   1
  -2  -3  -1 39.8699 35.8792   6
   2   3   1 26.8997 28.0080  11
   2   3   1 34.7029 32.4900  14
  -2  -3  -1 2.23289 26.1984   2
   2   3   1 26.0805 20.6323  10
  -2  -3  -1 50.7366 34.9255   3
  -2  -3  -1 49.9743 29.9792  16
   2  -3   1 112.802 52.4067   5
   2   3   2 466.531 80.4231   1
  -2   3  -2 385.144 62.8692  16
  -2  -3  -2 434.823 64.7695   7
   2  -3   2 358.491 76.7491   4
   2   3   2 420.467 75.6344  15
  -2   3  -2 357.219 46.7652   3
  -2  -3  -2 361.514 52.1314  13
  -2   3  -2 455.708 82.8685  13
   2  -3   2 355.389 68.0758   1
  -2  -3  -2 359.407 61.2718  16
  -2  -3  -2 403.998 75.7142   6
  -2  -3  -2 385.960 66.0389   2
  -2   3  -2 373.526 72.2083  12
   2   3   2 396.986 70.9532  11
   2  -3   2 387.337 69.8786  15
   2   3   2 391.723 54.5405  10
  -2  -3  -2 339.467 74.5409   3
  -2   3  -2 335.019 61.3324   2
   2   3   2 384.339 59.9413   9
   2   3   2 352.321 74.7114  14
   2  -3   2 394.656 74.3764   5
  -2  -3  -2 430.930 54.3101   8
   2  -3   2 378.869 55.7350   8
  -2   3  -3 35.4952 30.6837  16
   2  -3   3 24.0406 25.4117   8
  -2  -3  -3 23.0770 21.4230   8
  -2  -3  -3 46.7879 33.3357  16
   2  -3   3 54.1828 40.4374   4
   2   3   3 41.9681 32.6005  15
   2  -3   3-7.85857 33.4375  15
   2  -3   3 9.39703 23.7772   7
   2  -3   3-10.1801 31.4556   1
   2   3   3 43.6826 39.3539  14
  -2  -3  -3 26.6603 34.4401   2
  -2  -3  -3 90.5931 45.2219   6
  -2  -3  -3 18.1406 23.9088  13
  -2   3  -3 6.79980 30.6325  13
  -2   3  -3-3.55935 27.2396  12
  -2   3  -3 69.0007 27.0615   3
  -2  -3  -3 18.6862 30.7335   3
  -2   3  -3 82.4564 40.7637   2
   2  -3   3-4.90474 33.6124   5
   2   3   3 67.0995 41.2617   1
   2   3   4 1532.21 166.046   1
   2  -3   4 1321.52 150.532   4
  -2   3  -4 1349.50 127.001   2
  -2   3  -4 1371.74 116.279  16
  -2  -3  -4 1318.60 131.477  16
   2   3   4 1342.49 137.004  15
   2  -3   4 1111.82 87.4501  14
  -2  -3  -4 1356.15 157.819   3
   2  -3   4 1248.20 131.904  15
  -2  -3  -4 1313.63 224.207   6
   2  -3   4 1310.56 134.745   5
  -2   3  -4 1114.39 99.4068  10
  -2   3  -4 1218.45 110.798   9
   2  -3   4 1173.60 98.5867   8
  -2  -3  -4 1777.84 187.745   2
  -2  -3  -4 1362.69 92.8851   8
  -2   3  -5 127.745 41.4086   9
  -2  -3  -5 141.876 107.477  16
  -2   3  -5 121.247 48.7737  16
  -2   3  -5 16.6561 48.1563  13
   2  -3   5 27.5921 43.3729   4
   2  -3   5 83.5993 51.4339  15
   2   3   5 59.0951 58.9151  15
   2  -3   5 12.4312 27.2243   7
  -2   3  -5 11.3847 46.4964  12
  -2   3  -5 15.4657 45.3287   2
   2  -3   5 61.5241 47.2347   1
   2  -3   5 126.499 55.0027   5
   2  -3   5 76.0818 33.9183  14
   2  -3   6 94.2285 66.4016   4
  -2   3  -6-0.88162 39.3588  16
  -2   3  -6 38.1014 91.2609   2
   2  -3   6 26.8636 50.0556  15
   2  -3   6-6.65415 34.2265   7
   2  -3   6 142.204 46.0225  14
  -2   3  -6 32.0854 69.1982  13
   2  -3   6 193.953 72.7294   5
  -2   3  -7 119.561 65.6565  16
   2  -3   7 94.0020 77.2638  15
   2  -3   7 132.351 55.6523   7
  -2   3  -7 0.17566 91.0097  13
   2   4  -1 101.472 38.9024   1
  -2  -4   1 136.941 47.2896   7
   2   4  -1 74.2648 42.9969  14
  -2  -4   1 165.310 54.6764   6
  -2  -4   1 102.256 44.5878   3
  -2  -4   1 138.877 41.1482   2
   2   4   0 1072.74 57.5116   4
  -2  -4   0 1123.27 97.3288   2
  -2  -4   0 1022.98 90.3743  16
  -2  -4   0 1078.92 106.143   7
   2   4   0 1062.25 105.265   1
   2   4   0 1124.58 113.234  15
   2   4   0 974.085 124.319  14
  -2  -4   0 1039.47 122.086   3
   2   4   0 1047.78 121.280  11
   2   4   0 983.773 108.803  10
  -2  -4   0 1019.37 97.9337   8
  -2  -4   0 1194.35 130.677   6
  -2   4  -1-19.4674 35.5474   2
  -2  -4  -1-19.4576 25.6434   8
  -2  -4  -1-62.6518 47.3568  16
   2  -4   1-35.7447 45.3670   8
   2  -4   1 10.5713 47.0338   4
   2   4   1-8.89887 36.3689  14
   2   4   1-15.4653 29.7681  15
  -2   4  -1 15.5998 31.4546  13
  -2  -4  -1-27.0421 33.6655   6
  -2  -4  -1-33.8083 35.9122   2
   2   4   1 19.8867 35.1794  11
   2  -4   1-2.21547 43.0037   1
  -2  -4  -1 27.4965 31.0460   7
  -2  -4  -1-37.8740 40.4194   3
   2   4   1 1.26475 21.6479   9
   2   4   1 9.62842 25.2935  10
   2   4   1 0.29245 25.6264   1
   2  -4   1 25.9619 45.0702   5
  -2  -4  -2-4.97261 28.7265   8
   2  -4   2-10.2993 31.9296   8
  -2  -4  -2-41.8423 37.3498  16
   2   4   2-28.4947 31.5428  15
  -2  -4  -2 54.1231 38.1750   7
   2   4   2 40.4294 29.8495  10
  -2   4  -2-3.88766 36.6697  13
   2   4   2-25.6771 33.5663   1
   2  -4   2 48.1007 41.3587   4
   2   4   2-32.0029 40.4479  14
   2  -4   2 15.4038 31.4486   1
  -2  -4  -2 45.6241 26.3440  13
  -2  -4  -2 49.4680 43.1055   6
  -2   4  -2-10.5102 43.3651  12
   2   4   2 25.7097 37.3587  11
  -2  -4  -2 35.4227 33.0625   2
  -2  -4  -2 47.1170 40.0366   3
  -2   4  -2 19.1741 16.0069   3
  -2   4  -2 3.24972 26.1234   2
   2   4   2-22.3079 34.8182   9
   2  -4   2-2.59017 36.1862   5
   2  -4   3 384.243 69.6159   8
  -2  -4  -3 424.328 64.3083   8
   2  -4   3 54.7622 69.1419   1
   2  -4   3 210.789 62.7366   7
   2  -4   3 326.322 80.6774   4
   2   4   3 428.935 83.5890   1
  -2  -4  -3 506.131 92.1368   2
   2  -4   3 262.817 70.6232  15
   2   4   3 365.184 81.4791  14
  -2  -4  -3 363.668 67.5484  16
  -2   4  -3 327.093 60.2741  16
  -2  -4  -3 370.357 54.1004  13
  -2  -4  -3 405.128 89.0142   6
  -2   4  -3 149.783 82.8777  13
  -2   4  -3 57.7478 82.0780  12
  -2  -4  -3 379.364 84.8259   3
  -2   4  -3 323.819 65.2695   2
   2   4   3 319.506 67.1195  15
   2  -4   3 341.609 79.1152   5
  -2   4  -3 327.779 70.8345   9
  -2   4  -4 1892.33 155.285   2
   2  -4   4 1876.03 184.564   4
  -2  -4  -4 1976.37 168.239  16
  -2   4  -4 1901.07 136.437  16
   2   4   4 1943.68 171.447  15
  -2  -4  -4 1789.85 264.768   6
   2   4   4 1889.03 192.701  14
  -2  -4  -4 1858.89 202.033   3
   2  -4   4 1895.52 179.933   5
  -2   4  -4 1482.14 129.916  10
  -2   4  -4 1570.01 143.140   9
   2  -4   4 1913.22 144.221   8
  -2  -4  -4 1858.55 136.738   8
   2  -4   5-10.2152 28.5688   8
   2  -4   5-21.3896 42.4275  15
   2  -4   5 30.1519 33.3207   7
   2  -4   5-34.0384 23.9135  14
  -2   4  -5-37.9316 42.1070  16
  -2   4  -5-0.11336 43.5909  13
   2  -4   5-17.8620 39.6913   1
  -2   4  -5 3.66896 44.4930   2
   2  -4   5 24.2270 40.1555   5
  -2   4  -5-25.9642 36.1749   9
  -2   4  -5 15.5443 44.1585  12
   2  -4   5 70.4333 57.4266   4
  -2   4  -6 112.892 51.8791  16
   2  -4   6 14.7562 42.8248  15
   2  -4   6 41.4067 38.4222   7
  -2   4  -6-54.6883 133.757   2
  -2   4  -6 12.4195 76.0978  13
  -2   4  -6 8.64377 60.2611  12
   2  -4   6 11.5708 52.5743   4
   2  -4   6 112.652 64.8245   5
   2  -4   7 48.0419 64.3562   4
  -2   4  -7-86.5155 71.5225  16
   2  -4   7 20.4860 40.7133   7
   2  -4   7 68.9774 80.1665  15
  -2   4  -7 35.3864 104.546  13
  -2  -5   2 2311.00 147.200   2
   2   5  -2 2163.50 170.753   1
  -2  -5   2 2415.67 204.164   7
  -2  -5   2 2385.54 219.595   6
  -2  -5   2 2378.11 204.682   3
  -2  -5   1 20.5656 27.5385   8
   2   5  -1 53.8172 33.9846   1
  -2  -5   1 81.4756 44.1548   7
   2   5  -1 14.5427 40.2595  14
  -2  -5   1 11.7869 38.4856   6
   2   5  -1-13.2371 40.4334  11
  -2  -5   1-31.6169 27.0574   2
  -2  -5   1 29.9907 38.3607   3
  -2  -5   0 3113.89 166.971   2
   2   5   0 2773.79 128.545  12
   2   5   0 3120.16 183.521   1
   2   5   0 2929.59 185.007  15
   2   5   0 3154.30 233.406  14
  -2  -5   0 3362.88 239.784   6
  -2  -5   0 3217.13 225.659   3
   2   5   0 3003.59 222.204  11
  -2  -5   0 3103.70 200.241   7
   2   5   0 3116.41 206.230  10
  -2  -5   0 3258.44 197.818   8
  -2  -5  -1 1076.33 105.843   2
   2   5   1 1115.78 115.733   1
  -2  -5  -1 1167.86 109.480  16
  -2  -5  -1 1039.32 117.717   7
  -2  -5  -1 1202.18 151.210   6
   2   5   1 1070.29 140.778  14
   2  -5   1 977.677 176.143   4
  -2  -5  -1 1074.59 138.671   3
   2   5   1 1023.18 133.777  11
   2  -5   1 1065.15 184.523   5
   2   5   1 1083.51 119.435  10
   2   5   1 1042.75 123.109   9
  -2  -5  -1 1120.13 117.636   8
  -2  -5  -2-67.0529 42.8929   8
   2  -5   2 78.2918 44.7178   8
   2  -5   2 12.5091 39.7074   1
  -2  -5  -2 147.347 56.4705   2
   2  -5   2 41.6633 45.4461   4
   2   5   2 67.4254 46.2758  14
  -2  -5  -2 76.1542 42.0832   7
   2   5   2 58.9326 39.1524  15
  -2  -5  -2 49.8666 48.8546   6
  -2  -5  -2 25.4576 31.8266  16
  -2   5  -2 29.1925 49.4846  13
   2   5   2 86.9806 43.5046   1
  -2   5  -2 1.27598 44.0389  12
   2   5   2 106.635 52.7814  11
  -2  -5  -2 20.6699 36.2756   3
   2   5   2 93.3501 43.8875  10
  -2   5  -2 101.430 41.2735   2
   2   5   2 104.069 46.7594   9
   2  -5   2 12.5640 38.9516   5
   2  -5   3 502.313 89.0586   8
  -2  -5  -3 485.104 84.5237   8
  -2  -5  -3 326.819 68.9072  16
   2  -5   3 285.222 80.8815   4
   2   5   3 348.155 87.8225  14
   2   5   3 409.804 79.2731  15
  -2  -5  -3 372.744 53.0334  13
  -2  -5  -3 350.401 94.2654   6
  -2   5  -3 526.658 102.725  13
  -2  -5  -3 397.888 93.9951   3
  -2   5  -3 47.2998 85.3314  12
  -2   5  -3 406.972 74.2875   2
   2  -5   3 235.945 81.6263   7
   2  -5   3 92.8542 84.7882   1
   2  -5   3 303.022 87.6407   5
  -2   5  -3 434.233 90.0819   9
   2  -5   4 18.1550 41.0971   8
   2  -5   4 24.4012 39.9922   1
  -2  -5  -4 57.4017 49.9764   8
  -2  -5  -4 67.8997 65.4305  16
   2  -5   4 7.67648 43.6968   4
   2  -5   4-8.17385 43.9081  15
  -2   5  -4-0.96764 33.9243  16
   2   5   4 81.2539 64.1071  14
   2  -5   4-28.4575 46.9244   7
   2   5   4 71.9011 55.7892  15
  -2   5  -4 37.8037 37.6628   2
  -2   5  -4-1.76991 60.5251  13
  -2  -5  -4-103.080 70.7196   3
  -2   5  -4 1.07749 43.0745  12
  -2  -5  -4-9.93154 81.9748   6
  -2   5  -4 26.9989 39.6492  10
   2  -5   4-156.439 68.8800   5
  -2   5  -4-89.5198 54.7300   9
   2  -5   6 881.197 151.831   4
  -2   5  -6 992.106 112.163  16
   2  -5   6 672.473 123.709  15
   2  -5   6 506.932 102.667   7
  -2   5  -6 281.960 160.410  13
   2  -5   6 1008.88 154.055   5
  -2   5  -6 99.4669 137.666  12
  -2   5  -6 825.757 127.331   9
   2  -5   7-76.8094 71.1586   4
  -2   5  -7 75.5780 63.6189  16
   2  -5   7 13.5416 59.0045  15
   2  -5   7-2.63425 51.4054   7
  -2   5  -7 7.74570 80.7610  13
  -2   5  -7-8.72464 53.8397  12
   2  -5   7-15.0755 62.8918   5
  -2  -6   2 598.777 72.7647   2
  -2  -6   2 637.242 110.792   3
  -2  -6   2 681.956 118.699   7
   2   6  -2 579.879 78.1802   1
  -2  -6   2 573.784 119.409   6
  -2  -6   1 348.757 81.8113   8
  -2  -6   1 330.486 77.6880   7
   2   6  -1 324.870 89.7000  14
   2   6  -1 358.553 64.3043  12
  -2  -6   1 326.914 90.9643   6
  -2  -6   1 361.634 59.9775   2
   2   6  -1 279.498 76.2001  11
   2   6  -1 345.952 86.4423  10
   2   6  -1 303.650 61.2935   1
  -2  -6   1 376.932 86.9623   3
  -2  -6   0 106.709 51.5336   8
  -2  -6   0 62.0691 57.6513   6
   2   6   0 58.0609 34.9595   1
  -2  -6   0 87.2120 46.1026   7
   2   6   0 96.3076 57.9246  14
  -2  -6   0 115.220 41.7053   2
   2   6   0 55.9090 30.2551  12
   2   6   0 102.537 61.4094  11
   2   6   0 160.343 60.4149  10
  -2  -6   0 83.6550 48.6997   3
   2   6   0 80.8767 53.6274   9
  -2  -6  -1 175.337 64.0898   8
  -2  -6  -1 136.056 52.7849   2
  -2  -6  -1 74.9945 45.6984   7
   2   6   1 153.789 52.6958  15
  -2  -6  -1 93.5905 61.9733   6
   2   6   1 100.738 46.2764   1
   2   6   1 61.2164 55.5390  11
  -2  -6  -1 134.730 63.5906   3
   2   6   1 142.743 58.8356  10
   2   6   1 94.2662 63.0638  14
  -2  -6  -1 56.1429 42.4561  16
   2   6   1 133.379 58.6198   9
  -2  -6  -2 73.5566 51.2998   8
   2  -6   2 12.9402 50.0261   8
  -2  -6  -2 82.5805 51.5908   7
   2  -6   2 42.4334 56.7155   4
   2   6   2 32.1718 44.6464  14
  -2  -6  -2 32.4655 53.5543   6
  -2   6  -2-122.392 65.7038  13
  -2  -6  -2 102.294 52.3354  16
   2   6   2 80.0164 46.0965  15
  -2  -6  -2 56.2756 50.5361   3
   2   6   2 68.1931 59.6861  11
   2   6   2-0.92524 38.2899  10
  -2   6  -2 77.1244 42.5661   2
   2  -6   2 2.05855 51.9800   1
   2   6   2 22.3929 40.1788   9
   2  -6   2-27.5823 54.2493   5
   2   6   3 47.4144 56.5848  14
   2  -6   3-19.2947 52.1721   8
  -2  -6  -3 50.4552 49.8470   8
  -2  -6  -3 11.2673 41.1563  16
   2   6   3-125.002 55.9562  15
   2  -6   3-6.48981 44.8998   4
   2  -6   3-26.6930 51.4373   7
  -2  -6  -3 10.6255 50.6386   6
  -2   6  -3-1.39070 46.4956  13
  -2  -6  -3 13.8454 49.2987   3
   2  -6   3-8.17051 43.4222   1
  -2   6  -3 24.3688 43.4149  12
  -2   6  -3 24.0515 38.6349   2
   2  -6   3-1.89540 52.1857   5
  -2   6  -3 12.5775 34.9766   9
   2  -6   4 234.718 81.1164   8
  -2  -6  -4 121.292 108.744   8
  -2  -6  -4 18.5670 108.371  16
   2  -6   4-10.5477 57.7721   7
   2  -6   4 35.8398 46.4169   4
   2   6   4 60.3429 72.8887  15
   2   6   4-71.6426 94.6775  14
  -2   6  -4 75.4622 52.3519   2
  -2   6  -4 28.3569 73.4545  13
  -2   6  -4 9.02151 76.6535  12
  -2   6  -4 21.0050 48.7491  10
   2  -6   4 24.9432 48.9412   1
   2  -6   4 197.555 85.1533   5
  -2   6  -4 11.4771 40.5150   9
   2  -6   5 528.465 103.202   8
  -2   6  -5 491.562 80.8414  16
   2  -6   5 161.822 69.3620   7
   2  -6   5 239.743 83.0864  15
   2  -6   5 417.698 110.014   4
  -2   6  -5 232.754 126.054  13
  -2   6  -5 76.5175 119.848  12
  -2   6  -5 462.170 128.611   2
  -2   6  -5 300.908 92.4331  10
   2  -6   5 441.041 120.688   5
  -2   6  -5 332.680 88.9016   9
   2  -6   6 1065.00 171.565   4
  -2   6  -6 939.008 111.527  16
   2  -6   6 478.466 113.438   7
  -2   6  -6 365.261 179.188  13
  -2   6  -6 149.477 177.785  12
   2  -6   6 999.047 161.011   5
  -2   6  -6 806.292 139.861   9
   2  -6   6 787.523 122.676   8
   2  -6   7 95.3841 76.0884   4
  -2   6  -7 12.4873 63.5851  13
   2  -6   7-48.1558 75.1928  15
   2  -6   7 56.9282 70.9923   7
   2  -6   7 60.8929 78.3324   5
  -2   6  -7-12.5273 75.4526  12
  -2   6  -7 24.6975 47.3805   9
  -2  -7   3-7.92834 61.6983   7
  -2  -7   3-108.116 68.2995   6
  -2  -7   3-45.0419 66.5969   3
  -2  -7   2-15.0449 46.2944   8
  -2  -7   2 226.053 85.2276   7
   2   7  -2 60.8529 39.6036  12
  -2  -7   2 119.744 76.2822   6
  -2  -7   2 165.320 68.2748   3
  -2  -7   1 647.948 117.380   8
  -2  -7   1 784.508 130.234   7
   2   7  -1 717.701 134.079  14
   2   7  -1 712.220 129.973  11
  -2  -7   1 714.865 142.698   6
  -2  -7   1 646.816 119.127   3
   2   7  -1 635.066 122.267  10
  -2  -7   0 79.9618 58.4571   8
  -2  -7   0 51.6075 56.3734   7
   2   7   0 86.1739 66.4876  14
  -2  -7   0-61.2477 59.7634   6
   2   7   0 66.6962 65.2178  11
  -2  -7   0-7.38290 42.6183   3
   2   7   0-28.8267 47.1794  10
   2   7   0 167.754 69.6523   9
  -2  -7  -1 373.529 92.1261   8
  -2  -7  -1 190.639 58.2440  16
   2   7   1 127.759 68.7264  14
  -2  -7  -1 118.556 85.8161   6
  -2  -7  -1 283.134 85.8663   3
   2   7   1 338.076 98.1446  11
   2   7   1 340.208 88.8167  10
  -2  -7  -1 201.687 71.5121   7
   2   7   1 262.849 84.0780   9
  -2  -7  -2-22.1913 55.9940   8
   2  -7   2 41.2691 71.4385   8
   2  -7   2 66.7323 76.8311   4
   2   7   2 107.160 60.8038  15
  -2  -7  -2 30.8012 53.7574   6
  -2  -7  -2-40.5076 63.2983   3
   2   7   2 45.6887 51.1063  11
  -2  -7  -2 47.5286 51.9639   7
  -2  -7  -2-40.0343 51.2377  16
   2   7   2-67.7781 60.1627  10
   2   7   2-95.1001 73.1561  14
   2  -7   2-55.1542 79.9582   5
   2   7   2 76.5662 61.2084   9
   2  -7   3 844.679 141.151   8
  -2  -7  -3 795.462 148.338   8
   2   7   3 894.715 164.720  14
   2   7   3 1078.67 144.604  15
   2  -7   3 808.443 129.834   4
  -2  -7  -3 1151.49 203.395   6
  -2  -7  -3 597.364 97.1763  16
  -2  -7  -3 834.899 187.517   3
  -2   7  -3 264.613 144.824  13
  -2   7  -3 118.619 154.449  12
   2   7   3 474.376 170.615  11
   2  -7   3 908.982 165.206   5
   2  -7   4-1.69112 52.9940   8
   2  -7   4-14.2956 66.6389   7
   2  -7   4-26.9218 64.0102   4
  -2   7  -4-6.53963 50.7467  13
  -2   7  -4 15.3238 55.3989  12
  -2   7  -4-12.3788 46.0704  10
   2  -7   4 1.77979 59.9047   5
  -2   7  -4 31.6488 48.0110   9
   2  -7   5 584.754 118.798   8
  -2   7  -5 389.842 104.278  10
   2  -7   5 189.559 79.6824   7
   2  -7   5 382.440 105.991   4
  -2   7  -5 112.876 131.206  13
  -2   7  -5 47.6244 100.338  12
   2  -7   5 536.564 126.315   5
  -2   7  -5 436.085 115.693   9
   2  -7   6 137.048 69.0227   8
   2  -7   6 248.856 106.803   4
   2  -7   6 109.820 76.1137   7
  -2   7  -6 81.4835 104.660  13
  -2   7  -6 40.0505 79.2980  12
   2  -7   6 368.420 118.188   5
  -2   7  -6 138.702 75.6064  10
  -2   7  -6 78.0166 74.0030   9
   2  -7   7 26.8424 72.9756   4
  -2   7  -7 42.7985 92.5463  13
  -2   7  -7 30.5420 110.702  12
   2  -7   7 125.742 82.5773   5
   2  -7   7 44.6062 77.2358   7
  -2   7  -7 74.4715 73.7364   9
  -2  -8   3-121.646 87.6486   7
  -2  -8   3-0.79478 74.6133   6
  -2  -8   3 17.9981 62.0552   3
  -2  -8   2 22.5408 50.0500   8
  -2  -8   2 36.9474 53.3133   7
  -2  -8   2-48.9301 67.6286   6
   2   8  -2-98.0140 76.9936  11
  -2  -8   2 13.9204 47.2120   3
   2   8  -2 29.3668 48.4336  10
  -2  -8   1 104.605 69.8976   8
  -2  -8   1-31.4529 61.5323   7
   2   8  -1 105.463 71.0517  14
  -2  -8   1 45.0561 67.1600   6
   2   8  -1-112.198 76.4407  11
  -2  -8   1 127.545 67.2723   3
   2   8  -1 82.8210 67.5499  10
   2   8  -1-52.7595 47.2249   9
  -2  -8   0 163.360 77.4820   8
  -2  -8   0 29.3872 52.8927   7
   2   8   0 155.027 83.0204  14
  -2  -8   0 46.8088 70.4422   6
  -2  -8   0 136.380 72.6995   3
   2   8   0 23.9741 55.9678  11
   2   8   0 77.2525 62.1277  10
   2   8   0 38.2928 60.4675   9
  -2  -8  -1-57.4873 63.2394   8
  -2  -8  -1-17.6729 58.3779   7
   2   8   1-12.6816 55.4214  14
  -2  -8  -1-80.2036 70.4321   6
  -2  -8  -1-44.8993 64.5245   3
   2   8   1 64.1356 68.1434  11
   2   8   1-12.8545 47.2892  10
   2   8   1-0.48517 52.2429   9
  -2  -8  -2 134.182 72.5954   8
   2  -8   2 56.4023 91.8156   8
   2  -8   2 106.010 97.0397   4
   2   8   2 137.621 77.0507  14
  -2  -8  -2 49.3988 83.2701   6
  -2  -8  -2 68.3074 73.0635   3
   2   8   2 116.928 80.6518  11
   2   8   2 68.9450 65.7194  10
   2  -8   2-111.880 108.331   5
  -2  -8  -3 864.542 256.708   8
   2  -8   3 1140.87 186.369   4
   2   8   3 992.134 200.012  14
  -2  -8  -3 678.016 198.763   6
   2   8   3 1345.56 244.558  11
   2  -8   3 1277.07 211.469   5
  -2   8  -3 803.695 168.015  10
   2  -8   3 1549.89 214.018   8
   2  -8   4 10.0515 63.1451   8
   2  -8   4 78.2434 99.4769   7
   2  -8   4 33.8279 75.6976   4
  -2   8  -4 2.30778 63.2124  13
  -2   8  -4 51.0500 69.2947  12
  -2   8  -4 24.2376 69.3760  10
   2  -8   4 201.180 98.4299   5
  -2   8  -4-27.8622 60.5277   9
   2  -8   5 84.5778 68.7406   8
   2  -8   5 43.5697 79.5679   7
  -2   8  -5 46.4568 74.3527  13
  -2   8  -5 2.07442 58.1983  12
  -2   8  -5 118.102 78.1030  10
   2  -8   5 60.0775 65.6329   4
   2  -8   5 132.553 95.2286   5
  -2   8  -5 137.405 89.2276   9
   2  -8   6 219.338 100.772   8
   2  -8   6 4.97881 78.3640   4
  -2   8  -6 1.67812 69.1580  13
   2  -8   6 64.9207 93.5189   7
  -2   8  -6-10.0837 59.3713  12
   2  -8   6 57.8767 76.8469   5
  -2   8  -6-52.4330 62.1006  10
  -2   8  -6 174.850 92.7533   9
   2  -8   7 60.3854 92.2372   7
  -2   8  -7 142.175 134.389  13
  -2   8  -7 125.878 150.499  12
  -2   8  -7 169.466 97.2035   9
  -2   8  -8-34.6601 105.895  12
   2  -8   8-77.5126 100.757   5
  -2  -9   3 41.5870 77.6248   7
  -2  -9   3 10.6393 82.0385   6
  -2  -9   2 647.473 140.856   8
  -2  -9   2 544.554 132.686   7
  -2  -9   2 735.671 169.734   6
  -2  -9   2 399.274 104.425   3
   2   9  -2 552.627 136.440  10
   2   9  -2 422.878 134.473   9
  -2  -9   1 121.255 78.3164   8
  -2  -9   1 47.8616 62.9524   7
  -2  -9   1 112.726 84.1903   6
  -2  -9   1 68.0668 57.1665   3
   2   9  -1 24.1371 65.2276  14
   2   9  -1 69.1103 71.9475  11
   2   9  -1-14.3826 60.6422  10
   2   9  -1 91.7364 80.8438   9
  -2  -9   0 79.1095 70.0296   8
  -2  -9   0-24.8457 72.6334   7
   2   9   0 212.258 105.245  14
  -2  -9   0 74.0656 75.7190   6
  -2  -9   0 143.478 79.9669   3
   2   9   0 157.396 92.4283  11
   2   9   0 138.747 81.1933  10
   2   9   0-57.3780 67.7229   9
  -2  -9  -1 46.0403 70.6878   8
  -2  -9  -1-109.750 93.3327   6
  -2  -9  -1-34.9322 74.8990   7
   2   9   1 142.297 93.2152  14
  -2  -9  -1 22.6905 60.6310   3
   2   9   1-19.9179 66.5208  11
   2   9   1 74.4122 71.9833  10
   2   9   1 54.2645 56.0479   9
  -2  -9  -2-4.42699 126.907   8
   2   9   2 16.7088 64.2365  14
  -2  -9  -2 112.159 107.944   6
   2   9   2 185.191 91.5358  11
   2   9   2 52.7699 75.6147  10
   2  -9   3 203.745 144.494   8
   2  -9   3-25.6300 74.7687   4
  -2   9  -3 16.6836 116.390  10
   2  -9   3 205.722 116.990   5
   2  -9   4-53.8618 87.9308   8
   2  -9   4-118.426 87.6539   4
  -2   9  -4 34.1187 68.8900  10
   2  -9   4 23.7086 76.1146   5
   2  -9   5-100.038 99.0754   8
   2  -9   5-62.7712 88.1911   4
   2  -9   5-12.0910 115.573   7
  -2   9  -5-13.9808 80.1329  13
  -2   9  -5 7.38660 95.4218  12
  -2   9  -5-140.313 87.1667  10
   2  -9   5 36.7127 81.4384   5
  -2   9  -5 109.861 82.5485   9
   2  -9   6-1.14078 74.6499   8
   2  -9   6 65.9245 114.402   7
   2  -9   6 25.1113 77.4780   4
  -2   9  -6-4.92446 85.4213  13
  -2   9  -6 14.7705 66.3661  12
   2  -9   6 61.4930 75.2036   5
  -2   9  -6 35.4721 74.1179  10
  -2   9  -6 176.743 102.952   9
   2  -9   7 141.676 124.314   7
  -2   9  -7-0.77062 79.5588  13
  -2   9  -7 52.6344 126.223  12
   2  -9   7 152.531 108.310   5
  -2   9  -7-109.809 114.044   9
  -2   9  -8 7.88154 133.321  12
   2  -9   8-31.1014 85.1195   5
  -2 -10   3 86.4689 97.8327   6
  -2 -10   3 52.5999 85.6933   7
   2  10  -3 5.55619 86.8798   9
  -2 -10   2 417.951 125.504   8
  -2 -10   2 315.492 117.807   7
   2  10  -2 271.976 111.720  10
   2  10  -2 131.401 93.8015   9
  -2 -10   1 95.6761 87.5809   8
  -2 -10   1-176.626 97.4199   7
  -2 -10   1 23.4158 75.4705   6
  -2 -10   1 22.2246 55.2436   3
   2  10  -1 3.81007 75.8693  11
   2  10  -1 73.0731 78.3224  10
   2  10  -1 28.5359 72.7154   9
  -2 -10   0-20.1816 73.2765   8
   2  10   0 171.761 116.855  14
  -2 -10   0 5.14423 78.3376   6
  -2 -10   0 93.2326 86.5942   3
   2  10   0-14.5679 75.1972  11
   2  10   0 90.7013 84.5729  10
  -2 -10   0 38.6662 82.4419   7
   2  10   0-123.528 93.7280   9
  -2 -10  -1 608.244 183.650   8
   2  10   1 596.322 152.997  14
   2  10   1 525.333 152.326  11
  -2 -10  -1 252.846 107.025   7
   2  10   1 672.063 179.158  10
  -2 -10  -1 444.591 155.925   6
   2  10   1 336.708 122.991   9
  -2 -10  -2 243.041 151.491   6
   2  10   2 95.5020 108.408  11
   2 -10   4-239.915 151.414   8
   2 -10   4-19.8311 77.5880   4
  -2  10  -4 3.07691 86.4969  10
   2 -10   4 75.7739 115.012   5
   2 -10   5 90.2043 104.620   8
   2 -10   5 115.589 103.295   4
   2 -10   5 109.824 124.121   7
  -2  10  -5-58.1787 76.5445  10
   2 -10   5 107.733 104.227   5
   2 -10   6-197.882 117.024   8
   2 -10   6-141.355 113.206   4
   2 -10   6 2.39462 128.229   7
  -2  10  -6-46.9392 128.579  13
  -2  10  -6-5.81710 72.7475  12
   2 -10   6-184.162 123.877   5
  -2  10  -6-23.8578 71.1443  10
  -2  10  -6 36.0255 75.7229   9
  -2 -11   3 111.102 119.998   7
  -2 -11   3 86.6813 100.222   6
   2  11  -3-170.671 139.238   9
  -2 -11   2 27.0419 68.3647   8
  -2 -11   2 243.610 131.060   7
  -2 -11   2-19.2024 80.9985   6
   2  11  -2 66.4607 87.8422  10
   2  11  -2 270.398 150.682   9
  -2 -11   1 26.7268 86.7040   8
  -2 -11   1 60.7290 93.5071   7
  -2 -11   1 90.9724 103.774   6
   2  11  -1 189.558 117.355  11
   2  11  -1 45.2586 77.0980  10
   2  11  -1 42.2290 80.5004   9
  -2 -11   0-141.209 132.112   8
  -2 -11   0 26.0486 83.8513   7
  -2 -11   0 241.728 138.819   6
   2  11   0 119.452 104.615  11
   2  11   0 25.5227 84.5784  10
   2  11   0-90.3911 90.4615   9
  -2 -11  -1 226.090 349.745   8
  -2 -11  -1 162.614 148.478   6
   2  11   1-159.531 119.604  11
   2  11   1 227.120 208.036  10
  -3   0  -1-68.4634 43.1045  16
   3   0   1 2.56950 31.9998  15
   3   0   1 51.0052 46.3063   4
  -3   0  -1-65.1842 29.6792   6
   3   0   1-49.4683 43.5605   1
  -3   0  -1-47.7463 37.6178   3
  -3   0  -1-67.1858 37.8381   2
   3   0   1 48.2955 39.5768   5
   3   0   2 788.663 111.237   4
  -3   0  -2 711.396 103.170   2
  -3   0  -2 779.884 103.273  16
   3   0   2 613.859 105.174  15
   3   0   2 778.056 119.558  14
  -3   0  -2 694.479 76.4814   6
   3   0   2 724.700 118.068   1
  -3   0  -2 857.080 125.541  13
  -3   0  -2 738.379 105.446   3
   3   0   2 609.673 70.7581   5
  -3   0  -3-16.4638 38.1375  16
   3   0   3-52.0718 55.0168  15
   3   0   3-0.18886 33.7169   4
   3   0   3-29.8142 46.9423  14
   3   0   3-32.3560 44.5398   1
  -3   0  -3-80.4078 54.4473  13
  -3   0  -3 9.82423 27.3752   6
  -3   0  -3 5.07809 37.3268   2
  -3   0  -3-16.4854 32.4021   3
   3   0   3-37.3423 29.6899   5
   3   0   4 78.6340 51.4886   4
   3   0   4 27.3983 45.2500  14
   3   0   4 0.12235 45.7259  15
  -3   0  -4 83.3494 46.0167  16
  -3   0  -4-55.0925 55.7384  13
  -3   0  -4 29.5360 44.5550   2
  -3   0  -4-15.8665 38.5265   3
   3   0   4 2.94197 43.5528   1
   3   0   4-10.4765 27.1108   5
   3   0   5-25.2605 41.5482   4
   3   0   5 0.12763 49.6613  15
   3   0   5-18.5807 44.8456  14
  -3   0  -5-9.20196 42.4532  16
  -3   0  -5 53.5666 58.8035  13
  -3   0  -5 62.1358 55.5205   2
   3   0   5 75.2219 59.3363   1
  -3   0  -5 81.0289 50.1566   3
  -3   0  -5-68.5012 43.0444  12
   3   0   6 1451.64 193.707   1
  -3   0  -6 1841.66 187.925  16
   3   0   6 1434.94 185.849  15
   3   0   6 1494.33 172.532  14
  -3   0  -6 1744.28 203.039  13
  -3   0  -6 1290.20 150.351  12
  -3   0  -6 1817.70 197.053   2
   3   0   6 1518.66 183.431   4
  -3   0  -7-59.7629 93.4128  16
   3   0   7-2.61366 69.5100  15
   3   0   7 112.394 72.4024  14
   3   0   7 93.9413 88.0767   1
  -3   0  -7-47.9977 80.4662   2
  -3   0  -7 201.647 121.527  13
  -3   0  -7-178.733 173.788  12
  -3  -1  -1 25.5105 33.2667  16
   3   1   1 93.6483 55.7844  15
   3   1   1-9.92622 27.0888   4
  -3  -1  -1-9.56289 18.3008   7
   3  -1   1-32.0269 53.6178   4
   3   1   1 28.2115 44.3014  14
   3   1   1-43.8952 48.6561   1
  -3  -1  -1 5.56186 24.0678   6
   3  -1   1-9.59526 38.6893   1
  -3  -1  -1 46.5719 36.0462   3
  -3  -1  -1-7.11231 32.9061   2
   3   1   1 34.8373 26.7517   5
  -3   1  -2 592.318 95.5574   2
   3   1   2 247.016 77.0357   1
  -3   1  -2 751.513 99.0453  16
   3   1   2 214.021 71.4437  15
  -3  -1  -2 255.221 64.3245  16
   3  -1   2 278.238 76.5868  15
   3   1   2 287.341 69.4999   4
   3  -1   2 286.376 76.4277   4
   3   1   2 313.942 79.4462  14
  -3   1  -2 535.211 89.1900   3
  -3  -1  -2 325.868 81.5542  13
  -3  -1  -2 246.881 55.6237   6
   3  -1   2 259.697 79.7407   1
  -3  -1  -2 296.630 71.4064   2
  -3  -1  -2 270.867 71.3512   3
   3   1   2 276.443 44.0652   5
   3  -1   2 420.426 74.1028   5
   3  -1   2 259.045 34.7655   8
   3   1   3 2176.79 177.878   4
   3  -1   3 2024.92 185.140   4
  -3  -1  -3 2152.96 179.737   2
  -3   1  -3 2164.88 178.372   2
  -3  -1  -3 2500.77 190.483  16
  -3   1  -3 2349.83 177.688  16
   3   1   3 2134.49 208.554   1
   3  -1   3 2064.04 203.811   1
   3   1   3 2389.16 215.654  15
   3  -1   3 1888.54 193.337  15
   3   1   3 1959.70 191.041  14
   3  -1   3 2102.32 182.623  14
  -3   1  -3 2007.98 110.710   6
  -3  -1  -3 2320.89 161.239   6
  -3  -1  -3 2239.87 196.481   3
  -3   1  -3 2211.91 176.835   3
  -3  -1  -3 2427.80 196.318  13
  -3   1  -3 2198.21 199.628  13
   3   1   3 2501.91 133.085   5
   3  -1   3 2419.74 163.240   5
  -3  -1  -4 176.601 64.0398  16
  -3   1  -4 170.577 62.6003  16
   3   1   4 134.949 58.2126   4
   3  -1   4 494.475 150.263  15
   3  -1   4 113.507 61.6892   4
   3  -1   4 401.557 115.124  14
   3   1   4 181.057 69.7159  14
   3   1   4 34.2252 42.0930  15
  -3  -1  -4 171.326 61.3195   6
  -3  -1  -4 131.048 59.4032  13
  -3   1  -4 113.341 63.6650  13
   3   1   4 120.332 64.0067   1
  -3  -1  -4 107.856 62.4732   2
  -3   1  -4 216.561 70.5434   2
  -3   1  -4 148.389 57.2007   3
  -3  -1  -4 80.6931 50.1190   3
   3  -1   4 182.593 55.5481   5
   3  -1   4 116.698 65.3473   1
   3   1   5 103.461 62.4657   1
   3   1   5 124.346 54.4141   4
   3  -1   5 110.330 67.7666   4
   3  -1   5 202.437 82.1333  15
   3  -1   5 89.5719 61.0948   1
  -3   1  -5 140.466 60.6563  16
   3   1   5 101.690 53.8017  14
   3  -1   5 263.825 79.5434  14
  -3  -1  -5 201.903 74.4616   2
  -3  -1  -5 221.420 77.4528  13
  -3   1  -5 173.928 71.6865  13
   3   1   5 78.7854 58.8128  15
  -3   1  -5 138.055 68.6635   2
  -3   1  -5 258.773 80.1013   3
  -3  -1  -5 116.111 60.9674   3
  -3   1  -5 90.9149 47.4557  12
   3   1   5 89.1969 44.1914  11
   3  -1   5 59.7180 47.8913   5
  -3  -1  -5 122.574 61.8196  16
   3  -1   6 476.496 119.242   4
  -3  -1  -6 597.995 125.317  16
  -3   1  -6 496.177 103.157  16
   3   1   6 107.706 63.4789  15
   3  -1   6 337.072 95.0531  15
   3   1   6 220.396 92.6079  14
   3  -1   6 382.894 88.8713  14
  -3   1  -6 333.478 94.2544   2
  -3  -1  -6 535.314 120.014  13
  -3   1  -6 291.973 93.0788  13
  -3   1  -6 431.078 95.8235  12
   3   1   6 257.708 91.8355   1
   3   1   6 147.916 66.1281  11
  -3  -1  -6 252.317 92.2797   2
   3  -1   6 359.945 103.574   1
  -3  -1  -7 106.554 190.083  16
  -3   1  -7 29.1595 60.9243  16
  -3  -1  -7-243.092 169.114   2
  -3   1  -7-41.7431 85.8948   2
   3   1   7-51.7499 109.774  15
   3  -1   7-59.3178 78.5866  15
   3   1   7-200.279 145.395  14
   3  -1   7 45.9152 54.3724  14
   3  -1   7-9.42135 62.9668   1
  -3   1  -7 37.6945 73.1661  13
  -3   1  -7 78.0221 80.3433  12
  -3  -2  -1 139.117 51.4851  16
   3   2   1 59.8994 48.5212  15
   3   2   1 111.771 44.7799   4
  -3  -2  -1 53.2703 24.0892   7
   3   2   1 88.1945 53.6329  14
  -3  -2  -1 51.0587 38.1312   6
   3   2   1 103.241 55.7296   1
  -3  -2  -1 116.647 46.1675   2
  -3  -2  -1 130.735 53.9898   3
   3   2   1 69.3540 20.2001   5
   3  -2   2 24.4836 26.9844   8
  -3  -2  -2-9.60183 46.0553  16
  -3   2  -2 39.9426 33.8522  16
   3   2   2 23.1535 35.2098   4
   3   2   2-13.5456 48.0202  15
   3  -2   2-33.2475 49.8064  15
   3  -2   2 14.7948 46.1451   4
   3   2   2-34.9250 48.5669  14
  -3   2  -2 45.7430 45.6132  13
  -3  -2  -2-40.4326 47.7513  13
  -3  -2  -2 12.2187 31.9133   6
  -3   2  -2-6.68881 15.2329   6
   3   2   2-7.78076 36.2237   1
  -3  -2  -2 40.1252 43.2336   2
  -3  -2  -2 91.6229 51.6464   3
  -3   2  -2 21.8927 35.4455   3
   3  -2   2-22.8730 49.4684   1
  -3   2  -2 97.8890 53.3280   2
   3  -2   2-30.5275 43.5127   5
   3   2   3 1304.90 129.613   4
   3  -2   3 1232.71 158.114   4
  -3  -2  -3 1352.04 145.921   2
  -3   2  -3 1345.66 142.514   2
  -3  -2  -3 1417.14 146.830  16
  -3   2  -3 1323.55 131.802  16
   3   2   3 1258.52 159.329   1
   3  -2   3 1185.59 159.761   1
   3   2   3 1378.43 166.902  15
   3  -2   3 1167.28 154.590  15
   3   2   3 1271.83 159.006  14
  -3  -2  -3 1405.71 141.166   6
  -3  -2  -3 1214.41 153.628   3
  -3   2  -3 1380.86 135.497   3
  -3  -2  -3 1336.21 140.715  13
  -3   2  -3 1266.86 157.479  13
   3   2   3 1233.67 129.677  11
   3  -2   3 1258.49 134.751   5
  -3  -2  -4 877.144 124.653   2
   3  -2   4 899.029 143.561   4
  -3   2  -4 998.196 131.367   2
   3   2   4 811.610 140.148   1
  -3  -2  -4 1027.99 130.429  16
  -3   2  -4 957.546 118.688  16
   3  -2   4 887.821 145.028   1
   3   2   4 955.091 141.452  15
   3  -2   4 762.007 133.360  15
   3   2   4 910.128 139.068  14
   3  -2   4 774.220 107.248  14
  -3  -2  -4 1067.66 133.857   6
  -3   2  -4 906.775 113.594   3
  -3  -2  -4 1009.75 144.660   3
  -3  -2  -4 996.509 127.126  13
  -3   2  -4 936.328 143.697  13
  -3   2  -4 940.475 123.823  12
   3   2   4 948.836 115.250  11
   3  -2   4 929.703 119.874   5
   3   2   4 970.840 123.440   4
   3   2   5-39.8821 54.9671  15
  -3  -2  -5-5.45898 52.6509  16
   3  -2   5 4.26469 49.2957   4
   3  -2   5 7.33900 54.3706  15
   3  -2   5-1.99964 48.1311   1
   3   2   5 94.2553 63.8477  14
  -3  -2  -5 79.7936 57.9343   2
   3  -2   5-60.2672 48.6837  14
  -3  -2  -5 9.71562 43.3227  13
  -3   2  -5 46.5443 50.3317  13
  -3   2  -5-42.7031 47.6346   3
  -3   2  -5-5.48156 50.9521   2
  -3  -2  -5 24.7441 47.6167   3
  -3   2  -5-18.0835 45.1021  12
   3   2   5-56.5934 47.6119  11
   3  -2   5-22.7155 45.1621   5
  -3   2  -5-21.3694 43.5120  16
   3   2   5 63.4692 54.0318   1
   3  -2   6 45.9086 58.9165   4
  -3  -2  -6 1.32434 63.0469  16
  -3   2  -6 42.6817 49.7953  16
  -3  -2  -6 40.5900 79.1632   2
   3   2   6 15.9499 57.5023  15
   3  -2   6 48.2428 56.0405  15
   3   2   6 73.8530 75.0492  14
  -3   2  -6 31.7403 54.6352   2
   3  -2   6 7.94863 45.1622  14
  -3  -2  -6-33.1451 64.0333  13
  -3   2  -6 7.87334 53.4943  13
   3   2   6 20.0357 53.5924   1
  -3   2  -6 50.9056 53.3624  12
   3   2   6 167.024 82.6770  11
   3  -2   6-9.69954 41.0069   5
   3  -2   6-22.8760 58.7995   1
   3  -2   7-21.6261 61.3148   4
  -3   2  -7 64.7623 65.8874  16
  -3   2  -7 127.650 106.327   2
   3  -2   7 14.7644 46.9812  14
   3  -2   7 14.2954 68.8543   1
  -3   2  -7-31.6806 67.9327  13
  -3   2  -7-21.9231 92.4230  12
   3  -2   7 68.0311 53.8470  15
  -3   2  -8 44.6201 113.101  13
   3   3   0 462.412 73.7480   4
  -3  -3   0 485.017 74.3058   7
   3   3   0 462.106 109.559  14
  -3  -3   0 461.695 93.8792   6
   3   3   0 428.062 90.8699   1
  -3  -3   0 450.807 96.4551   3
  -3  -3   0 503.142 88.6188   2
   3   3   1 111.352 57.0403   1
  -3  -3  -1 126.551 52.6577  16
   3   3   1 26.1640 31.8492   4
   3   3   1 29.2985 40.8532  15
  -3  -3  -1 73.0202 34.1147   7
   3   3   1 89.9089 56.4342  14
  -3  -3  -1 138.874 60.3338   6
  -3  -3  -1 169.732 57.5198   2
  -3  -3  -1 8.91885 36.4764   3
   3  -3   2 302.638 90.8209   1
   3  -3   2 329.594 69.6756   8
  -3  -3  -2 345.581 74.9469  16
   3   3   2 334.181 89.8141   1
   3   3   2 256.709 81.1995  15
   3  -3   2 266.139 100.806   4
   3   3   2 301.410 89.1340  14
   3   3   2 288.471 60.4006   4
  -3   3  -2 371.936 103.218  13
  -3  -3  -2 292.865 77.2449   6
   3   3   2 277.209 68.7430  11
  -3  -3  -2 339.930 79.7246   2
  -3  -3  -2 311.938 85.1167   3
  -3   3  -2 253.942 59.0368   3
  -3   3  -2 284.601 77.6604   2
   3  -3   2 323.417 92.4131   5
  -3  -3  -3 753.564 110.111  16
  -3   3  -3 607.953 96.7681  16
   3   3   3 580.007 113.584  15
   3  -3   3 625.444 119.471  15
   3  -3   3 575.862 126.944   4
  -3  -3  -3 697.057 115.415   6
   3   3   3 566.402 115.913  14
  -3   3  -3 594.031 84.7487   3
  -3  -3  -3 620.713 95.6304  13
  -3   3  -3 537.687 112.812  13
   3   3   3 559.987 111.592   1
  -3  -3  -3 708.307 108.309   2
   3   3   3 673.586 103.662  11
  -3  -3  -3 579.513 112.677   3
  -3   3  -3 665.066 107.108   2
   3  -3   3 700.165 117.339   5
   3  -3   3 575.634 120.395   1
   3   3   3 631.866 91.7174   4
   3   3   4 264.700 86.0197   1
  -3  -3  -4 314.267 79.9887  16
  -3   3  -4 349.721 77.2603  16
   3   3   4 339.597 92.8114  15
   3  -3   4 300.981 96.7532   4
   3  -3   4 380.930 101.141  15
   3   3   4 319.911 96.4016  14
  -3  -3  -4 335.805 87.6539   2
  -3  -3  -4 445.277 98.1830   6
  -3  -3  -4 342.727 79.7515  13
  -3   3  -4 358.787 100.221  13
  -3   3  -4 352.137 75.0795   3
  -3   3  -4 54.6691 87.6004  12
  -3  -3  -4 410.281 102.889   3
   3   3   4 395.016 83.1165  11
  -3   3  -4 347.973 84.1678   2
   3  -3   4 413.706 95.2975   5
   3  -3   4 266.871 89.5696   1
   3  -3   5 1120.34 174.768   4
   3   3   5 1289.05 180.268   1
  -3   3  -5 1031.23 149.505   2
  -3  -3  -5 1239.54 151.231  16
  -3   3  -5 1191.84 137.510  16
   3   3   5 1184.05 161.342  15
   3  -3   5 575.343 163.473  15
   3   3   5 1193.87 171.620  14
   3  -3   5 1001.25 116.781  14
  -3  -3  -5 1361.96 187.364   3
  -3  -3  -5 1187.92 149.386  13
   3   3   5 1215.36 152.717  11
   3  -3   5 1286.27 155.650   5
  -3  -3  -5 1485.01 181.476   2
  -3  -3  -6-6.02800 80.2138  16
   3  -3   6 87.4495 76.2337   4
  -3  -3  -6 85.8241 117.219   2
   3   3   6-68.5150 72.7247  15
   3  -3   6 29.4241 57.4626  15
   3   3   6-34.9593 69.4232  14
  -3   3  -6-38.4309 63.0137   2
  -3   3  -6 5.84853 50.3471  16
  -3  -3  -6-26.3838 77.7593  13
  -3   3  -6-13.5478 56.5145  13
  -3   3  -6-25.6288 50.5207  12
   3   3   6-94.2655 103.728  11
   3  -3   6 0.81536 50.9591   5
   3  -3   6-4.71816 65.4318   1
  -3   3  -7 1985.41 200.042  16
   3  -3   7 1721.69 229.357   4
  -3   3  -8 96.6243 80.5367  16
   3  -3   8 18.1010 100.164  15
  -3   3  -8 21.6310 92.5952  13
   3   4   0 813.382 87.1159   4
  -3  -4   0 764.521 109.498   2
  -3  -4   0 623.254 88.7729   7
  -3  -4   0 776.071 121.258   6
   3   4   0 663.577 130.523  14
   3   4   0 660.753 113.034   1
  -3  -4   0 720.974 128.575   3
   3   4   1 85.0131 38.3077   4
  -3  -4  -1 73.7392 44.9626  16
  -3  -4  -1 76.2896 38.8961   7
   3   4   1 171.095 73.2655  15
   3   4   1 55.1266 54.7202  14
   3   4   1 104.643 56.9343   1
  -3  -4  -1 80.2240 49.4461   6
  -3  -4  -1 161.523 60.2941   2
  -3  -4  -1 119.753 64.6760   3
   3  -4   2 13.1665 48.7385   8
  -3  -4  -2 117.931 54.4679  16
   3   4   2 29.8488 52.0423  15
   3  -4   2 0.19587 67.0547   4
   3   4   2 33.0278 58.0170  14
  -3   4  -2 1.81586 51.1016  13
  -3  -4  -2 34.7525 52.2832   6
  -3  -4  -2 32.0500 38.6274   2
   3   4   2 101.375 60.6695  11
   3  -4   2 3.94946 58.2719   1
   3   4   2 67.7224 53.8685   1
  -3  -4  -2-23.4811 48.1706   3
  -3   4  -2 64.1663 38.0704   3
  -3   4  -2 60.8849 55.4048   2
   3  -4   2-89.0825 87.1190   5
   3  -4   3 111.098 58.3335   8
  -3  -4  -3 112.590 55.5349  16
   3   4   3 69.4408 57.5647   1
   3   4   3 146.739 65.7450  15
   3  -4   3 66.0836 65.9060   4
   3   4   3 151.714 79.2452  14
  -3  -4  -3 139.746 64.8088   2
  -3  -4  -3 32.1137 45.5388   6
  -3  -4  -3 121.748 55.3991  13
  -3   4  -3-7.87942 53.2845  13
   3  -4   3 20.6999 49.1932   1
   3   4   3 96.0892 61.5217  11
  -3  -4  -3 105.184 71.0138   3
  -3   4  -3 93.7801 54.8424   2
   3  -4   3 141.675 79.2675   5
  -3  -4  -4 453.680 100.703  16
  -3   4  -4 281.859 79.1959  16
   3   4   4 138.948 65.0291  15
   3  -4   4 615.191 139.089   4
   3  -4   4 57.2988 82.5897  15
  -3  -4  -4 295.816 87.1437   2
   3   4   4 203.493 82.8690  14
  -3  -4  -4 445.720 113.012   6
  -3  -4  -4 359.197 84.8888  13
  -3   4  -4 77.7683 105.538  13
  -3   4  -4 61.2160 83.1308  12
  -3  -4  -4 267.796 86.4201   3
   3   4   4 284.020 78.6066  11
  -3   4  -4 117.311 65.6639   2
   3   4   4 232.401 87.0605   1
   3  -4   4 15.5434 118.957   1
   3  -4   4 497.884 140.905   5
  -3  -4  -5 202.680 91.7265  16
  -3   4  -5 43.6163 57.7947  16
  -3  -4  -5 193.262 107.167   2
   3  -4   5-13.4029 47.5551   1
   3  -4   5 154.455 83.7929   4
   3   4   5 45.0392 50.1672  15
   3  -4   5 55.5640 78.2944  15
   3   4   5 76.8449 68.5969  14
   3   4   5 51.8359 69.2379   1
  -3  -4  -5 110.324 63.6190  13
  -3   4  -5 45.4895 69.2165  13
  -3   4  -5 14.9746 50.3519   2
  -3  -4  -5-10.1932 57.8988   3
  -3   4  -5 4.51002 69.7064  12
   3   4   5 80.1237 71.4602  11
   3  -4   5 74.0272 61.8942   5
  -3  -4  -6 441.471 180.911  16
  -3   4  -6 167.580 65.9471  16
   3   4   6 137.003 88.7264  15
   3  -4   6 39.1914 79.5971  15
  -3   4  -6 80.7853 77.2828   2
   3   4   6 240.619 133.456  14
  -3  -4  -6 594.899 243.842  13
  -3   4  -6 71.1324 104.596  13
  -3   4  -6 64.9159 85.7552  12
   3  -4   6 13.4377 75.0237   1
   3  -4   6 310.099 96.9231   5
   3  -4   6 359.149 112.332   4
   3  -4   7 291.703 113.056   4
  -3   4  -7 201.108 76.9328  16
  -3   4  -7 209.800 131.349   2
   3  -4   7 118.791 117.436  15
   3  -4   7 27.8132 138.158   1
  -3   4  -7 25.2756 114.568  13
  -3   4  -7 11.1013 84.6803  12
   3  -4   7 207.560 96.5622   5
  -3   4  -8 224.540 96.0680  16
   3  -4   8 37.5912 95.0714  15
  -3   4  -8 87.7395 126.347  13
  -3   4  -8 6.32455 156.738  12
  -3  -5   1 276.905 79.0093   7
  -3  -5   1 325.176 106.458   6
   3   5  -1 271.961 95.4623   1
  -3  -5   1 327.136 84.5476   2
  -3  -5   1 204.510 79.4697   3
  -3  -5   0 272.930 70.5791   7
   3   5   0 347.879 108.959  14
  -3  -5   0 383.377 95.9373   6
   3   5   0 208.028 71.3491   1
  -3  -5   0 251.681 67.6065   2
  -3  -5   0 293.828 91.2055   3
  -3  -5  -1 79.4114 56.0957  16
  -3  -5  -1-11.3558 40.9848   7
   3   5   1 12.0025 47.5344  15
   3   5   1-40.9288 61.8958  14
  -3  -5  -1 55.9034 64.0773   6
  -3  -5  -1 59.1176 47.8860   2
   3   5   1-100.795 68.4454  11
  -3  -5  -1 43.2556 51.9894   3
   3   5   1 16.0195 35.7909   9
   3   5   1-18.2941 45.8509   1
  -3  -5  -2 2255.55 188.003   2
   3   5   2 2291.79 210.275   1
  -3  -5  -2 2533.62 191.967  16
   3   5   2 2461.74 223.858  15
   3   5   2 2210.41 237.039  14
  -3  -5  -2 2382.39 226.696   6
  -3  -5  -2 2401.90 237.284   3
   3  -5   3 140.042 68.5374   8
  -3  -5  -3 66.9888 64.3688  16
   3   5   3 105.497 64.9675  15
   3  -5   3 37.2263 79.2549   4
  -3  -5  -3 304.168 87.0223   2
   3   5   3 34.0717 55.8314  14
   3  -5   3 21.2104 92.5621   1
  -3  -5  -3 149.691 80.1920   6
  -3   5  -3 31.2091 93.1917  13
  -3  -5  -3 163.235 81.6140   3
   3   5   3 33.6821 74.0581  11
  -3   5  -3 150.171 69.3804   2
   3   5   3 131.179 67.8026   1
   3  -5   3-48.8841 68.9549   5
  -3  -5  -4 9.36009 65.6917  16
  -3  -5  -4-111.875 79.2848   2
   3   5   4-94.0043 69.8626  15
   3  -5   4-15.1408 67.0859   4
   3   5   4-65.5055 63.2358  14
  -3  -5  -4-15.7463 62.7401   6
   3   5   4 44.7016 65.5204   1
  -3   5  -4 2.44757 58.0260  13
  -3  -5  -4-55.4631 64.8205   3
  -3   5  -4-71.5113 61.1224   2
   3  -5   4-13.1338 55.7831   1
   3   5   4 9.06671 60.4119  11
   3  -5   4-5.76696 60.4105   5
   3  -5   5 51.4446 122.314   1
  -3  -5  -5 41.5972 127.131  16
   3  -5   5 374.357 126.598   4
   3   5   5 517.665 131.499  15
   3  -5   5 255.482 123.789  15
   3   5   5 362.946 123.722  14
  -3   5  -5 503.834 96.0253  16
  -3   5  -5 326.516 98.5826   2
  -3   5  -5 95.3592 127.162  13
  -3  -5  -5 269.227 135.598   3
  -3   5  -5 44.5497 98.0371  12
   3   5   5 122.462 117.506  11
   3  -5   5 318.789 103.132   5
   3  -5   6 1921.09 242.385   4
  -3   5  -6 1772.92 167.631  16
   3  -5   6 1888.10 218.061   5
  -3   5  -6 2068.46 234.572   2
   3  -5   7 9.99286 67.2724   4
  -3   5  -7 106.423 229.263   2
  -3   5  -7 85.0122 70.3237  16
   3  -5   7-40.9648 81.9581  15
  -3   5  -7 20.2146 72.6879  13
  -3   5  -7-7.11829 66.8362  12
   3  -5   7 1.15954 73.1865   5
   3  -5   8 275.294 117.951   4
  -3   5  -8-24.5493 81.2870  16
   3  -5   8-62.1422 102.658  15
  -3   5  -8 22.7195 118.731  13
  -3   5  -8 10.8270 77.7625  12
  -3  -6   1 117.070 67.5445   7
  -3  -6   1 176.167 101.532   6
   3   6  -1 77.5479 56.9475   1
  -3  -6   1 88.2868 50.7866   2
  -3  -6   1 181.991 86.0026   3
  -3  -6   0 302.001 83.5303   7
   3   6   0 197.929 93.7442  14
  -3  -6   0 332.105 103.914   6
  -3  -6   0 331.034 82.0391   2
  -3  -6   0 360.020 105.092   3
   3   6   0 199.714 74.3413   1
  -3  -6  -1 470.913 91.4987   7
   3   6   1 529.812 111.423  15
   3   6   1 630.378 112.950   1
   3   6   1 482.444 121.639  14
  -3  -6  -1 445.951 92.6090   2
  -3  -6  -1 376.272 116.287   6
   3   6   1 274.425 121.690  11
  -3  -6  -1 554.091 122.571   3
   3   6   1 446.534 100.403   9
   3   6   2 796.342 130.858   1
  -3  -6  -2 715.901 134.688  16
   3   6   2 1040.73 158.307  15
   3   6   2 1029.14 172.188  14
  -3  -6  -2 589.811 155.894   6
   3   6   2 448.995 142.503  11
  -3  -6  -2 540.059 148.003   3
  -3  -6  -2 950.691 130.410   2
   3  -6   3 23.1779 72.0002   8
  -3  -6  -3 19.4249 65.5477  16
   3  -6   3-5.82969 71.5151   1
  -3  -6  -3-81.8936 67.8641   2
   3   6   3 42.8046 52.6264  15
   3  -6   3 46.4447 93.7627   4
   3   6   3 43.7003 61.3532  14
  -3  -6  -3 31.6270 73.1580   6
   3   6   3 48.1921 61.9223   1
  -3   6  -3-0.18701 55.6210  13
  -3  -6  -3 19.6055 56.9134   3
   3   6   3-8.93202 58.1295  11
   3  -6   3-4.85053 84.1706   5
  -3  -6  -4 89.3905 88.9522  16
   3  -6   4 264.120 108.962   4
   3   6   4 261.742 91.3820  15
   3   6   4 317.164 108.920  14
  -3  -6  -4 106.931 136.129   6
   3  -6   4 43.4392 99.0227   1
  -3   6  -4 124.363 125.535  13
  -3  -6  -4 108.367 102.902   3
  -3   6  -4 309.539 91.2051   2
   3   6   4 149.210 116.490  11
   3  -6   4 210.343 99.5658   5
  -3  -6  -5-148.442 278.288  16
   3  -6   5-129.382 88.5815   4
   3   6   5-45.9273 101.534  15
   3   6   5-387.647 162.272  14
  -3   6  -5-31.3218 68.6326   2
  -3   6  -5 0.67258 109.674  13
  -3   6  -5 23.4630 75.4565  12
   3   6   5 2.23576 97.0166  11
   3  -6   5 155.016 94.5355   5
   3  -6   5 0.17255 73.5487   1
   3  -6   6 87.9426 74.9336   4
  -3   6  -6 130.373 64.4360  16
  -3   6  -6 201.470 108.832   2
   3  -6   6 75.9194 82.2411  15
   3  -6   6 24.4400 94.2371   1
  -3   6  -6 20.8534 93.9140  13
  -3   6  -6 4.14232 93.6262  12
   3  -6   6 257.097 102.170   5
   3  -6   7-66.5222 76.5541   4
   3  -6   7-18.2535 65.8393  15
  -3   6  -7 0.40803 94.6524  13
  -3   6  -7 6.82106 67.7485  12
   3  -6   7 87.9880 80.2781   5
   3  -6   8-105.122 96.9470   4
  -3   6  -8 7.95152 98.4163  13
  -3   6  -8-4.92780 92.1434  12
   3  -6   8 3.31011 69.8060   5
  -3  -7   1 123.730 75.2315   7
  -3  -7   1 339.421 113.229   6
  -3  -7   1 130.160 96.9090   3
  -3  -7   0 0.12542 50.2704   7
   3   7   0-9.99122 68.9544  14
  -3  -7   0 20.8988 65.5483   6
   3   7   0 56.5624 89.7769  11
  -3  -7   0 80.8310 75.2246   3
   3   7   0 32.1696 49.8185   9
  -3  -7  -1 100.384 66.2526   7
  -3  -7  -1 131.514 66.8062   2
   3   7   1 96.6619 74.8738  14
  -3  -7  -1 28.2475 66.5662   6
   3   7   1 72.5202 99.5471  11
  -3  -7  -1 87.9445 81.3876   3
   3   7   1 53.4497 54.7146   9
  -3  -7  -2 400.783 131.058   8
  -3  -7  -2 564.752 146.248   2
  -3  -7  -2 253.160 107.771  16
   3   7   2 542.155 136.265  14
  -3  -7  -2 166.010 137.229   6
  -3  -7  -2 320.231 122.109   3
   3   7   2 137.819 126.938  11
   3   7   2 663.969 146.589  10
  -3  -7  -3 336.949 125.558  16
   3   7   3 470.047 114.416  15
   3   7   3 655.540 151.313  14
  -3  -7  -3 365.191 141.273   6
  -3  -7  -3 220.526 140.485   3
   3   7   3 151.877 126.178  11
  -3  -7  -4 333.262 140.189  16
   3  -7   4 663.713 191.028   4
   3   7   4 551.356 155.209  15
   3   7   4 572.442 161.462  14
  -3  -7  -4 323.428 171.880   6
  -3  -7  -4 384.774 174.344   3
  -3   7  -4 180.217 160.242  13
   3   7   4 400.950 162.361  11
   3  -7   4 844.494 186.502   5
   3  -7   5 381.742 150.766   4
  -3   7  -5 17.6457 99.5009  13
   3  -7   5 409.937 147.190   5
   3  -7   6 3.77230 76.6489   4
  -3   7  -6 8.10459 71.3204  13
  -3   7  -6-1.92838 57.4515  12
   3  -7   6-107.315 92.5245   5
   3  -7   7 125.672 108.984   4
  -3   7  -7 12.1134 84.3746  13
  -3   7  -7 27.8379 121.665  12
   3  -7   7 47.0032 76.7853   5
   3  -7   8-89.1268 91.4893   4
  -3   7  -8-45.9135 92.3560  13
  -3   7  -8 60.6494 113.411  12
   3  -7   8-88.5485 112.764   5
  -3  -8   1 989.547 173.241   7
  -3  -8   1 984.835 192.437   6
  -3  -8   1 484.998 170.922   3
   3   8  -1 865.971 183.703   9
  -3  -8   0 73.4065 77.6305   7
   3   8   0 125.262 93.9761  14
  -3  -8   0 2.04108 80.5580   6
   3   8   0 6.41828 67.6883  11
  -3  -8   0-11.6307 67.4877   3
   3   8   0 126.476 84.2345   9
  -3  -8  -1 28.8769 54.4602   8
  -3  -8  -1-47.4256 60.9713   7
   3   8   1-20.6544 72.1396  14
  -3  -8  -1 45.1355 70.3403   6
  -3  -8  -1-20.7608 72.2442   3
   3   8   1 5.99553 61.4848  11
   3   8   1-118.176 88.4471   9
  -3  -8  -2-91.2580 114.698   8
   3   8   2-31.1732 73.9303  14
  -3  -8  -2-31.7067 84.0540   6
  -3  -8  -2-42.4420 88.4098   3
   3   8   2 23.5529 67.2824  11
   3   8   2 104.508 93.0162  10
   3   8   3 227.320 116.629  14
  -3  -8  -3 116.905 140.972   6
  -3  -8  -3 71.1966 94.1199   3
   3   8   3 39.5304 112.176  11
   3  -8   4-121.407 132.434   4
   3   8   4 92.0688 115.615  14
  -3  -8  -4 16.9879 158.683   6
   3   8   4-58.3098 139.274  11
   3  -8   4 80.0647 115.321   5
   3  -8   5 210.969 114.707   4
  -3   8  -5 89.3809 124.485  13
   3  -8   5 286.281 134.925   5
   3  -8   6 94.4118 89.4745   4
  -3   8  -6 51.4902 96.7512  13
  -3   8  -6 23.5946 74.8881  12
   3  -8   6 277.003 136.984   5
   3  -8   7 210.634 132.519   4
  -3   8  -7 8.01688 87.0040  13
  -3   8  -7 11.2951 71.1690  12
   3  -8   7 294.068 143.874   5
  -3  -9   1 20.5482 88.2165   7
  -3  -9   1-138.431 94.1175   6
  -3  -9   1 86.0833 113.317   3
   3   9  -1 108.238 101.349   9
  -3  -9   0 111.993 96.4728   7
   3   9   0 61.8467 98.3934  14
  -3  -9   0 3.91193 70.4357   6
  -3  -9   0 7.78058 73.7559   3
   3   9   0 2.42369 75.8123  11
   3   9   0-58.9561 86.5029   9
  -3  -9  -1 65.0973 94.8845   8
   3   9   1-96.4197 102.368  14
  -3  -9  -1-20.7881 75.6465   6
  -3  -9  -1 10.7328 66.1229   3
   3   9   1-1.71158 75.9567  11
   3   9   1-115.318 88.1775   9
   3   9   2-19.3752 85.9454  14
  -3  -9  -2 140.494 123.754   6
  -3  -9  -2 5.71655 92.3236   3
   3   9   2-32.8783 87.4321  11
   3   9   3 279.175 128.582  14
  -3  -9  -3 389.898 176.258   6
   3   9   3 52.6290 147.922  11
   3  -9   5 334.273 194.592   4
   3  -9   5-67.6315 120.932   5
  -3 -10   1-3.08380 124.861   7
  -3 -10   1 67.0969 132.288   6
  -3 -10   1-15.2643 81.7880   3
   3  10  -1-289.358 171.320   9
  -3 -10   0 80.9337 99.1005   7
   3  10   0-83.1585 131.824  14
  -3 -10   0 15.0103 105.225   6
  -3 -10   0 4.63791 83.9141   3
   3  10   0-8.14693 97.2964  11
   3  10   0 135.572 99.3613   9
  -3 -10  -1 26.0810 109.129   8
   3  10   1 31.6143 94.5143  14
  -3 -10  -1 31.6721 110.857   6
  -3 -10  -1-38.0761 108.817   3
   3  10   1-41.2015 103.260  11
   3  10   1 150.608 95.1936  10
   3  10   2-43.1032 83.0196  14
  -3 -10  -2 3.64081 94.4504   6
   3  10   2 63.6429 125.907  11
   4   0   2 820.589 140.399   4
   4   0   2 655.398 144.037   1
  -4   0  -2 837.128 135.447   3
  -4   0  -2 628.705 114.970   2
  -4   0  -3-187.439 79.4414  16
   4   0   3-40.8444 57.4277   4
   4   0   3 4.99771 59.0127  15
   4   0   3-19.1673 69.8651  14
   4   0   3-79.3770 69.2483   1
  -4   0  -3-240.330 87.3973  13
  -4   0  -3-14.1888 57.1521   2
  -4   0  -3-79.3943 66.3589   3
   4   0   4 1220.65 170.776   4
  -4   0  -4 1339.44 171.216   2
  -4   0  -4 1304.29 166.211  16
   4   0   4 1159.71 188.752   1
   4   0   4 1243.75 190.659  15
   4   0   4 1220.05 180.210  14
  -4   0  -4 1233.35 171.529   3
  -4   0  -4 1360.52 187.873  13
   4   0   5 51.2975 64.9810   4
  -4   0  -5-201.821 87.5976  16
   4   0   5-22.6580 64.4898  15
   4   0   5-5.88173 61.3287   1
   4   0   5 50.3092 59.9971  14
  -4   0  -5-70.8846 72.7684  13
  -4   0  -5 100.587 73.1758   2
  -4   0  -5-75.2974 65.9614   3
  -4   0  -6 957.960 137.726  16
   4   0   6 1051.57 190.203  15
   4   0   6 947.075 165.514  14
  -4   0  -6 1189.11 194.769  13
  -4   0  -6 998.211 181.052   3
   4   0   6 752.599 163.900   1
   4   0   6 1122.90 180.496   4
  -4   0  -6 1105.24 176.564   2
  -4   0  -7 110.910 84.2759  16
   4   0   7-201.956 113.448  15
  -4   0  -7-24.6723 83.9633   2
   4   0   7-60.6922 77.8909  14
  -4   0  -7 96.1673 97.6764  13
   4   0   7-152.289 107.825   1
  -4   0  -8 45.8931 164.252  16
  -4   0  -8 259.186 199.684   2
   4   0   8 118.386 144.544  15
  -4   0  -8-149.716 323.921  13
   4   1   2 290.423 100.372   1
   4   1   2 534.510 112.116   4
   4   1   2 466.864 123.737  15
  -4  -1  -2 498.871 102.526   2
  -4  -1  -2 415.014 98.7971   3
  -4  -1  -3-74.2992 60.6701  16
  -4   1  -3-20.8262 60.9459  16
   4   1   3 9.74901 50.4082   4
   4  -1   3 14.9941 53.2580   4
   4   1   3-112.980 77.8312  15
   4  -1   3-27.4428 69.8841  15
   4   1   3-51.7266 68.7207   1
   4   1   3-80.3378 63.0323  14
  -4   1  -3-55.3642 73.8736  13
  -4  -1  -3-64.5604 61.0550  13
   4  -1   3 36.7754 71.1050   1
  -4  -1  -3-64.7882 65.7716   2
  -4  -1  -3 65.3435 54.7295   3
  -4   1  -3 0.85165 53.9607   2
  -4   1  -3 34.3623 55.9797   3
   4  -1   4 38.3167 67.9350   1
  -4  -1  -4-89.9227 69.9746  16
  -4   1  -4-43.3831 57.2370  16
   4   1   4-48.4140 63.9504   4
   4  -1   4-23.2342 56.5104   4
   4   1   4 14.7827 62.3662  15
   4  -1   4-39.1598 69.8217  15
   4   1   4 46.9332 65.6789  14
   4  -1   4-52.5466 62.7624  14
  -4  -1  -4 40.4145 61.0879  13
  -4   1  -4-21.0109 61.9900  13
  -4  -1  -4 28.0933 56.4170   2
  -4   1  -4 36.7679 59.7950   2
   4   1   4-100.210 78.8277   1
  -4  -1  -4-51.4151 55.5258   3
  -4   1  -4-107.004 66.0687   3
   4   1   5-94.0962 71.0224   4
  -4  -1  -5-32.4990 63.8909  16
  -4   1  -5-22.2950 57.7687  16
   4  -1   5 21.2641 55.2234   4
   4   1   5 27.7277 60.5163   1
   4   1   5-40.5348 69.2320  15
   4  -1   5-59.4287 80.2150  15
   4   1   5-19.1583 60.2055  14
   4  -1   5 29.8493 71.7956   1
   4  -1   5 38.5285 63.8136  14
  -4  -1  -5-61.7211 62.6060   2
  -4  -1  -5-77.3769 71.3135  13
  -4   1  -5 6.11660 57.8296  13
  -4   1  -5-177.836 95.3528   2
  -4   1  -5 126.835 64.7572   3
  -4  -1  -5-25.3650 56.9969   3
   4   1   6 198.628 90.0513   4
   4  -1   6 94.1678 78.5436   4
  -4  -1  -6 172.477 89.4335  16
  -4   1  -6 116.578 73.2178  16
   4   1   6 169.587 91.4216  15
   4  -1   6-8.81172 63.9009  15
  -4  -1  -6 57.9141 74.3062   2
   4   1   6 183.299 96.5661  14
   4  -1   6 123.170 83.5971  14
  -4   1  -6 162.579 90.5235   2
  -4  -1  -6 109.940 78.7622  13
  -4   1  -6 165.397 87.8445  13
  -4   1  -6 342.410 128.538   3
  -4  -1  -6 223.512 99.6304   3
   4   1   6 15.6928 66.2372   1
   4  -1   6 90.4804 83.8997   1
   4  -1   7 220.726 110.329   4
  -4  -1  -7 352.962 132.418  16
  -4   1  -7 341.461 117.370  16
  -4  -1  -7 267.504 117.255   2
   4   1   7 602.447 175.227  15
   4  -1   7 191.746 100.998  15
  -4   1  -7 289.061 118.801   2
   4   1   7 59.0629 77.2939  14
   4  -1   7 230.027 95.5057  14
  -4  -1  -7 160.501 116.764  13
  -4   1  -7-84.3697 87.7537  13
   4   1   7 265.490 128.696   1
   4  -1   7 362.190 128.749   1
  -4   1  -8 317.666 128.199  16
  -4   1  -8 204.200 152.345   2
   4  -1   8 158.136 95.1307  15
   4  -1   8 224.942 148.318   1
  -4  -2  -2-37.3869 59.6097  16
   4   2   2 42.5853 66.0522   4
   4   2   2-74.0160 72.3619  15
   4   2   2-30.4108 60.3851  14
  -4  -2  -2 3.51208 39.3706   6
   4   2   2 10.2215 55.6886   1
  -4  -2  -2-92.0322 61.3485   2
  -4  -2  -2-21.5958 49.5770   3
   4   2   3 48.4871 70.4271   1
  -4  -2  -3-74.7418 72.8595  16
   4   2   3 49.3662 58.5395   4
   4  -2   3 36.3711 76.0159   4
   4   2   3 61.1099 68.9255  15
   4   2   3 44.7503 69.3268  14
  -4   2  -3 61.6526 77.1591  13
  -4  -2  -3-45.7284 64.0528   2
  -4  -2  -3 28.4126 52.7590   3
  -4   2  -3 119.738 66.4663   3
  -4   2  -3 79.9257 65.1826   2
   4  -2   3-6.67489 49.3404   5
   4  -2   3 176.513 103.522   1
   4  -2   4 430.333 131.554   1
   4   2   4 409.492 104.426   4
  -4  -2  -4 253.638 88.3293  16
  -4   2  -4 402.818 99.7856  16
   4  -2   4 361.702 117.672   4
   4   2   4 282.107 103.227  15
   4  -2   4 89.4606 120.368  15
   4   2   4 327.196 104.176  14
  -4  -2  -4 416.070 114.873  13
  -4   2  -4 286.971 110.433  13
   4   2   4 307.236 107.342   1
  -4  -2  -4 516.276 119.968   2
  -4   2  -4 356.599 104.684   3
  -4   2  -4 488.187 121.592   2
  -4  -2  -4 286.165 93.7786   3
   4  -2   4 334.259 91.2457   5
   4   2   5 74.5372 74.6444   4
   4   2   5-57.6890 65.5608   1
  -4  -2  -5-1.60230 64.2231  16
  -4   2  -5 46.3254 57.2164  16
   4  -2   5-41.1031 68.9453   4
   4   2   5 197.795 89.4854  15
   4  -2   5-20.6762 65.9822  15
   4   2   5 0.16938 57.8141  14
  -4  -2  -5 2.49893 63.8873   2
   4  -2   5-151.038 100.859   1
  -4  -2  -5-156.660 81.3508  13
  -4   2  -5-55.6034 80.5466  13
  -4   2  -5-9.80900 61.7554   2
  -4  -2  -5-9.37879 54.0983   3
   4  -2   6-31.4060 83.8613   1
   4  -2   6 140.061 85.9787   4
  -4  -2  -6 56.4877 74.5329  16
  -4   2  -6 86.9857 78.2410  16
   4   2   6 19.0665 71.6634  15
   4  -2   6 123.800 78.6919  15
  -4  -2  -6 66.1756 79.1254   2
   4   2   6-9.11934 69.2353  14
  -4   2  -6 96.6832 80.1160   2
  -4  -2  -6-69.0145 83.0312  13
  -4   2  -6 69.3296 71.9892  13
  -4  -2  -6-90.6667 85.6185   3
   4   2   6 135.426 97.6948   1
   4  -2   7 300.523 119.193   4
  -4  -2  -7 515.897 187.388  16
  -4   2  -7 95.0539 73.8356  16
  -4  -2  -7 158.532 112.659   2
   4   2   7 332.242 140.138  15
   4  -2   7 158.319 100.471  15
  -4   2  -7 174.652 110.148   2
   4   2   7 412.013 163.690  14
   4   2   7 209.343 105.265   1
  -4  -2  -7 225.699 149.988  13
  -4   2  -7 257.676 125.233  13
   4  -2   7 335.044 133.197   1
  -4   2  -8-61.0911 91.9371  16
  -4   2  -8-1.06237 109.747   2
   4  -2   8 44.8831 101.964  15
   4  -2   8 79.3589 98.8484   1
  -4   2  -8 9.84456 105.611  13
  -4  -3  -1 1082.68 155.977   2
   4   3   1 1038.80 186.418   1
  -4  -3  -1 873.730 131.967   6
  -4  -3  -1 1005.16 158.197   3
  -4  -3  -2 29.3209 49.9261  16
   4   3   2-24.7789 57.1932  15
   4   3   2-63.2377 76.7432   1
   4   3   2 23.6621 66.8376  14
  -4  -3  -2-0.77215 41.8530   6
  -4  -3  -2 30.3746 51.8497   2
  -4  -3  -2-92.0411 69.5205   3
  -4  -3  -3 1735.07 196.551   2
  -4   3  -3 1295.56 180.610   2
   4   3   3 1576.47 215.272   1
  -4  -3  -3 1808.46 196.247  16
   4   3   3 1615.76 216.931  15
   4   3   3 1653.42 227.609  14
  -4  -3  -3 1741.22 186.690   6
  -4  -3  -3 1761.80 210.841   3
   4  -3   4-13.9849 86.9099   1
  -4  -3  -4 83.1683 69.1944  16
  -4   3  -4 144.941 70.2598  16
   4  -3   4 71.8263 81.9076   4
   4   3   4 30.4199 62.9885   1
   4   3   4 60.9002 67.4527  15
   4  -3   4 98.3535 82.6906  15
   4   3   4-7.42726 71.9482  14
  -4  -3  -4 17.6691 54.7910   2
  -4   3  -4 124.151 81.7342  13
  -4  -3  -4 48.6980 72.4026  13
  -4  -3  -4 51.9237 58.9620   3
  -4   3  -4 128.784 76.6770   2
   4  -3   4 116.732 77.2633   5
  -4  -3  -5 279.351 97.4959  16
  -4   3  -5 261.659 85.2441  16
   4  -3   5 109.699 89.7600   4
   4   3   5 260.052 104.297  15
   4  -3   5 88.0932 86.5810  15
   4   3   5 274.531 103.480  14
  -4  -3  -5 150.073 85.7937   2
   4  -3   5 226.077 110.729   1
  -4  -3  -5 280.025 100.602  13
  -4   3  -5 293.241 114.740  13
  -4   3  -5 165.185 86.1061   2
  -4  -3  -5 211.170 94.7111   3
   4  -3   5 233.279 89.3501   5
   4   3   5 173.046 96.0456   1
   4  -3   6-35.1954 65.2706   1
  -4  -3  -6-183.701 107.559  16
   4  -3   6 56.7591 77.6088   4
  -4   3  -6 43.3672 67.9929  16
  -4  -3  -6 116.158 100.528   2
   4   3   6-169.470 106.848  15
   4  -3   6 51.7061 69.5414  15
   4   3   6-12.6911 79.8681  14
  -4   3  -6 57.8683 66.8626   2
  -4   3  -6-1.51743 89.8796  13
  -4  -3  -6 101.586 91.3621   3
   4   3   6 56.5333 72.4011   1
   4  -3   7 168.486 103.211   4
  -4  -3  -7 120.496 163.639  16
  -4   3  -7 307.293 104.952  16
   4   3   7 636.512 221.455  15
   4  -3   7 188.581 114.429  15
  -4   3  -7 409.090 128.195   2
   4   3   7 227.718 147.359  14
  -4   3  -7 43.1098 132.782  13
   4  -3   7 311.651 132.068   1
   4  -3   8 7.42563 68.9077   4
  -4   3  -8-47.9605 76.1971  16
  -4   3  -8 164.803 148.474   2
   4  -3   8 237.454 130.555  15
   4  -3   8 187.868 145.866   1
  -4   3  -8 8.95207 93.3248  13
   4   4   1-14.1800 72.1659  14
   4   4   1 2.44098 65.9324   1
  -4  -4  -1 66.2705 72.6219   6
  -4  -4  -1 89.6146 66.6289   2
  -4  -4  -1 0.33252 65.0840   3
  -4  -4  -2 122.300 107.326  16
   4   4   2 615.380 139.104  15
   4   4   2 640.207 152.594  14
  -4  -4  -2 199.049 114.158   6
  -4  -4  -2 641.474 124.240   2
  -4  -4  -2 260.745 132.448   3
   4   4   2 739.350 156.379   1
  -4  -4  -3 32.4328 81.1403  16
   4   4   3 260.935 101.275  15
   4   4   3 252.976 110.466  14
   4   4   3 240.390 102.064   1
  -4  -4  -3 88.7751 89.0742   6
  -4  -4  -3 162.005 71.5359   2
  -4  -4  -3 172.337 108.749   3
   4  -4   4 85.8239 172.078   1
   4   4   4 405.847 124.405   1
  -4  -4  -4 93.1195 101.798  16
   4  -4   4 558.610 161.484   4
   4   4   4 327.885 109.601  15
   4   4   4 355.022 126.107  14
  -4  -4  -4 375.347 102.411   2
  -4  -4  -4 239.452 127.429   6
  -4   4  -4 41.2998 118.909  13
  -4  -4  -4 104.918 108.021   3
  -4   4  -4 335.771 127.482   2
   4  -4   4 433.189 136.769   5
  -4  -4  -5 76.5272 110.758  16
  -4   4  -5 326.103 94.7380  16
   4  -4   5 587.100 155.180   4
   4   4   5 312.169 108.980  15
  -4  -4  -5 731.885 152.833   2
   4  -4   5 314.250 116.683  15
   4   4   5 301.698 106.060  14
   4  -4   5 85.7885 163.708   1
  -4   4  -5 57.2215 127.805  13
  -4   4  -5 568.990 131.584   2
  -4  -4  -5 123.177 115.574   3
   4   4   5 302.152 100.089   1
   4   4   5 165.318 112.726  11
   4  -4   5 375.790 120.848   5
  -4  -4  -6-0.20142 90.5486  16
   4  -4   6 95.1355 94.5920   4
  -4   4  -6-26.0448 67.5159  16
  -4  -4  -6 121.406 129.276   2
   4   4   6 187.704 112.296  15
   4  -4   6-6.11139 72.0540  15
   4   4   6 170.073 109.221  14
  -4   4  -6 157.283 89.7554   2
   4   4   6 211.952 130.345   1
  -4   4  -6-0.59713 77.7463  13
  -4  -4  -6 18.8917 103.923   3
   4  -4   6 76.0439 75.6609   5
   4  -4   6 12.2880 107.165   1
   4  -4   7 344.974 138.720   4
  -4   4  -7 389.871 117.417  16
  -4   4  -7 152.097 77.5593   2
   4  -4   7 187.784 100.398  15
  -4   4  -7 4.70753 116.238  13
   4  -4   7 190.753 108.780   1
   4  -4   7 189.801 109.591   5
   4  -4   8 0.50980 101.342   4
  -4   4  -8 2.82528 153.155   2
  -4   4  -8-1.13040 95.7154  16
   4  -4   8-195.566 120.815  15
  -4   4  -8 28.1147 83.9492  13
  -4   4  -9 14.4147 156.790  13
   4   5   1 163.731 89.2350   1
   4   5   1 50.5523 71.0360  14
  -4  -5  -1 38.9856 79.0567   6
  -4  -5  -1 239.064 99.0176   2
  -4  -5  -1 56.7845 102.920   3
  -4  -5  -2 1432.64 172.421   2
   4   5   2 1463.52 214.500   1
   4   5   2 1187.61 195.337  15
   4   5   2 1239.15 212.893  14
  -4  -5  -2 779.565 187.572   6
  -4  -5  -2 777.186 203.928   3
   4   5   3-2.07691 55.5823   1
  -4  -5  -3 44.1979 60.6885  16
   4   5   3-50.5743 73.9742  15
   4   5   3-36.3677 68.9437  14
  -4  -5  -3-10.4015 65.1370   2
  -4  -5  -3 37.5180 53.6173   6
  -4  -5  -3 28.1919 84.2766   3
  -4  -5  -4 8.05442 75.2711  16
   4  -5   4 40.1927 114.370   4
   4   5   4 74.0973 63.0923  15
  -4  -5  -4 27.2914 70.1334   2
   4   5   4-64.3626 77.0382  14
  -4  -5  -4 50.8411 94.8624   6
  -4   5  -4 233.994 180.178  13
  -4  -5  -4-8.73464 76.4762   3
   4   5   4-20.0213 72.2371  11
   4   5   4 186.092 99.8454   1
   4  -5   4-4.48376 110.976   5
  -4  -5  -5-18.5054 112.016  16
  -4  -5  -5 30.6873 78.8312   2
   4  -5   5-0.26351 93.7043   4
   4   5   5 23.6765 67.7591  15
   4  -5   5 4.63835 116.712   1
   4   5   5 193.203 110.679  14
   4   5   5 54.2312 77.9948   1
  -4   5  -5-15.1483 72.9259  13
  -4   5  -5 51.9861 76.8951   2
  -4  -5  -5 70.0331 76.0757   3
   4   5   5-91.9689 93.6608  11
   4  -5   5 127.109 96.6184   5
  -4  -5  -6 119.943 311.428  16
   4  -5   6-316.299 136.618   4
   4   5   6 425.813 192.510  15
   4  -5   6-1.38370 70.7765  15
   4   5   6 156.316 126.139  14
  -4   5  -6 53.1852 79.1964   2
  -4   5  -6 21.8443 81.9298  13
   4  -5   6 84.5783 81.2932   5
   4  -5   6 10.9393 122.015   1
   4  -5   7 94.6066 119.998   4
  -4   5  -7-99.2774 85.9336  16
  -4   5  -7-45.4684 92.5158   2
   4  -5   7-113.202 145.567  15
  -4   5  -7-25.7651 110.858  13
   4  -5   7 12.6845 101.309   1
   4  -5   7 99.6550 92.9599   5
   4  -5   8-64.0090 88.3815   4
  -4   5  -8 222.541 529.784   2
  -4   5  -8 205.332 114.936  16
   4  -5   8 52.0929 98.5696  15
  -4   5  -8 48.1598 132.812  13
  -4   5  -8 307.663 353.233  12
   4   6   1-5.92502 78.2420  14
  -4  -6  -1-57.5280 74.3152   6
  -4  -6  -1-101.810 80.7893   2
   4   6   1 165.806 99.3939   1
  -4  -6  -1 70.0466 100.108   3
   4   6   2 165.792 90.7517   1
   4   6   2 75.5376 77.6685  14
  -4  -6  -2 96.3506 70.2876   2
  -4  -6  -2 79.6115 88.0885   6
  -4  -6  -2 1.16357 70.2006   3
  -4  -6  -3-7.59612 94.3005  16
   4   6   3-5.35848 71.0483  15
  -4  -6  -3-50.2536 77.3729   2
   4   6   3 31.5269 77.6127  14
  -4  -6  -3 63.8532 79.1033   6
  -4  -6  -3-72.4794 66.5500   3
   4   6   3-40.2813 58.1644   1
  -4  -6  -4 48.9066 115.955  16
  -4  -6  -4-158.356 106.151   2
   4   6   4 119.141 99.2797  15
   4   6   4 46.3699 85.2384  14
  -4  -6  -4 23.6904 70.6895   6
   4   6   4 53.0925 77.5024   1
  -4  -6  -4-18.8321 77.6777   3
   4   6   4-44.7262 91.1025  11
  -4  -6  -5-30.4791 152.061  16
   4  -6   5-290.075 158.167   4
   4   6   5-151.101 110.233  15
   4   6   5 55.6558 99.9079  14
  -4  -6  -5 79.4563 96.9161   3
  -4   6  -5 11.4582 85.1687  13
   4   6   5 76.6762 148.063  11
   4  -6   5-55.3962 118.295   5
   4  -6   6 98.9407 107.070   4
   4   6   6-245.842 195.026  14
  -4   6  -6-0.46192 140.736  13
   4  -6   6-5.26843 114.360   1
   4  -6   6 289.476 143.289   5
   4  -6   7 74.7224 90.0714   4
  -4   6  -7-4.40335 95.1932  13
   4  -6   7-42.5014 98.5718   5
   4   7   1 94.5715 99.7217  14
  -4  -7  -1 57.2225 86.7903   6
  -4  -7  -1-10.3099 73.2658   3
  -4  -7  -2 36.1184 77.6122   2
   4   7   2 229.604 116.103  14
  -4  -7  -2 31.0680 66.7032   6
  -4  -7  -2 10.6550 77.0857   3
  -4  -7  -3 30.4220 106.547   2
  -4  -7  -3 43.1437 102.898   6
  -4  -7  -3-2.09157 83.1547   3
   4   7   3-75.7547 126.082  11
   4   7   4 164.340 204.874  15
   4   7   4 4.32003 91.9330  14
   4   7   5-37.9160 109.364  14
  -4  -7  -5 36.8768 118.745   3
   4   8   1-47.3639 89.1041  14
  -4  -8  -1-18.5531 116.035   6
  -4  -8  -1 0.23187 78.3438   3
   4   8   2 162.681 115.637  14
  -4  -8  -2 27.3587 89.0294   6
  -4  -8  -2 89.3316 106.652   3
   4   8   3-92.2531 103.580  14
  -4  -8  -3 31.6506 93.4105   6
  -4  -8  -3 9.25706 93.3128   3
   4   8   3 29.5893 115.155  11
  -5   0  -4 186.148 86.2700   2
   5   0   4-159.110 138.211   1
   5   0   5-190.719 114.344   4
  -5   0  -5 289.369 121.784  16
   5   0   5-70.3895 95.0279  15
   5   0   5 95.2904 94.3300   1
  -5   0  -5-36.1964 65.0364   2
  -5   0  -5 224.014 96.7034   3
   5   0   6 107.895 103.266   4
   5   0   6 133.529 114.372  15
  -5   0  -6-110.920 90.0018   2
   5   0   6 155.709 127.352  14
  -5   0  -6-66.2272 79.4795  13
   5   0   6 195.083 112.111   1
  -5  -1  -4 195.937 85.3178   2
   5   1   4 158.696 111.140   1
  -5  -1  -4 190.032 98.3538   3
   5   1   5-44.4016 96.1577   4
   5  -1   5 84.5123 92.1721   4
  -5  -1  -5 28.4547 71.4418  16
  -5   1  -5-78.8124 72.1567  16
   5   1   5-114.065 107.695   1
   5  -1   5 339.368 133.482  15
   5  -1   5 51.7651 115.869   1
   5   1   5 154.925 108.131  14
  -5  -1  -5 148.516 87.1113   2
  -5   1  -5 78.8706 86.6710   2
  -5  -1  -5-108.323 72.8741   3
   5  -1   6 62.3605 116.735   1
   5   1   6-104.891 118.908   4
   5  -1   6 35.8404 76.4198   4
  -5  -1  -6-20.6935 85.0897  16
  -5   1  -6 91.2633 93.7059  16
   5   1   6-156.560 117.904  15
   5  -1   6 50.4259 88.7225  15
  -5  -1  -6-3.57526 78.7676   2
   5   1   6-44.2562 96.7357  14
  -5   1  -6 57.4052 75.4848   2
  -5   1  -6-14.1310 80.3640  13
  -5  -1  -6 48.7145 102.708  13
  -5  -1  -6 14.1386 73.6664   3
   5   1   6-0.24970 90.8570   1
  -5  -2  -4 136.235 80.4133  16
   5   2   4-115.972 108.975  15
   5   2   4 66.1207 103.449  14
   5   2   4-55.4547 105.096   1
  -5  -2  -4 43.9465 67.1857   2
  -5  -2  -4 115.441 82.6207   3
   5   2   5-131.730 120.371   1
  -5  -2  -5 30.3397 86.8090  16
   5  -2   5 44.6115 84.8105   4
   5   2   5 167.747 103.553  15
   5   2   5-82.9524 103.494  14
   5  -2   5 32.9766 129.043   1
  -5  -2  -5-51.5249 81.3143   2
  -5   2  -5 102.300 95.0973   2
  -5  -2  -5 44.4096 74.2603   3
   5  -2   6 64.8726 112.525   1
   5  -2   6-286.577 125.050   4
  -5  -2  -6-75.1892 90.6375  16
  -5   2  -6 3.92663 70.5298  16
   5   2   6-149.068 109.683  15
   5  -2   6 54.7465 98.2526  15
  -5  -2  -6-252.758 110.990   2
   5   2   6-111.076 106.158  14
  -5   2  -6-46.2834 92.5294   2
  -5   2  -6-28.5543 95.3710  13
  -5  -2  -6 2.84160 79.4428   3
   5   2   6-151.751 119.682   1
   5   3   3 33.7145 92.6339   1
  -5  -3  -4-26.5380 72.4725  16
   5   3   4 66.6995 109.973   1
   5   3   4 153.356 119.235  15
   5   3   4-0.27931 94.6662  14
  -5  -3  -4 42.8550 66.9912   2
  -5  -3  -4-4.99966 57.5856   3
  -5  -3  -5-29.8847 74.6829  16
   5   3   5-87.3587 90.8202  15
  -5  -3  -5 1.99581 76.5142   2
   5   3   5-49.9040 94.3328  14
  -5  -3  -5-3.92388 79.6097   3
   5   3   5-63.2893 86.6096   1
   5   4   3-6.93073 109.708  14
   5   4   3 80.2338 105.225   1
  -5  -4  -3 6.56625 86.6679   2
  -5  -4  -3 24.3712 68.0206   3
   5   4   4-76.3047 117.958   1
   5   4   4 43.2439 85.8218  15
   5   4   4-28.4220 110.240  14
  -5  -4  -4-119.842 96.9441   2
  -5  -4  -4-178.431 95.0833   3
  -5  -4  -5 43.5449 98.6721  16
   5   4   5-137.300 96.2582  15
  -5  -4  -5-50.6686 85.2940   2
   5   4   5-82.4686 112.586  14
  -5  -4  -5 62.7735 64.4174   3
   5   4   5 50.5876 85.0810   1
   5   5   3-94.9924 122.843   1
   5   5   3-52.2957 93.2725  14
  -5  -5  -3 54.5087 84.2040   3
   0   0   0    0.00    0.00   0

TITL instrument in P2(1)/c
REM P2(1)/c (#14 in standard setting)
CELL 0.71073   5.024376  10.158499  13.432423  90.0000  97.8822  90.0000
ZERR    4.00   0.004859   0.004324   0.042213   0.0000   0.1771   0.0000
LATT  1
SYMM -x, y+1/2,-z+1/2
SFAC C H N O
UNIT 16.00 28.00 20.00 12.00
TREF
HKLF 4
END
;
_shelx_hkl_checksum              93665
_olex2_submission_special_instructions 'No special instructions were received'
_oxdiff_exptl_absorpt_empirical_details
;
Empirical correction (ABSPACK) includes:
- Absorption correction using spherical harmonics
- Frame scaling
;
_oxdiff_exptl_absorpt_empirical_full_max 9.895
_oxdiff_exptl_absorpt_empirical_full_min 0.636
loop_
_space_group_symop_operation_xyz
'x, y, z'
'-x, y+1/2, -z+1/2'
'-x, -y, -z'
'x, -y-1/2, z-1/2'
loop_
_atom_site_label
_atom_site_type_symbol
_atom_site_fract_x
_atom_site_fract_y
_atom_site_fract_z
_atom_site_U_iso_or_equiv
_atom_site_adp_type
_atom_site_occupancy
_atom_site_site_symmetry_order
_atom_site_calc_flag
_atom_site_refinement_flags_posn
_atom_site_refinement_flags_adp
_atom_site_refinement_flags_occupancy
_atom_site_disorder_assembly
_atom_site_disorder_group
C1 C 0.104(2) 0.7921(8) 0.5385(15) 0.095(15) Uani 1 1 d . . . . .
H1 H -0.045567 0.831751 0.501851 0.114 Uiso 1 1 calc R . . . .
C2 C 0.321(2) 0.8624(7) 0.5878(15) 0.064(13) Uani 1 1 d . . . . .
H2 H 0.342663 0.953298 0.590322 0.076 Uiso 1 1 calc R . . . .
C3 C 0.493(2) 0.7714(6) 0.6309(14) 0.095(13) Uani 1 1 d . . . . .
H3 H 0.659806 0.786939 0.668695 0.114 Uiso 1 1 calc R . . . .
C4 C 0.473(3) 0.5242(6) 0.6336(17) 0.104(17) Uani 1 1 d . . . . .
N1 N 0.3751(19) 0.6498(5) 0.6083(14) 0.116(15) Uani 1 1 d . . . . .
N2 N 0.1317(17) 0.6633(5) 0.5494(11) 0.088(11) Uani 1 1 d . . . . .
N3 N 0.3397(19) 0.4247(5) 0.5882(13) 0.098(13) Uani 1 1 d . . . . .
H3A H 0.409986 0.347346 0.591466 0.117 Uiso 1 1 calc R . . . .
H3B H 0.182438 0.436907 0.555269 0.117 Uiso 1 1 calc R . . . .
N4 N 0.7097(19) 0.5114(6) 0.6842(11) 0.090(12) Uani 1 1 d . . . . .
H4A H 0.786317 0.435568 0.689049 0.108 Uiso 1 1 calc R . . . .
H4B H 0.790687 0.578824 0.712880 0.108 Uiso 1 1 calc R . . . .
N5 N 0.245(2) 0.6483(6) 0.8285(13) 0.091(14) Uani 1 1 d . . . . .
O1 O 0.4873(14) 0.6738(4) 0.8566(9) 0.082(9) Uani 1 1 d . . . . .
O2 O 0.1637(17) 0.5315(5) 0.8273(11) 0.099(12) Uani 1 1 d . . . . .
O3 O 0.0838(16) 0.7380(5) 0.7945(10) 0.103(11) Uani 1 1 d . . . . .
loop_
_atom_site_aniso_label
_atom_site_aniso_U_11
_atom_site_aniso_U_22
_atom_site_aniso_U_33
_atom_site_aniso_U_23
_atom_site_aniso_U_13
_atom_site_aniso_U_12
C1 0.074(11) 0.054(6) 0.14(3) -0.005(7) -0.044(18) 0.008(4)
C2 0.066(11) 0.048(5) 0.07(3) -0.002(6) -0.004(17) -0.010(4)
C3 0.069(10) 0.037(4) 0.16(3) -0.016(6) -0.041(16) 0.001(4)
C4 0.076(12) 0.032(5) 0.18(4) 0.014(7) -0.05(2) -0.011(4)
N1 0.060(9) 0.032(4) 0.23(3) 0.004(6) -0.062(17) -0.005(3)
N2 0.062(8) 0.040(4) 0.15(3) 0.001(5) -0.038(13) -0.001(3)
N3 0.072(10) 0.037(4) 0.17(3) 0.013(5) -0.043(16) 0.000(3)
N4 0.077(10) 0.061(5) 0.11(3) -0.003(5) -0.049(16) 0.006(4)
N5 0.083(11) 0.047(5) 0.13(3) -0.013(6) -0.044(17) 0.003(4)
O1 0.050(6) 0.046(3) 0.14(2) -0.004(4) -0.022(11) -0.005(3)
O2 0.075(9) 0.044(4) 0.16(3) 0.006(4) -0.027(16) -0.014(3)
O3 0.064(8) 0.055(4) 0.17(3) 0.021(5) -0.033(14) 0.006(3)
loop_
_atom_type_symbol
_atom_type_description
_atom_type_scat_dispersion_real
_atom_type_scat_dispersion_imag
_atom_type_scat_source
C C 0.0033 0.0016 'International Tables Vol C Tables 4.2.6.8 and 6.1.1.4'
H H 0.0000 0.0000 'International Tables Vol C Tables 4.2.6.8 and 6.1.1.4'
N N 0.0061 0.0033 'International Tables Vol C Tables 4.2.6.8 and 6.1.1.4'
O O 0.0106 0.0060 'International Tables Vol C Tables 4.2.6.8 and 6.1.1.4'
loop_
_geom_angle_atom_site_label_1
_geom_angle_atom_site_label_2
_geom_angle_atom_site_label_3
_geom_angle
_geom_angle_site_symmetry_1
_geom_angle_site_symmetry_3
_geom_angle_publ_flag
N2 C1 C2 112.9(7) . . ?
C3 C2 C1 105.7(6) . . ?
C2 C3 N1 106.7(7) . . ?
N3 C4 N1 116.9(8) . . ?
N4 C4 N1 119.2(6) . . ?
N4 C4 N3 122.6(8) . . ?
C3 N1 C4 129.6(6) . . ?
N2 N1 C3 111.1(6) . . ?
N2 N1 C4 119.3(6) . . ?
C1 N2 N1 103.7(5) . . ?
O1 N5 O2 120.0(6) . . ?
O1 N5 O3 120.6(7) . . ?
O2 N5 O3 119.2(7) . . ?
loop_
_geom_bond_atom_site_label_1
_geom_bond_atom_site_label_2
_geom_bond_distance
_geom_bond_site_symmetry_2
_geom_bond_publ_flag
C1 C2 1.395(11) . ?
C1 N2 1.322(9) . ?
C2 C3 1.341(10) . ?
C3 N1 1.386(9) . ?
C4 N1 1.392(9) . ?
C4 N3 1.315(10) . ?
C4 N4 1.294(9) . ?
N1 N2 1.369(9) . ?
N5 O1 1.253(10) . ?
N5 O2 1.254(8) . ?
N5 O3 1.262(7) . ?
