#------------------------------------------------------------------------------
#$Date: 2017-07-29 08:50:03 +0300 (Sat, 29 Jul 2017) $
#$Revision: 199400 $
#$URL: file:///home/coder/svn-repositories/cod/cif/2/10/81/2108131.cif $
#------------------------------------------------------------------------------
#
# This file is available in the Crystallography Open Database (COD),
# http://www.crystallography.net/. The original data for this entry
# were provided by IUCr Journals, http://journals.iucr.org/.
#
# The file may be used within the scientific community so long as
# proper attribution is given to the journal article from which the
# data were obtained.
#
data_2108131
loop_
_publ_author_name
'Pavan, Mysore. S'
'Sarkar, Sounak'
'Row, Tayur N. Guru'
_publ_section_title
;
 Exploring the rare S---H&#x00B7;&#x00B7;&#x00B7;S hydrogen bond using
 charge density analysis in isomers of mercaptobenzoic acid
;
_journal_issue                   4
_journal_name_full               'Acta Crystallographica Section B'
_journal_page_first              626
_journal_page_last               633
_journal_paper_doi               10.1107/S2052520617008344
_journal_volume                  73
_journal_year                    2017
_chemical_formula_sum            'C7 H6 O2 S'
_chemical_formula_weight         154.18
_space_group_crystal_system      monoclinic
_space_group_IT_number           14
_space_group_name_Hall           '-P 2yn'
_space_group_name_H-M_alt        'P 1 21/n 1'
_symmetry_space_group_name_Hall  '-P 2yn'
_symmetry_space_group_name_H-M   'P 1 21/n 1'
_atom_sites_solution_hydrogens   mixed
_audit_creation_method           SHELXL-2016/6
_cell_angle_alpha                90
_cell_angle_beta                 94.49(2)
_cell_angle_gamma                90
_cell_formula_units_Z            4
_cell_length_a                   4.7811(10)
_cell_length_b                   5.7441(9)
_cell_length_c                   25.353(5)
_cell_measurement_temperature    100(2)
_cell_volume                     694.1(2)
_computing_structure_refinement  'SHELXL-2016/6 (Sheldrick, 2016)'
_diffrn_ambient_temperature      293(2)
_diffrn_measured_fraction_theta_full 0.999
_diffrn_measured_fraction_theta_max 0.998
_diffrn_measurement_device_type  'Xcalibur, Eos, Nova'
_diffrn_radiation_type           MoK\a
_diffrn_radiation_wavelength     0.71073
_diffrn_reflns_av_R_equivalents  0.1016
_diffrn_reflns_limit_h_max       4
_diffrn_reflns_limit_h_min       -5
_diffrn_reflns_limit_k_max       7
_diffrn_reflns_limit_k_min       -7
_diffrn_reflns_limit_l_max       29
_diffrn_reflns_limit_l_min       -31
_diffrn_reflns_number            4579
_diffrn_reflns_theta_full        25.242
_diffrn_reflns_theta_max         26.400
_diffrn_reflns_theta_min         3.224
_exptl_absorpt_coefficient_mu    0.393
_exptl_crystal_density_diffrn    1.475
_exptl_crystal_F_000             320
_refine_diff_density_max         0.604
_refine_diff_density_min         -0.475
_refine_ls_extinction_method     none
_refine_ls_goodness_of_fit_ref   1.033
_refine_ls_hydrogen_treatment    mixed
_refine_ls_matrix_type           full
_refine_ls_number_parameters     99
_refine_ls_number_reflns         1413
_refine_ls_number_restraints     0
_refine_ls_restrained_S_all      1.033
_refine_ls_R_factor_all          0.1189
_refine_ls_R_factor_gt           0.0715
_refine_ls_shift/su_max          0.000
_refine_ls_shift/su_mean         0.000
_refine_ls_structure_factor_coef Fsqd
_refine_ls_weighting_details
'w=1/[\s^2^(Fo^2^)+(0.0621P)^2^+0.5271P] where P=(Fo^2^+2Fc^2^)/3'
_refine_ls_weighting_scheme      calc
_refine_ls_wR_factor_gt          0.1503
_refine_ls_wR_factor_ref         0.1781
_reflns_number_gt                895
_reflns_number_total             1413
_reflns_threshold_expression     'I > 2\s(I)'
_cod_data_source_file            lc5088sup1.cif
_cod_data_source_block           2
_cod_database_code               2108131
_shelx_space_group_comment
;
The symmetry employed for this shelxl refinement is uniquely defined
by the following loop, which should always be used as a source of
symmetry information in preference to the above space-group names.
They are only intended as comments.
;
_shelx_hkl_file
;
   0   0  -4 321.738 77.4639   3
   0   0  -5 2.09312 15.5360   2
   0   0   5 20.6712 22.4463   2
   0   0  -5 32.4967 31.7823   4
   0   0  -5 64.8885 79.8432   3
   0   0   6 2744.97 165.293   2
   0   0  -6 2477.28 150.865   2
   0   0  -6 2997.90 283.122   3
   0   0  -6 2503.64 179.580   4
   0   0  -7 67.9633 86.7429   3
   0   0   7 36.9265 27.0287   2
   0   0  -7 20.5585 35.9705   2
   0   0  -7 5.53182 37.2927   4
   0   0  -8 115.137 52.5682   4
   0   0  -8 61.8818 28.6205   2
   0   0  -8-21.0638 49.1068   3
   0   0   8 130.858 52.3564   2
   0   0   9 44.4700 36.6451   2
   0   0  -9-7.84205 32.0750   4
   0   0  -9-0.37287 29.4207   2
   0   0 -10 261.986 108.773   3
   0   0  10 245.197 62.3577   2
   0   0 -10 269.431 62.8518   2
   0   0 -10 307.284 74.1468   4
   0   0 -11-82.4259 103.247   3
   0   0  11-11.3962 26.8693   2
   0   0 -11 13.7236 41.3906   4
   0   0 -11-29.3596 26.9873   2
   0   0 -12-19.7357 63.3813   3
   0   0 -12-14.8986 39.0001   2
   0   0 -12 13.1550 41.5949   4
   0   0  12 34.3968 39.1648   2
   0   0 -13-75.8673 119.407   3
   0   0  13-15.8191 36.5870   2
   0   0 -13-11.3618 44.1855   4
   0   0 -14 9956.27 535.374   4
   0   0  14 10741.2 496.758   2
   0   0 -14 10420.0 818.632   3
   0   0 -15-40.6189 65.5100   4
   0   0 -15 56.7561 47.4495   3
   0   0  15-4.27303 41.0811   2
   0   0 -16 1580.72 228.025   4
   0   0  16 1502.51 202.004   2
   0   0 -16 1744.58 369.392   3
   0   0  17 0.14876 30.2071   2
   0   0 -17 150.327 136.978   3
   0   0 -17 6.35513 59.4052   4
   0   0 -18 12886.5 1037.47   3
   0   0  18 14914.7 657.776   2
   0   0 -18 14720.6 724.707   4
   0   0 -19 25.6167 48.3398   4
   0   0 -19-43.7744 65.4818   3
   0   0 -20 2407.62 475.278   3
   0   0 -20 2716.00 323.288   4
   0   0  20 2895.06 302.652   2
   0   0 -21-82.9495 106.822   3
   0   0 -21 36.3491 79.3958   4
   0   0  21-25.9936 73.6187   2
   0   0 -22 2110.13 457.979   3
   0   0  22 2528.06 278.304   2
   0   0 -23 0.57543 81.7817   3
   0   0  23 22.8843 41.6006   2
   0   0 -24 300.956 197.907   3
   0   0 -25-97.4122 162.739   3
   0   0 -26-200.362 161.078   3
   0   0 -27 169.183 190.354   3
   0   0 -28 993.606 373.024   3
   0   0 -29-36.4305 120.878   3
   0   0 -30 1516.16 451.818   3
   0   0 -31 82.6402 179.878   3
   0  -1   0-47.5160 36.8880   4
   0  -1   0-21.8664 35.3360   1
   0   1   0-9.97263 31.4817   3
   0  -1   0 15.2357 42.8506   2
   0   1   0 13.4248 43.5202   1
   0   1  -1 21074.9 579.014   3
   0  -1  -1 24346.8 702.860   4
   0  -1  -1 20732.7 706.351   1
   0   1   1 20326.7 696.644   1
   0  -1  -1 23177.4 647.998   2
   0  -1   1 20500.2 671.154   4
   0   1   1 22473.1 629.971   2
   0   1  -1 20609.2 686.373   4
   0   1   2 13329.5 587.761   1
   0  -1   2 13492.9 555.935   4
   0   1  -2 12601.8 557.343   4
   0   1  -2 13741.0 545.544   3
   0   1   2 14606.6 518.784   2
   0  -1  -2 14666.9 531.206   2
   0  -1  -2 13739.3 593.835   1
   0   1   3 1199.24 189.133   1
   0   1  -3 1598.83 208.296   3
   0  -1  -3 1567.61 183.086   2
   0  -1   3 1376.71 184.488   4
   0  -1  -3 1136.36 171.836   1
   0   1  -3 1361.82 185.711   4
   0   1   3 1638.23 178.862   2
   0   1   4 4066.88 293.757   2
   0  -1  -4 3647.89 339.235   1
   0   1  -4 3463.25 329.272   3
   0   1  -4 3435.11 309.210   4
   0  -1   4 3549.04 304.403   4
   0  -1  -4 3610.93 281.969   2
   0   1   5 15202.9 591.044   2
   0  -1  -5 14911.6 584.896   2
   0   1  -5 13578.9 627.317   4
   0  -1   5 13342.4 595.056   4
   0  -1  -5 15256.6 386.051   3
   0   1  -5 13637.5 723.451   3
   0   1  -6 7422.11 484.097   4
   0   1   6 8181.69 463.561   2
   0   1  -6 7571.27 563.548   3
   0  -1   6 8159.41 480.907   4
   0  -1  -6 9125.53 475.597   2
   0  -1  -6 8747.23 354.934   3
   0   1  -7 7296.10 483.838   4
   0  -1   7 7582.89 477.545   4
   0  -1  -7 8333.75 398.564   3
   0   1  -7 7874.52 600.762   3
   0   1   7 7158.04 442.718   2
   0  -1  -7 8606.94 475.099   2
   0   1  -8 7998.04 632.626   3
   0  -1   8 7682.41 488.353   4
   0   1  -8 8655.58 525.877   4
   0   1   8 7314.33 458.955   2
   0  -1  -8 8733.88 443.237   3
   0  -1  -8 8524.51 487.313   2
   0   1  -9-6.35069 68.3394   4
   0  -1  -9-23.7403 33.0373   2
   0   1   9 37.0302 36.0767   2
   0  -1  -9 91.1443 60.2505   3
   0  -1   9 33.7783 48.5553   4
   0   1 -10 6693.37 632.001   3
   0   1 -10 7995.38 535.658   4
   0  -1  10 7211.77 497.722   4
   0   1  10 8085.44 506.193   2
   0  -1 -10 8455.07 524.770   3
   0  -1 -10 7416.01 477.530   2
   0   1  11 12761.3 653.879   2
   0   1 -11 13974.3 940.142   3
   0  -1 -11 13012.9 691.461   3
   0  -1  11 12394.3 662.141   4
   0  -1 -11 12907.7 636.526   2
   0   1 -11 13296.8 709.470   4
   0  -1 -12 7823.00 577.184   3
   0  -1  12 8527.32 391.555   2
   0  -1  12 8711.02 563.982   4
   0   1 -12 7929.52 752.939   3
   0   1  12 8311.90 553.098   2
   0  -1 -12 8963.04 545.891   2
   0   1 -12 8619.64 582.401   4
   0  -1  13 4136.69 403.756   4
   0   1  13 4574.56 412.484   2
   0  -1 -13 4424.80 395.612   2
   0   1 -13 5075.35 456.590   4
   0  -1 -13 4423.19 456.499   3
   0   1 -13 3893.10 556.741   3
   0  -1  13 4708.21 300.374   2
   0   1 -14 4224.36 590.125   3
   0  -1  14 4421.89 300.296   2
   0  -1 -14 4538.56 485.719   3
   0  -1 -14 4447.77 403.729   2
   0  -1  14 4476.58 416.337   4
   0   1 -14 4582.00 443.688   4
   0   1  14 5085.71 448.760   2
   0  -1 -15 61.1817 46.1537   2
   0  -1  15 70.7314 52.2758   2
   0   1  15 9.24014 60.6755   2
   0   1 -15 126.745 141.877   3
   0   1 -15 74.8543 97.1763   4
   0  -1 -15 6.33239 65.9444   3
   0  -1  15 0.67327 63.0948   4
   0  -1  16 1389.84 168.664   2
   0   1 -16 1225.65 319.660   3
   0  -1 -16 1297.92 225.917   2
   0  -1  16 1402.85 244.926   4
   0  -1 -16 1253.33 289.682   3
   0   1 -16 1378.66 254.069   4
   0   1  16 1283.13 238.811   2
   0  -1  17 860.481 136.065   2
   0   1 -17 1155.23 237.588   4
   0  -1 -17 1109.38 270.757   3
   0   1 -17 999.022 312.449   3
   0  -1 -17 977.787 211.057   2
   0   1  17 1029.66 219.220   2
   0   1  18 204.538 115.836   2
   0   1 -18 139.735 76.4721   4
   0  -1 -18 109.626 76.8390   4
   0  -1 -18 27.7838 47.8130   2
   0  -1  18 75.8511 41.2064   2
   0   1 -18-56.5953 115.542   3
   0  -1 -18 117.462 96.7756   3
   0  -1 -19 931.691 192.259   2
   0   1 -19 1073.12 238.012   4
   0  -1  19 880.783 137.514   2
   0  -1 -19 1212.40 210.606   4
   0   1 -19 1002.55 336.433   3
   0  -1 -19 763.848 237.060   3
   0   1  19 1140.50 234.638   2
   0   1  20 18.6110 37.7160   2
   0  -1 -20 132.960 108.494   3
   0  -1 -20-53.7869 72.2769   2
   0   1 -20 25.8877 78.8202   4
   0   1 -20 32.8065 66.3331   3
   0  -1  20-3.87568 23.7726   2
   0  -1 -20 14.6127 51.1582   4
   0   1  21 0.26598 71.0302   2
   0  -1 -21 6.05063 90.8443   2
   0  -1 -21 182.526 178.607   3
   0   1 -21 4.30249 84.5772   4
   0  -1  21 16.5998 30.8967   2
   0  -1 -21-24.8750 64.3229   4
   0   1 -21 180.576 210.775   3
   0  -1 -22 85.3561 81.7336   3
   0   1 -22-24.2550 92.0987   3
   0   1  22 78.5484 59.9933   2
   0  -1  22 64.0887 38.6823   2
   0  -1  23 2497.78 193.579   2
   0   1 -23 3953.19 684.375   3
   0  -1 -23 4246.12 638.743   3
   0   1  23 4192.30 463.438   2
   0  -1 -24 850.888 299.038   3
   0   1 -24 99.0417 144.846   3
   0   1 -25 2348.36 596.638   3
   0  -1 -25 3431.23 605.451   3
   0   1 -26 5944.90 898.357   3
   0  -1 -26 5841.81 820.048   3
   0  -1 -27 57.2059 88.4859   3
   0   1 -27-285.640 206.506   3
   0   1 -28 105.444 137.889   3
   0  -1 -28-11.6095 146.747   3
   0   1 -29 594.060 228.990   3
   0  -1 -29 627.988 304.509   3
   0  -1 -30 615.145 353.102   3
   0   1 -30 359.720 285.389   3
   0   1 -31 715.792 324.590   3
   0  -1 -31 1392.31 434.928   3
   0   2   0 1933.65 204.444   3
   0  -2   0 2074.76 280.128   2
   0  -2   0 2042.03 310.692   1
   0  -2   0 1377.51 243.979   4
   0   2   0 2048.72 307.207   1
   0   2  -1 15111.6 644.674   3
   0  -2   1 17375.4 771.965   2
   0  -2  -1 15641.4 800.716   4
   0  -2  -1 15085.9 748.337   2
   0   2   1 16839.5 537.850   3
   0  -2   1 16070.9 834.231   4
   0   2  -1 15342.6 829.708   1
   0   2   1 15835.2 851.782   1
   0  -2  -1 16589.0 885.969   1
   0  -2  -2 3106.88 385.651   1
   0   2   2 2571.77 353.163   1
   0  -2  -2 3215.11 345.383   2
   0  -2  -2 3106.34 374.787   4
   0   2   2 2777.52 188.245   3
   0   2  -2 2731.41 294.414   3
   0   2  -2 3224.60 393.531   4
   0   2  -2 2385.36 338.083   1
   0  -2   2 3077.57 323.646   2
   0  -2   2 3324.07 378.311   4
   0  -2  -3 1800.00 265.110   4
   0  -2   3 1646.03 234.514   2
   0   2  -3 2133.69 319.891   4
   0  -2   3 1631.01 273.057   4
   0   2   3 1698.55 290.646   1
   0   2  -3 1809.22 246.957   3
   0  -2  -3 1827.58 267.886   2
   0  -2  -3 1852.25 303.197   1
   0   2   4 2706.67 392.150   1
   0   2  -4 3487.82 412.636   4
   0  -2   4 3075.24 379.618   4
   0  -2  -4 3366.96 404.733   1
   0   2  -4 2574.08 337.410   3
   0  -2  -4 3862.95 393.328   2
   0   2   5 6623.10 610.186   1
   0   2  -5 7289.51 615.109   4
   0  -2   5 7454.61 591.028   4
   0  -2  -5 7101.68 541.150   2
   0   2  -5 7264.61 581.001   3
   0  -2  -5 6540.57 591.035   1
   0   2   5 7490.80 553.742   2
   0   2   6 4569.57 440.257   2
   0   2  -6 4174.71 459.078   3
   0  -2  -6 4017.63 468.993   1
   0  -2   6 3724.23 425.730   4
   0   2  -6 4174.30 458.864   4
   0  -2  -6 4023.95 405.664   2
   0  -2  -7 2735.84 343.654   2
   0  -2  -7 2596.36 399.343   1
   0   2  -7 2411.04 357.317   4
   0   2  -7 2700.92 386.339   3
   0   2   7 2569.46 339.259   2
   0  -2   7 3084.13 391.502   4
   0  -2  -8 147.481 97.6674   1
   0   2  -8 59.5520 88.2117   3
   0   2  -8-6.13374 64.0658   4
   0   2   8 115.191 99.3783   2
   0  -2   8 28.1444 67.0936   4
   0  -2  -8 118.594 90.8613   2
   0  -2  -9 275.554 77.6925   2
   0  -2   9 250.583 105.477   4
   0   2  -9 469.271 191.497   4
   0  -2  -9 170.627 43.6430   3
   0   2   9 213.575 86.6911   2
   0   2  -9 270.705 130.330   3
   0  -2  -9 103.744 75.9069   1
   0  -2 -10 2439.04 334.590   2
   0   2 -10 2235.20 358.068   4
   0   2 -10 2534.19 430.355   3
   0   2  10 2599.61 356.572   2
   0  -2  10 2768.66 392.604   4
   0  -2 -10 2504.44 200.019   3
   0  -2 -11 115.000 63.1524   2
   0  -2  11 144.531 92.9171   4
   0   2 -11 61.9237 98.2352   3
   0   2  11 229.114 125.946   2
   0   2 -11 55.2711 43.2747   4
   0  -2 -11 135.454 57.6488   3
   0  -2 -12 8419.52 466.669   3
   0   2 -12 10331.7 797.809   4
   0  -2  12 9431.42 731.780   4
   0   2  12 8513.39 678.718   2
   0  -2 -12 9134.39 671.704   2
   0   2 -12 9418.74 887.221   3
   0  -2 -13 11724.8 769.748   2
   0   2 -13 12021.3 877.769   4
   0   2 -13 9034.85 922.105   3
   0  -2  13 10787.2 800.270   4
   0   2  13 11834.6 812.444   2
   0  -2 -13 11416.3 584.214   3
   0  -2  14 80.4208 72.0199   4
   0  -2 -14 193.469 108.440   3
   0   2  14 113.734 95.3168   2
   0   2 -14 315.083 194.454   3
   0  -2 -14 238.560 110.300   2
   0   2 -14 259.073 137.257   4
   0  -2  15 1390.82 287.666   4
   0  -2 -15 1179.44 257.777   2
   0   2 -15 1283.27 359.749   3
   0  -2 -15 1158.02 216.970   3
   0   2 -15 1556.38 311.299   4
   0   2  15 1291.07 271.090   2
   0   2 -16 144.413 94.8913   3
   0  -2 -16 297.922 114.745   3
   0  -2  16 138.985 91.3367   4
   0   2 -16 210.605 149.511   4
   0   2  16 315.903 166.901   2
   0  -2 -17 2233.96 338.909   3
   0   2  17 1827.59 341.869   2
   0   2 -17 2285.43 495.820   3
   0  -2  17 1546.13 316.901   4
   0   2  18 367.341 154.201   2
   0  -2 -18 651.894 196.764   3
   0  -2  18 574.533 138.925   2
   0   2 -18 1003.06 357.639   3
   0  -2  18 456.833 177.368   4
   0  -2  19 4884.02 580.162   4
   0  -2  19 5239.71 401.908   2
   0   2  19 5640.65 621.042   2
   0  -2 -19 5742.76 599.179   3
   0   2 -19 4752.69 793.299   3
   0   2  20 1068.30 283.048   2
   0  -2 -20 860.074 231.905   3
   0   2 -20 897.983 330.116   3
   0  -2  20 884.254 160.453   2
   0  -2  20 1009.66 265.849   4
   0  -2 -21 681.678 239.802   3
   0  -2  21 1106.94 176.271   2
   0  -2  21 996.972 287.100   4
   0   2 -21 1027.55 365.682   3
   0   2 -22 398.682 233.835   3
   0  -2  22 285.148 79.0315   2
   0  -2 -22 195.554 104.344   3
   0  -2  22 253.115 166.205   4
   0   2 -23-162.604 164.723   3
   0  -2 -23 190.589 129.412   3
   0   2 -24-91.0164 161.924   3
   0  -2 -24 14.9620 132.613   3
   0   2 -25 1613.98 499.622   3
   0  -2 -25 2503.35 515.379   3
   0  -2 -26 194.479 209.240   3
   0   2 -26 193.433 201.165   3
   0   2 -27-443.845 271.566   3
   0   2 -28-22.4258 80.7273   3
   0   2 -29 297.589 94.9197   3
   0   2 -30-119.994 92.2220   3
   0   3   0-101.540 103.819   1
   0  -3   0 26.1551 65.0314   4
   0   3   0 95.4763 82.3570   3
   0  -3  -1 1444.68 309.361   1
   0   3  -1 1314.64 219.215   3
   0  -3  -1 1115.80 267.287   4
   0  -3   1 952.401 235.511   4
   0   3   1 1125.25 174.536   3
   0   3   1 688.013 211.218   1
   0   3  -1 1023.47 262.957   1
   0   3   2-45.2808 90.6862   1
   0   3  -2 142.316 100.998   3
   0   3  -2 60.5947 87.3480   1
   0  -3   2 108.984 73.6851   4
   0  -3  -2-0.38214 86.6549   1
   0   3   2 133.844 55.8396   3
   0  -3  -2 56.8551 116.689   4
   0  -3   2 186.557 113.648   2
   0   3  -3 4573.19 467.856   3
   0  -3  -3 3385.25 502.391   1
   0   3  -3 4054.23 538.838   1
   0  -3   3 4113.59 523.354   4
   0  -3   3 3478.56 423.335   2
   0   3   3 4073.82 272.717   3
   0  -3  -3 4273.23 519.242   4
   0   3   3 3643.90 516.912   1
   0   3   4 1320.21 113.930   3
   0   3  -4 1886.11 319.309   3
   0  -3  -4 2452.80 391.148   4
   0  -3   4 2583.78 365.174   2
   0   3  -4 2546.88 434.156   1
   0   3   4 2613.62 436.154   1
   0  -3   4 2223.36 398.237   4
   0  -3   5 1887.86 383.381   4
   0  -3   5 1693.25 298.252   2
   0  -3  -5 1364.59 304.318   4
   0   3   5 1456.63 336.820   1
   0   3  -5 1508.80 309.261   3
   0  -3   6 8949.79 794.460   4
   0   3  -6 9381.38 772.684   3
   0  -3   6 8740.08 682.212   2
   0  -3  -6 8572.95 732.556   4
   0   3   6 9998.50 903.523   1
   0  -3   7 1609.67 348.361   4
   0  -3  -7 1955.84 363.909   4
   0   3  -7 1783.14 345.720   3
   0  -3   7 1819.40 311.624   2
   0   3   7 1580.57 355.959   1
   0  -3  -8 2499.07 393.351   4
   0  -3   8 2218.05 342.069   2
   0  -3   8 2126.31 387.066   4
   0   3  -8 1887.33 394.649   3
   0  -3  -9 2598.14 399.051   4
   0  -3   9 2582.70 364.017   2
   0   3  -9 1852.38 399.137   3
   0  -3   9 2044.37 385.998   4
   0  -3  10 4620.68 503.491   2
   0   3 -10 5222.40 675.660   3
   0  -3  10 4784.18 603.035   4
   0  -3  11 98.1228 100.190   4
   0  -3  11-42.1263 108.539   2
   0   3 -11 182.813 116.473   3
   0  -3  12 4827.48 614.578   4
   0   3 -12 4418.67 670.814   3
   0  -3  12 5087.48 527.824   2
   0  -3  13 486.261 231.062   4
   0  -3  13 640.365 208.214   2
   0   3 -13 264.133 188.305   3
   0  -3  14 2163.73 348.175   2
   0   3 -14 2414.49 506.492   3
   0  -3  14 1848.57 383.825   4
   0  -3 -15 16.5254 11.8155   3
   0  -3  15 76.2738 86.4061   2
   0  -3  15-6.79302 98.6232   4
   0   3 -15 86.1898 133.775   3
   0  -3 -16 132.652 48.7381   3
   0  -3  16 146.339 124.560   4
   0   3 -16 278.755 215.460   3
   0  -3  16 160.299 92.6984   2
   0   3 -17 255.388 170.861   3
   0  -3 -17 179.312 67.2571   3
   0  -3  17 200.689 164.105   4
   0  -3  17 180.599 111.283   2
   0  -3  18 87.0861 116.904   2
   0   3 -18 146.979 141.930   3
   0  -3 -18 25.5604 44.2466   3
   0  -3  18 55.1574 71.0761   4
   0   3 -19 632.801 332.351   3
   0  -3  19 1020.95 279.830   4
   0  -3 -19 1059.04 187.131   3
   0  -3  20 2496.68 483.154   4
   0   3 -20 1289.19 466.724   3
   0  -3  21 108.267 46.9194   4
   0   3 -21 161.110 203.742   3
   0  -3 -22 95.5437 113.235   4
   0   3 -22 57.3582 101.217   3
   0  -3  22 33.2591 112.556   4
   0  -3  23 121.265 67.5730   4
   0   3 -23-142.695 169.652   3
   0  -3  24 2084.44 451.751   4
   0   3 -24 1141.06 454.883   3
   0  -3  25 634.936 257.982   4
   0   3 -25 355.013 283.849   3
   0   3 -26 2753.20 724.397   3
   0   3 -27 418.893 307.238   3
   0   3 -28 629.987 339.121   3
   0   4   0 8611.85 627.067   3
   0  -4   0 9869.83 935.370   4
   0   4   0 7086.63 793.350   1
   0  -4  -1 870.504 293.312   4
   0   4  -1 620.592 252.427   1
   0   4  -1 867.419 256.021   3
   0  -4   1 1105.54 357.750   4
   0   4   1 176.592 62.1312   1
   0   4   1 343.410 126.972   3
   0   4   2 516.942 227.388   1
   0  -4  -2 410.942 185.921   4
   0   4   2 275.543 89.4530   3
   0   4  -2 307.783 114.826   3
   0   4  -2 191.232 155.113   1
   0  -4   2 554.679 243.382   4
   0   4   3 355.411 85.2649   3
   0  -4  -3 889.730 310.769   4
   0   4  -3 684.036 245.317   1
   0   4  -3 654.810 206.449   3
   0   4   3 142.911 137.500   1
   0   4  -4 1549.11 409.317   1
   0  -4  -4 1072.88 305.059   4
   0   4   4 1237.58 145.073   3
   0  -4   4 1390.44 358.244   4
   0   4   4 1327.87 385.676   1
   0   4  -4 1374.05 277.749   3
   0  -4  -5 3259.65 556.440   4
   0   4   5 2969.31 561.892   1
   0   4  -5 2332.05 408.298   3
   0   4  -5 2575.13 504.789   1
   0  -4   5 2627.64 493.400   4
   0   4   6 8829.90 948.641   1
   0   4  -6 9950.45 1053.30   1
   0  -4   6 9050.51 932.119   4
   0  -4  -6 9551.84 918.733   4
   0   4  -6 7881.07 777.752   3
   0  -4   7 2235.06 460.304   4
   0   4   7 2826.68 572.691   1
   0   4  -7 2765.66 485.775   3
   0  -4  -7 2768.58 498.323   4
   0   4  -8 2989.33 512.558   3
   0   4  -8 3898.53 679.749   1
   0  -4  -8 3228.68 529.478   4
   0  -4   8 3278.64 577.308   4
   0   4  -9 277.441 201.651   3
   0  -4  -9-69.6478 120.656   4
   0  -4   9-61.7389 102.603   4
   0   4 -10-101.862 95.5303   3
   0  -4 -10 113.594 129.799   4
   0  -4  10 79.6011 61.0837   4
   0  -4  11 3101.71 574.278   4
   0   4 -11 3056.26 571.634   3
   0  -4 -11 2574.16 471.441   4
   0  -4  12 311.598 205.825   4
   0   4 -12 98.8799 142.772   3
   0  -4 -12 408.289 200.449   4
   0  -4  13 319.710 216.293   4
   0  -4 -13 347.764 209.212   4
   0   4 -13-11.6308 114.864   3
   0  -4 -14 1050.07 313.964   4
   0   4 -14 1094.86 354.354   3
   0  -4  14 1190.81 338.956   4
   0   4 -15 1142.50 438.696   3
   0  -4 -15 832.589 279.820   4
   0  -4  15 1245.55 353.555   4
   0  -4  16 1855.87 458.541   4
   0  -4 -16 1850.88 437.166   4
   0   4 -16 2146.33 542.464   3
   0  -4  17-17.8852 131.798   4
   0   4 -17 120.528 173.483   3
   0  -4 -17 63.8959 120.988   4
   0   4 -18 2229.85 582.003   3
   0  -4 -18 2159.80 467.462   4
   0  -4  18 1915.25 456.363   4
   0  -4  19 902.201 285.688   4
   0  -4 -19 1546.60 408.327   4
   0   4 -19 1186.67 450.150   3
   0  -4  20 870.200 292.831   4
   0  -4 -20 680.837 272.062   4
   0   4 -20 606.077 382.574   3
   0  -4  21 9.43047 93.8064   4
   0  -4 -21 287.052 162.648   4
   0   4 -21 390.457 250.039   3
   0  -4  22 1205.54 384.851   4
   0   4 -22 614.126 366.759   3
   0  -4  23 1446.49 406.592   4
   0   4 -23 967.657 385.258   3
   0  -4  24 227.792 99.2126   4
   0   4 -24-68.8698 209.631   3
   0  -4  25 167.795 235.529   4
   0   4 -25 262.509 351.293   3
   0   4 -26 6.94501 144.251   3
   0   5   0 7.55576 91.2400   3
   0   5   0-39.2640 134.494   1
   0   5   1 214.006 105.622   3
   0  -5   1 197.200 178.859   4
   0   5  -1 120.525 74.1593   3
   0   5  -1 26.1865 147.760   1
   0  -5  -1-25.2067 76.9775   4
   0   5   1 185.771 204.657   1
   0   5   2 209.427 218.180   1
   0   5   2 432.813 145.992   3
   0   5  -2 197.132 131.891   3
   0   5  -2 126.639 146.574   1
   0  -5  -2 406.613 242.115   4
   0  -5   2 323.559 174.180   4
   0   5  -3 1567.87 339.780   3
   0   5  -3 1485.24 440.631   1
   0  -5  -3 1764.05 446.817   4
   0  -5   3 1767.36 438.206   4
   0   5   3 1066.26 364.243   1
   0   5   3 1242.70 199.868   3
   0  -5   4 595.592 276.221   4
   0   5  -4 390.210 308.659   1
   0   5   4 381.007 99.1890   3
   0   5  -4 605.952 259.033   3
   0  -5  -4 424.841 258.069   4
   0   5   4 971.764 367.959   1
   0   5  -5 2305.34 573.093   1
   0   5   5 2695.72 574.730   1
   0  -5  -5 2755.41 564.603   4
   0   5  -5 2557.13 476.329   3
   0  -5   5 2902.34 588.870   4
   0   5  -6 563.285 418.835   1
   0  -5   6 4.01833 72.4546   4
   0   5  -6 17.6410 77.7700   3
   0  -5  -6 703.522 338.725   4
   0   5  -7 7185.80 837.436   3
   0   5   7 8285.59 1031.52   1
   0   5  -7 9025.78 1165.62   1
   0  -5   7 7818.49 974.459   4
   0  -5  -7 8079.55 947.769   4
   0  -5  -8 1813.72 466.900   4
   0   5   8 1464.22 453.742   1
   0  -5   8 2014.10 504.118   4
   0   5  -8 2510.89 546.613   3
   0   5  -8 3457.65 722.373   1
   0  -5  -9 767.895 305.162   4
   0   5  -9 596.016 267.414   3
   0  -5   9 968.805 380.514   4
   0   5  -9 860.258 379.278   1
   0  -5 -10 1006.66 334.449   4
   0  -5  10 639.858 302.934   4
   0   5 -10 368.303 224.947   3
   0   5 -10 719.336 328.107   1
   0  -5  11 3237.82 641.962   4
   0   5 -11 3504.02 742.917   1
   0  -5 -11 4053.39 688.804   4
   0   5 -11 5086.90 777.710   3
   0   5 -12-42.2647 109.753   1
   0  -5  12 290.856 193.064   4
   0  -5 -12 150.093 151.186   4
   0   5 -12-36.5056 65.0254   3
   0  -5 -13 2298.01 537.493   4
   0   5 -13 1858.81 514.602   3
   0  -5  13 2046.73 529.102   4
   0  -5 -14 599.430 290.073   4
   0  -5  14 312.645 210.610   4
   0   5 -14 648.295 327.033   3
   0  -5 -15 2811.14 605.759   4
   0   5 -15 1255.99 448.796   3
   0  -5  15 2184.72 555.278   4
   0   5 -16 1624.51 503.114   3
   0  -5 -16 1055.66 365.357   4
   0  -5  16 1361.12 454.336   4
   0   5 -17 186.927 185.964   3
   0  -5 -17 135.582 169.232   4
   0  -5 -18 244.069 237.204   4
   0  -5  18-64.3952 202.499   4
   0   5 -18 127.078 155.071   3
   0   5 -19 1980.24 617.388   3
   0  -5  19 2110.45 545.874   4
   0  -5 -19 2278.11 567.793   4
   0  -5  20 1380.44 435.882   4
   0  -5 -20 1794.89 491.913   4
   0   5 -20 2455.93 672.725   3
   0  -5  21 538.786 285.789   4
   0   5 -21 576.797 411.706   3
   0  -5  22 81.0406 110.866   4
   0   5 -22 400.888 295.143   3
   0   6   0 2808.96 666.696   1
   0  -6   0 2772.12 652.141   4
   0   6  -1 2076.24 579.600   1
   0  -6  -1 797.304 357.695   4
   0  -6   1 1708.29 595.495   4
   0   6   1 1012.35 393.740   1
   0   6   2 825.684 367.484   1
   0   6  -2 1561.20 376.414   3
   0  -6   2 1179.21 396.642   4
   0   6  -2 1424.00 468.886   1
   0  -6  -2 1026.21 371.805   4
   0   6  -3 306.539 291.234   3
   0   6   3 234.681 159.357   1
   0   6  -3 267.216 241.879   1
   0  -6  -3 390.535 294.431   4
   0  -6   3 274.559 249.471   4
   0   6  -4 1518.53 479.657   1
   0  -6  -4 1499.49 486.015   4
   0   6  -4 962.680 322.671   3
   0   6   4 1430.95 448.113   1
   0  -6   4 1066.66 379.629   4
   0  -6   5 1333.30 458.395   4
   0   6  -5 2140.46 612.612   1
   0   6  -5 1963.47 459.339   3
   0  -6  -5 2244.15 549.602   4
   0   6   5 1031.69 386.165   1
   0  -6  -6-514.931 275.918   4
   0   6   6-163.653 170.000   1
   0   6  -6-95.8207 114.497   1
   0  -6   6 103.049 277.630   4
   0   6  -6 151.101 205.184   3
   0   6  -7 33.9955 227.964   1
   0  -6   7 11.8548 109.414   4
   0   6  -7 287.263 214.309   3
   0   6   7 110.528 149.384   1
   0  -6  -7 394.460 294.491   4
   0  -6   8-147.285 219.171   4
   0  -6  -8 57.4992 140.155   4
   0   6  -8-38.2389 178.846   3
   0   6  -8 170.161 249.397   1
   0   6  -9 152.653 174.285   1
   0  -6  -9 344.144 295.882   4
   0  -6   9 288.738 261.214   4
   0   6  -9 19.0349 148.396   3
   0  -6 -10 534.353 294.481   4
   0   6 -10 241.141 161.597   3
   0  -6  10 607.499 336.678   4
   0   6 -10 934.735 439.268   1
   0   6 -11-70.6082 173.521   1
   0  -6 -11 67.1152 70.4114   4
   0   6 -11-73.6466 259.584   3
   0  -6  11 306.424 220.379   4
   0  -6 -12 739.489 357.160   4
   0   6 -12 575.844 379.368   1
   0   6 -12 264.812 261.458   3
   0  -6  12 118.105 88.6984   4
   0   6 -13 864.974 409.723   1
   0   6 -13 828.717 424.669   3
   0  -6 -13 866.372 387.276   4
   0  -6  13 627.643 347.799   4
   0  -6  14-193.765 205.977   4
   0   6 -14-82.0014 115.477   3
   0  -6 -14-337.401 234.610   4
   0   6 -14 215.019 291.973   1
   0  -6  15 353.987 255.354   4
   0   6 -15 257.072 178.120   3
   0   6 -15 709.680 490.651   1
   0  -6 -15 564.792 209.524   4
   0  -6 -16 621.697 313.713   4
   0  -6  16 803.462 383.441   4
   0   6 -16 331.779 187.034   3
   0   6 -16 684.795 392.346   1
   0  -6 -17-86.6139 84.1789   4
   0   6 -17-100.518 235.592   3
   0  -6  17 46.6524 206.579   4
   0   6 -17-40.5051 121.018   1
   0  -7   0-31.1317 152.060   4
   0   7   0-49.5761 106.826   1
   0   7   1-34.6330 263.801   1
   0  -7   1 180.506 118.945   4
   0  -7  -1-87.8357 134.518   4
   0   7  -1 459.536 348.964   1
   0  -7   2 401.143 285.099   4
   0   7   2 776.489 320.160   1
   0   7  -2 555.975 298.965   1
   0  -7  -2 273.332 106.195   4
   0   7  -3-6.49663 275.882   1
   0   7   3 313.742 243.574   1
   0  -7   3 863.774 419.905   4
   0  -7  -3 742.642 398.930   4
   0  -7  -4 339.821 125.584   4
   0  -7   4-23.1715 144.711   4
   0   7  -4 11.0546 311.380   1
   0   7   4-71.3189 288.179   1
   0   7   5 601.522 352.636   1
   0  -7   5 932.226 395.263   4
   0   7  -5 751.650 380.763   1
   0  -7  -5 898.892 418.895   4
   0   7  -6 1647.26 600.253   1
   0  -7   6 2279.86 677.227   4
   0   7   6 1779.62 593.996   1
   0  -7  -6 1902.31 593.376   4
   0  -7  -7 508.391 362.112   4
   0   7  -7 797.614 393.979   1
   0  -7   7 1465.67 581.448   4
   1   0 -31 396.587 186.390   3
   1   0 -30 103.726 119.802   3
   1   0 -29 220.139 213.978   3
   1   0 -28 32.4773 75.8601   3
   1   0 -27 1794.16 465.194   3
   1   0 -26-17.7913 58.8684   3
  -1   0  26-39.6461 90.8699   2
   1   0 -25 226.460 189.151   3
  -1   0  25 316.492 170.728   2
  -1   0  24-38.4154 75.0059   2
   1   0 -24 20.2946 64.0739   3
   1   0 -23 2274.51 467.001   3
  -1   0  23 4162.64 505.702   2
   1   0 -22 163.886 107.014   3
  -1   0  22-52.6247 65.4201   2
  -1   0  21 71.6912 83.1569   2
   1   0 -21 58.8389 72.6204   3
   1   0 -20 0.91733 109.980   3
  -1   0  20-19.0984 46.8734   2
  -1   0  19 4986.25 509.955   2
   1   0 -18 51.9533 80.7883   4
  -1   0  18 48.5049 34.2835   2
   1   0 -17 5775.53 579.855   4
  -1   0  17 5282.46 512.554   2
  -1   0  16-36.4966 53.8815   2
   1   0 -16-150.221 99.0073   4
   1   0 -15 12184.9 827.027   4
  -1   0  15 10860.5 706.612   2
   1   0 -14 291.014 150.374   4
  -1   0  14 45.8094 38.9637   2
   1   0 -13 309.867 149.464   4
  -1   0  13 354.771 134.129   2
   1   0 -12 118.035 100.412   4
  -1   0  12-12.8012 36.3476   2
  -1   0  11 7327.84 522.491   2
   1   0 -11 8001.11 621.386   4
  -1   0  10-54.6047 59.4262   2
   1   0 -10 63.8070 95.4713   4
  -1   0   9 7747.18 520.603   2
   1   0  -9 7695.88 575.301   4
  -1   0   8 96.1386 74.4484   2
  -1   0   7 4881.18 381.249   2
  -1   0   6-67.1730 62.3448   2
  -1   0   5 84485.4 1489.61   2
   1   0  -4-28.0121 56.5635   1
  -1   0   4-94.5567 66.1957   2
  -1   0   3 10050.7 487.539   2
   1   0  -3 9297.20 378.222   1
  -1   0   3 9654.09 366.071   1
  -1   0   2-32.2138 41.9040   2
   1   0  -2 5.38485 27.6951   1
  -1   0   2 67.6982 42.6058   1
  -1   0   1 7054.79 304.075   1
   1   0  -1 6935.75 428.124   3
  -1   0   1 7029.94 378.784   2
   1   0   0 65.1242 75.4397   3
  -1   0   0-31.4763 54.4106   3
  -1   0  -1 17760.2 675.686   3
   1   0   1 16703.8 651.846   3
   1   0   2 7.23749 34.3667   3
  -1   0  -2 77.5202 81.6006   3
  -1   0  -3 23975.3 860.282   3
   1   0   3 24520.9 847.041   3
   1   0   4 102.991 73.1013   3
  -1   0  -4-79.5971 76.0584   3
   1   0   5 588.524 150.004   3
  -1   0  -5 716.149 192.835   3
  -1   0  -6 67.7265 57.9074   3
   1   0   6 16.8020 89.8515   3
   1   0   7 26747.5 1070.51   3
  -1   0  -7 27809.4 1086.47   3
  -1   0  -8-47.8713 86.8061   3
   1   0   8-303.551 119.660   3
  -1   0  -9 327.704 138.161   3
   1   0   9 249.020 120.527   3
  -1   0 -10 14.4738 97.0562   3
   1   0  10-65.5392 54.6879   3
   1   0  11 9227.50 729.484   3
  -1   0 -11 8315.39 688.009   3
  -1   0 -12-13.5014 46.1638   3
   1   0  12 181.113 71.5596   3
   1   0  13 5277.11 587.050   3
  -1   0 -13 4374.99 535.119   3
  -1   0 -14-98.1323 91.6021   3
  -1   0 -15 437.970 209.703   3
  -1   0 -16-104.212 79.0983   3
  -1   0 -17 1239.16 323.775   3
  -1   0 -18-64.4709 89.6011   3
  -1   0 -19 4486.20 672.774   3
  -1   0 -20 56.7407 144.881   3
  -1   0 -21 21997.9 1580.83   3
  -1   0 -22 17.6664 101.746   3
  -1   0 -23 2941.74 609.328   3
  -1   0 -24 90.7746 159.608   3
  -1   0 -25 2753.34 625.128   3
  -1   0 -26-38.0724 111.150   3
  -1   0 -27 1877.20 544.781   3
  -1   0 -28 146.610 115.165   3
  -1   0 -29 1116.66 447.110   3
  -1   0 -30-78.3376 159.162   3
   1  -1 -31 458.002 217.290   3
   1   1 -31 407.596 260.617   3
   1  -1 -30 108.692 149.837   3
   1   1 -30-25.2865 110.969   3
   1  -1 -29 27.0224 111.402   3
   1   1 -29-35.2741 180.624   3
   1   1 -28 1093.98 380.370   3
   1  -1 -28 778.730 273.655   3
   1   1 -27-5.36046 169.770   3
   1  -1 -27 266.866 211.628   3
  -1   1  27 37.4152 78.8465   2
  -1   1  26 108.734 64.7980   2
  -1  -1  26 0.57659 94.9228   2
   1  -1 -26 400.471 209.172   3
   1   1 -26 265.559 227.467   3
   1   1 -25 12.7737 84.7641   3
  -1   1  25-28.0885 54.2983   2
   1  -1 -25 72.7887 106.339   3
  -1  -1  25 82.7386 86.7379   2
  -1   1  24 763.552 258.948   2
   1   1 -24 168.555 136.993   3
  -1  -1  24 641.485 186.068   2
   1  -1 -24 700.398 237.117   3
  -1   1  23 2142.72 394.073   2
  -1  -1  23 1401.99 272.301   2
   1   1 -23 1159.79 380.350   3
   1  -1 -23 1181.81 313.220   3
  -1  -1  22 2332.98 370.293   2
   1  -1 -22 1670.14 361.531   3
  -1   1  22 2611.52 445.591   2
   1   1 -22 1799.11 461.019   3
   1  -1 -21 522.149 200.308   3
  -1  -1  21 862.289 221.877   2
  -1   1  21 1023.16 282.505   2
   1   1 -21 511.006 253.221   3
  -1  -1  20 448.251 162.229   2
   1  -1 -20 182.478 130.522   3
  -1   1  20 369.057 148.850   2
   1   1 -20 348.628 206.961   3
  -1  -1  19 472.443 151.607   2
   1   1 -19 300.063 186.470   3
  -1   1  19 708.840 223.200   2
  -1  -1  18 3782.18 441.045   2
  -1   1  18 3370.35 460.466   2
  -1  -1  17 10.2497 45.8428   2
  -1   1  17 189.595 95.4983   2
  -1  -1  16 4149.68 448.716   2
  -1   1  16 4215.63 497.586   2
   1  -1 -16 4559.03 503.151   2
  -1  -1  15 2981.35 369.764   2
  -1   1  15 3471.88 439.043   2
   1  -1 -15 3049.36 402.639   2
   1   1 -15 2726.23 406.957   4
   1  -1 -14 72.2111 56.9849   2
  -1  -1  14 52.7338 47.6430   2
  -1   1  14 102.804 103.930   2
   1   1 -14 13.9945 98.5938   4
  -1  -1  13 985.476 239.973   4
   1  -1 -13 1219.13 247.371   2
  -1  -1  13 887.944 189.783   2
  -1   1  13 1426.94 267.228   2
   1   1 -13 1196.54 259.416   4
  -1   1  12 8.81657 46.1179   2
   1  -1 -12 67.7027 38.3503   2
   1   1 -12-2.05831 90.6404   4
  -1  -1  12-2.70867 82.5197   4
  -1  -1  11 484.217 166.514   4
   1  -1 -11 941.077 267.879   1
   1   1 -11 837.351 217.207   4
   1  -1 -11 840.300 199.376   2
  -1   1  11 1054.15 214.405   2
   1  -1 -10 843.212 237.072   1
  -1  -1  10 1033.44 239.935   4
   1  -1 -10 1125.94 226.389   2
  -1   1  10 947.099 211.644   2
   1   1 -10 562.765 184.412   4
   1  -1  -9 699.078 201.801   1
   1   1  -9 775.906 203.160   4
  -1   1   9 561.896 164.058   2
   1  -1  -9 562.801 151.996   2
  -1  -1   9 653.144 187.253   4
   1   1  -8 2997.78 377.142   4
  -1   1   8 2986.61 342.963   2
   1  -1  -8 3397.47 431.466   1
   1  -1  -8 3551.74 380.224   2
  -1  -1   8 2832.29 370.761   4
   1  -1  -7 136.823 50.0198   1
  -1   1   7 144.786 89.1215   2
  -1  -1   7 321.021 119.665   4
   1   1  -7 403.438 139.247   4
   1  -1  -7 377.702 138.212   2
   1   1  -6 1446.01 238.202   4
  -1  -1   6 1484.23 255.075   4
   1  -1  -6 1331.88 248.859   1
  -1   1   6 1382.03 232.259   2
   1  -1  -6 1495.97 225.525   2
  -1   1   6 1301.35 247.982   1
   1  -1  -5 68577.7 1709.67   1
  -1   1   5 67283.5 1645.21   1
   1   1  -5 66644.5 1641.80   4
  -1   1   5 71776.6 1538.59   2
   1  -1  -5 67604.3 1515.93   2
  -1  -1   5 68639.6 1680.71   4
   1   1  -4 85792.2 1809.68   4
  -1  -1   4 85737.4 1824.58   4
   1  -1  -4 91124.1 1716.56   2
   1  -1  -4 87025.9 1873.06   1
  -1   1   4 85829.0 1814.19   1
   1  -1  -4 84202.2 1522.53   3
  -1   1   4 89268.8 1687.02   2
  -1   1   3 3994.92 390.184   1
   1  -1  -3 4372.94 338.017   3
   1  -1  -3 4356.92 371.218   2
  -1   1   3 4888.20 391.922   2
   1  -1  -3 4147.63 397.398   1
   1   1  -3 3965.62 377.454   4
  -1  -1   3 3908.43 377.668   4
  -1   1   2 3299.36 299.285   3
   1  -1  -2 3927.05 319.338   3
  -1   1   2 3878.82 334.904   2
  -1   1   2 4433.46 405.349   1
   1  -1  -2 4494.49 364.424   2
   1  -1  -2 3361.41 344.807   1
  -1  -1   2 4005.35 408.103   4
   1   1  -2 5516.66 439.211   4
  -1   1   1 1480.82 237.960   1
   1  -1  -1 1635.86 215.265   2
   1   1  -1 2568.23 288.550   4
  -1  -1   1 979.456 97.5054   1
  -1  -1   1 2229.33 286.512   4
  -1   1   1 1706.46 216.786   3
   1  -1  -1 1669.43 213.427   3
  -1   1   1 1867.26 224.744   2
  -1   1   0 1285.65 185.693   2
   1  -1   0 1603.63 207.085   2
  -1   1   0 1441.54 242.104   1
   1  -1   0 1378.28 209.902   3
  -1  -1   0 1663.07 154.040   1
  -1   1   0 1063.59 181.757   3
   1   1   0 1720.43 236.449   4
  -1  -1   0 1670.76 229.438   4
  -1   1  -1 2401.83 250.131   2
   1  -1   1 2706.95 261.184   2
  -1   1  -1 2894.37 311.058   3
  -1  -1  -1 3278.88 306.595   4
   1   1   1 3416.10 317.218   4
   1  -1   1 2409.00 281.164   3
   1  -1   2 14752.0 583.582   2
   1   1   2 17803.2 659.697   3
  -1  -1  -2 15216.0 666.857   4
  -1   1  -2 13498.1 698.344   3
   1  -1   2 14332.7 719.020   3
   1   1   2 16437.9 670.142   4
  -1   1  -2 13956.4 581.156   2
  -1  -1  -3 7235.12 415.366   3
  -1   1  -3 4881.94 334.090   2
   1  -1   3 5762.23 354.159   2
   1  -1   3 5488.32 461.394   3
  -1   1  -3 5542.03 473.002   3
  -1  -1  -3 6643.84 411.457   4
   1   1   3 6259.10 389.383   3
   1   1   3 6697.07 408.699   4
   1   1   4 29.7230 48.8111   3
  -1  -1  -4 2.95157 46.8339   4
   1  -1   4 45.1050 62.3017   3
   1   1   4 58.3797 48.5747   4
  -1  -1  -4 73.6080 59.5868   3
   1  -1   4 12.5829 40.0802   2
  -1   1  -4 5.59884 40.7142   2
   1   1   5 889.727 156.671   3
  -1  -1  -5 660.710 130.524   3
  -1   1  -5 623.820 114.524   2
   1   1   5 932.112 145.888   4
   1  -1   5 446.468 146.511   3
   1  -1   5 691.812 118.543   2
  -1   1  -5 693.058 167.402   3
  -1  -1  -5 689.476 124.927   4
   1   1   6 7819.34 392.512   4
   1  -1   6 7545.34 607.928   3
   1  -1   6 7516.37 351.404   2
  -1   1  -6 7312.06 354.747   2
  -1  -1  -6 8840.50 520.257   3
  -1  -1  -6 7119.47 375.426   4
   1   1   6 9316.52 534.119   3
  -1   1  -6 6254.08 561.328   3
  -1   1  -7 12123.7 424.043   2
  -1   1  -7 12757.1 817.975   3
   1   1   7 15175.7 702.014   3
  -1  -1  -7 16603.9 739.442   3
   1  -1   7 12875.5 799.602   3
   1   1   7 12821.0 479.995   4
   1  -1   7 12968.5 425.316   2
  -1  -1  -7 12557.2 474.349   4
   1  -1   7 11871.2 568.312   4
  -1  -1  -8 3610.96 241.508   4
  -1   1  -8 2676.65 404.899   3
   1  -1   8 3664.98 444.553   3
   1   1   8 3524.90 360.272   3
   1  -1   8 3489.03 203.079   2
  -1   1  -8 2965.75 192.629   2
   1  -1   8 3286.20 296.503   4
  -1  -1  -8 4847.10 419.076   3
   1   1   9 18545.0 834.356   3
   1  -1   9 17697.2 1005.81   3
  -1   1  -9 16479.7 981.523   3
   1  -1   9 17117.5 676.218   4
  -1  -1  -9 21160.5 911.931   3
  -1  -1  -9 16763.9 669.867   2
  -1  -1  -9 16867.4 494.177   4
   1  -1  10 157.896 61.6515   4
  -1  -1 -10 61.8227 25.8825   2
  -1  -1 -10 286.723 113.558   3
  -1   1 -10 151.520 120.753   3
   1   1  10 242.700 93.0338   3
   1  -1  10 111.579 138.022   3
  -1  -1 -10 252.282 57.7830   4
   1   1  11 716.667 183.859   3
  -1  -1 -11 547.385 154.898   3
  -1  -1 -11 370.413 92.3849   2
  -1   1 -11 498.435 187.867   3
   1  -1  11 561.170 119.837   4
   1   1  12 19.7845 69.9082   3
  -1   1 -12 52.6431 65.2675   3
  -1  -1 -12 203.690 81.1875   2
   1  -1  12 93.4118 50.8663   4
  -1  -1 -12 263.228 122.547   3
   1  -1  13 2615.65 263.440   4
  -1   1 -13 2307.74 435.779   3
   1   1  13 2037.90 323.524   3
  -1  -1 -13 2367.63 265.658   2
  -1  -1 -13 2402.62 358.502   3
   1   1  14 9308.37 731.848   3
  -1   1 -14 8328.45 859.077   3
  -1  -1 -14 8948.71 518.011   2
  -1  -1 -14 8381.41 694.503   3
   1  -1  14 9330.06 501.033   4
  -1   1 -15 863.436 284.301   3
  -1  -1 -15 1253.64 192.581   2
   1  -1  15 1312.19 185.601   4
   1   1  15 1461.10 333.748   3
  -1  -1 -15 981.243 244.000   3
  -1  -1 -16 2887.85 443.215   3
  -1  -1 -16 2849.96 287.720   2
  -1   1 -16 3103.52 534.287   3
   1  -1  16 2579.60 257.204   4
  -1  -1 -17 625.033 217.600   3
  -1  -1 -17 586.743 122.380   2
   1  -1  17 954.695 158.008   4
  -1   1 -17 1142.26 351.950   3
  -1   1 -18 4400.02 676.552   3
  -1  -1 -18 4308.69 587.073   3
   1  -1  18 3999.99 321.762   4
  -1  -1 -18 4599.55 361.541   2
  -1  -1 -19-25.5862 28.1654   2
  -1   1 -19 120.296 131.541   3
  -1  -1 -19-94.7762 97.2011   3
  -1  -1 -20 2423.89 263.198   2
  -1   1 -20 2709.50 574.974   3
  -1  -1 -20 2992.41 509.691   3
  -1  -1 -21 3872.99 622.642   3
  -1   1 -21 3992.71 709.182   3
  -1  -1 -22 72.5077 104.607   3
  -1   1 -22 231.236 182.558   3
  -1   1 -23 526.286 286.863   3
  -1  -1 -23 1140.57 351.026   3
  -1   1 -24 629.984 380.160   3
  -1  -1 -24 610.274 263.602   3
  -1  -1 -25 581.955 266.899   3
  -1   1 -25 446.847 322.759   3
  -1  -1 -26 92.7143 160.787   3
  -1   1 -26 230.852 149.216   3
  -1  -1 -27 539.179 278.641   3
  -1   1 -27 1284.04 491.654   3
  -1  -1 -28-89.2529 144.341   3
  -1   1 -28 37.9736 242.795   3
  -1   1 -29 321.892 161.581   3
  -1  -1 -29 376.680 121.643   3
  -1  -1 -30 821.430 393.789   3
  -1   1 -30 514.026 349.490   3
   1   2 -30 3867.69 785.199   3
   1   2 -29 457.875 283.121   3
  -1   2  28 1526.69 402.109   2
   1   2 -28 1487.11 468.769   3
  -1   2  27 227.081 217.203   2
   1   2 -27 50.7669 126.215   3
  -1   2  26-38.6184 71.3365   2
   1   2 -26-23.5928 150.583   3
   1  -2 -26-155.889 124.948   3
  -1   2  25 739.784 324.943   2
   1   2 -25 565.516 265.427   3
   1  -2 -25 771.051 266.286   3
  -1  -2  25 207.344 137.674   2
  -1  -2  24 2996.80 437.872   2
  -1   2  24 3380.05 567.663   2
   1  -2 -24 2233.56 414.322   3
   1   2 -24 2647.83 613.185   3
  -1  -2  23-24.5512 52.0039   2
   1   2 -23 232.029 197.485   3
  -1   2  23 10.5762 112.507   2
   1  -2 -23 17.3849 62.7669   3
   1   2 -22 10.7780 75.4039   3
  -1   2  22-9.86150 102.715   2
  -1  -2  22 120.870 116.791   2
   1  -2 -22-38.7298 77.7528   3
  -1   2  21 38.9872 74.0885   2
   1  -2 -21 147.580 109.042   3
   1   2 -21 62.9243 119.895   3
  -1  -2  21 195.107 105.851   2
  -1  -2  20 120.622 109.095   4
   1   2 -20-5.43867 134.360   3
  -1   2  20 10.2603 85.1916   2
  -1  -2  20 135.914 117.765   2
   1  -2 -20 70.6557 62.8471   3
  -1  -2  19 1325.29 284.567   2
  -1   2  19 1352.21 338.613   2
  -1  -2  19 1353.16 344.100   4
   1   2 -19 835.072 326.164   3
   1  -2 -19 767.893 214.305   3
  -1  -2  18 514.611 221.857   4
   1   2 -18 237.957 191.067   3
  -1   2  18 465.137 220.829   2
   1   2 -17 233.914 223.087   3
  -1   2  17 395.340 192.051   2
  -1  -2  17 288.960 160.594   4
  -1  -2  16 1543.04 347.452   4
  -1   2  16 1702.25 356.323   2
  -1  -2  15 677.805 233.154   4
  -1   2  15 1308.40 301.079   2
  -1  -2  14 2017.85 395.103   4
  -1   2  14 1896.26 373.161   2
  -1  -2  13 284.601 173.900   4
  -1   2  13 226.747 112.465   2
  -1   2  12 4071.86 523.189   2
  -1  -2  12 4415.39 565.265   4
  -1   2  11 946.136 247.977   2
  -1  -2  11 915.582 264.063   4
  -1  -2  10 15388.7 1039.20   4
  -1   2  10 14360.6 936.086   2
  -1   2   9 149.765 137.469   2
   1  -2  -9 31.6809 51.7546   2
   1   2  -9 62.2977 112.308   4
  -1  -2   9-30.6932 81.7164   4
   1  -2  -8 1550.12 323.519   1
   1  -2  -8 1722.76 224.790   3
  -1   2   8 1460.28 286.103   2
  -1  -2   8 1097.44 298.038   4
   1  -2  -8 1322.41 256.439   2
   1   2  -8 1108.34 261.276   4
  -1   2   8 1276.41 301.847   1
   1   2  -7 2875.54 417.614   4
   1  -2  -7 2923.42 382.792   2
   1  -2  -7 2960.34 278.196   3
  -1  -2   7 2900.75 428.982   4
   1  -2  -7 3421.74 490.821   1
  -1   2   7 3129.97 421.366   2
  -1   2   7 2627.75 421.116   1
   1  -2  -6 4382.42 333.668   3
   1  -2  -6 4869.97 564.015   1
  -1  -2   6 4932.10 554.318   4
   1  -2  -6 4794.09 470.828   2
  -1   2   6 4767.48 568.742   1
  -1   2   6 4779.18 504.376   2
   1   2  -6 5166.76 554.997   4
   1  -2  -5 1450.38 192.918   3
   1   2  -5 1533.66 301.925   4
   1  -2  -5 1927.83 339.550   1
  -1   2   5 2008.34 354.991   1
   1  -2  -5 1535.41 274.998   2
  -1  -2   5 1726.34 313.301   4
  -1   2   5 1639.75 292.461   2
   1  -2  -4 337.364 130.682   1
  -1  -2   4 293.092 137.169   4
  -1   2   4 416.433 159.063   1
   1  -2  -4 332.311 93.5741   3
  -1   2   4 495.167 159.374   2
   1  -2  -4 365.924 149.441   2
  -1   2   4 363.596 99.9340   3
   1   2  -4 605.138 142.228   1
   1   2  -4 287.252 120.992   4
   1   2  -3-1.11240 30.1223   1
  -1  -2   3-3.00473 66.9512   4
   1   2  -3 68.8669 113.397   4
  -1   2   3-81.5148 112.160   2
  -1   2   3 12.4033 47.3249   3
  -1   2   3-28.0738 84.9095   1
   1  -2  -3 1.86588 55.6044   2
   1  -2  -3 132.515 134.143   1
   1  -2  -3 28.8124 30.0767   3
   1   2  -2 14800.1 663.620   1
  -1   2   2 12182.0 761.887   2
  -1   2   2 12648.9 881.060   1
   1  -2  -2 11981.7 845.511   1
   1   2  -2 13162.6 906.621   4
  -1  -2   2 12508.7 844.948   4
   1  -2  -2 12381.7 727.859   2
   1  -2  -2 13071.2 641.436   3
  -1   2   2 11230.1 595.869   3
  -1  -2   1 1774.48 318.665   4
  -1  -2   1 1515.19 226.577   1
  -1   2   1 1712.32 323.431   1
  -1   2   1 1070.98 187.703   3
   1   2  -1 1793.58 237.667   1
   1  -2  -1 1520.84 229.068   3
  -1   2   1 1607.79 290.766   2
   1  -2  -1 1580.18 252.648   2
   1   2  -1 1593.76 308.745   4
  -1   2   0 2018.80 284.714   3
  -1  -2   0 2330.37 330.296   4
  -1  -2   0 2096.67 291.063   1
   1  -2   0 1732.76 254.878   3
   1  -2   0 1567.33 250.214   2
   1   2   0 2187.08 368.404   4
   1   2   0 2413.66 292.699   1
  -1   2   0 2173.57 316.194   2
  -1   2   0 1801.12 336.437   1
   1   2   1 1530.70 250.388   1
  -1  -2  -1 967.187 223.520   4
  -1  -2  -1 987.337 208.090   1
  -1   2  -1 1096.79 225.601   2
  -1   2  -1 1221.32 231.316   3
   1  -2   1 1005.99 204.496   3
   1  -2   1 922.718 191.940   2
   1   2   1 1110.62 240.331   4
  -1   2  -1 1253.48 284.784   1
   1  -2   2 4431.40 405.743   2
  -1   2  -2 4365.36 424.021   2
  -1   2  -2 4545.41 459.303   3
   1  -2   2 4587.61 438.978   3
  -1  -2  -2 5159.99 445.559   1
   1   2   2 6300.32 544.755   4
  -1  -2  -2 5053.01 485.982   4
  -1   2  -3 54.0844 37.8461   2
  -1  -2  -3 161.221 83.4729   4
  -1  -2  -3 44.0712 58.8809   1
  -1   2  -3-19.2840 65.3184   3
   1   2   3 122.143 88.6964   4
   1  -2   3 181.711 120.528   3
   1  -2   3 83.8598 70.0899   2
   1   2   3 194.618 90.0358   3
  -1  -2  -4 2631.44 344.019   4
   1   2   4 2029.17 216.333   3
  -1   2  -4 2381.68 354.801   3
   1  -2   4 2167.28 319.783   3
   1   2   4 2849.47 355.348   4
  -1  -2  -4 2658.73 365.144   1
   1  -2   4 2070.08 267.941   2
  -1   2  -4 2030.43 278.778   2
  -1   2  -5 2060.85 337.506   3
  -1   2  -5 1868.18 255.812   2
   1   2   5 2281.63 230.759   3
   1  -2   5 1932.81 257.146   2
  -1  -2  -5 2139.92 337.833   1
   1  -2   5 1827.21 303.637   3
   1   2   5 2369.21 321.123   4
  -1  -2  -5 2612.90 337.546   4
   1  -2   6 8857.09 548.737   2
  -1   2  -6 8047.97 516.019   2
   1   2   6 9868.06 482.871   3
  -1   2  -6 7371.80 675.687   3
   1  -2   6 8471.00 688.288   3
   1   2   6 10258.9 661.787   4
   1  -2   6 9171.50 678.621   4
  -1  -2  -6 10015.7 763.010   1
  -1  -2  -6 10669.2 669.024   4
   1  -2   7 3614.95 343.798   2
  -1   2  -7 2921.84 306.687   2
   1   2   7 4282.07 322.252   3
  -1   2  -7 3625.37 486.357   3
   1  -2   7 3209.61 444.153   3
  -1  -2  -7 3275.71 438.194   1
   1  -2   7 3495.60 415.540   4
  -1  -2  -7 3688.62 396.164   4
   1  -2   8 21238.8 822.379   2
  -1  -2  -8 22288.9 1031.85   2
  -1  -2  -8 21278.9 937.041   4
  -1  -2  -8 21699.4 746.313   3
   1   2   8 24144.8 796.243   3
   1  -2   8 22067.6 1045.21   4
  -1   2  -8 19286.5 1141.69   3
   1  -2   9 7353.56 466.617   2
  -1  -2  -9 7111.79 439.568   3
  -1  -2  -9 7470.51 539.811   4
  -1   2  -9 6749.56 690.219   3
  -1  -2  -9 8955.29 653.607   2
   1  -2   9 6732.02 583.920   4
   1   2   9 8627.75 490.067   3
  -1  -2 -10 834.018 203.001   2
  -1  -2 -10 1010.34 197.434   4
  -1  -2 -10 978.492 174.379   3
  -1   2 -10 593.107 197.031   3
   1  -2  10 989.334 176.871   2
   1  -2  10 1045.38 229.721   4
   1   2  10 696.085 139.415   3
  -1  -2 -11 1698.18 235.622   3
  -1   2 -11 1290.88 352.195   3
   1   2  11 1331.51 214.627   3
   1  -2  11 1426.18 200.452   2
  -1  -2 -11 1809.93 259.339   4
  -1  -2 -11 1847.20 302.635   2
   1  -2  11 1494.41 268.820   4
  -1  -2 -12 3117.24 335.517   3
  -1  -2 -12 3419.14 413.604   2
   1   2  12 2956.68 335.603   3
   1  -2  12 3182.23 281.743   2
   1  -2  12 2883.78 379.852   4
  -1   2 -12 2468.32 450.637   3
  -1  -2 -12 3051.52 335.004   4
   1   2  13 970.328 210.309   3
  -1  -2 -13 537.608 152.421   3
  -1  -2 -13 854.597 188.221   4
   1  -2  13 800.221 131.490   2
  -1  -2 -13 809.592 200.290   2
  -1   2 -13 797.114 297.652   3
   1  -2  13 539.526 162.198   4
   1  -2  14 133.443 106.061   4
  -1  -2 -14 54.2178 91.8570   2
  -1  -2 -14 162.223 86.8831   3
   1  -2  14 37.4739 13.5431   2
  -1   2 -14 84.5537 116.397   3
  -1  -2 -14 69.9318 52.4629   4
   1   2  14-38.6328 53.8685   3
  -1  -2 -15-8.59245 51.1342   2
   1  -2  15 8.88577 33.1045   2
   1  -2  15 58.1461 57.1048   4
  -1  -2 -15-18.3169 58.7949   3
  -1   2 -15 85.4175 150.873   3
  -1  -2 -15-45.0696 51.7311   4
  -1  -2 -16 137.046 88.3422   3
  -1  -2 -16 146.298 64.2570   4
   1  -2  16 168.523 85.1252   4
  -1   2 -16 285.494 145.911   3
  -1  -2 -16 175.219 114.609   2
   1  -2  17 1115.35 229.987   4
  -1  -2 -17 1297.37 266.796   2
  -1  -2 -17 996.417 228.384   3
  -1   2 -17 960.976 322.420   3
  -1  -2 -17 1088.14 179.043   4
  -1  -2 -18-10.8185 91.5037   3
   1  -2  18 47.4044 35.6438   4
  -1   2 -18 99.2859 123.151   3
  -1  -2 -18 57.6998 66.0716   2
  -1  -2 -18 123.199 58.3575   4
  -1  -2 -19 741.378 127.914   4
   1  -2  19 708.710 192.831   4
  -1  -2 -19 816.151 219.044   2
  -1   2 -19 779.798 352.118   3
  -1  -2 -19 1287.48 292.001   3
   1  -2  20 1348.05 274.213   4
  -1  -2 -20 918.221 239.862   3
  -1   2 -20 561.357 268.008   3
   1  -2  21-15.6744 49.2609   4
  -1   2 -21 161.838 203.403   3
  -1   2 -22 2761.03 652.002   3
  -1  -2 -22 2116.85 429.158   3
   1  -2  22 2333.86 356.475   4
  -1   2 -23-25.3061 221.605   3
  -1  -2 -23 266.583 145.894   3
  -1   2 -24 1731.26 541.560   3
  -1  -2 -24 1259.31 335.618   3
  -1  -2 -25-80.8567 80.8763   3
  -1   2 -25 30.3959 103.561   3
  -1   2 -26 3388.52 792.581   3
  -1   2 -27 697.615 372.800   3
  -1   2 -28 1166.86 462.399   3
  -1   2 -29 134.349 180.270   3
  -1   3  28 311.283 126.127   2
   1   3 -28 323.683 277.962   3
   1   3 -27 512.246 424.529   3
  -1   3  27 211.215 142.213   2
  -1   3  26 737.133 327.345   2
   1   3 -26 138.379 149.611   3
  -1  -3  25 354.789 243.034   4
  -1   3  25 287.890 160.560   2
   1   3 -25 114.508 250.994   3
  -1  -3  24 125.939 121.430   4
  -1   3  24-336.494 202.751   2
  -1  -3  24-163.339 111.202   2
   1   3 -24-322.433 236.938   3
  -1  -3  23 2013.09 484.627   4
  -1   3  23 2497.51 526.882   2
  -1  -3  23 1992.22 376.040   2
   1   3 -23 2231.06 586.102   3
   1   3 -22 242.088 177.496   3
  -1   3  22 54.7139 88.6445   2
  -1  -3  22 177.214 150.598   4
  -1  -3  21 318.631 232.684   4
  -1   3  21 172.157 148.041   2
   1   3 -21 17.9933 176.199   3
  -1  -3  20 30.1459 62.8092   4
   1   3 -20 249.540 162.238   3
   1  -3 -20 250.016 148.918   3
  -1   3  20 193.126 148.071   2
  -1  -3  19 374.706 212.898   4
   1  -3 -19 897.853 208.245   3
  -1   3  19 1006.51 333.247   2
   1   3 -19 139.852 191.200   3
  -1   3  18 2140.80 461.989   2
   1  -3 -18 1350.63 240.223   3
  -1  -3  18 1785.52 446.146   4
   1   3 -18 1674.46 491.860   3
  -1  -3  17 6559.70 823.128   4
   1  -3 -17 6038.94 501.452   3
   1   3 -17 6516.39 945.921   3
  -1   3  17 5807.41 760.424   2
  -1   3  16 1459.60 393.750   2
  -1  -3  16 1502.05 391.564   4
   1   3 -16 1699.05 481.292   3
   1  -3 -16 1678.72 252.229   3
  -1  -3  15 1761.89 412.937   4
  -1   3  15 1793.49 409.448   2
   1  -3 -15 1785.77 245.116   3
   1   3 -15 1360.41 427.706   3
  -1   3  14 777.102 271.028   2
   1  -3 -14 839.471 166.231   3
  -1  -3  14 879.484 303.844   4
   1   3 -14 628.118 276.813   3
   1  -3 -13 3763.97 317.240   3
  -1  -3  13 3774.87 608.640   4
  -1   3  13 3502.41 568.047   2
  -1  -3  12 2386.25 470.934   4
  -1   3  12 2933.41 497.907   2
   1  -3 -12 2868.00 262.350   3
  -1  -3  11 2389.56 483.452   4
   1  -3 -11 2105.68 217.861   3
  -1   3  11 2401.84 448.776   2
  -1   3  10-23.3677 100.977   2
  -1  -3  10 27.9440 74.2631   4
   1  -3 -10-27.8697 35.6966   3
  -1  -3   9 17.5179 89.9819   4
   1  -3  -9-26.1488 39.9928   3
  -1   3   9 27.6949 105.137   1
  -1   3   9 25.7875 91.5213   2
  -1   3   8 1314.06 369.917   1
  -1   3   8 1470.68 332.983   2
   1  -3  -8 1351.46 174.692   3
  -1  -3   8 1136.05 301.007   4
  -1   3   7 348.897 161.003   2
   1  -3  -7 702.669 137.478   3
  -1   3   7 559.027 245.674   1
  -1  -3   7 719.895 258.726   4
  -1   3   6 192.871 144.619   2
  -1  -3   6 229.121 160.085   4
   1  -3  -6 222.989 80.8438   3
  -1   3   6 288.637 189.255   1
   1   3  -6 31.3253 53.1917   1
  -1   3   5 7107.33 715.374   2
   1  -3  -5 6694.22 432.353   3
   1   3  -5 6629.49 613.484   1
  -1  -3   5 7613.50 768.386   4
  -1   3   5 7520.23 824.071   1
  -1   3   4 2560.31 281.785   3
   1  -3  -4 3086.30 309.751   3
   1   3  -4 2202.34 340.995   1
  -1  -3   4 3094.64 493.000   4
  -1   3   4 3427.36 494.305   2
  -1   3   4 3246.47 521.214   1
  -1   3   3 1726.61 249.830   3
  -1  -3   3 2074.34 417.629   4
  -1   3   3 2165.90 398.766   2
   1   3  -3 2118.39 332.035   1
  -1   3   3 1936.08 396.432   1
   1  -3  -3 1949.93 254.102   3
  -1   3   2 1212.61 286.862   2
  -1   3   2 605.232 154.649   3
  -1   3   2 809.291 255.288   1
   1   3  -2 494.165 166.011   1
   1  -3  -2 971.954 192.718   3
  -1  -3   2 899.338 257.504   4
  -1   3   1 324.425 129.916   3
  -1   3   1 157.619 60.9326   1
   1   3  -1 411.536 141.219   1
  -1   3   1 687.457 211.156   2
   1  -3  -1 525.718 149.401   3
  -1  -3   1 263.510 153.636   4
  -1   3   0 614.547 167.732   3
  -1   3   0 372.254 182.453   2
   1   3   0 446.488 174.395   1
  -1  -3   0 583.478 211.467   1
   1  -3   0 403.247 118.497   3
  -1   3   0 311.376 147.901   1
  -1  -3   0 595.045 221.476   4
  -1   3  -1 24010.1 1199.87   2
  -1   3  -1 22586.1 1431.93   1
  -1   3  -1 22894.6 1099.56   3
   1  -3   1 20462.0 978.433   3
  -1  -3  -1 21956.6 1111.95   1
   1   3   1 24185.2 1186.48   1
  -1   3  -2 5356.09 591.027   2
   1  -3   2 3879.51 491.309   3
  -1   3  -2 3867.66 636.633   1
  -1  -3  -2 3747.49 463.575   1
  -1   3  -2 4024.47 499.329   3
   1   3   2 3248.06 463.406   1
  -1  -3  -2 3827.93 509.817   4
  -1  -3  -3 1196.06 277.837   1
  -1   3  -3 1613.99 307.577   2
   1   3   3 1244.86 285.734   1
  -1   3  -3 1238.23 284.178   3
  -1   3  -3 1092.76 327.076   1
   1  -3   3 1146.10 242.051   3
   1  -3   3 1126.74 242.776   2
   1  -3   3 1240.17 301.657   4
  -1  -3  -3 1396.41 307.979   4
   1  -3   4 95.0630 98.6004   4
   1  -3   4 132.892 108.462   2
  -1   3  -4 141.675 130.462   3
   1   3   4 83.6011 53.1760   3
  -1  -3  -4 41.3902 55.1086   1
  -1   3  -4 295.622 145.855   2
   1  -3   4 51.6377 63.3718   3
  -1  -3  -4 134.913 123.997   4
   1  -3   5 4809.53 496.629   2
  -1   3  -5 4338.45 549.260   3
  -1  -3  -5 4529.96 551.568   1
   1  -3   5 4593.03 577.143   4
  -1  -3  -5 4957.30 568.768   4
   1   3   5 4642.21 311.189   3
   1   3   6 172.100 56.3444   3
   1  -3   6 290.369 160.228   4
  -1   3  -6 138.080 99.2361   3
   1  -3   6 304.557 139.353   2
  -1  -3  -6 155.670 107.123   4
   1  -3   7 873.508 280.336   4
   1   3   7 765.589 114.208   3
   1  -3   7 743.961 191.802   2
  -1   3  -7 810.021 256.485   3
  -1  -3  -7 726.708 207.752   4
  -1   3  -8 67.9818 105.907   3
   1   3   8 6.48175 16.7465   3
   1  -3   8 206.029 158.756   4
   1  -3   8-49.4852 104.495   2
  -1  -3  -8 88.3340 91.9793   4
  -1  -3  -9 220.769 127.708   4
  -1   3  -9 506.316 226.304   3
   1   3   9 132.910 47.3165   3
   1  -3   9 76.7040 71.2595   4
   1  -3   9 131.090 99.8099   2
   1  -3  10 11.7838 66.6039   2
  -1   3 -10-55.5849 88.0143   3
  -1  -3 -10-171.872 105.628   4
   1   3  10-12.0892 40.1095   3
   1  -3  10-26.3806 59.6776   4
   1  -3  11 750.834 252.418   4
   1  -3  11 1222.99 249.221   2
  -1   3 -11 853.696 302.842   3
  -1  -3 -11 1156.19 270.726   4
   1  -3  12 1805.92 294.063   2
  -1  -3 -12 1254.58 277.747   4
  -1   3 -12 1340.07 393.158   3
   1  -3  12 1747.07 359.065   4
   1  -3  13 1194.45 233.530   2
   1  -3  13 1304.62 315.020   4
  -1   3 -13 1230.46 353.242   3
  -1  -3 -13 1223.46 254.817   4
   1  -3  14 695.525 236.051   4
  -1  -3 -14 578.896 118.740   3
  -1   3 -14 392.001 212.017   3
   1  -3  14 574.703 154.349   2
  -1  -3 -14 560.432 207.648   4
   1  -3  15 6912.14 546.721   2
  -1  -3 -15 5797.40 399.482   3
  -1   3 -15 7280.37 923.632   3
  -1  -3 -15 6379.20 611.068   4
   1  -3  15 5751.17 652.097   4
  -1  -3 -16 274.070 110.550   3
  -1   3 -16 223.455 156.679   3
   1  -3  16 212.466 76.6553   2
  -1  -3 -16 390.863 146.982   4
   1  -3  16 207.104 139.073   4
  -1  -3 -17 1235.15 199.612   3
   1  -3  17 1651.50 346.011   4
  -1   3 -17 1704.68 489.311   3
  -1  -3 -17 999.487 243.131   4
  -1  -3 -18 36.0852 68.0720   3
  -1   3 -18 107.903 143.705   3
  -1  -3 -18 1.50869 50.1385   4
   1  -3  18 137.662 137.299   4
   1  -3  19 1213.58 305.216   4
  -1  -3 -19 1563.41 281.724   4
  -1   3 -19 1016.52 405.311   3
   1  -3  20 1075.89 299.034   4
  -1   3 -20 1069.15 447.076   3
   1  -3  21 2566.27 459.210   4
  -1   3 -21 1855.54 589.614   3
   1  -3  22 31.8344 86.7688   4
  -1   3 -22 230.427 248.673   3
   1  -3  23 899.992 243.227   4
  -1   3 -23 931.463 455.938   3
  -1   3 -24 665.446 409.948   3
  -1   3 -25-154.517 192.547   3
  -1   3 -26 768.842 416.446   3
  -1   3 -27 164.473 157.461   3
  -1  -4  26 188.055 160.725   4
   1   4 -26 767.860 484.952   3
  -1  -4  25 930.759 349.859   4
  -1   4  25 1179.47 416.360   2
   1   4 -25 1191.41 514.471   3
  -1  -4  24 283.345 236.767   4
  -1   4  24 200.876 159.058   2
   1   4 -24 141.179 166.125   3
  -1  -4  23 1158.62 400.845   4
  -1   4  23 1195.55 419.393   2
   1   4 -23 1212.67 555.155   3
  -1  -4  22 8.89021 149.510   4
   1   4 -22 98.1752 100.697   3
  -1   4  22-57.9915 111.908   2
  -1  -4  21 43.7316 112.121   4
   1   4 -21 14.8618 145.534   3
  -1   4  20 14.0627 129.294   2
   1   4 -20 138.802 157.782   3
  -1  -4  20 35.2773 152.088   4
  -1  -4  19 54.5542 182.695   4
  -1   4  19 163.368 196.101   2
   1   4 -19-315.291 233.209   3
   1   4 -18 406.680 242.829   3
  -1   4  18 204.958 198.861   2
  -1  -4  18 118.986 220.740   4
  -1  -4  17 521.999 263.961   4
  -1   4  17 336.446 226.133   2
   1   4 -17 458.934 279.148   3
   1   4 -16 118.413 159.687   3
  -1  -4  16 463.276 273.805   4
  -1   4  16 158.014 100.301   2
   1   4 -15 1652.85 464.066   3
  -1  -4  15 1319.54 412.717   4
  -1   4  15 1439.43 399.938   2
   1   4 -14 1042.61 340.328   3
  -1   4  14 1197.15 377.999   2
  -1  -4  14 1374.56 433.902   4
  -1  -4  13 1109.63 371.889   4
  -1   4  13 1578.78 418.195   2
   1   4 -13 1519.74 445.904   3
  -1   4  12 5016.09 727.188   2
   1   4 -12 5925.46 846.888   3
  -1  -4  12 5531.00 802.053   4
  -1   4  11 8284.77 929.150   2
   1   4 -11 8130.36 952.398   3
  -1  -4  11 7205.75 899.547   4
  -1  -4  10 2449.68 513.316   4
  -1   4  10 2653.17 520.010   2
   1   4 -10 2525.10 498.703   1
   1   4 -10 2332.69 528.019   3
  -1   4  10 2588.78 581.061   1
  -1   4   9 5249.56 717.595   2
   1  -4  -9 4943.74 266.581   3
   1   4  -9 5682.74 732.376   1
  -1   4   9 6397.93 903.174   1
  -1  -4   9 5279.40 752.076   4
   1   4  -9 4823.52 711.341   3
  -1  -4   8 2125.42 461.029   4
  -1   4   8 2746.05 517.554   2
   1  -4  -8 2816.95 243.326   3
   1   4  -8 2712.27 508.611   3
   1   4  -8 3067.02 524.823   1
  -1   4   8 2678.40 592.725   1
  -1   4   7 758.250 355.272   1
  -1   4   7 532.959 243.168   2
   1   4  -7 234.021 111.556   1
  -1  -4   7 264.388 210.497   4
   1  -4  -7 102.168 65.8177   3
   1   4  -7 39.6656 144.009   3
   1   4  -6 129.791 99.7770   1
   1  -4  -6 120.179 54.8569   3
  -1   4   6 147.915 86.3721   2
  -1  -4   6-15.4382 116.834   4
   1   4  -6 102.702 58.9992   3
  -1   4   6 3.88459 126.107   1
  -1   4   5 2269.13 288.468   3
   1   4  -5 1774.41 357.709   1
   1  -4  -5 2272.57 272.771   3
  -1   4   5 2289.45 457.150   2
  -1   4   5 2012.37 486.965   1
   1   4  -5 2717.27 459.397   3
  -1  -4   5 3380.03 578.010   4
  -1   4   4 463.317 302.965   1
  -1  -4   4 222.191 183.236   4
  -1   4   4 38.8117 30.0303   3
  -1   4   4 196.917 205.576   2
   1  -4  -4 193.344 119.399   3
   1   4  -4 26.6395 87.8624   1
   1   4  -4-84.8493 110.699   3
  -1  -4   3 110.592 134.439   4
  -1   4   3 37.5070 34.7629   3
   1   4  -3-67.1951 108.259   1
  -1   4   3 68.5189 94.8605   2
   1  -4  -3 63.3317 78.2341   3
  -1   4   3-80.5791 71.9125   1
   1  -4  -2 177.203 99.0701   3
  -1   4   2 136.359 79.6596   3
   1  -4  -2 82.7197 136.886   4
   1   4  -2 65.3396 44.9479   1
  -1   4   2 118.036 160.342   1
  -1  -4   2 152.532 137.057   4
  -1   4   2-68.7985 100.553   2
   1   4  -1 62.1159 97.6877   1
  -1  -4   1 9.03192 173.397   4
   1  -4  -1-43.7453 82.2593   4
  -1   4   1-18.3186 72.7413   2
  -1   4   1-2.54256 56.0070   3
  -1   4   1-71.2880 120.656   1
   1  -4  -1 46.2120 70.6257   3
   1  -4   0 384.204 179.386   4
  -1   4   0 610.492 291.926   1
   1   4   0 157.020 117.599   1
  -1   4   0 463.622 172.348   3
  -1  -4   0 517.847 218.721   4
   1  -4   0 293.947 131.218   3
   1   4   1 32.1119 86.8872   1
  -1   4  -1 239.402 221.166   1
  -1   4  -1 53.7865 56.7546   3
   1  -4   1 123.504 103.696   4
   1  -4   1 50.5217 45.2067   3
  -1  -4  -1 200.214 170.066   4
  -1   4  -2 824.368 359.200   1
  -1  -4  -2 758.011 277.622   4
  -1   4  -2 670.105 221.861   3
   1   4   2 628.943 232.548   1
   1  -4   2 491.742 233.779   4
   1  -4   2 615.587 210.293   3
   1  -4   3 2105.28 452.515   4
  -1   4  -3 2525.70 438.936   3
   1   4   3 2305.50 288.665   3
  -1  -4  -3 2216.44 433.915   4
   1   4   3 2280.49 461.692   1
  -1   4  -3 2330.92 561.400   1
   1   4   4 86.4163 33.5984   3
   1   4   4-22.5579 112.169   1
  -1  -4  -4 276.692 173.370   4
  -1   4  -4 195.396 137.245   3
   1  -4   4 242.235 203.471   4
   1   4   4 75.1902 29.0946   3
  -1  -4  -5 2448.43 476.909   4
   1   4   5 1847.58 207.227   3
   1   4   5 1808.35 201.022   3
  -1   4  -5 1527.36 373.451   3
  -1   4  -5 2367.13 547.453   1
   1  -4   5 2306.69 481.708   4
  -1   4  -6 4669.11 651.246   3
   1   4   6 4036.53 253.926   3
  -1   4  -6 5316.46 862.718   1
   1   4   6 3774.40 228.796   3
   1  -4   6 5591.46 748.384   4
  -1  -4  -6 5060.42 660.898   4
  -1   4  -7 4167.14 764.929   1
  -1   4  -7 3305.24 588.461   3
  -1  -4  -7 3450.12 541.837   4
   1  -4   7 3527.83 588.499   4
  -1   4  -8 1403.19 408.619   3
   1  -4   8 1834.26 426.672   4
  -1  -4  -8 1340.37 339.763   4
  -1   4  -9 956.203 332.095   3
   1  -4   9 1138.15 348.736   4
  -1  -4  -9 1398.69 357.901   4
  -1   4 -10 4279.44 674.433   3
  -1  -4 -10 4897.06 648.075   4
   1  -4  10 4264.16 638.939   4
  -1   4 -11 3013.93 590.891   3
  -1  -4 -11 3695.00 553.020   4
   1  -4  11 2877.16 529.907   4
  -1   4 -12 490.496 301.777   3
  -1  -4 -12 543.472 211.115   4
   1  -4  12 243.543 156.376   4
   1  -4  13 2913.57 549.295   4
  -1   4 -13 1771.73 493.826   3
  -1  -4 -13 2195.46 436.279   4
   1  -4  14 37.4852 174.746   4
  -1   4 -14-46.1482 138.756   3
  -1  -4 -14 77.9701 105.257   4
   1  -4  15 2017.28 438.667   4
  -1   4 -15 2540.32 607.874   3
  -1  -4 -15 2825.57 499.940   4
   1  -4  16 198.128 179.125   4
  -1   4 -16-163.371 148.328   3
  -1  -4 -16 285.935 173.449   4
  -1   4 -17 207.104 113.837   3
  -1  -4 -17 496.976 219.165   4
  -1  -4 -18 355.092 202.264   4
  -1   4 -18-14.4089 193.384   3
   1  -4  18 52.3682 110.950   4
  -1   4 -19 232.951 266.261   3
   1  -4  19 367.075 192.908   4
   1  -4  20-104.430 108.208   4
  -1   4 -20-287.473 279.782   3
   1  -4  21 1290.75 375.927   4
  -1   4 -21 1897.21 620.737   3
   1  -4  22 122.201 175.869   4
  -1   4 -22 576.163 318.580   3
  -1   4 -23 142.957 122.092   3
   1  -4  23 89.0468 73.6553   4
  -1   4 -24-71.8381 195.510   3
  -1   4 -25 2765.13 814.899   3
   1  -5 -22 157.134 158.194   4
   1   5 -22 20.3946 179.561   3
  -1  -5  22 572.063 345.198   4
   1  -5 -21 92.7110 98.8033   4
   1   5 -21 442.998 344.643   3
  -1  -5  21 502.518 231.740   4
  -1  -5  20 2285.50 586.329   4
   1  -5 -20 2868.39 661.593   4
   1   5 -20 2081.49 629.824   3
  -1  -5  19-120.191 74.9985   4
   1   5 -19 189.712 86.4262   3
   1   5 -18 1356.25 514.783   3
  -1  -5  18 1086.86 444.116   4
   1   5 -17-209.994 229.475   3
  -1  -5  17-128.222 187.876   4
  -1  -5  16 2965.77 651.260   4
   1   5 -16 2663.22 624.073   3
  -1  -5  15 131.065 269.988   4
   1   5 -15 128.903 171.538   3
   1   5 -15-21.0062 90.2499   1
  -1  -5  14-86.6444 107.614   4
   1   5 -14 2.31102 144.358   3
  -1  -5  13 98.4466 114.692   4
   1   5 -13 280.536 125.446   1
   1   5 -13 245.014 173.303   3
  -1  -5  12 763.135 378.140   4
   1  -5 -12 205.722 136.492   4
   1   5 -12 708.287 292.076   3
   1   5 -11-16.4107 96.0697   1
  -1  -5  11 212.017 130.239   4
  -1  -5  10 745.451 307.749   4
  -1   5  10 43.0744 89.1463   1
   1   5 -10 246.033 165.008   3
   1  -5 -10 687.615 283.933   4
   1   5 -10 368.414 215.891   1
   1   5  -9 97.0505 73.6622   1
   1  -5  -9 40.6778 119.200   4
   1   5  -9 251.864 176.011   3
  -1   5   9 92.0942 187.558   1
  -1  -5   9 43.6252 110.625   4
   1   5  -8 25.6137 106.155   1
   1   5  -8-3.45112 59.9158   3
   1  -5  -8-42.2598 98.0696   4
  -1   5   8 112.037 274.877   1
  -1  -5   8 60.8238 173.111   4
   1  -5  -7 247.404 223.200   4
   1   5  -7 597.538 325.306   1
  -1   5   7 592.380 258.886   1
   1   5  -7 353.495 181.872   3
  -1  -5   7 338.059 238.321   4
   1   5  -6 85.1986 90.2075   1
   1   5  -6 257.384 136.772   3
  -1  -5   6 474.279 230.253   4
   1  -5  -6 266.490 207.681   4
  -1   5   6 240.016 211.767   1
   1   5  -5 9.63331 230.218   3
   1  -5  -5 165.145 200.758   4
   1   5  -5 193.744 197.044   1
  -1   5   5-118.903 143.574   1
  -1   5   5-37.0918 32.5527   3
  -1  -5   5 300.195 288.325   4
   1   5  -4 4457.78 612.905   3
  -1   5   4 4733.52 451.475   3
  -1   5   4 4690.13 821.349   1
  -1  -5   4 4777.64 769.062   4
   1  -5  -4 3698.71 638.916   4
   1   5  -4 3708.43 597.016   1
  -1   5   3 1033.07 521.222   1
  -1  -5   3 82.0260 180.338   4
   1   5  -3 45.8837 147.112   3
  -1   5   3 717.853 219.864   3
   1  -5  -3 1006.74 367.834   4
   1   5  -3-94.1952 134.046   1
   1   5  -2 1116.96 335.801   1
   1  -5  -2 856.854 324.907   4
  -1  -5   2 1360.92 396.503   4
  -1   5   2 1102.00 239.603   3
   1   5  -2 1036.48 284.638   3
  -1   5   2 1417.16 461.638   1
   1   5  -1 225.666 350.964   1
  -1   5   1 141.473 97.7058   3
  -1   5   1-8.10101 163.468   1
   1   5  -1 260.866 154.008   3
  -1  -5   1 156.032 191.161   4
   1  -5  -1 115.759 169.786   4
  -1   5   0 5855.76 645.610   3
   1   5   0 5839.85 593.501   3
  -1   5   0 6868.08 1006.44   1
   1   5   0 6219.10 799.303   1
   1  -5   0 5946.68 841.397   4
  -1  -5   0 6243.45 880.099   4
   1  -5   1 2443.92 606.187   4
   1   5   1 2084.39 448.656   1
  -1   5  -1 3446.72 855.558   1
  -1   5  -1 3829.62 543.538   3
   1   5   1 1906.05 328.892   3
  -1  -5  -1 2219.22 525.073   4
  -1   5  -2 8874.03 1166.65   1
   1   5   2 7463.69 584.289   3
  -1   5  -2 8157.79 824.900   3
   1   5   2 6886.19 852.747   1
   1  -5   2 6663.39 900.230   4
  -1  -5  -2 6975.35 888.434   4
  -1   5  -3 4038.72 620.893   3
   1   5   3 2227.61 289.070   3
  -1  -5  -3 1971.27 477.485   4
  -1   5  -3 4444.92 926.806   1
   1   5   3 2352.78 526.769   1
   1  -5   3 3600.37 687.083   4
  -1   5  -4 346.424 350.666   1
   1   5   4 258.154 179.427   1
  -1  -5  -4 126.328 131.371   4
  -1   5  -4 488.365 326.256   3
   1   5   4 188.222 70.9393   3
   1  -5   4 256.540 314.094   4
  -1  -5  -5 11.6650 155.708   4
  -1   5  -5 44.1240 75.5094   3
   1   5   5 196.908 59.7049   3
   1  -5   5 69.4464 114.803   4
   1  -5   6 13.7985 101.011   4
  -1   5  -6-11.6537 60.8537   3
  -1  -5  -6 11.0277 107.538   4
  -1   5  -7 864.532 376.500   1
  -1  -5  -7 1448.64 393.751   4
  -1   5  -7 1605.10 424.069   3
   1  -5   7 1023.26 368.697   4
  -1   5  -8 50.5145 136.450   3
   1  -5   8-93.8476 68.9140   4
  -1  -5  -8 161.155 146.269   4
  -1  -5  -9 489.272 260.265   4
  -1   5  -9 493.387 250.438   3
  -1   5  -9 397.622 200.023   1
   1  -5   9 683.429 282.794   4
  -1  -5 -10 125.154 158.233   4
  -1   5 -10-59.6962 127.265   3
  -1   5 -10-71.3344 196.963   1
   1  -5  10 41.3454 143.833   4
  -1   5 -11-113.218 183.543   1
  -1   5 -11 3.71993 136.961   3
   1  -5  11 124.163 181.986   4
  -1  -5 -11 83.3097 138.045   4
  -1   5 -12 42.1855 133.893   3
   1  -5  12 22.9203 89.5193   4
  -1  -5 -12 104.192 90.7189   4
  -1  -5 -13 212.782 127.636   4
  -1   5 -13 958.707 416.912   3
   1  -5  13 655.250 266.929   4
  -1   5 -14 9028.29 1203.93   3
  -1  -5 -14 9870.18 1081.53   4
   1  -5  14 8813.09 1053.32   4
   1  -5  15 913.919 370.100   4
  -1   5 -15 576.199 356.525   3
  -1  -5 -15 729.369 251.385   4
   1  -5  16 830.467 323.896   4
  -1   5 -16 1645.54 508.592   3
  -1  -5 -16 1260.06 370.076   4
  -1   5 -17 681.753 435.355   3
  -1  -5 -17 642.384 260.684   4
   1  -5  17 436.096 257.542   4
   1  -5  18 1730.52 471.424   4
  -1   5 -18 2231.44 646.526   3
   1  -5  19 209.246 168.054   4
  -1   5 -19-647.550 364.677   3
  -1   5 -20 969.988 488.761   3
   1  -5  20 561.100 232.940   4
  -1   5 -21 485.583 305.677   3
   1  -5  21 154.262 152.628   4
  -1  -6  16 561.614 397.985   4
   1   6 -16 164.641 151.185   1
   1   6 -16 651.369 308.293   3
   1  -6 -16 351.934 281.538   4
  -1  -6  15 328.330 210.503   4
   1  -6 -15 531.677 314.714   4
   1   6 -15 288.803 192.609   3
   1   6 -15 808.482 397.169   1
   1   6 -14 531.270 333.065   1
   1   6 -14-114.181 244.481   3
  -1  -6  14 77.7337 202.417   4
   1  -6 -14 75.4114 200.268   4
  -1  -6  13-9.48937 122.029   4
   1   6 -13 45.5075 159.636   1
   1   6 -13-1.63082 134.136   3
   1  -6 -13-25.4201 237.792   4
   1  -6 -12 71.4459 167.625   4
  -1  -6  12 54.3375 182.424   4
   1   6 -12-405.152 265.426   1
   1   6 -12 64.7029 107.682   3
   1   6 -11 950.245 366.850   1
   1   6 -11 809.210 279.501   3
   1  -6 -11 1091.33 378.907   4
  -1  -6  11 1078.10 358.181   4
  -1  -6  10 123.006 167.943   4
   1   6 -10 501.692 306.587   1
   1   6 -10 648.211 306.225   3
  -1   6  10 230.324 245.925   1
   1  -6 -10-19.3377 199.851   4
  -1   6   9 1897.07 582.510   1
   1   6  -9 1863.92 518.154   1
   1   6  -9 1170.09 363.284   3
   1  -6  -9 873.165 404.773   4
  -1  -6   9 964.526 419.628   4
   1   6  -8 1428.78 412.341   1
   1  -6  -8 1501.48 491.657   4
  -1   6   8 2675.56 719.029   1
   1   6  -8 1484.60 424.671   3
  -1  -6   8 1477.98 455.642   4
  -1  -6   7 776.375 353.021   4
   1   6  -7 92.7770 125.633   3
   1   6  -7 408.270 196.041   1
  -1   6   7 529.810 359.649   1
   1  -6  -7 280.887 205.278   4
   1  -6  -6 591.792 312.652   4
  -1   6   6 702.908 364.934   1
   1   6  -6 567.555 278.024   3
   1   6  -6 670.578 281.427   1
  -1  -6   6 825.129 337.178   4
  -1   6   5 1272.89 515.966   1
   1   6  -5 320.170 236.568   1
   1   6  -5 651.740 283.355   3
   1  -6  -5 448.265 288.304   4
  -1  -6   5 700.836 334.033   4
   1   6  -4 470.468 208.940   1
  -1   6   4 808.549 408.855   1
   1   6  -4 330.932 185.601   3
   1  -6  -4 171.946 179.847   4
  -1  -6   4 206.334 97.5593   4
   1   6  -3-66.8139 114.152   1
  -1  -6   3-67.1362 146.709   4
   1  -6  -3 13.5556 218.894   4
   1   6  -3 92.1086 79.9456   3
  -1  -6   2 557.877 324.341   4
   1   6  -2 223.819 138.138   3
  -1   6   2 558.156 344.608   1
   1  -6  -2 412.821 213.601   4
   1   6  -2 202.444 177.181   1
  -1   6   1 1013.51 457.745   1
  -1  -6   1 694.775 346.911   4
   1   6  -1 722.719 306.007   1
   1  -6  -1 1276.55 455.442   4
   1   6   0 31.4618 223.195   1
  -1   6   0 136.113 149.833   3
  -1   6   0 530.414 395.337   1
   1  -6   0 668.667 338.119   4
  -1  -6   0 142.651 177.418   4
  -1   6  -1 1264.24 333.061   3
   1   6   1 1927.73 530.990   1
  -1   6  -1 1396.30 539.966   1
   1  -6   1 1005.23 368.799   4
  -1  -6  -1 1945.30 538.478   4
   1   6   2 2139.52 527.479   1
  -1   6  -2 798.735 306.422   3
  -1   6  -2 852.775 345.689   1
   1  -6   2 1463.96 467.996   4
  -1  -6  -2 1301.09 443.935   4
  -1   6  -3 5613.73 1048.05   1
  -1   6  -3 5189.24 724.625   3
   1   6   3 4420.94 745.611   1
   1  -6   3 4626.81 840.616   4
  -1  -6  -3 3861.85 722.358   4
  -1   6  -4 1394.12 615.533   1
  -1   6  -4 795.128 441.997   3
   1  -6   4 704.117 451.385   4
  -1  -6  -4-113.329 197.753   4
  -1   6  -5 563.850 405.196   1
   1  -6   5 165.963 185.052   4
  -1   6  -5 159.935 184.910   3
  -1  -6  -5 232.865 257.822   4
  -1   6  -6 1640.35 581.282   1
  -1   6  -6 2339.84 534.445   3
   1  -6   6 1757.67 545.403   4
  -1  -6  -6 1907.10 525.714   4
   1  -6   7 1126.04 469.167   4
  -1   6  -7 1438.31 618.657   1
  -1   6  -7 1074.09 413.891   3
  -1  -6  -7 1372.60 481.535   4
  -1   6  -8 1103.96 514.528   1
  -1  -6  -8 1114.36 377.649   4
  -1   6  -8 1159.30 378.125   3
   1  -6   8 1609.61 531.487   4
  -1   6  -9 1778.66 624.416   1
  -1   6  -9 1146.28 490.623   3
  -1  -6  -9 872.861 316.592   4
   1  -6   9 1781.94 554.289   4
  -1  -6 -10 284.974 76.5108   4
  -1   6 -10 479.850 355.267   3
   1  -6  10 451.210 291.378   4
  -1   6 -10 543.467 383.030   1
   1  -6  11 584.341 332.236   4
  -1   6 -11 444.888 269.577   3
  -1   6 -11 558.097 344.744   1
  -1  -6 -11 45.2295 177.618   4
   1  -6  12 87.8672 138.086   4
  -1  -6 -12 202.582 148.867   4
  -1   6 -12 588.375 315.438   1
  -1   6 -13 1117.07 491.837   1
  -1   6 -13 1253.65 448.844   3
  -1  -6 -13 1833.79 536.784   4
   1  -6  13 1518.69 509.044   4
  -1  -6 -14-117.329 75.4763   4
  -1   6 -14-11.8521 113.652   3
  -1   6 -14 98.1766 357.712   1
   1  -6  14 223.644 223.217   4
  -1   6 -15 416.889 227.045   3
  -1   6 -15 303.341 391.331   1
  -1  -6 -15 40.2191 197.602   4
   1  -6  15 67.2218 185.022   4
   1  -6  16 710.115 355.448   4
  -1   6 -16 467.730 416.210   3
  -1   6 -16 258.721 149.031   1
  -1  -6 -16 318.670 187.942   4
   1  -7  -5 978.852 443.732   4
   1   7  -5 734.653 351.178   1
  -1   7   5 1560.40 630.192   1
  -1  -7   5 1168.83 441.328   4
  -1   7   4 869.208 471.599   1
  -1  -7   4 41.5656 87.7143   4
   1   7  -4 662.594 382.282   1
   1  -7  -4 109.626 121.754   4
   1  -7  -3 1178.54 474.567   4
   1   7  -3 1801.63 514.903   1
  -1   7   3 2072.45 707.740   1
  -1  -7   3 1621.92 524.950   4
   1   7  -2 89.5553 105.724   1
  -1   7   2 348.091 333.112   1
   1  -7  -2 26.2972 109.791   4
  -1  -7   2 61.5892 143.219   4
   1  -7  -1 668.349 390.504   4
  -1   7   1 978.444 471.091   1
   1   7  -1 772.831 378.509   1
  -1  -7   1 1017.43 473.936   4
   1  -7   0-17.8779 211.815   4
   1   7   0 44.7396 120.576   1
  -1   7   0 152.003 153.303   1
  -1   7  -1 1597.01 516.549   1
  -1  -7  -1 1865.53 597.417   4
   1   7   1 831.404 372.472   1
   1  -7   1 902.497 440.016   4
  -1   7  -2 468.106 393.749   1
   1   7   2 3.39254 202.111   1
   1  -7   2 790.455 355.883   4
  -1  -7  -2 9.65456 111.094   4
  -1   7  -3 1017.01 541.571   1
  -1  -7  -3 295.589 319.242   4
   1  -7   3 835.666 403.260   4
  -1   7  -4-221.044 131.642   1
   1  -7   4-148.679 144.452   4
  -1  -7  -4-22.1216 190.683   4
   2   0 -30-29.3902 77.5378   3
   2   0 -29 44.6288 59.3957   3
  -2   0  28 571.850 274.240   2
   2   0 -28 14.9613 71.2400   3
  -2   0  27 283.030 210.377   2
   2   0 -27-68.6078 172.531   3
  -2   0  26 609.019 225.274   2
  -2   0  25 333.531 175.231   2
  -2   0  24 76.4897 151.042   2
  -2   0  23-12.8695 124.464   2
  -2   0  22 1109.53 326.281   2
  -2   0  21-54.9230 91.4037   2
  -2   0  20 10382.3 930.406   2
  -2   0  19-106.696 112.661   2
  -2   0  18 958.593 288.909   2
  -2   0  17-70.1517 117.636   2
  -2   0  16 997.949 261.440   2
  -2   0  15 28.4088 43.1142   2
  -2   0  14 388.302 180.844   2
  -2   0  13 55.0625 73.9876   2
   2   0 -13-30.3211 51.5755   1
  -2   0  12 1422.53 296.651   2
   2   0 -12 2301.79 388.557   1
  -2   0  11 35.9639 66.4909   2
   2   0 -11-14.0619 74.7089   1
   2   0 -10 671.049 192.715   1
  -2   0  10 522.381 172.880   2
  -2   0   9-22.2749 46.2708   2
   2   0  -9-22.8249 48.9430   1
   2   0  -8 559.603 147.622   1
  -2   0   8 613.978 183.021   2
  -2   0   7 13.9786 71.9870   2
   2   0  -7 56.2230 78.9303   1
   2   0  -6 3601.29 321.103   1
  -2   0   6 4234.21 467.641   2
  -2   0   5-31.5157 56.9980   2
   2   0  -5 40.6352 37.5011   1
  -2   0   4 3884.49 296.078   1
  -2   0   4 4130.02 438.415   2
  -2   0   3 11.0842 84.6535   2
   2   0  -3 46.5592 86.6040   3
  -2   0   3 75.2608 53.0363   1
   2   0  -2 25129.9 1171.63   3
  -2   0   2 24613.4 777.474   1
  -2   0   2 24833.0 1022.87   2
  -2   0   1 15.7744 54.4732   2
   2   0  -1 113.886 109.460   3
  -2   0   0 517.103 134.265   2
   2   0   0 780.210 218.706   3
  -2   0  -1 64.7702 60.2952   2
  -2   0  -1 22.9560 61.8573   3
   2   0   1 40.8827 73.6662   3
   2   0   2 33066.2 1285.97   3
  -2   0  -2 32427.4 1343.64   3
  -2   0  -2 34839.4 1125.22   2
  -2   0  -3-98.8112 102.625   3
   2   0   3-8.69199 61.0658   3
   2   0   4 18997.4 1039.97   3
  -2   0  -4 18865.3 1068.42   3
  -2   0  -4 18030.3 785.376   2
   2   0   5 65.9298 86.0591   3
  -2   0  -5 5.27718 71.6311   2
  -2   0  -5 35.1948 78.4280   3
  -2   0  -6 1044.02 187.548   2
  -2   0  -6 1178.07 284.642   3
   2   0   6 1144.01 264.383   3
  -2   0  -7 74.0478 52.9891   2
  -2   0  -7-68.4856 67.3893   3
   2   0   7-37.6444 61.2732   3
  -2   0  -8 1084.30 168.917   2
   2   0   8 1224.53 174.530   4
  -2   0  -8 1358.14 304.985   3
   2   0   9 47.0181 52.8328   4
  -2   0  -9 7.30292 41.2303   2
  -2   0 -10 4117.11 561.666   3
   2   0  10 4362.51 297.092   4
  -2   0 -10 4205.55 329.362   2
   2   0  11 18.9409 25.4937   4
  -2   0 -11-16.2078 23.4010   2
  -2   0 -11-89.1546 104.521   3
   2   0  12 797.215 95.2385   4
  -2   0 -12 910.180 286.730   3
  -2   0 -12 1191.75 161.821   2
  -2   0 -13-20.1214 45.4246   2
  -2   0 -13-63.2998 92.6116   3
  -2   0 -14 2569.51 490.643   3
  -2   0 -14 3327.67 235.645   2
  -2   0 -15 6.61395 17.2657   2
  -2   0 -15 92.0554 136.713   3
  -2   0 -15 5.84043 9.80923   2
  -2   0 -16 24598.4 1550.95   3
  -2   0 -17 5.01205 143.559   3
  -2   0 -18 142.230 153.616   3
  -2   0 -19-16.7724 84.1342   3
  -2   0 -20 110.421 154.291   3
  -2   0 -21 62.6297 106.738   3
  -2   0 -22 161.217 187.890   3
  -2   0 -23-197.281 232.099   3
  -2   0 -24 68.6949 213.067   3
  -2   0 -25 172.176 183.796   3
  -2   0 -26 92.7481 167.872   3
  -2   0 -27 170.113 238.895   3
  -2   0 -28 1836.32 546.096   3
   2  -1 -30 215.189 189.400   3
   2   1 -30 79.0002 146.333   3
   2   1 -29 594.437 265.700   3
   2  -1 -29 827.126 324.161   3
   2  -1 -28 724.586 246.034   3
  -2   1  28 1435.44 391.152   2
   2   1 -28 1067.98 364.810   3
  -2  -1  27 742.048 210.122   2
  -2   1  27 442.727 218.138   2
   2   1 -27 601.714 334.195   3
   2  -1 -27 294.845 193.681   3
  -2  -1  26 200.048 153.397   2
  -2   1  26 50.9029 287.310   2
  -2  -1  25 487.989 221.412   2
  -2   1  25 472.630 245.524   2
  -2  -1  24 809.011 271.323   2
  -2   1  24 2023.86 465.936   2
  -2  -1  23 766.542 254.565   2
  -2   1  23 1076.22 329.970   2
  -2  -1  22 434.050 240.430   2
  -2   1  22 355.346 189.185   2
  -2  -1  21 76.5360 70.9457   2
  -2   1  21 175.400 165.875   2
  -2  -1  20 28.5904 77.1976   2
  -2   1  20-17.8695 59.6369   2
  -2  -1  19 915.068 270.458   2
  -2   1  19 1270.25 320.903   2
  -2  -1  18-13.4132 59.8846   2
  -2   1  18-76.4828 137.673   2
  -2  -1  17 23.6268 128.438   2
  -2   1  17-4.73726 80.7417   2
  -2  -1  16 105.476 72.3955   2
  -2   1  16 354.630 190.315   2
  -2  -1  15 3671.09 494.646   2
  -2   1  15 3119.54 469.238   2
  -2  -1  14 2487.17 403.670   2
  -2   1  14 2676.58 438.851   2
  -2  -1  13 286.696 153.522   2
  -2   1  13 187.718 132.897   2
  -2  -1  12 349.155 137.657   2
   2  -1 -12 557.585 224.047   1
  -2   1  12 612.518 209.636   2
   2  -1 -11 158.633 94.5555   1
  -2  -1  11 236.371 136.831   2
  -2   1  11 190.082 128.789   2
   2  -1 -10 15698.4 1045.50   1
  -2   1  10 13280.6 900.124   2
   2  -1  -9 13744.0 946.149   1
  -2   1   9 12054.6 832.521   2
   2  -1  -8 685.680 213.866   1
  -2   1   8 194.511 122.534   2
   2  -1  -7 12390.9 830.862   1
   2   1  -7 11913.9 469.839   1
  -2   1   7 12103.3 784.367   1
  -2   1   7 12895.7 827.121   2
   2   1  -6 488.738 160.203   4
   2  -1  -6 672.891 187.132   3
  -2   1   6 699.653 168.583   2
   2  -1  -6 749.279 203.805   1
   2  -1  -6 550.221 172.939   2
  -2   1   6 621.740 171.358   1
   2   1  -5 528.013 190.446   4
  -2   1   5 111.364 93.4837   1
   2  -1  -5 301.388 137.451   2
   2  -1  -5 69.3486 106.408   3
  -2   1   5 376.767 141.830   2
   2  -1  -5 228.631 119.933   1
   2   1  -4 51.7825 115.157   4
   2  -1  -4 49.3364 82.1324   2
   2  -1  -4 72.7805 119.044   3
   2  -1  -4 10.7828 47.9118   1
  -2   1   4 24.1112 60.5098   2
  -2   1   4 37.8879 56.2235   1
   2   1  -3 398.350 169.730   4
   2  -1  -3 303.304 102.883   2
  -2   1   3 339.444 134.033   1
   2  -1  -3 492.784 178.681   3
  -2   1   3 574.166 173.464   2
  -2   1   2 1267.75 256.076   1
   2   1  -2 1704.71 294.580   4
  -2   1   2 1543.58 296.132   3
   2  -1  -2 1200.35 238.099   2
   2  -1  -2 1446.84 287.404   3
  -2   1   2 1222.17 240.645   2
   2   1  -1 1934.56 312.644   4
  -2   1   1 1404.73 277.754   1
   2   1  -1 1564.67 306.882   3
   2  -1  -1 1906.15 322.287   3
  -2   1   1 1187.26 256.020   3
  -2   1   1 1592.97 266.667   2
   2  -1  -1 1448.32 263.456   2
   2  -1   0 29.7546 53.4903   2
   2   1   0 194.119 126.077   3
  -2   1   0 103.866 108.208   3
   2   1   0 26.4736 46.7900   4
  -2   1   0 35.8072 45.2819   2
   2  -1   0 86.7143 72.4476   3
   2   1   1 472.977 173.034   4
   2   1   1 592.681 196.799   3
  -2   1  -1 149.188 109.140   3
   2  -1   1 312.768 138.659   2
  -2   1  -1 391.156 138.696   2
   2  -1   1 460.718 161.587   3
   2   1   2 196.291 113.664   4
   2   1   2 398.589 159.713   3
  -2   1  -2 77.5850 116.176   3
   2  -1   2 118.174 90.2605   2
  -2   1  -2 147.189 72.2020   2
   2  -1   2 78.1655 94.2402   3
   2   1   3 16441.0 908.784   3
  -2   1  -3 13371.1 939.915   3
   2  -1   3 13276.4 878.162   3
   2   1   3 16314.3 824.511   4
   2  -1   3 12442.4 688.867   2
  -2   1  -3 12652.5 699.497   2
  -2  -1  -4 1887.93 343.504   3
  -2   1  -4 1476.82 249.195   2
  -2   1  -4 1163.08 300.127   3
   2   1   4 1636.47 295.402   3
   2  -1   4 1607.51 313.431   3
   2   1   4 1720.77 275.820   4
   2  -1   4 1384.49 230.394   2
  -2  -1  -5 3565.07 462.840   3
  -2   1  -5 2999.45 466.452   3
   2   1   5 3016.82 408.337   3
   2   1   5 2523.71 306.551   4
   2  -1   5 3089.18 323.853   2
  -2   1  -5 2943.98 318.538   2
  -2   1  -6 9820.37 862.958   3
   2   1   6 9651.41 719.293   3
  -2  -1  -6 9118.06 726.635   3
   2   1   6 8842.35 550.724   4
  -2   1  -6 8684.66 543.608   2
  -2  -1  -7 990.131 273.275   3
  -2   1  -7 605.443 248.461   3
   2   1   7 631.544 210.712   3
  -2   1  -7 634.207 138.807   2
   2   1   7 519.028 125.552   4
  -2   1  -8 1928.78 242.209   2
  -2  -1  -8 2309.75 388.498   3
  -2   1  -8 1339.56 334.155   3
   2   1   8 1869.05 326.697   3
   2   1   8 1760.54 224.037   4
  -2  -1  -9 4180.83 526.594   3
  -2   1  -9 3453.33 542.378   3
   2   1   9 3931.99 482.612   3
   2   1   9 3717.93 309.819   4
  -2   1  -9 3922.94 333.036   2
  -2  -1 -10 796.140 238.881   3
  -2   1 -10 1126.42 174.270   2
  -2   1 -10 511.110 227.473   3
   2   1  10 676.014 191.057   3
   2   1  10 852.804 144.772   4
  -2   1 -11 1868.98 208.215   2
  -2  -1 -11 2271.56 397.835   3
  -2   1 -11 1204.40 329.153   3
   2   1  11 1563.05 174.329   4
  -2   1 -12 162.285 62.6492   2
   2  -1  12 409.909 112.817   4
  -2  -1 -12 148.921 107.335   3
  -2   1 -12 340.592 214.318   3
  -2   1 -13 3389.88 222.179   2
  -2  -1 -13 5115.96 606.001   3
  -2   1 -13 3984.85 605.653   3
   2  -1  13 4636.38 366.093   4
  -2  -1 -14 99.6554 98.6754   3
  -2   1 -14 110.464 112.776   3
   2  -1  14 21.2791 33.0351   4
  -2  -1 -15 258.432 97.7541   2
  -2  -1 -15 110.959 120.071   3
  -2   1 -15 175.879 174.363   3
   2  -1  15 197.277 76.8493   4
  -2  -1 -16 1782.66 253.957   2
  -2  -1 -16 2006.19 401.711   3
  -2   1 -16 2094.57 489.756   3
   2  -1  16 2022.68 200.367   4
  -2  -1 -17 4839.35 650.626   3
  -2  -1 -17 5727.96 444.373   2
  -2   1 -17 6149.62 839.478   3
   2  -1  17 4803.34 274.818   4
  -2  -1 -18 2161.23 434.894   3
  -2   1 -18 2000.91 516.277   3
  -2  -1 -19-62.0063 184.842   3
  -2   1 -19 526.892 304.307   3
  -2  -1 -20 1611.47 406.156   3
  -2   1 -20 1128.59 460.403   3
  -2  -1 -21 1904.47 485.314   3
  -2   1 -21 1870.84 510.293   3
  -2  -1 -22 1228.42 376.919   3
  -2   1 -22 1003.60 374.948   3
  -2  -1 -23 1098.42 364.325   3
  -2   1 -23 1604.70 497.565   3
  -2  -1 -24 1748.56 474.535   3
  -2   1 -24 1823.18 593.027   3
  -2  -1 -25 1698.26 502.240   3
  -2   1 -25 904.110 439.702   3
  -2  -1 -26 803.629 358.259   3
  -2   1 -26 155.295 166.895   3
  -2  -1 -27 2476.53 637.507   3
  -2   1 -27 2344.83 692.726   3
  -2  -1 -28 825.061 376.373   3
  -2   1 -28 773.683 400.014   3
   2   2 -29-58.3958 149.890   3
  -2   2  29-93.9251 121.886   2
   2   2 -28 291.350 268.019   3
  -2   2  28 211.698 204.175   2
   2  -2 -27 601.627 221.649   3
   2   2 -27 916.836 410.823   3
  -2   2  27 584.203 255.184   2
  -2  -2  26 151.714 148.778   2
   2   2 -26-90.8347 87.5621   3
   2  -2 -26 58.2648 92.4189   3
  -2   2  26 121.735 130.262   2
  -2  -2  25 271.294 161.402   2
  -2   2  25 21.7849 76.6625   2
   2   2 -25 81.0713 162.972   3
  -2  -2  24 13.5345 108.319   2
  -2   2  24-70.6315 127.267   2
  -2  -2  23 639.448 222.123   2
  -2   2  23 559.172 283.305   2
  -2  -2  22 295.996 108.467   2
  -2   2  22 377.828 214.576   2
  -2  -2  21 502.150 218.985   2
  -2   2  21 594.226 264.753   2
  -2  -2  20 641.105 229.201   2
  -2   2  20 904.568 328.666   2
  -2  -2  19 1545.36 352.369   2
  -2   2  19 1787.90 447.514   2
  -2  -2  18 27.4861 67.0343   2
  -2   2  18 46.4708 55.4351   2
  -2   2  17 5163.13 703.807   2
  -2  -2  16 1432.72 379.859   4
  -2   2  16 1392.56 354.200   2
  -2  -2  15 213.984 171.755   4
  -2   2  15 200.262 183.536   2
  -2  -2  14-72.4578 109.531   4
  -2   2  14-109.630 145.577   2
  -2  -2  13 923.980 312.498   4
  -2   2  13 705.844 242.094   2
  -2  -2  12 373.603 200.803   4
  -2   2  12 561.221 207.326   2
  -2  -2  11 810.763 253.784   4
   2  -2 -11 798.051 200.465   3
  -2   2  11 1297.29 319.046   2
  -2   2  10 3129.30 479.267   2
   2  -2 -10 3535.31 466.104   3
  -2  -2  10 3409.66 550.610   4
  -2   2   9 23693.9 1291.45   2
   2  -2  -9 24608.5 1193.15   3
  -2  -2   9 22508.2 1394.75   4
  -2   2   9 24326.5 1407.28   1
  -2   2   8 4615.52 554.548   2
   2  -2  -8 5049.66 540.684   3
  -2   2   8 4599.14 622.556   1
  -2  -2   8 5281.24 668.888   4
  -2  -2   7 887.822 290.624   4
  -2   2   7 1308.10 341.835   1
   2  -2  -7 970.855 237.546   3
   2   2  -7 1108.41 145.899   1
  -2   2   7 1078.03 276.454   2
  -2  -2   6 867.996 265.332   4
   2   2  -6 383.772 79.2243   1
  -2   2   6 493.563 203.825   1
   2  -2  -6 679.906 184.928   3
  -2   2   6 502.872 190.250   2
  -2  -2   5 71.2925 90.9081   4
   2   2  -5 176.865 54.1820   1
   2  -2  -5 166.204 54.2325   3
  -2   2   5 139.309 108.162   2
  -2   2   5 337.439 172.383   1
  -2   2   4 3813.58 482.029   2
   2  -2  -4 3484.35 425.166   3
  -2   2   4 3706.13 531.798   1
  -2  -2   4 3672.87 524.735   4
  -2   2   3 15566.4 969.926   2
  -2   2   3 15821.0 945.438   3
   2  -2  -3 17428.3 976.290   3
  -2   2   3 16582.1 1121.47   1
  -2  -2   3 19594.6 1223.05   4
  -2  -2   2 143.450 133.885   4
  -2   2   2 235.327 239.741   1
  -2   2   2 78.7713 141.708   3
   2  -2  -2 361.823 183.469   3
  -2  -2   1 806.229 238.297   4
  -2   2   1 671.921 219.710   3
  -2   2   1 606.957 220.073   1
   2  -2  -1 652.857 201.542   3
  -2   2   1 666.470 200.780   2
  -2  -2   1 644.427 116.747   1
   2   2  -1 360.050 136.246   4
  -2  -2   0 365.288 167.260   4
  -2   2   0 496.356 218.840   1
  -2  -2   0 388.432 104.250   1
  -2   2   0 392.954 152.848   3
   2  -2   0 431.160 170.625   2
   2  -2   0 463.180 171.799   3
  -2   2   0 604.972 192.647   2
   2   2   0 485.347 173.718   4
  -2   2  -1 10531.8 766.635   2
   2   2   1 15862.5 968.769   3
  -2   2  -1 10694.0 855.949   3
   2  -2   1 10713.3 812.487   3
  -2   2  -1 11946.1 980.594   1
  -2  -2  -1 14316.6 633.671   1
   2   2   1 15135.9 935.264   4
  -2  -2  -1 13425.8 915.462   4
   2  -2   1 10754.2 756.287   2
  -2  -2  -2 750.581 217.379   4
   2   2   2 374.966 150.742   3
   2  -2   2 850.421 265.056   2
  -2   2  -2 637.005 273.255   3
  -2  -2  -2 425.008 118.676   1
  -2   2  -2 1209.18 287.957   2
   2   2   2 294.685 146.736   4
  -2   2  -3 4420.75 489.014   2
   2   2   3 4982.55 507.498   3
  -2   2  -3 3915.38 532.602   3
  -2  -2  -3 4873.65 432.633   1
   2   2   3 4949.36 520.009   4
  -2  -2  -3 5069.30 539.769   4
   2  -2   3 3796.02 421.989   2
  -2   2  -4 4255.10 467.714   2
   2   2   4 4290.65 475.981   3
  -2   2  -4 3918.22 544.165   3
  -2  -2  -4 4467.43 442.900   1
   2   2   4 3388.63 439.130   4
  -2  -2  -4 4422.09 500.133   4
   2  -2   4 3548.22 417.157   2
  -2  -2  -5-50.6386 74.2748   4
   2  -2   5-3.69144 50.5838   2
  -2   2  -5 47.7744 126.134   3
  -2   2  -5 53.3561 71.8761   2
   2   2   5-23.9615 59.1668   4
  -2  -2  -6 433.632 151.975   4
   2  -2   6 229.890 74.8507   2
   2   2   6 518.720 171.630   3
  -2   2  -6 273.026 133.287   3
  -2   2  -6 359.790 127.638   2
   2   2   6 352.177 137.678   4
  -2  -2  -7-0.27153 49.7619   4
   2  -2   7 38.9716 63.0747   2
   2   2   7 108.659 103.217   3
  -2   2  -7-50.0724 100.704   3
   2   2   7 68.5896 76.3306   4
  -2   2  -7-24.8407 50.7180   2
   2  -2   8 918.808 201.260   2
  -2  -2  -8 887.978 204.877   4
  -2   2  -8 961.305 301.706   3
   2   2   8 992.538 232.541   3
   2   2   8 988.167 224.774   4
  -2   2  -8 1085.58 220.848   2
  -2   2  -9 2094.86 298.948   2
  -2  -2  -9 3028.39 416.278   3
   2   2   9 2157.37 338.757   3
   2   2   9 2601.34 345.387   4
  -2   2  -9 2909.35 525.461   3
  -2  -2  -9 2849.39 363.261   4
   2  -2   9 2532.71 310.408   2
  -2   2 -10 1683.64 259.872   2
   2   2  10 2088.75 330.780   3
  -2  -2 -10 1510.67 295.235   3
  -2   2 -10 1410.65 371.116   3
   2   2  10 1442.68 254.848   4
  -2  -2 -10 2062.19 294.137   4
   2  -2  10 1744.17 249.924   2
  -2   2 -11 3229.19 339.473   2
  -2  -2 -11 3771.38 470.991   3
   2   2  11 3672.04 461.681   3
  -2   2 -11 2830.35 542.790   3
   2  -2  11 3241.49 421.079   4
  -2  -2 -11 3386.04 362.746   4
   2  -2  11 3554.85 346.715   2
  -2  -2 -12-28.6880 53.8050   4
   2  -2  12 54.3321 61.2319   2
  -2   2 -12-39.3833 37.2994   2
  -2  -2 -12-70.4042 76.1072   3
  -2   2 -12 175.855 173.369   3
   2   2  12-136.213 93.1515   3
   2  -2  12 106.336 120.391   4
  -2  -2 -13 1372.05 203.309   4
  -2  -2 -13 1272.21 279.596   3
  -2   2 -13 728.380 286.137   3
   2   2  13 1070.62 237.461   3
   2  -2  13 1384.80 275.107   4
   2  -2  13 1322.35 181.763   2
  -2  -2 -14 2383.52 387.857   3
  -2   2 -14 1791.41 441.786   3
   2  -2  14 2001.54 318.778   4
  -2  -2 -14 2543.77 263.994   4
  -2  -2 -15 2957.61 442.890   3
  -2   2 -15 2756.17 544.849   3
   2  -2  15 3099.03 391.787   4
  -2  -2 -16 48.9816 104.396   3
  -2   2 -16 147.709 154.479   3
   2  -2  16 171.378 127.314   4
  -2  -2 -17 2186.54 397.123   3
  -2   2 -17 2970.92 603.441   3
   2  -2  17 2048.67 306.582   4
  -2  -2 -18 77.8304 131.151   3
  -2   2 -18-51.1835 98.8470   3
   2  -2  18-31.9072 33.1070   4
  -2  -2 -19 4440.68 584.411   3
  -2   2 -19 4432.08 821.446   3
   2  -2  19 4310.02 429.572   4
  -2  -2 -20-50.3581 130.457   3
  -2   2 -20 119.364 97.2711   3
  -2  -2 -21 73.2546 63.0294   3
  -2   2 -21 153.203 198.290   3
  -2  -2 -22 166.227 156.470   3
  -2   2 -22 0.93642 109.392   3
  -2  -2 -23-53.2283 144.571   3
  -2   2 -23 391.334 369.842   3
  -2  -2 -24 506.291 240.469   3
  -2   2 -24 624.589 383.680   3
  -2   2 -25 233.992 228.824   3
  -2   2 -26-567.231 350.452   3
  -2   2 -27 1158.69 553.776   3
  -2   3  27 395.419 233.060   2
   2   3 -27-37.4593 236.540   3
  -2   3  26 107.396 264.923   2
   2   3 -26 337.197 270.639   3
  -2   3  25 58.8788 205.122   2
  -2  -3  25 65.9951 122.788   2
  -2   3  24 84.8545 125.758   2
  -2  -3  24 141.154 72.9737   2
   2   3 -24 264.438 282.749   3
  -2  -3  23 1111.39 317.625   2
   2   3 -23 809.163 356.979   3
  -2   3  23 830.201 359.592   2
  -2  -3  22 409.528 208.898   2
  -2   3  22 563.693 254.332   2
  -2  -3  21 605.113 327.427   4
  -2   3  21 97.9845 175.989   2
  -2  -3  20-10.1512 152.221   4
  -2   3  20-20.9083 118.504   2
  -2  -3  19 1116.21 404.721   4
  -2   3  19 1203.87 402.263   2
  -2  -3  18 2718.36 577.516   4
  -2   3  18 3121.34 617.473   2
  -2  -3  17 1801.54 471.585   4
  -2   3  17 2665.00 541.271   2
  -2   3  16 4931.40 727.952   2
  -2  -3  16 4918.89 781.915   4
  -2  -3  15 523.278 280.953   4
  -2   3  15 573.723 222.919   2
  -2  -3  14 3474.59 653.124   4
   2  -3 -14 4322.18 506.738   3
  -2   3  14 3564.59 598.774   2
  -2  -3  13 467.511 209.007   4
   2  -3 -13 640.801 186.458   3
  -2   3  13 666.543 267.850   2
  -2  -3  12 1882.80 470.119   4
   2  -3 -12 1980.46 332.898   3
  -2   3  12 2122.80 443.657   2
  -2  -3  11 351.690 225.452   4
  -2   3  11 567.452 252.513   1
   2  -3 -11 694.119 190.998   3
  -2   3  11 460.120 241.992   2
  -2   3  10 3525.17 570.578   2
  -2  -3  10 3455.29 615.640   4
   2  -3 -10 3262.59 411.058   3
  -2   3  10 3263.05 598.323   1
  -2  -3   9 80.0608 89.5867   4
   2  -3  -9 112.265 98.7509   3
  -2   3   9 20.5191 76.2186   2
   2   3  -9 133.387 98.3843   1
  -2   3   8 258.735 156.917   1
  -2  -3   8 420.146 191.383   4
   2  -3  -8 105.160 87.2873   3
  -2   3   8 267.345 177.893   2
   2   3  -8 212.955 102.272   1
  -2  -3   7 840.968 286.882   4
   2   3  -7 846.285 175.598   1
   2  -3  -7 912.585 219.630   3
  -2   3   7 738.140 296.325   1
  -2   3   7 914.314 286.806   2
  -2  -3   6 699.143 261.206   4
  -2   3   6 673.552 271.995   1
   2  -3  -6 814.615 215.161   3
   2   3  -6 543.722 138.598   1
  -2   3   6 1020.40 297.532   2
  -2  -3   5 105.491 127.052   4
   2  -3  -5 197.123 104.123   3
  -2   3   5 123.785 199.775   1
  -2   3   5 260.473 187.274   2
   2   3  -5 142.025 51.4416   1
  -2  -3   4 1093.13 337.622   4
  -2   3   4 956.008 240.854   3
   2  -3  -4 1391.88 289.644   3
   2   3  -4 974.122 201.311   1
  -2   3   4 1336.30 384.343   1
  -2   3   4 1465.43 352.525   2
  -2  -3   3 1108.62 327.476   4
  -2   3   3 766.317 245.015   3
  -2   3   3 1039.73 346.058   1
   2  -3  -3 992.807 248.372   3
   2   3  -3 945.516 204.714   1
  -2   3   3 840.926 263.799   2
  -2  -3   2 87.3680 138.669   4
  -2   3   2-118.242 147.180   1
  -2   3   2 92.4088 99.7263   3
   2  -3  -2 98.0816 104.772   3
  -2   3   2 32.1320 94.3784   2
  -2   3   1 719.146 262.670   1
  -2   3   1 558.384 192.519   3
  -2  -3   1 587.525 235.493   4
  -2   3   1 540.717 237.049   2
  -2  -3   0 1006.35 289.919   4
  -2   3   0 1051.29 343.455   1
  -2   3   0 915.162 266.296   3
  -2  -3   0 1073.55 232.127   1
  -2   3   0 1194.22 313.205   2
  -2  -3  -1 250.223 172.853   4
  -2   3  -1 25.9527 85.6029   3
  -2   3  -1 517.128 313.897   1
  -2  -3  -1 266.650 113.448   1
  -2   3  -1 391.102 197.442   2
  -2   3  -2 6383.10 692.031   2
   2   3   2 8651.26 725.518   3
  -2   3  -2 6242.94 699.138   3
  -2   3  -2 6972.90 895.077   1
  -2  -3  -2 8004.29 633.716   1
  -2  -3  -2 8126.60 819.697   4
  -2   3  -3 2298.57 425.849   2
  -2  -3  -3 1848.09 388.428   4
   2   3   3 1541.33 308.924   3
  -2   3  -3 1533.34 382.876   3
  -2  -3  -3 1656.98 281.263   1
  -2   3  -3 1284.62 468.233   1
  -2   3  -4 10514.8 868.237   2
   2   3   4 11909.0 811.585   3
  -2   3  -4 9772.97 925.916   3
  -2  -3  -4 12119.6 834.478   1
  -2  -3  -4 11409.5 953.853   4
  -2  -3  -5 2054.22 406.553   4
  -2   3  -5 2745.16 449.459   2
   2   3   5 2987.29 403.380   3
  -2   3  -5 3354.81 582.925   3
  -2  -3  -5 2045.50 362.490   1
  -2   3  -6 4377.80 544.311   2
   2   3   6 4043.96 460.759   3
  -2   3  -6 3701.52 599.407   3
  -2  -3  -6 5418.85 626.847   1
  -2  -3  -6 4415.58 581.406   4
  -2   3  -7 6203.75 630.567   2
   2   3   7 7232.80 590.346   3
  -2   3  -7 5989.77 780.524   3
  -2  -3  -7 7145.67 751.947   4
  -2   3  -8 3777.82 479.303   2
   2   3   8 4108.53 441.635   3
  -2   3  -8 4643.88 725.822   3
  -2  -3  -8 4323.56 578.587   4
   2  -3   8 3439.82 443.588   2
  -2  -3  -9 636.295 208.413   4
  -2   3  -9 1327.81 293.002   2
   2  -3   9 1132.15 268.834   2
  -2   3  -9 1277.65 377.013   3
   2   3   9 900.011 218.985   3
   2   3   9 943.173 246.198   4
   2  -3   9 1181.97 310.907   4
  -2  -3 -10-64.2020 49.1290   4
  -2   3 -10 134.328 130.353   2
   2  -3  10-38.1606 65.8682   2
  -2   3 -10-50.9648 83.6633   3
   2   3  10-4.01514 71.4435   3
   2  -3  10-49.1292 76.4950   4
  -2  -3 -11 107.426 87.9230   4
   2  -3  11 18.3300 60.0615   2
  -2   3 -11 3.15840 171.182   3
   2   3  11 283.626 128.899   3
  -2   3 -12 3956.22 694.554   3
   2   3  12 4516.63 470.354   3
   2  -3  12 4492.86 586.565   4
  -2  -3 -12 4368.99 529.957   4
   2  -3  12 4037.37 436.738   2
  -2  -3 -13 106.835 44.6289   4
   2  -3  13 170.701 87.9022   2
  -2   3 -13 320.487 217.364   3
   2   3  13 86.2274 63.5557   3
   2  -3  13 18.0149 106.140   4
  -2  -3 -14 223.876 132.798   4
   2  -3  14 1.99071 58.9470   2
  -2   3 -14 222.244 172.884   3
   2   3  14-233.141 112.255   3
   2  -3  14-44.8336 98.0031   4
  -2  -3 -15 170.370 120.852   4
  -2   3 -15 51.9719 98.9138   3
   2  -3  15 143.972 132.281   4
  -2  -3 -16 55.2372 107.953   4
  -2  -3 -16 44.6665 69.4042   3
  -2   3 -16-89.2477 141.316   3
   2  -3  16 7.02261 66.3742   4
  -2  -3 -17 120.338 103.095   3
  -2   3 -17 46.4182 155.912   3
   2  -3  17 182.179 152.072   4
  -2  -3 -18 122.565 94.6440   3
  -2   3 -18-4.35259 193.115   3
   2  -3  18 112.263 115.982   4
  -2   3 -19-191.129 193.634   3
   2  -3  19 201.593 127.767   4
  -2   3 -20 1032.61 431.210   3
   2  -3  20 876.086 270.006   4
  -2   3 -21 1022.72 432.949   3
  -2   3 -22 4816.08 955.388   3
  -2   3 -23 290.563 221.580   3
  -2   3 -24 1023.65 458.351   3
  -2   3 -25-98.2044 213.234   3
  -2   4  24 815.993 348.961   2
  -2  -4  24 988.510 380.453   4
   2   4 -24 841.863 450.964   3
  -2   4  23 206.189 154.876   2
  -2  -4  23 89.5158 182.619   4
   2   4 -23 177.424 201.083   3
  -2   4  22 1476.11 467.540   2
  -2  -4  22 1935.10 564.367   4
   2   4 -22 1391.93 497.325   3
  -2   4  21 2432.11 628.090   2
  -2  -4  21 1906.52 534.025   4
   2   4 -21 1824.61 589.566   3
  -2   4  20 1549.32 525.388   2
  -2  -4  20 1359.85 478.271   4
   2   4 -20 1065.21 446.024   3
  -2   4  19 341.908 275.959   2
  -2  -4  19 0.84490 134.135   4
   2   4 -19 247.996 155.945   3
  -2   4  18-36.9481 73.8494   2
  -2  -4  18-64.8777 174.471   4
  -2   4  17 1440.17 455.678   2
  -2  -4  17 1061.07 399.163   4
  -2   4  16 568.405 256.145   2
  -2  -4  16 270.070 150.594   4
  -2  -4  15-104.922 208.701   4
  -2   4  15 162.152 179.453   2
  -2   4  14 1278.48 400.165   2
  -2  -4  14 1807.21 488.492   4
  -2   4  13 763.932 302.641   2
  -2  -4  13 397.856 249.424   4
   2   4 -13 639.368 247.664   1
  -2  -4  12 142.604 77.2394   4
  -2   4  12 1.30921 122.635   2
   2   4 -12-14.1603 79.3706   1
  -2   4  11 120.619 184.369   2
  -2  -4  11 148.193 175.376   4
  -2   4  11-66.1344 204.876   1
   2   4 -11 116.692 101.760   1
  -2   4  10-11.9684 76.4827   2
   2   4 -10 177.754 70.2691   1
  -2  -4  10 19.1785 151.722   4
  -2   4  10 73.0401 149.183   1
  -2   4   9 1296.94 374.392   2
  -2  -4   9 1471.72 442.581   4
   2   4  -9 1022.91 249.584   1
  -2   4   9 1062.31 373.801   1
  -2   4   8 977.518 329.865   2
  -2  -4   8 1333.74 410.612   4
   2   4  -8 1020.95 245.114   1
   2  -4  -8 955.918 222.549   3
  -2   4   8 1182.41 398.407   1
  -2  -4   7 571.133 288.617   4
  -2   4   7 772.695 285.807   2
   2   4  -7 306.604 142.133   1
  -2   4   7 478.830 259.262   1
   2  -4  -7 428.019 176.269   3
  -2  -4   6 26.0438 127.976   4
  -2   4   6 330.699 214.166   2
   2  -4  -6 19.1353 52.9902   3
   2   4  -6 45.2486 80.6592   1
  -2  -4   5 419.328 196.674   4
  -2   4   5 193.695 97.9879   1
  -2   4   5 523.494 259.853   2
   2   4  -5 385.287 142.381   1
   2  -4  -5 149.834 43.0791   3
  -2   4   4 6113.53 808.485   2
  -2   4   4 5950.21 630.742   3
   2  -4  -4 5440.83 559.696   3
  -2   4   4 6726.08 949.447   1
   2   4  -4 6591.09 621.137   1
  -2  -4   4 6172.49 835.972   4
  -2  -4   3 560.118 300.378   4
  -2   4   3 2178.75 474.857   2
  -2   4   3 2337.73 422.262   3
   2   4  -3 870.926 234.628   1
  -2   4   3 2513.17 608.774   1
  -2  -4   2 1836.55 478.069   4
  -2   4   2 2294.20 495.579   2
  -2   4   2 2831.08 458.647   3
  -2   4   2 2223.53 579.405   1
   2   4  -2 2895.55 446.679   1
  -2  -4   1 208.957 142.352   4
  -2   4   1 723.597 322.246   2
  -2   4   1 897.567 263.384   3
  -2  -4   0 1107.10 354.571   4
  -2   4   0 1013.72 325.598   2
  -2   4   0 1497.52 467.775   1
  -2   4   0 790.133 250.635   3
  -2  -4  -1 2038.47 475.633   4
  -2   4  -1 2190.66 569.355   1
  -2   4  -1 2462.01 491.901   2
  -2  -4  -1 1849.68 354.016   1
  -2   4  -1 1905.65 406.374   3
  -2  -4  -2 1836.31 455.507   4
  -2   4  -2 2079.29 582.849   1
   2   4   2 1654.26 334.250   3
  -2   4  -2 1666.73 404.262   2
  -2   4  -2 1564.31 390.673   3
  -2  -4  -3 155.000 149.915   4
  -2   4  -3 7.21209 89.1127   2
   2   4   3 121.745 133.732   3
  -2   4  -3 123.363 154.891   3
  -2   4  -3 336.223 279.890   1
  -2  -4  -4-35.0197 75.9196   4
  -2   4  -4-63.1458 59.9926   2
   2   4   4-211.297 113.414   3
  -2   4  -4-112.198 138.516   3
  -2   4  -4-6.45376 163.818   1
  -2  -4  -5 1442.42 388.106   4
  -2   4  -5 1213.09 333.838   2
   2   4   5 1708.38 304.744   3
  -2   4  -5 1297.19 383.132   3
   2  -4   5 1292.71 372.934   4
  -2   4  -5 1760.31 501.187   1
  -2  -4  -6 482.132 213.195   4
   2  -4   6 993.806 327.331   4
  -2   4  -6 845.200 280.624   2
   2   4   6 618.341 189.785   3
  -2   4  -6 1045.58 357.174   3
  -2   4  -6 1172.98 426.468   1
  -2  -4  -7 369.431 220.641   4
  -2   4  -7 621.877 219.159   2
  -2   4  -7 927.357 432.518   1
   2   4   7 104.958 86.5992   3
  -2   4  -7 343.323 236.491   3
   2  -4   7 265.790 184.877   4
   2   4   8 1095.94 215.108   3
  -2   4  -8 692.573 303.957   3
  -2  -4  -8 908.478 323.401   4
   2  -4   8 1320.36 379.243   4
  -2   4  -9 5295.35 806.610   3
   2  -4   9 4752.66 716.516   4
  -2  -4  -9 5803.46 744.872   4
  -2   4 -10 10635.9 1160.16   3
   2  -4  10 9208.36 982.310   4
  -2  -4 -10 9682.17 962.884   4
  -2  -4 -11 365.342 216.515   4
  -2   4 -11 492.758 385.347   3
   2  -4  11 390.258 269.015   4
  -2  -4 -12 726.452 249.237   4
  -2   4 -12 310.763 175.518   3
   2  -4  12 1086.37 340.743   4
  -2  -4 -13 447.966 230.253   4
  -2   4 -13 480.682 252.656   3
   2  -4  13 362.857 170.562   4
  -2  -4 -14 561.098 200.131   4
  -2   4 -14 540.559 293.529   3
   2  -4  14 853.098 292.370   4
  -2  -4 -15 159.427 55.6502   4
  -2   4 -15-45.0985 111.288   3
   2  -4  15-84.5540 160.353   4
  -2   4 -16 1974.01 584.065   3
   2  -4  16 2218.20 457.393   4
  -2   4 -17 651.884 347.785   3
   2  -4  17 1769.56 420.522   4
  -2   4 -18 525.618 318.923   3
   2  -4  18 841.985 280.956   4
  -2   4 -19 1351.16 516.708   3
   2  -4  19 746.544 280.006   4
  -2   4 -20 731.870 384.796   3
   2  -4  20 774.027 273.401   4
  -2   4 -21 828.447 408.718   3
  -2   4 -22 244.094 137.701   3
  -2   4 -23 615.925 438.566   3
  -2  -5  20-402.348 277.650   4
  -2   5  20 59.1074 160.059   2
   2   5 -20 146.710 253.813   3
  -2  -5  19 85.7664 145.571   4
  -2   5  19 190.104 308.684   2
  -2  -5  18 273.517 260.158   4
  -2   5  18 18.4623 223.845   2
   2   5 -18-101.462 79.9248   3
  -2  -5  17-16.2774 165.311   4
  -2   5  17 106.972 188.384   2
   2   5 -17-119.543 233.314   3
  -2  -5  16 13.1652 84.5462   4
  -2   5  16-52.7002 206.621   2
   2   5 -16-110.097 149.089   3
  -2  -5  15 939.518 356.059   4
  -2   5  15 1600.92 498.158   2
   2   5 -15 2052.30 562.048   3
  -2   5  14 127.924 129.631   2
   2   5 -14 67.2924 141.793   3
  -2  -5  13 3434.82 763.289   4
  -2   5  13 3534.60 729.418   2
   2   5 -13 3408.62 599.715   1
   2   5 -13 3449.63 735.795   3
  -2  -5  12 268.913 158.192   4
  -2   5  12-59.7206 95.1761   2
   2   5 -12 54.7205 106.500   1
  -2  -5  11 99.5622 187.363   4
  -2   5  11-126.273 129.554   1
   2   5 -11 331.889 186.445   1
  -2  -5  10-42.0610 151.524   4
  -2   5  10 168.554 192.924   2
  -2   5  10-22.6028 219.475   1
   2   5 -10 73.0421 97.6268   1
  -2  -5   9 1703.27 508.201   4
  -2   5   9 1794.97 506.959   2
   2   5  -9 1492.48 350.431   1
  -2   5   9 2284.31 660.860   1
  -2  -5   8-26.6692 186.967   4
  -2   5   8 148.877 140.102   2
   2   5  -8 11.3251 91.8396   1
  -2  -5   7 255.090 189.448   4
   2   5  -7 112.658 92.8981   1
  -2   5   7 401.611 286.861   2
  -2   5   7 140.149 211.801   1
  -2  -5   6-10.1721 156.527   4
  -2   5   6 232.822 230.115   2
   2   5  -6 334.016 163.054   1
  -2   5   6 289.153 178.814   1
  -2  -5   5 3304.03 706.576   4
  -2   5   5 3478.81 666.030   2
  -2   5   5 3147.44 746.979   1
   2   5  -5 2776.41 468.554   1
  -2  -5   4 1279.98 419.297   4
  -2   5   4 2453.15 667.623   1
  -2   5   4 1666.36 481.173   2
  -2   5   4 2088.60 387.429   3
   2   5  -4 1252.22 312.289   1
  -2  -5   3 144.396 143.598   4
  -2   5   3 216.113 178.607   2
  -2   5   3 190.637 143.038   3
   2   5  -3 18.1296 52.5604   1
  -2   5   3 106.266 119.502   1
  -2  -5   2 134.204 162.838   4
  -2   5   2 101.257 150.458   2
  -2   5   2 184.694 167.959   3
   2   5  -2 92.2562 128.742   1
  -2   5   2 153.062 157.913   1
  -2  -5   1 819.861 341.514   4
  -2   5   1 333.651 169.312   2
  -2   5   1 352.660 176.443   3
  -2   5   1 363.182 312.998   1
   2   5  -1 439.960 247.553   1
  -2  -5   0 1367.29 423.953   4
  -2   5   0 1014.15 340.996   2
  -2   5   0 1258.98 327.000   3
  -2   5   0 1669.56 558.167   1
   2  -5   0 616.740 306.503   4
  -2  -5  -1 2401.15 588.094   4
  -2   5  -1 1945.48 488.406   2
  -2   5  -1 2768.57 708.201   1
  -2   5  -1 2656.34 519.593   3
   2  -5   1 2112.09 538.464   4
  -2   5  -2 720.694 418.580   1
  -2   5  -2 380.948 313.420   2
  -2   5  -2 195.890 268.115   3
   2  -5   2 331.212 251.397   4
  -2  -5  -2 274.231 309.996   4
  -2   5  -3 1700.02 519.553   1
  -2   5  -3 1786.62 443.333   3
   2  -5   3 1225.99 381.553   4
  -2  -5  -3 1950.60 505.965   4
  -2   5  -4-29.2227 156.694   1
  -2   5  -4 29.3045 152.436   3
  -2  -5  -4 147.887 153.652   4
   2  -5   4 166.569 240.279   4
  -2   5  -5 3492.87 799.095   1
  -2   5  -5 2161.19 528.075   3
   2  -5   5 2354.82 553.393   4
  -2  -5  -5 2279.49 526.073   4
  -2  -5  -6 161.335 120.484   4
  -2   5  -6 160.786 213.157   3
   2  -5   6-129.656 97.6935   4
  -2   5  -6 237.698 357.113   1
  -2   5  -7 240.967 69.5157   3
   2  -5   7 31.8576 90.0537   4
  -2   5  -7 437.798 274.329   1
  -2  -5  -7 296.688 224.807   4
  -2   5  -8 92.2776 131.437   3
  -2   5  -8 179.803 232.327   1
   2  -5   8-111.866 232.302   4
  -2  -5  -8 131.483 148.230   4
  -2   5  -9 5561.05 905.136   3
  -2   5  -9 5137.78 1015.04   1
   2  -5   9 5324.70 839.123   4
  -2  -5  -9 5444.64 825.056   4
  -2   5 -10 68.5213 192.735   3
  -2   5 -10-550.872 337.934   1
   2  -5  10-118.392 188.647   4
  -2  -5 -10-156.940 183.021   4
  -2   5 -11 145.368 119.416   1
  -2   5 -11 13.5778 145.748   3
   2  -5  11 339.280 230.636   4
  -2  -5 -11 209.232 208.498   4
  -2   5 -12 229.467 256.911   3
   2  -5  12 195.478 171.444   4
  -2  -5 -12 298.621 194.211   4
  -2   5 -13 1487.93 502.675   3
   2  -5  13 1943.36 496.621   4
  -2  -5 -13 1766.53 460.507   4
  -2   5 -14 52.7289 77.5903   3
   2  -5  14-241.571 183.883   4
  -2  -5 -14 144.700 263.838   4
  -2   5 -15 265.524 273.861   3
   2  -5  15 71.4496 210.561   4
  -2   5 -16-5.20008 259.614   3
   2  -5  16 382.161 285.156   4
  -2   5 -17 396.853 322.083   3
   2  -5  17 316.620 202.491   4
  -2   5 -18 266.947 352.027   3
   2  -5  18 397.558 258.108   4
  -2   5 -19 251.458 318.825   3
   2  -5  19 166.227 151.574   4
  -2  -6  14 226.744 181.225   4
  -2   6  14 472.193 250.178   2
   2   6 -14 379.694 347.645   3
  -2  -6  13 127.629 272.677   4
  -2   6  13 756.285 381.260   2
   2   6 -13 690.940 316.374   3
  -2  -6  12-62.8892 95.4492   4
  -2   6  12 79.6401 193.052   2
   2   6 -12-134.042 244.366   3
  -2  -6  11 127.632 143.447   4
   2   6 -11 162.566 66.8792   3
  -2   6  11 435.427 319.042   1
  -2  -6  10-31.8506 198.160   4
  -2   6  10-1.85418 240.247   2
   2  -6 -10-528.081 284.014   4
  -2   6  10-182.109 264.261   1
   2   6 -10 54.7060 133.552   3
  -2  -6   9-75.3018 177.299   4
  -2   6   9 132.859 226.217   1
  -2   6   9-99.2199 210.931   2
   2  -6  -9 217.849 226.127   4
   2   6  -9 209.030 188.522   3
  -2  -6   8 273.599 195.682   4
  -2   6   8 666.408 296.348   2
  -2   6   8 597.974 422.403   1
   2  -6  -8 263.855 268.693   4
   2   6  -8 823.178 312.626   3
  -2  -6   7 847.312 373.356   4
  -2   6   7 910.799 453.090   1
   2  -6  -7 427.486 247.679   4
   2   6  -7 48.6006 88.6321   3
  -2  -6   6 213.458 333.245   4
  -2   6   6-310.866 274.957   1
   2  -6  -6-65.0160 135.646   4
   2   6  -6-6.34465 155.302   3
  -2  -6   5 592.269 345.493   4
  -2   6   5 754.810 488.066   1
   2  -6  -5 613.461 341.332   4
   2   6  -5 698.182 297.486   3
  -2  -6   4 903.616 373.290   4
  -2   6   4 380.171 358.581   1
   2  -6  -4 366.580 182.234   4
   2   6  -4 826.188 334.467   3
  -2  -6   3 1943.24 575.320   4
  -2   6   3 3082.68 835.839   1
   2   6  -3 1937.66 561.612   1
   2  -6  -3 2140.78 562.336   4
   2   6  -2 5749.62 789.932   1
   2  -6  -2 5303.90 920.583   4
  -2  -6   2 6059.42 979.262   4
  -2   6   2 6297.35 1181.30   1
  -2  -6   1 59.1521 98.9233   4
   2  -6  -1 245.297 446.574   4
  -2  -6   0 54.3353 137.304   4
   2  -6   0 257.177 74.1296   4
  -2  -6  -1 67.6514 171.970   4
  -2   6  -1 117.112 169.099   3
  -2   6  -1-185.897 231.817   1
   2  -6   1 211.001 218.030   4
  -2   6  -2 113.984 138.412   3
  -2   6  -2-113.653 244.637   1
   2  -6   2-43.7786 83.5060   4
  -2  -6  -2 133.675 103.651   4
  -2   6  -3 1079.23 509.129   1
  -2   6  -3 1222.20 377.588   3
   2  -6   3 1215.92 446.962   4
  -2  -6  -3 1323.19 443.754   4
   2  -6   4-33.3736 74.5859   4
  -2  -6  -4 95.4580 145.501   4
  -2   6  -5 169.115 168.208   1
  -2   6  -5 68.0846 89.4099   3
   2  -6   5-51.1078 144.678   4
  -2  -6  -5-53.9332 119.725   4
  -2   6  -6 239.783 153.388   1
  -2   6  -6 228.465 297.536   3
   2  -6   6 236.437 163.299   4
  -2  -6  -6 278.492 313.240   4
  -2   6  -7 247.496 280.698   3
   2  -6   7 74.3010 132.954   4
  -2  -6  -7-96.6564 126.378   4
  -2   6  -8-129.516 349.073   1
  -2   6  -8 271.224 195.583   3
   2  -6   8 0.89444 140.139   4
  -2  -6  -8-273.903 230.907   4
  -2   6  -9 107.236 89.7556   3
   2  -6   9 67.2857 156.015   4
  -2  -6  -9 444.904 287.803   4
  -2   6  -9 639.096 431.520   1
  -2   6 -10 907.619 387.361   3
   2  -6  10 482.126 313.422   4
  -2   6 -10 926.250 403.474   1
  -2  -6 -10 819.641 362.185   4
  -2   6 -11 480.014 227.981   3
  -2   6 -11 974.113 452.690   1
   2  -6  11 588.507 259.303   4
  -2  -6 -11 938.773 376.828   4
  -2   6 -12 188.233 231.492   3
  -2   6 -12 358.523 176.768   1
   2  -6  12 481.634 347.816   4
  -2  -6 -12 663.069 356.234   4
  -2   6 -13 733.957 485.803   3
  -3   0  28 109.693 189.939   2
  -3   0  27 102.518 105.490   2
  -3   0  26 97.1106 127.829   2
  -3   0  25 949.534 356.643   2
  -3   0  24-70.1427 178.255   2
  -3   0  23 169.659 163.062   2
  -3   0  22 96.9840 168.497   2
  -3   0  21 47.4771 180.273   2
  -3   0  20-23.9996 129.399   2
  -3   0  19 2373.19 501.246   2
  -3   0  18 40.8910 131.710   2
  -3   0  17 131.465 152.230   2
  -3   0  16 14.6557 80.2650   2
  -3   0  15 905.121 299.956   2
   3   0 -15 1189.04 328.459   1
  -3   0  14 5.87413 92.0280   2
   3   0 -14 43.3685 105.455   1
  -3   0  13 1897.58 408.602   2
   3   0 -13 1846.57 348.398   1
  -3   0  12-51.6473 110.937   2
   3   0 -12-36.2010 65.2676   1
   3   0 -11 7774.34 625.414   1
  -3   0  11 7231.44 773.264   2
  -3   0  10-52.6512 73.8992   2
   3   0 -10-4.25532 54.9138   1
  -3   0   9 464.922 197.914   2
   3   0  -9 290.686 124.331   1
  -3   0   8 47.9149 82.1965   2
  -3   0   7 257.496 146.773   2
  -3   0   6 77.8706 112.984   2
  -3   0   5 173.205 78.0768   1
  -3   0   5-59.2184 113.057   2
  -3   0   4-40.6328 38.1471   1
  -3   0   4 47.0231 90.6355   2
  -3   0   3 2920.63 314.694   1
  -3   0   3 3772.86 506.952   2
  -3   0   2-20.3472 56.2486   1
  -3   0   2 49.9182 93.1107   2
  -3   0   1 6851.02 522.840   1
  -3   0   1 6770.58 659.765   2
  -3   0   0 157.167 118.906   2
  -3   0  -1 9416.64 766.134   2
  -3   0  -2 41.5204 104.343   3
  -3   0  -2-58.4100 113.762   2
  -3   0  -3 117.472 124.082   2
  -3   0  -3-29.9486 78.8395   3
   3   0   4 63.1825 136.828   4
  -3   0  -4 19.6683 121.604   2
  -3   0  -4-153.157 66.9919   3
  -3   0  -5 3062.71 554.598   3
   3   0   5 3916.67 467.825   4
  -3   0  -5 3115.12 422.226   2
   3   0   6-90.5302 55.9417   4
  -3   0  -6 127.576 87.3468   2
  -3   0  -6-27.8949 91.0870   3
   3   0   7 1810.44 292.842   4
  -3   0  -7 1326.45 382.138   3
  -3   0  -7 2107.39 339.643   2
   3   0   8-263.549 116.995   4
  -3   0  -8 174.936 125.107   2
  -3   0  -8-60.2235 124.785   3
  -3   0  -9 7842.88 913.169   3
   3   0   9 7008.32 569.934   4
  -3   0  -9 7645.15 627.669   2
   3   0  10 7.65615 94.4336   4
  -3   0 -10 58.6922 76.3163   2
   3   0  11 785.307 193.954   4
  -3   0 -11 578.661 168.493   2
  -3   0 -11 1135.16 379.119   3
   3   0  12-44.9105 69.3414   4
  -3   0 -12 13.8103 32.4501   2
  -3   0 -12-27.5656 111.846   3
   3   0  13 208.092 91.4106   4
  -3   0 -13 239.419 100.512   2
  -3   0 -13 307.398 207.079   3
   3   0  14-147.301 62.0024   4
  -3   0 -14 38.0271 48.5203   2
  -3   0 -14-3.18475 60.0677   3
  -3   0 -15 125.751 55.4567   2
  -3   0 -15-6.55022 186.581   3
   3   0  15 159.021 47.5564   4
   3   0  15 84.6967 44.6972   4
  -3   0 -16 62.0290 55.2449   2
  -3   0 -16-103.361 125.959   3
  -3   0 -17 1404.27 405.171   3
  -3   0 -18-87.7769 166.905   3
  -3   0 -19 2487.74 585.175   3
  -3   0 -20 19.5064 84.7874   3
  -3   0 -21 633.490 306.005   3
  -3   0 -22-34.9956 165.873   3
  -3   0 -23 3311.60 718.667   3
  -3   0 -24-84.5687 125.055   3
  -3   0 -25 210.275 124.548   3
  -3   0 -26 15.5613 119.287   3
  -3  -1  28-43.3495 168.814   2
  -3   1  28 221.821 254.924   2
  -3  -1  27-92.2270 157.766   2
  -3   1  27 73.5165 108.789   2
  -3  -1  26-301.291 204.513   2
  -3   1  26-101.953 202.584   2
  -3  -1  25 825.638 349.568   2
  -3   1  25 589.178 315.140   2
  -3  -1  24 2518.23 568.112   2
  -3   1  24 2698.50 587.496   2
  -3  -1  23-59.1146 159.078   2
  -3   1  23-151.087 177.252   2
  -3  -1  22 1783.36 447.791   2
  -3   1  22 1820.79 487.998   2
  -3  -1  21 960.483 327.202   2
  -3   1  21 1205.25 377.437   2
  -3  -1  20-11.7450 168.291   2
  -3   1  20-7.47478 83.6874   2
  -3  -1  19 110.023 221.219   2
  -3   1  19-117.040 64.0492   2
  -3  -1  18-54.9026 119.717   2
  -3   1  18 286.384 178.117   2
  -3  -1  17 105.363 158.757   2
  -3   1  17 291.757 207.304   2
   3   1 -16 705.134 215.423   1
  -3  -1  16 381.667 184.931   2
  -3   1  16 434.928 181.968   2
  -3  -1  15 72.6072 51.4291   2
  -3   1  15 185.211 172.991   2
   3   1 -15 106.357 43.7528   1
  -3  -1  14-112.370 138.170   2
   3   1 -14-39.0258 86.2402   1
  -3   1  14-99.0064 164.568   2
   3   1 -13-24.6363 50.8179   1
  -3  -1  13 92.7178 149.495   2
  -3   1  13 139.337 142.563   2
  -3  -1  12 1113.39 313.461   2
  -3   1  12 1412.71 340.919   2
   3   1 -12 1491.52 238.087   1
  -3  -1  11 112.851 127.316   2
   3   1 -11 11.0249 53.5424   1
  -3   1  11-75.3809 79.9522   2
  -3  -1  10 198.075 174.163   2
  -3   1  10 90.2073 92.3527   2
   3   1 -10 55.3278 38.9426   1
   3  -1 -10 271.262 151.076   1
  -3  -1   9 64.9832 73.5695   2
  -3   1   9 121.199 123.316   2
   3  -1  -9 124.831 114.382   1
   3  -1  -8 3366.04 448.562   1
  -3   1   8 4014.39 487.038   1
  -3  -1   8 3893.14 554.493   2
  -3   1   8 3155.47 506.108   2
  -3   1   7 5950.67 592.176   1
  -3  -1   7 5417.90 653.278   2
  -3   1   7 5671.59 653.836   2
  -3   1   6 1878.73 377.124   2
  -3   1   6 1553.06 305.356   1
  -3   1   5-11.8624 96.8057   2
  -3   1   5 81.4502 104.668   1
  -3   1   4 1630.54 342.161   2
  -3   1   4 1075.29 255.886   1
  -3   1   3 6372.34 621.964   1
  -3   1   3 5911.26 646.182   2
  -3   1   2 5117.55 568.132   1
  -3   1   2 6222.43 659.356   2
  -3   1   1 1204.17 301.329   2
  -3  -1   1 684.874 101.844   1
  -3   1   1 1089.49 273.610   1
  -3   1   0 40.1674 76.4320   3
  -3   1   0-19.5121 68.5714   2
  -3   1   0-20.4378 52.5733   1
  -3   1  -1 3074.34 539.931   3
  -3   1  -1 3473.48 462.396   2
  -3   1  -2 633.758 295.615   3
  -3   1  -2 170.393 92.3770   2
  -3   1  -3 522.773 221.704   3
  -3   1  -3 763.609 229.805   2
   3   1   4 994.239 244.310   4
  -3   1  -4 872.990 297.324   3
  -3   1  -4 1000.80 256.686   2
   3   1   5 21.2186 72.6311   4
  -3   1  -5 18.6769 133.420   3
  -3   1  -5 23.4764 46.0040   2
   3   1   6 1152.27 244.581   4
  -3  -1  -6 1349.41 352.334   3
  -3   1  -6 595.414 246.204   3
  -3   1  -6 1053.20 236.966   2
   3   1   7 445.439 175.742   4
  -3  -1  -7 288.933 151.371   3
  -3   1  -7 201.539 114.459   3
  -3   1  -7 555.665 174.739   2
   3   1   8 530.704 162.066   4
  -3  -1  -8 538.221 219.717   3
  -3   1  -8 427.360 218.773   3
  -3   1  -8 360.801 125.429   2
  -3  -1  -9-53.6577 60.6811   3
  -3   1  -9-98.6490 163.327   3
  -3   1  -9 97.8662 110.767   2
   3   1   9 53.5938 57.9120   4
  -3  -1 -10 1200.58 350.607   3
  -3   1 -10 808.407 306.072   3
  -3   1 -10 971.237 215.966   2
   3   1  10 1209.78 223.168   4
  -3  -1 -11 6633.68 826.617   3
  -3   1 -11 7501.37 948.979   3
   3   1  11 6524.45 507.229   4
  -3   1 -11 6466.92 541.416   2
  -3  -1 -12 8743.90 953.690   3
  -3   1 -12 8580.76 1020.39   3
   3   1  12 10012.3 590.052   4
  -3   1 -12 10586.4 668.838   2
  -3  -1 -13 62.8815 106.374   3
  -3   1 -13-14.2401 114.595   3
  -3   1 -13 2.34936 53.9722   2
   3   1  13 73.0877 51.1349   4
  -3   1 -14 1621.08 237.718   2
  -3  -1 -14 1430.17 380.480   3
  -3   1 -14 1246.41 376.135   3
  -3  -1 -15 1168.82 348.843   3
  -3   1 -15 755.337 348.143   3
  -3   1 -15 1075.54 172.501   2
   3  -1  15 1024.66 184.807   4
  -3  -1 -16 145.615 177.030   3
  -3   1 -16 231.253 128.610   3
   3  -1  16 265.051 106.992   4
  -3  -1 -17-9.95612 148.937   3
  -3   1 -17 258.317 250.081   3
  -3  -1 -18 605.651 285.784   3
  -3   1 -18 623.529 286.508   3
  -3  -1 -19 1047.07 388.085   3
  -3   1 -19 756.369 353.376   3
  -3  -1 -20 1000.56 369.553   3
  -3   1 -20 605.527 298.281   3
  -3  -1 -21 605.959 279.297   3
  -3   1 -21 500.830 285.097   3
  -3  -1 -22 148.303 72.7561   3
  -3   1 -22 425.925 223.675   3
  -3  -1 -23 160.202 300.822   3
  -3   1 -23 369.181 191.227   3
  -3  -1 -24 758.366 342.531   3
  -3   1 -24 1076.44 418.021   3
  -3  -1 -25 592.536 260.452   3
  -3   1 -25 515.428 315.372   3
  -3  -2  27 708.983 320.163   2
  -3   2  27 230.702 272.535   2
  -3  -2  26-45.2645 81.4993   2
  -3   2  26-212.104 138.872   2
  -3  -2  25 175.624 141.118   2
  -3   2  25 113.377 114.276   2
  -3  -2  24-74.0919 104.507   2
  -3   2  24 136.392 108.008   2
  -3  -2  23 772.903 323.860   2
  -3   2  23 1024.36 423.954   2
  -3  -2  22 3734.75 654.825   2
  -3   2  22 3460.69 708.245   2
  -3  -2  21 1464.20 420.295   2
  -3   2  21 2437.42 578.242   2
  -3  -2  20 1313.34 397.082   2
  -3   2  20 1217.01 361.246   2
  -3  -2  19 421.707 238.710   2
  -3   2  19 366.326 193.729   2
  -3  -2  18 610.724 258.285   2
  -3   2  18 528.170 262.463   2
  -3  -2  17-38.4032 114.635   2
  -3   2  17 178.841 137.773   2
  -3  -2  16 18.1155 85.2764   2
  -3   2  16-17.9725 86.5947   2
  -3   2  15 1535.54 408.809   2
  -3  -2  15 1756.68 400.452   2
  -3   2  14 7764.91 881.693   2
  -3   2  13 702.791 280.185   2
   3   2 -13 416.459 114.545   1
   3   2 -12 1469.22 167.852   1
  -3   2  12 2714.83 505.327   2
  -3   2  11 964.976 305.839   2
  -3   2  10 24.1578 53.1618   1
  -3   2  10-34.5626 79.5188   2
  -3   2   9 642.202 245.790   2
  -3   2   9 1001.90 295.922   1
  -3   2   8 1869.86 397.365   1
  -3   2   8 2640.05 479.678   2
  -3   2   7 167.890 205.258   1
  -3   2   7 213.994 166.698   2
  -3   2   6-269.923 158.845   1
  -3   2   6 31.3601 44.7334   2
  -3   2   5 51.9342 100.371   2
  -3   2   5-0.93838 118.222   1
  -3  -2   4 3006.06 533.421   4
  -3   2   4 2290.53 449.226   1
  -3   2   4 2787.87 465.153   2
  -3  -2   3 296.796 205.739   4
  -3   2   3 382.703 204.696   1
  -3   2   3 549.498 238.155   2
  -3  -2   2 810.440 281.669   4
  -3   2   2 640.405 244.389   3
  -3   2   2 1141.78 334.278   1
  -3   2   2 961.192 255.701   2
  -3   2   1 118.154 99.1113   1
  -3  -2   1 297.607 175.771   4
  -3   2   1 555.995 226.597   3
  -3   2   1 216.586 131.367   2
  -3  -2   0 238.433 161.477   4
  -3  -2   0 210.413 55.4755   1
  -3   2   0 396.327 157.681   3
  -3   2   0 487.328 191.449   2
  -3   2   0 115.780 131.532   1
  -3  -2  -1 583.713 118.653   1
  -3  -2  -1 810.759 253.939   4
  -3   2  -1 701.825 236.792   3
  -3   2  -1 697.711 246.036   2
  -3   2  -1 675.902 261.882   1
  -3   2  -2 5580.71 756.560   3
  -3   2  -2 7084.36 833.459   1
  -3  -2  -2 6367.92 447.832   1
  -3   2  -2 6236.68 666.075   2
  -3   2  -3 2029.05 518.669   3
  -3   2  -3 1183.73 339.431   2
  -3   2  -4 4610.66 572.084   2
  -3   2  -4 3785.03 634.800   3
  -3   2  -5 968.085 386.115   3
  -3   2  -5 468.224 231.085   2
  -3   2  -6 817.999 290.641   3
  -3   2  -6 1182.26 279.509   2
  -3   2  -7 1872.89 472.966   3
  -3   2  -7 2420.57 398.700   2
  -3   2  -8 5592.47 599.007   2
  -3   2  -8 4967.18 794.920   3
   3   2   8 5773.75 596.407   4
  -3   2  -9 2270.76 379.356   2
  -3   2  -9 2278.40 565.658   3
   3   2   9 1802.25 318.164   4
  -3   2 -10 460.547 243.422   3
  -3   2 -10 477.918 190.032   2
   3   2  10 477.383 186.111   4
  -3  -2 -11 199.672 183.167   3
  -3   2 -11 255.819 205.193   3
  -3   2 -11 436.414 152.728   2
   3   2  11 320.482 125.946   4
  -3  -2 -12 699.890 251.523   3
  -3   2 -12 737.188 307.330   3
   3   2  12 801.817 202.963   4
  -3   2 -12 654.264 191.342   2
  -3   2 -13 2146.48 317.310   2
  -3  -2 -13 2066.36 453.234   3
  -3   2 -13 2050.47 522.243   3
  -3   2 -14 4621.88 429.007   2
  -3  -2 -14 4190.88 622.353   3
  -3   2 -14 3887.64 726.755   3
   3  -2  14 4259.33 508.634   4
  -3  -2 -15 93.2518 163.220   3
  -3   2 -15 179.942 160.575   3
   3  -2  15-42.0444 92.9087   4
  -3  -2 -16 659.526 267.910   3
  -3   2 -16 511.513 267.831   3
   3  -2  16 978.550 232.612   4
  -3  -2 -17 118.505 87.4257   3
  -3   2 -17 351.243 248.181   3
  -3  -2 -18 2102.47 473.101   3
  -3   2 -18 2171.22 594.252   3
  -3  -2 -19 84.6798 88.3376   3
  -3   2 -19 171.731 148.872   3
  -3  -2 -20 913.689 320.004   3
  -3   2 -20 1054.22 436.745   3
  -3  -2 -21 290.724 187.676   3
  -3   2 -21-592.020 335.278   3
  -3  -2 -22 3518.25 652.242   3
  -3   2 -22 3204.24 795.561   3
  -3  -2 -23 77.0745 122.848   3
  -3   2 -23 228.968 209.835   3
  -3   2 -24 2041.75 659.436   3
  -3  -3  25 623.523 236.850   2
  -3   3  25 321.354 252.960   2
  -3  -3  24 1052.95 371.159   2
  -3   3  24 840.296 272.172   2
  -3  -3  23-55.4314 104.450   2
  -3   3  23-123.134 87.3368   2
  -3  -3  22 106.330 114.754   2
  -3   3  22 149.873 265.778   2
  -3  -3  21 560.740 248.631   2
  -3   3  21 796.444 346.583   2
  -3   3  20-350.354 232.573   2
  -3  -3  20 139.976 197.615   2
  -3   3  19 1713.10 513.259   2
  -3   3  18 740.653 371.456   2
  -3   3  17 1790.72 469.433   2
  -3  -3  16 364.869 283.540   4
  -3   3  16 558.455 312.828   2
  -3  -3  15 1924.57 527.443   4
  -3   3  15 1729.32 453.530   2
  -3  -3  14 972.498 374.473   4
  -3   3  14 1350.29 406.632   2
  -3   3  13 3122.99 605.482   2
  -3  -3  13 4229.36 813.063   4
  -3  -3  12 655.290 339.107   4
  -3   3  12 473.486 251.828   2
  -3  -3  11 269.572 134.658   4
  -3   3  11 92.8916 70.1329   2
  -3   3  11 169.238 81.7240   1
  -3  -3  10-99.8391 137.331   4
  -3   3  10 41.5799 101.430   2
  -3   3  10 83.8468 206.562   1
  -3  -3   9 1105.49 368.801   4
  -3   3   9 824.737 311.294   1
  -3   3   9 499.401 268.972   2
  -3  -3   8 1320.23 447.976   4
  -3   3   8 588.436 313.486   1
  -3   3   8 942.120 318.506   2
  -3  -3   7 547.900 264.791   4
  -3   3   7 1264.59 389.280   1
  -3   3   7 1552.33 418.915   2
  -3   3   6 68.6735 144.534   1
  -3  -3   6 4.68167 143.503   4
  -3   3   6 84.3781 120.710   2
  -3  -3   5 244.928 224.753   4
  -3   3   5 487.594 208.576   2
  -3   3   5 635.067 347.103   1
  -3  -3   4 626.282 335.198   4
  -3   3   4 621.238 263.683   1
  -3   3   4 222.306 213.772   2
  -3   3   3 4209.69 640.193   2
  -3   3   3 3207.34 560.372   3
  -3   3   3 3719.39 671.653   1
  -3  -3   3 3865.81 682.093   4
  -3  -3   2 2425.55 555.471   4
  -3   3   2 2239.27 471.484   3
  -3   3   2 2485.41 568.583   1
  -3   3   2 1960.91 457.218   2
  -3   3   1 3532.68 574.740   2
  -3   3   1 2974.52 541.188   3
  -3   3   1 4019.82 710.002   1
  -3  -3   1 4606.15 715.409   4
  -3   3   0 2577.50 608.862   1
  -3  -3   0 2000.69 464.899   4
  -3   3   0 2159.29 468.101   3
  -3   3   0 2613.55 513.603   2
  -3  -3  -1 2588.16 519.305   4
  -3   3  -1 2920.13 547.518   3
  -3  -3  -1 2961.96 317.866   1
  -3   3  -1 2712.18 503.608   2
  -3   3  -1 2235.93 542.961   1
  -3  -3  -2 281.356 184.986   4
  -3  -3  -2 797.708 174.780   1
  -3   3  -2 951.777 352.725   3
  -3   3  -2 1080.59 319.428   2
  -3   3  -3 4924.95 669.222   2
  -3   3  -3 4371.44 707.401   3
  -3   3  -3 4759.23 788.737   1
  -3  -3  -3 6216.42 526.533   1
  -3  -3  -3 6159.02 781.898   4
  -3   3  -4 4603.62 645.781   2
  -3   3  -4 3730.09 677.058   3
  -3  -3  -4 3196.85 398.476   1
  -3   3  -4 3965.15 755.367   1
  -3  -3  -4 4348.03 655.895   4
  -3   3  -5 9454.59 911.713   2
  -3   3  -5 7953.01 1002.14   3
  -3  -3  -5 9119.68 728.736   1
  -3  -3  -5 10326.1 977.042   4
  -3   3  -6 3100.49 534.700   2
  -3  -3  -6 2601.29 499.997   4
  -3   3  -6 3082.95 644.978   3
  -3  -3  -6 2069.90 373.945   1
  -3  -3  -7-28.6312 130.765   4
  -3   3  -7 439.977 312.398   3
  -3   3  -7 162.204 148.516   2
  -3  -3  -8 182.737 154.264   4
  -3   3  -8 435.810 248.276   3
  -3   3  -8 201.136 123.377   2
  -3   3  -9 483.587 207.332   2
  -3  -3  -9 1158.03 310.536   4
  -3   3  -9 881.835 413.163   3
  -3   3 -10 61.6714 69.6010   2
  -3  -3 -10 38.6717 122.646   4
  -3   3 -10 226.391 193.848   3
  -3   3 -11 683.034 224.942   2
  -3  -3 -11 1083.28 317.211   4
  -3   3 -11 241.184 191.681   3
  -3  -3 -12 249.339 154.748   4
  -3   3 -12 321.287 173.114   2
  -3   3 -12 269.433 204.482   3
   3  -3  12 92.9747 71.1158   4
  -3  -3 -13 1642.40 327.418   4
  -3   3 -13 816.616 220.055   2
  -3   3 -13 815.474 376.708   3
   3  -3  13 1322.13 354.248   4
  -3   3 -14-50.7284 203.368   3
   3  -3  14 368.524 162.805   4
  -3   3 -15 2914.71 680.411   3
   3  -3  15 2590.37 455.478   4
  -3   3 -16-100.896 209.947   3
   3  -3  16 281.180 146.201   4
  -3   3 -17 1698.02 533.596   3
   3  -3  17 2146.28 415.732   4
  -3   3 -18 1192.74 473.773   3
  -3   3 -19 1061.95 481.860   3
  -3   3 -20 63.5709 212.545   3
  -3   3 -21 514.002 338.528   3
  -3   3 -22 48.1579 174.656   3
  -3   4  22-342.174 257.348   2
  -3   4  21 45.1214 266.930   2
  -3  -4  20 206.648 193.295   4
  -3   4  20 192.337 168.548   2
  -3  -4  19-101.376 260.696   4
  -3   4  19 138.806 145.263   2
  -3  -4  18-58.8936 195.900   4
  -3   4  18 283.162 217.723   2
  -3  -4  17 758.868 359.159   4
  -3   4  17 681.002 341.484   2
  -3  -4  16-171.664 214.611   4
  -3   4  16 122.415 149.519   2
  -3  -4  15 164.687 139.957   4
  -3   4  15 351.392 227.670   2
  -3  -4  14 1125.56 444.025   4
  -3   4  14 1201.87 442.006   2
  -3  -4  13 595.988 289.562   4
  -3   4  13 842.014 345.894   2
  -3  -4  12-31.1862 165.660   4
  -3   4  12-137.683 171.238   1
  -3   4  12-20.5785 178.352   2
  -3  -4  11 298.167 206.198   4
  -3   4  11 142.525 124.269   1
  -3   4  11 26.6720 117.514   2
  -3  -4  10 2660.99 640.956   4
  -3   4  10 1737.39 515.881   1
  -3   4  10 1891.38 495.189   2
  -3   4   9 3010.81 677.231   1
  -3  -4   9 2993.82 781.171   4
  -3   4   9 2532.67 592.003   2
  -3  -4   8 98.9274 187.900   4
  -3   4   8 195.090 279.926   1
  -3   4   8 227.091 259.400   2
  -3  -4   7 914.725 355.877   4
  -3   4   7 1200.18 463.915   1
  -3   4   7 1138.61 399.922   2
  -3  -4   6-1.56752 70.0385   4
  -3   4   6-2.51032 166.665   1
  -3   4   6 4.05410 94.0208   2
  -3  -4   5-6.14512 176.760   4
  -3   4   5 31.7315 74.3743   1
  -3   4   5 20.7698 95.8532   2
  -3  -4   4 638.174 286.006   4
  -3   4   4 451.301 274.981   1
  -3   4   4 869.311 347.637   2
  -3  -4   3 500.635 279.729   4
  -3   4   3 1051.24 353.391   3
  -3   4   3 635.670 366.535   1
  -3   4   3 598.636 298.480   2
  -3  -4   2 512.302 284.308   4
  -3   4   2 182.192 106.002   3
  -3   4   2 306.312 182.458   1
  -3   4   2 242.939 210.386   2
  -3  -4   1 2019.37 516.726   4
  -3   4   1 824.175 299.713   3
  -3   4   1 1522.09 480.593   1
  -3   4   1 1026.63 335.819   2
  -3  -4   0 2259.85 541.836   4
  -3   4   0 1951.17 557.247   1
  -3   4   0 2161.15 476.694   3
  -3   4   0 1567.86 474.833   2
  -3   4  -1 516.203 242.333   2
  -3  -4  -1 220.445 193.348   4
  -3   4  -1 567.239 334.065   1
  -3   4  -1 567.402 257.803   3
  -3   4  -2 698.170 221.484   2
  -3   4  -2 475.476 221.611   1
  -3  -4  -2 208.255 114.384   4
  -3   4  -2 213.976 149.816   3
  -3   4  -3 390.429 223.565   2
  -3  -4  -3 109.354 124.148   4
  -3   4  -3 272.025 228.373   3
  -3   4  -3 482.329 326.308   1
  -3   4  -4 4735.71 734.057   2
  -3   4  -4 3552.79 690.235   3
  -3  -4  -4 4634.45 764.640   4
  -3   4  -4 3000.80 708.560   1
  -3   4  -5 4805.98 718.160   2
  -3   4  -5 4555.74 812.247   3
  -3   4  -5 5107.87 929.900   1
  -3  -4  -5 5033.62 772.903   4
  -3  -4  -6 175.108 125.264   4
  -3   4  -6 999.228 383.864   2
  -3   4  -6 619.598 460.036   3
  -3   4  -6 731.641 403.416   1
  -3  -4  -7 3038.81 599.430   4
  -3   4  -7 2254.76 491.520   2
  -3   4  -7 1988.34 559.708   3
  -3   4  -7 2912.48 717.251   1
  -3  -4  -8 3324.08 649.986   4
  -3   4  -8 2404.79 500.357   2
  -3   4  -8 2625.44 692.565   1
  -3   4  -8 2080.75 587.998   3
  -3  -4  -9 954.025 342.219   4
  -3   4  -9 1362.55 360.423   2
  -3   4  -9 313.211 272.787   3
   3  -4   9 946.306 317.478   4
  -3  -4 -10 176.354 72.2970   4
  -3   4 -10 110.869 122.834   2
  -3   4 -10 256.152 164.754   3
   3  -4  10 133.669 175.163   4
  -3  -4 -11 343.328 158.979   4
  -3   4 -11 271.005 159.188   2
  -3   4 -11-79.3634 230.092   3
   3  -4  11 236.200 151.057   4
  -3  -4 -12 25.6539 69.7334   4
   3  -4  12 54.2328 112.031   4
  -3   4 -13-95.8012 245.339   3
   3  -4  13 5.24491 130.866   4
  -3   4 -14 108.731 189.543   3
   3  -4  14 80.5711 141.769   4
  -3   4 -15 329.556 285.843   3
   3  -4  15-10.1558 143.563   4
  -3   4 -16 485.384 339.817   3
   3  -4  16 282.447 190.459   4
  -3   4 -17 1792.69 577.470   3
   3  -4  17 1878.80 438.899   4
  -3   4 -18-78.1351 400.104   3
  -3   4 -19 10.4521 117.848   3
  -3   5  17-58.0370 152.820   2
  -3  -5  17-106.569 268.065   4
  -3   5  16 304.314 244.303   2
  -3  -5  16 201.585 273.215   4
  -3   5  15 367.157 232.718   2
  -3  -5  15-214.001 219.916   4
  -3   5  14 172.272 167.154   2
  -3  -5  14-93.2666 223.925   4
  -3   5  13 253.803 251.614   2
  -3  -5  13 253.842 250.996   4
  -3   5  12 135.789 265.431   2
  -3  -5  12 312.903 306.491   4
  -3   5  12 374.695 292.854   1
  -3   5  11 115.698 249.360   2
  -3  -5  11-90.8463 186.809   4
  -3   5  11 559.704 310.163   1
  -3   5  10-30.6939 168.485   2
  -3  -5  10 178.972 173.516   4
  -3   5  10 509.597 342.707   1
  -3   5   9-404.861 255.971   2
  -3  -5   9 165.823 233.213   4
  -3   5   9-13.9387 182.836   1
  -3   5   8 465.581 231.545   2
  -3  -5   8 329.422 189.909   4
  -3   5   8 892.797 428.052   1
  -3  -5   7 10.1891 148.288   4
  -3   5   7 219.854 158.034   2
  -3   5   7 220.582 286.720   1
  -3  -5   6 1454.76 486.512   4
  -3   5   6 1593.74 474.735   2
  -3   5   6 2114.87 641.370   1
  -3  -5   5-12.5229 124.662   4
  -3   5   5 429.785 264.828   2
  -3   5   5 443.474 335.068   1
  -3  -5   4 3267.32 736.497   4
  -3   5   4 2498.17 631.966   2
  -3   5   4 1574.85 518.733   1
  -3  -5   3 128.404 180.964   4
  -3   5   3 626.628 353.387   2
  -3   5   3 419.012 249.478   3
  -3   5   3 338.015 365.581   1
  -3  -5   2 1136.70 436.098   4
  -3   5   2 1509.27 472.013   2
  -3   5   2 869.678 335.711   3
  -3   5   2 1448.90 523.162   1
  -3  -5   1 165.464 198.284   4
  -3   5   1 236.122 292.258   2
  -3   5   1 614.534 264.153   3
  -3   5   1 600.538 433.346   1
  -3  -5   0 599.108 292.823   4
  -3   5   0 803.151 388.803   2
  -3   5   0 696.948 293.969   3
  -3   5   0 323.344 238.578   1
  -3  -5  -1 273.266 181.361   4
  -3   5  -1 392.758 201.245   2
  -3   5  -1 233.634 203.107   1
  -3   5  -1 294.904 141.848   3
  -3  -5  -2 1309.89 471.359   4
  -3   5  -2 1589.00 490.737   2
  -3   5  -2 1277.52 516.034   1
  -3   5  -2 1221.21 371.801   3
  -3  -5  -3 19.5761 161.933   4
  -3   5  -3 435.142 252.467   1
  -3   5  -3 33.6770 141.379   2
  -3   5  -3 508.553 307.973   3
  -3  -5  -4 555.814 337.177   4
  -3   5  -4 102.061 253.712   1
  -3   5  -4 409.869 315.863   2
  -3   5  -4 246.254 225.468   3
  -3   5  -5-179.338 300.669   1
  -3  -5  -5 77.8563 92.8918   4
  -3   5  -5-517.225 264.808   2
  -3   5  -5 201.647 264.551   3
   3  -5   5-8.32041 90.7180   4
  -3  -5  -6 1039.07 379.835   4
  -3   5  -6 2127.90 512.954   2
  -3   5  -6 1115.11 444.095   3
   3  -5   6 1225.60 415.188   4
  -3   5  -6 834.536 440.781   1
  -3  -5  -7 54.4574 95.1253   4
  -3   5  -7-135.574 115.298   2
  -3   5  -7 587.895 335.476   3
   3  -5   7 363.188 318.140   4
  -3   5  -7 27.1004 433.960   1
  -3  -5  -8 607.124 320.531   4
  -3   5  -8-29.2375 249.476   3
   3  -5   8 492.014 235.914   4
  -3   5  -8-195.496 152.769   1
  -3  -5  -9 35.5196 135.322   4
  -3   5  -9-186.732 282.859   3
  -3   5  -9-336.947 280.793   1
   3  -5   9 3.78232 88.1697   4
  -3  -5 -10-3.03329 104.510   4
  -3   5 -10 119.308 122.057   3
  -3   5 -10-77.4774 179.546   1
   3  -5  10 324.332 263.819   4
  -3  -5 -11 300.923 263.811   4
  -3   5 -11 392.770 270.480   3
  -3   5 -11 354.093 415.936   1
   3  -5  11 323.245 216.536   4
  -3   5 -12 1621.61 547.758   3
  -3   5 -12 2082.50 689.169   1
   3  -5  12 2134.30 534.923   4
  -3   5 -13-76.3853 197.501   1
  -3   5 -13 452.289 352.080   3
   3  -5  13 119.524 297.786   4
  -3   5 -14 896.063 414.476   3
   3  -5  14 707.540 283.602   4
  -3   5 -15 22.7917 101.629   3
  -3  -6   8 350.593 266.561   4
  -3   6   8 928.123 394.773   2
  -3   6   8 711.422 484.445   1
  -3  -6   7 537.182 377.858   4
  -3   6   7 241.896 176.761   2
  -3   6   7 1042.50 533.762   1
  -3  -6   6 19.9853 162.426   4
  -3   6   6 199.968 206.212   2
  -3   6   6 141.094 463.555   1
  -3   6   5-176.972 266.733   2
  -3   6   5-67.1056 135.644   1
  -3  -6   4 945.434 521.095   4
  -3   6   4 1194.59 545.968   1
  -3   6   4 901.330 416.229   2
  -3   6   3 350.137 239.610   1
  -3  -6   3 133.077 137.032   4
  -3   6   3 723.871 371.588   2
  -3  -6   2 49.2697 120.852   4
  -3   6   2 280.258 331.390   2
  -3   6   2 99.6506 138.407   1
  -3  -6   1 342.813 259.296   4
  -3   6   1 60.6015 108.933   2
   3  -6  -1 172.661 119.547   4
  -3   6   1 48.5162 199.229   1
  -3  -6   0 556.653 375.448   4
  -3   6   0 5.02575 68.5520   3
  -3   6   0 335.387 297.537   2
  -3   6   0 365.649 298.351   1
   3  -6   0 31.7867 115.685   4
  -3  -6  -1 313.203 265.841   4
  -3   6  -1 43.5532 127.810   3
  -3   6  -1 28.4111 92.7673   2
  -3   6  -1-333.104 399.891   1
   3  -6   1 214.496 210.796   4
  -3  -6  -2-555.283 320.703   4
  -3   6  -2 141.434 304.453   3
  -3   6  -2 29.9575 116.238   2
  -3   6  -2 426.292 375.750   1
   3  -6   2 82.5517 115.542   4
  -3  -6  -3 247.535 216.632   4
  -3   6  -3 46.2811 209.841   3
  -3   6  -3 215.081 347.583   1
   3  -6   3 232.695 177.679   4
  -3  -6  -4 938.059 423.712   4
  -3   6  -4 189.212 180.351   1
  -3   6  -4 1002.65 404.014   3
   3  -6   4 425.934 294.088   4
  -3  -6  -5 1427.98 500.716   4
  -3   6  -5 559.957 388.701   1
  -3   6  -5 1508.14 557.982   3
   3  -6   5 396.483 262.806   4
  -4   0  25-61.9730 240.632   2
  -4   0  24-136.134 170.577   2
  -4   0  23-86.5802 97.8294   2
  -4   0  22 299.114 186.996   2
  -4   0  21 69.0812 105.085   2
  -4   0  20 272.859 229.251   2
  -4   0  19-13.7699 175.140   2
  -4   0  18-45.8380 172.905   2
  -4   0  17-80.2942 147.981   2
  -4   0  16 1882.50 477.771   2
  -4   0  15 298.562 243.693   2
  -4   0  14 621.822 260.660   2
  -4   0  13 143.802 145.260   2
  -4   0  12 3235.31 600.911   2
  -4   0  11 24.5096 123.496   2
  -4   0  10-9.96862 76.9128   2
  -4   0   9-173.790 149.778   2
  -4   0   8 1232.30 380.806   2
  -4   0   7 112.987 193.409   2
  -4   0   6 303.782 175.175   2
  -4   0   5 194.313 187.176   2
  -4   0   5-29.4172 49.1999   1
  -4   0   4 4497.23 415.786   1
  -4   0   4 4873.63 675.195   2
  -4   0   3-46.0940 144.990   2
  -4   0   3-15.3812 97.5729   1
  -4   0   2 348.536 175.474   2
  -4   0   2 432.297 152.527   1
  -4   0   1-5.81123 64.5052   1
  -4   0   1 349.932 208.683   2
  -4   0   0 782.254 270.203   2
  -4   0   0 574.556 174.445   1
  -4   0  -1-25.6092 88.0569   2
  -4   0  -1 16.3803 92.3087   1
  -4   0  -2-96.4634 128.031   2
  -4   0  -3 175.429 163.040   2
  -4   0  -4 2693.60 478.256   2
  -4   0  -5 251.476 257.465   3
  -4   0  -5 54.7690 139.456   2
  -4   0  -6 1259.42 336.692   2
  -4   0  -6 1787.23 512.721   3
  -4   0  -7-8.26769 137.200   2
  -4   0  -7-72.4317 163.057   3
  -4   0  -8 1708.10 362.376   2
  -4   0  -8 692.747 326.867   3
  -4   0  -9-36.5554 68.2703   2
  -4   0  -9 28.5763 196.704   3
  -4   0 -10 2933.25 667.610   3
  -4   0 -10 3407.21 496.983   2
  -4   0 -11-5.10431 63.1630   2
  -4   0 -11-19.4567 228.313   3
  -4   0 -12 403.134 155.477   2
  -4   0 -12 460.603 262.523   3
  -4   0 -13 85.8047 74.6927   2
  -4   0 -13 48.1885 132.735   3
  -4   0 -14 2419.38 619.790   3
  -4   0 -15 106.920 219.519   3
  -4   0 -16 2207.11 588.377   3
  -4   0 -17 31.2488 94.7185   3
  -4   0 -18 2155.77 608.345   3
  -4   0 -19-223.453 154.068   3
  -4   0 -20 746.606 412.626   3
  -4   0 -21 312.654 341.169   3
  -4  -1  24 194.697 241.357   2
  -4   1  24 25.3717 71.2875   2
  -4  -1  23-115.077 212.196   2
  -4   1  23-104.295 187.754   2
  -4  -1  22 159.452 185.911   2
  -4   1  22-16.3978 107.031   2
  -4  -1  21-80.0999 187.854   2
  -4   1  21 421.862 265.846   2
  -4  -1  20-200.480 173.460   2
  -4   1  20 185.000 224.252   2
  -4  -1  19 74.0971 93.8291   2
  -4   1  19 153.053 149.567   2
  -4  -1  18 278.333 181.718   2
  -4   1  18 436.516 252.584   2
  -4  -1  17-93.8999 104.204   2
  -4   1  17 23.8916 111.153   2
  -4  -1  16 242.087 219.239   2
  -4   1  16 368.102 251.405   2
  -4  -1  15 374.732 246.225   2
  -4   1  15 712.226 293.508   2
  -4  -1  14-66.6474 143.380   2
  -4   1  14-30.4812 99.7680   2
  -4  -1  13 1484.65 402.828   2
  -4   1  13 1247.14 398.541   2
  -4  -1  12 909.121 333.822   2
  -4   1  12 968.008 354.514   2
  -4  -1  11 358.569 198.431   2
  -4   1  11 238.798 137.885   2
  -4  -1  10 29.0953 144.008   2
  -4   1  10 237.238 191.364   2
  -4  -1   9 1207.98 361.901   2
  -4   1   9 1120.40 338.729   2
  -4  -1   8 2056.34 468.078   2
  -4   1   8 1523.13 406.820   2
  -4   1   8 1762.27 342.632   1
  -4  -1   7 1112.43 339.802   2
  -4   1   7 997.028 324.452   2
  -4   1   7 499.968 191.832   1
  -4  -1   6-44.1924 136.738   2
  -4   1   6 361.052 207.466   2
  -4   1   6 281.925 135.671   1
  -4   1   5 221.220 151.339   1
  -4  -1   5 227.369 184.208   2
  -4   1   5 243.039 155.490   2
  -4  -1   4 17.5926 65.2473   2
  -4   1   4 88.2669 71.4468   2
  -4   1   4 63.6909 73.6891   1
  -4   1   3 2745.57 524.693   2
  -4   1   3 2483.98 419.478   1
  -4  -1   3 3391.46 582.582   2
  -4  -1   2-14.9241 92.2130   2
  -4   1   2 304.854 249.198   2
  -4   1   1-30.9170 63.1449   1
  -4  -1   1-132.489 133.134   2
  -4   1   1-18.3794 107.896   2
  -4  -1   1-16.0977 15.8090   1
  -4  -1   0 1330.54 355.145   2
  -4   1   0 857.597 282.160   2
  -4  -1   0 843.700 156.779   1
  -4   1   0 848.722 267.371   1
  -4  -1  -1 140.582 74.9587   2
  -4   1  -1 43.5468 61.0142   2
  -4   1  -1 289.773 202.153   1
  -4  -1  -2-133.868 124.121   2
  -4   1  -2-69.6250 116.885   2
  -4   1  -2 72.3893 140.325   1
  -4   1  -3 1117.54 410.308   3
  -4   1  -3 987.096 275.649   2
  -4  -1  -3 1349.08 359.750   2
  -4   1  -4 1438.39 443.258   3
  -4   1  -4 1657.48 383.592   2
  -4  -1  -4 1102.45 309.275   2
  -4   1  -5 2301.38 607.999   3
  -4   1  -5 1623.87 375.250   2
  -4  -1  -5 2313.92 453.846   2
  -4   1  -6 1003.68 416.674   3
  -4   1  -6 1518.78 364.064   2
  -4  -1  -6 602.076 245.394   2
  -4  -1  -7 1029.96 305.496   2
  -4   1  -7 1455.68 485.729   3
  -4   1  -7 1183.39 320.407   2
  -4  -1  -8 367.169 186.687   2
  -4   1  -8-24.9353 89.9365   3
  -4  -1  -9 2077.25 415.605   2
  -4  -1  -9 1779.46 524.241   3
  -4   1  -9 2011.08 576.706   3
  -4   1  -9 1962.28 394.530   2
  -4  -1 -10 566.796 223.017   2
  -4  -1 -10 112.994 220.184   3
  -4   1 -10 414.477 280.046   3
  -4   1 -10 704.087 244.564   2
  -4  -1 -11-123.146 140.473   2
  -4  -1 -11-142.138 254.639   3
  -4   1 -11-17.3442 123.823   3
  -4   1 -11 28.2540 74.7315   2
  -4  -1 -12 101.331 46.2878   2
  -4  -1 -12-157.903 217.243   3
  -4   1 -12 42.1948 170.066   3
  -4   1 -12-54.2250 71.1535   2
  -4  -1 -13 508.540 191.087   2
  -4  -1 -13 389.596 223.770   3
  -4   1 -13 554.976 269.988   3
  -4  -1 -14 533.331 185.170   2
  -4  -1 -14 743.670 310.466   3
  -4   1 -14 322.999 199.761   3
  -4  -1 -15 337.700 219.165   3
  -4   1 -15 32.4609 201.547   3
  -4  -1 -16 74.7468 195.641   3
  -4   1 -16-49.2683 110.002   3
  -4  -1 -17-62.3020 157.399   3
  -4   1 -17 854.968 408.964   3
  -4  -1 -18 1082.24 422.463   3
  -4   1 -18 406.592 207.682   3
  -4  -1 -19 1660.32 501.203   3
  -4   1 -19 1487.76 538.929   3
  -4  -1 -20-50.4650 203.426   3
  -4   1 -20-153.550 117.015   3
  -4  -1 -21-26.0004 104.856   3
  -4   1 -21 43.4073 145.228   3
  -4  -2  23 676.123 326.731   2
  -4   2  23 1339.37 544.787   2
  -4  -2  22 274.442 124.050   2
  -4   2  22 460.378 272.828   2
  -4  -2  21 468.599 199.193   2
  -4   2  21 161.022 87.9579   2
  -4  -2  20 77.9597 146.902   2
  -4   2  20 15.1430 111.536   2
  -4  -2  19 370.064 251.612   2
  -4   2  19 722.589 340.708   2
  -4  -2  18-57.5355 107.612   2
  -4   2  18 104.412 87.7135   2
  -4  -2  17 335.619 202.685   2
  -4   2  17-509.753 268.472   2
  -4  -2  16 336.118 212.068   2
  -4   2  16 300.475 249.435   2
  -4  -2  15 267.433 203.981   2
  -4   2  15-14.1401 86.0176   2
  -4  -2  14-145.235 231.360   2
  -4   2  14 141.062 163.171   2
  -4  -2  13 200.789 133.480   2
  -4   2  13-83.8345 162.074   2
  -4  -2  12 102.706 155.562   2
  -4   2  12-9.18783 148.587   2
  -4   2  11 687.427 309.132   2
  -4  -2  11 801.312 315.008   2
  -4   2  10 125.561 83.9162   1
  -4   2  10 0.62751 76.5923   2
  -4   2   9-44.2756 102.982   2
  -4   2   9 86.0972 77.7745   1
  -4   2   8-51.5088 85.3326   1
  -4   2   8 23.5360 53.9634   2
  -4   2   7 2376.38 507.711   2
  -4   2   7 2251.27 455.376   1
  -4   2   6 1310.05 381.966   1
  -4   2   6 909.672 326.119   2
  -4   2   5 284.479 158.670   2
  -4   2   5 266.548 159.661   1
  -4   2   4 458.928 236.810   2
  -4   2   4 542.939 231.271   1
  -4   2   3 3088.44 570.388   1
  -4   2   3 3849.26 620.795   2
  -4   2   2 1510.72 399.025   1
  -4   2   2 746.627 298.648   2
  -4   2   1 6929.95 862.947   1
  -4   2   1 6897.72 834.218   2
  -4   2   0 5405.51 782.535   1
  -4   2   0 5005.88 712.087   2
  -4   2  -1 2218.66 563.142   3
  -4   2  -1 2027.94 465.239   2
  -4   2  -1 1596.73 425.889   1
  -4   2  -2 901.251 418.199   3
  -4   2  -2 1212.06 354.066   2
  -4   2  -2 817.274 322.526   1
  -4   2  -3 793.911 361.045   3
  -4   2  -3 872.303 273.002   2
  -4   2  -3 1074.04 364.732   1
  -4   2  -4 322.486 247.748   3
  -4   2  -4 499.811 232.498   1
  -4   2  -4 658.859 256.776   2
  -4   2  -5 33.2002 205.153   3
  -4   2  -5 42.9787 136.932   2
  -4   2  -6 1016.05 369.327   3
  -4   2  -6 509.568 235.971   2
  -4   2  -7 4904.79 662.775   2
  -4   2  -7 4952.10 889.081   3
  -4   2  -8 3380.00 557.015   2
  -4   2  -8 3144.76 746.770   3
  -4   2  -9 214.904 280.770   3
  -4   2  -9 205.052 205.787   2
  -4   2 -10 56.3877 144.034   3
  -4   2 -10 301.370 153.566   2
  -4   2 -11 363.129 124.245   3
  -4   2 -11 328.262 180.432   2
  -4   2 -12-218.641 256.572   3
  -4   2 -13 2436.39 650.595   3
  -4   2 -14-279.935 235.190   3
  -4   2 -15 1084.50 488.525   3
  -4  -2 -16 98.9903 104.133   3
  -4   2 -16-17.2609 134.793   3
  -4  -2 -17 2575.66 589.997   3
  -4   2 -17 2412.33 661.716   3
  -4  -2 -18-7.39742 160.770   3
  -4   2 -18 26.8194 156.479   3
  -4  -2 -19-291.848 207.991   3
  -4   2 -19-71.9205 243.496   3
  -4  -2 -20 2.31371 117.209   3
  -4   2 -20 112.058 215.784   3
  -4  -3  21 271.451 234.424   2
  -4   3  21 28.9996 180.100   2
  -4  -3  20 1199.90 408.776   2
  -4   3  20 681.030 356.441   2
  -4  -3  19 352.793 148.453   2
  -4   3  19 1229.44 454.808   2
  -4  -3  18 1687.55 486.237   2
  -4   3  18 2665.79 687.486   2
  -4   3  17 258.315 203.509   2
  -4  -3  17 105.794 163.448   2
  -4   3  16 431.540 338.516   2
  -4   3  15 1500.18 489.030   2
  -4   3  14 1463.47 462.741   2
  -4   3  13 648.395 322.514   2
  -4   3  12 72.9527 155.472   2
  -4   3  11 286.570 198.834   2
  -4   3  11 248.464 243.258   1
  -4   3  10 102.644 122.832   2
  -4   3  10 159.004 162.582   1
  -4   3   9-5.58961 98.8224   1
  -4   3   9-68.9170 175.585   2
  -4   3   8 748.435 341.643   2
  -4   3   8 1386.92 428.061   1
  -4   3   7 280.574 210.609   1
  -4   3   7 71.7308 172.585   2
  -4   3   6 79.8393 135.881   1
  -4   3   6-63.3412 175.309   2
  -4   3   5 71.3840 58.5751   2
  -4   3   5-172.928 158.621   1
  -4   3   4 101.325 132.955   2
  -4   3   4-79.6315 140.504   1
  -4   3   3 409.923 235.526   1
  -4   3   3 695.471 287.965   2
  -4   3   2 511.143 250.851   1
  -4   3   2 363.432 252.371   2
  -4   3   1 417.401 255.256   1
  -4   3   1 603.323 298.073   2
  -4   3   0 5054.67 790.404   2
  -4   3   0 3201.51 676.177   1
  -4   3   0 3157.01 684.691   3
  -4   3  -1 2503.50 618.313   1
  -4   3  -1 1688.69 548.624   3
  -4   3  -1 1747.90 433.066   2
  -4   3  -2 2304.93 605.075   3
  -4   3  -2 3146.27 615.662   2
  -4   3  -2 2890.90 640.818   1
  -4   3  -3 371.376 342.992   3
  -4   3  -3 864.477 368.211   2
  -4   3  -3 449.552 286.699   1
  -4   3  -4 3818.64 658.114   2
  -4   3  -4 4504.59 871.969   3
  -4   3  -4 3783.95 775.201   1
  -4   3  -5 1618.82 545.723   3
  -4   3  -5 1763.66 565.184   1
  -4   3  -5 1434.03 422.415   2
  -4   3  -6 217.377 189.300   3
  -4   3  -6 216.961 207.332   1
  -4   3  -6 587.770 287.349   2
  -4   3  -7 33.2812 148.408   3
  -4   3  -7 247.707 170.420   2
  -4   3  -8 357.282 167.641   3
  -4   3  -8 77.8476 77.4887   2
  -4   3  -9 1827.14 570.612   3
  -4   3  -9 2361.98 475.548   2
  -4   3 -10 2523.98 678.793   3
  -4   3 -10 2938.66 526.527   2
  -4   3 -11 219.106 294.004   3
  -4   3 -12 22.4482 179.620   3
  -4   3 -13 192.753 160.484   3
  -4   3 -14 160.450 309.548   3
  -4   3 -15-291.987 278.890   3
  -4   3 -16 323.008 304.252   3
  -4   3 -17 839.006 447.360   3
  -4   4  17 515.879 343.852   2
  -4   4  16 131.201 187.489   2
  -4   4  15 94.9705 289.980   2
  -4   4  14 547.628 276.231   2
  -4   4  13-178.578 171.478   2
  -4   4  12-385.147 263.257   1
  -4   4  12 67.3610 168.735   2
  -4  -4  11 758.544 409.494   4
  -4   4  11 810.470 391.936   1
  -4   4  11 88.3358 175.480   2
  -4  -4  10 121.149 253.637   4
  -4   4  10-69.5426 190.542   1
  -4   4  10 31.8026 137.871   2
  -4  -4   9 224.684 263.079   4
  -4   4   9 280.454 252.619   1
  -4   4   9 186.701 194.676   2
  -4  -4   8 1576.49 608.817   4
  -4   4   8 551.910 370.833   1
  -4   4   8 1172.11 416.645   2
  -4  -4   7 649.677 362.477   4
  -4   4   7 131.812 223.570   1
  -4   4   7 26.6923 194.502   2
  -4  -4   6 2254.14 667.817   4
  -4   4   6 1148.31 454.564   1
  -4   4   6 1126.92 440.247   2
  -4   4   5 997.309 463.278   1
  -4  -4   5 863.470 452.592   4
  -4   4   5 1213.53 437.255   2
  -4  -4   4-27.6549 251.021   4
  -4   4   4 215.840 138.193   1
  -4   4   4 112.916 182.926   2
  -4  -4   3 398.082 253.377   4
  -4   4   3 212.508 229.519   1
  -4   4   3 442.691 247.734   2
  -4  -4   2 1636.41 521.740   4
  -4   4   2 869.606 382.457   1
  -4   4   2 1657.60 483.917   2
  -4  -4   1 258.961 270.806   4
  -4   4   1 1092.98 462.128   3
  -4   4   1 780.983 359.678   1
  -4   4   1 320.267 316.312   2
  -4  -4   0 176.183 219.219   4
  -4   4   0 262.634 278.345   3
  -4   4   0 665.736 427.234   1
  -4   4   0 62.8150 103.634   2
  -4  -4  -1-237.798 259.476   4
  -4   4  -1 95.9305 235.613   1
  -4   4  -1-41.7807 113.129   3
  -4   4  -1 292.112 214.307   2
  -4  -4  -2-19.1957 202.868   4
  -4   4  -2 83.8147 94.0862   1
  -4   4  -2 182.481 260.588   3
  -4   4  -2 346.346 282.996   2
  -4   4  -3 127.114 298.049   1
  -4  -4  -3 213.885 278.617   4
  -4   4  -3 179.739 90.5730   3
  -4   4  -3 150.472 248.641   2
  -4  -4  -4 136.622 189.700   4
  -4   4  -4 237.986 118.768   3
  -4   4  -4 388.139 272.469   2
  -4   4  -4-162.913 178.292   1
  -4  -4  -5-103.073 184.830   4
  -4   4  -5-116.037 115.702   3
  -4   4  -5 274.106 246.477   1
  -4   4  -5 131.653 152.167   2
  -4   4  -6-445.848 244.776   2
  -4  -4  -6 86.8541 133.196   4
  -4   4  -6-16.5837 186.909   3
  -4   4  -6 85.5918 124.018   1
  -4   4  -7-82.9450 210.730   2
  -4  -4  -7 253.030 184.121   4
  -4   4  -7 263.824 234.896   3
  -4   4  -7 191.731 152.477   1
  -4   4  -8 424.255 231.074   2
  -4   4  -8 457.520 98.9403   1
  -4   4  -9-82.8242 65.8539   2
  -4   4  -9 19.9339 101.405   3
  -4   4 -10 607.570 375.976   3
  -4   4 -10 235.692 230.125   1
  -4   4 -11 1773.54 593.746   3
   4  -4  11 1460.52 410.463   4
  -4   4 -12 3289.16 796.900   3
   4  -4  12 2682.03 567.714   4
  -4   4 -13 29.8812 297.573   3
   4  -4  13-39.8176 79.8553   4
  -4   5   9 498.814 206.232   2
  -4  -5   9 17.1245 245.241   4
  -4   5   9 351.039 336.483   1
  -4   5   8 128.651 258.703   2
  -4  -5   8 11.2319 151.314   4
  -4   5   8 264.266 187.373   1
  -4   5   7-126.893 170.431   2
  -4   5   7 121.634 97.3584   1
  -4   5   6-94.4447 217.973   2
  -4  -5   6 281.128 255.105   4
  -4   5   6 453.333 364.770   1
  -4   5   5 313.765 252.537   2
  -4  -5   5 853.275 384.585   4
  -4   5   5 133.991 327.986   1
  -4   5   4-64.9872 219.351   2
  -4   5   4-3.40886 237.211   1
  -4  -5   4 168.674 144.730   4
  -4   5   3 592.026 326.574   2
  -4  -5   3 556.954 353.907   4
  -4   5   3 163.921 251.444   1
  -4   5   2 53.0474 242.726   2
  -4  -5   2 245.737 324.934   4
  -4   5   2 141.476 183.519   1
  -4   5   1 81.9154 221.582   2
  -4   5   1 495.227 244.115   1
  -4   5   0-107.445 216.355   2
  -4  -5   0-166.437 246.903   4
  -4   5   0-74.8809 89.1148   3
  -4   5   0-180.512 156.941   1
  -4   5  -1 607.102 315.887   2
  -4  -5  -1 1187.30 560.605   4
  -4   5  -1 270.257 248.418   3
  -4   5  -1 853.877 440.084   1
  -4   5  -2 14.4867 110.394   2
  -4  -5  -2 14.9112 131.227   4
  -4   5  -2 14.1526 151.536   3
  -4   5  -2-128.905 315.884   1
  -4  -5  -3 4884.79 952.407   4
  -4   5  -3 3070.95 706.636   2
  -4   5  -3 3521.87 906.305   1
  -4   5  -3 2358.63 650.067   3
  -4  -5  -4 446.604 290.828   4
  -4   5  -4 575.635 352.152   2
  -4   5  -4-115.013 206.267   1
  -4   5  -4 877.046 477.262   3
  -4   5  -5 762.043 379.917   1
  -4  -5  -5 463.622 380.014   4
  -4   5  -5-132.714 236.392   2
  -4   5  -5 447.123 407.339   3
  -4   5  -6 629.490 421.347   1
  -4  -5  -6 328.893 291.261   4
  -4   5  -6 530.748 278.805   2
  -4   5  -6 28.8321 130.648   3
  -5   0  19-168.202 207.203   2
  -5   0  18 290.105 194.781   2
  -5   0  17 1344.67 492.501   2
  -5   0  16-117.269 168.418   2
  -5   0  15-32.5464 242.843   2
  -5   0  14 115.740 177.911   2
  -5   0  13 2712.30 638.089   2
  -5   0  12 75.5599 102.709   2
  -5   0  11 347.025 207.660   2
  -5   0  10 20.8408 165.717   2
  -5   0   9 23.5081 78.6078   2
  -5   0   8-96.4458 96.0238   2
  -5   0   7 478.465 262.227   2
  -5   0   6 104.700 234.294   2
  -5   0   5-139.829 167.503   2
  -5   0   4-33.2374 136.684   2
  -5   0   3 108.088 77.0394   2
  -5   0   2-8.25052 77.0327   2
  -5   0   1 754.998 322.137   2
  -5   0   0 391.372 255.711   2
  -5   0  -1 439.453 258.850   2
  -5   0  -2 126.300 192.284   2
  -5   0  -3 1502.83 411.448   2
  -5   0  -3 781.856 256.074   1
  -5   0  -4-13.1614 69.9446   2
  -5   0  -5 3312.92 605.220   2
  -5   0  -6 236.918 288.009   2
  -5   0  -7 184.231 188.022   2
  -5   0  -8-106.654 74.9481   2
  -5   0  -9 237.924 155.062   2
  -5   0 -10 49.1845 151.099   3
  -5   0 -10 85.7108 89.1034   2
  -5   0 -11 419.473 310.586   3
  -5   0 -12 34.9063 192.125   3
  -5   0 -13-211.913 222.897   3
  -5   0 -14 42.0480 166.150   3
  -5   0 -15 371.952 342.659   3
  -5  -1  18-58.8450 122.859   2
  -5   1  18 90.3228 220.944   2
  -5  -1  17 126.450 181.486   2
  -5   1  17 199.428 200.702   2
  -5  -1  16 134.112 236.111   2
  -5   1  16 171.278 248.957   2
  -5  -1  15-24.6778 76.6966   2
  -5   1  15-385.281 248.831   2
  -5  -1  14-5.87489 72.5465   2
  -5   1  14 19.7970 83.8055   2
  -5  -1  13-521.551 285.681   2
  -5   1  13 318.248 244.647   2
  -5  -1  12 219.709 183.292   2
  -5   1  12 35.8049 131.845   2
  -5  -1  11 120.006 228.850   2
  -5   1  11 140.063 221.899   2
  -5  -1  10-27.6865 170.585   2
  -5   1  10 34.6527 135.973   2
  -5  -1   9 3.12044 77.3301   2
  -5   1   9 127.406 169.636   2
  -5  -1   8 2807.04 623.079   2
  -5   1   8 2607.22 592.669   2
  -5  -1   7-6.82621 197.055   2
  -5   1   7 266.687 274.580   2
  -5  -1   6 1259.19 421.440   2
  -5   1   6 917.692 336.377   2
  -5   1   6 545.500 222.756   1
  -5  -1   5 3203.92 660.821   2
  -5   1   5 4225.10 753.951   2
  -5  -1   4 1095.42 377.968   2
  -5   1   4 1478.09 362.875   1
  -5   1   4 1721.22 498.104   2
  -5  -1   3 739.779 331.298   2
  -5   1   3 755.742 292.469   2
  -5   1   3 812.476 284.270   1
  -5  -1   2 90.2273 120.231   2
  -5   1   2 737.400 317.431   2
  -5   1   2 502.735 224.359   1
  -5  -1   1 1082.60 401.528   2
  -5   1   1 945.077 300.271   1
  -5   1   1 485.906 269.157   2
  -5  -1   0 1139.56 395.992   2
  -5   1   0 1433.29 373.290   1
  -5   1   0 1287.18 407.040   2
  -5   1  -1 616.227 259.164   1
  -5  -1  -1-163.714 143.328   2
  -5   1  -1 501.922 260.142   2
  -5   1  -2-126.195 106.386   2
  -5   1  -2-537.308 236.687   1
  -5  -1  -3 99.9455 138.268   2
  -5   1  -3 47.3714 112.159   2
  -5   1  -3 270.368 197.660   1
  -5  -1  -4 78.4618 139.873   2
  -5   1  -4 105.721 80.6305   2
  -5   1  -4 174.838 183.010   1
  -5  -1  -5 212.714 197.777   2
  -5   1  -5-53.4458 93.1471   1
  -5  -1  -6 151.393 102.147   2
  -5   1  -6 179.787 149.214   2
  -5   1  -7 63.6656 238.850   3
  -5  -1  -7-375.079 209.731   2
  -5   1  -7 22.4933 71.6828   2
  -5  -1  -8 900.629 294.247   2
  -5   1  -8 1334.39 525.325   3
  -5   1  -8 1138.94 378.737   2
  -5  -1  -9 866.344 279.511   2
  -5   1  -9 1527.66 599.991   3
  -5   1  -9 1141.38 347.547   2
  -5  -1 -10 478.159 259.590   2
  -5   1 -10 419.947 270.581   3
  -5  -1 -11 435.921 195.646   2
  -5   1 -11 138.324 261.921   3
  -5   1 -12 1073.26 473.846   3
  -5   1 -13 1406.83 565.091   3
  -5   1 -14 188.947 213.438   3
  -5  -2  16 549.987 361.182   2
  -5   2  16-10.7974 144.251   2
  -5  -2  15-365.474 250.242   2
  -5   2  15-12.3305 133.964   2
  -5  -2  14 119.959 78.3640   2
  -5   2  14 242.466 288.480   2
  -5  -2  13-47.0322 147.554   2
  -5   2  13-46.6660 121.135   2
  -5  -2  12 846.937 380.461   2
  -5   2  12 862.273 372.533   2
  -5  -2  11 11.8800 100.711   2
  -5   2  11-63.8788 188.709   2
  -5  -2  10-82.0374 238.434   2
  -5   2  10-45.1288 193.443   2
  -5  -2   9 145.270 209.069   2
  -5   2   9 93.6671 202.751   2
  -5   2   9 28.3199 72.8574   1
  -5  -2   8-96.0037 212.120   2
  -5   2   8-96.2589 76.4843   2
  -5   2   7 87.0960 119.599   1
  -5  -2   7 321.518 249.150   2
  -5   2   7 145.935 154.468   2
  -5  -2   6 2846.33 643.268   2
  -5   2   6 2927.48 645.457   2
  -5   2   6 2639.37 547.002   1
  -5  -2   5 720.683 373.037   2
  -5   2   5 1327.47 439.500   1
  -5   2   5 1567.22 461.342   2
  -5  -2   4 887.908 368.899   2
  -5   2   4 683.989 321.269   2
  -5   2   4 911.112 318.587   1
  -5  -2   3 154.674 132.330   2
  -5   2   3 232.491 253.784   2
  -5   2   3 100.660 182.547   1
  -5  -2   2 481.559 261.611   2
  -5   2   2 514.230 297.426   2
  -5   2   2 542.748 259.037   1
  -5   2   1 153.553 225.919   1
  -5   2   1 205.599 172.057   2
  -5  -2   1-60.7585 105.948   2
  -5   2   0 906.340 324.368   1
  -5   2   0 840.910 332.592   2
  -5  -2   0 513.537 276.526   2
  -5   2  -1 135.346 209.720   2
  -5  -2  -1-106.624 148.869   2
  -5   2  -2 1269.91 451.513   1
  -5   2  -2 1211.72 367.855   2
  -5  -2  -2 754.017 330.851   2
  -5   2  -3 412.743 240.433   2
  -5  -2  -3 134.732 128.161   2
  -5   2  -3 173.454 178.755   1
  -5   2  -4 1024.23 390.296   2
  -5   2  -4 1144.05 428.582   1
  -5  -2  -4 720.344 310.217   2
  -5   2  -5 945.596 453.545   3
  -5   2  -5 568.868 281.359   2
  -5   2  -5 181.440 185.163   1
  -5  -2  -5 733.642 298.573   2
  -5   2  -6 368.728 360.656   3
  -5   2  -6 348.726 194.573   2
  -5   2  -6 394.058 235.654   1
  -5  -2  -6 647.783 307.943   2
  -5   2  -7 130.246 195.979   3
  -5   2  -7 146.557 66.2874   2
  -5  -2  -7-91.7374 124.301   2
  -5   2  -8-20.9795 222.050   3
  -5   2  -8 3.11296 111.607   2
  -5  -2  -8-35.5869 134.326   2
  -5   2  -9 810.214 460.096   3
  -5  -2  -9-49.8346 242.075   2
  -5   2 -10 160.750 381.893   3
  -5  -2 -10 151.382 167.301   2
  -5  -2 -11 97.1004 295.783   2
  -5   2 -11 146.744 217.036   3
  -5   2 -12 212.029 293.427   3
  -5  -3  13-7.44962 100.077   2
  -5   3  13-682.546 347.752   2
  -5  -3  12 40.4197 84.9819   2
  -5   3  12 265.437 275.522   2
  -5   3  11 834.574 354.755   2
  -5  -3  11 407.854 267.853   2
  -5   3  10 201.357 241.137   2
  -5   3  10 186.124 155.868   1
  -5   3   9 19.6930 215.509   2
  -5   3   9 195.252 131.591   1
  -5   3   8 69.3311 110.955   1
  -5   3   8 167.142 167.912   2
  -5   3   7 670.791 377.575   2
  -5   3   7 272.396 251.286   1
  -5   3   6-202.202 219.343   1
  -5   3   6 755.683 394.697   2
  -5   3   5 708.193 290.738   1
  -5   3   5 1672.67 520.571   2
  -5   3   4-553.051 296.553   2
  -5   3   4 79.3450 145.194   1
  -5   3   3-67.3608 227.223   2
  -5   3   3-32.5933 74.7451   1
  -5   3   2 229.671 161.675   1
  -5   3   2 92.6148 127.802   2
  -5   3   1 349.156 258.438   1
  -5   3   1 1818.32 512.079   2
  -5   3   0 131.388 195.110   1
  -5   3   0 189.829 168.544   2
  -5   3  -1 558.393 335.961   1
  -5   3  -1 475.809 187.845   2
  -5   3  -2 804.060 338.290   1
  -5   3  -2 803.910 378.324   2
  -5   3  -3 1667.64 503.653   1
  -5   3  -3 2124.06 693.013   3
  -5   3  -3 2614.91 623.356   2
  -5   3  -4 1057.30 583.264   3
  -5   3  -4 875.303 399.350   2
  -5   3  -4 687.754 421.351   1
  -5   3  -5 99.6406 114.771   3
  -5   3  -5 236.481 236.810   2
  -5   3  -5 22.2765 169.939   1
  -5   3  -6 97.7105 177.406   3
  -5   3  -6-37.7535 128.611   2
  -5   3  -6 103.033 136.408   1
  -5   3  -7 1720.74 648.532   3
  -5   3  -7 1234.38 460.815   1
  -5   3  -7 954.193 323.710   2
  -5   3  -8 3105.32 834.335   3
  -5   3  -8 1533.13 545.025   1
  -5   3  -9 526.894 388.642   3
  -5   3  -9-79.7094 308.451   1
   0   0   0    0.00    0.00   0
TITL last in P2(1)/n
REM P2(1)/n (#14 in standard setting)
CELL 0.71073   4.781080   5.744071  25.353216  90.0000  94.4906  90.0000
ZERR    4.00   0.001004   0.000918   0.004658   0.0000   0.0195   0.0000
LATT  1
SYMM -x+1/2, y+1/2,-z+1/2
SFAC C H O S
UNIT 28.00 20.00 8.00 4.00
TREF
HKLF 4
END
;
_shelx_hkl_checksum              60372
_shelx_res_file
;
TITL last in P21/n #14
    shelx.res
    created by SHELXL-2016/6 at 19:11:48 on 27-Mar-2017
REM reset to P21/n #14
CELL 0.71073 4.78108 5.744071 25.353216 90 94.4906 90
ZERR 4 0.001004 0.000918 0.004658 0 0.0195 0
LATT 1
SYMM 0.5-X,0.5+Y,0.5-Z
SFAC C H O S
UNIT 28 24 8 4
L.S. 10
PLAN  10
BOND
fmap 2
list 4
ACTA
REM <olex2.extras>
REM <HklSrc "%.\\last.hkl">
REM </olex2.extras>
WGHT    0.062100    0.527100
FVAR       2.56290
S1    4    0.034351    0.398421    0.278432    11.00000    0.04089    0.01900 =
         0.02576   -0.00402   -0.01186    0.00032
O1    3    0.820628    0.389034    0.441852    11.00000    0.01869    0.01948 =
         0.02610   -0.00173   -0.00426    0.00857
O2    3    0.754838    0.707089    0.490496    11.00000    0.01981    0.02280 =
         0.02284   -0.00540   -0.00295    0.00217
C2    1    0.379599    0.505640    0.368801    11.00000    0.01585    0.00810 =
         0.02522   -0.00112    0.00342    0.00121
AFIX  43
H2    2    0.473471    0.366253    0.364120    11.00000   -1.20000
AFIX   0
C7    1    0.692058    0.580289    0.450697    11.00000    0.01403    0.01529 =
         0.02492   -0.00046    0.00199    0.00483
C1    1    0.459289    0.650480    0.411797    11.00000    0.01101    0.01250 =
         0.01937    0.00252    0.00118   -0.00101
C4    1    0.020938    0.781691    0.340018    11.00000    0.01742    0.01663 =
         0.02403    0.00133   -0.00579    0.00294
AFIX  43
H4    2   -0.126616    0.826337    0.316074    11.00000   -1.20000
AFIX   0
C6    1    0.320906    0.858649    0.418544    11.00000    0.01667    0.01806 =
         0.02080   -0.00204    0.00349   -0.00190
AFIX  43
H6    2    0.374641    0.953725    0.447257    11.00000   -1.20000
AFIX   0
C5    1    0.104217    0.925260    0.382914    11.00000    0.01895    0.01395 =
         0.02838    0.00091    0.00124    0.00249
AFIX  43
H5    2    0.012895    1.066038    0.387354    11.00000   -1.20000
AFIX   0
C3    1    0.158437    0.572796    0.333205    11.00000    0.01885    0.01582 =
         0.01714    0.00024    0.00068   -0.00302
H1    2    0.224116    0.249942    0.283720    11.00000    0.03974
H1A   2    0.972359    0.363918    0.468247    11.00000    0.11165
HKLF 4
REM  last in P21/n #14
REM R1 =  0.0715 for     895 Fo > 4sig(Fo)  and  0.1189 for all    1413 data
REM     99 parameters refined using      0 restraints
END
WGHT      0.0622      0.5434
REM Highest difference peak  0.604,  deepest hole -0.475,  1-sigma level  0.104
Q1    1  -0.0005  0.3874  0.3205  11.00000  0.05    0.60
Q2    1   0.0816  0.3978  0.2356  11.00000  0.05    0.51
Q3    1   0.4882  0.6434  0.3744  11.00000  0.05    0.43
Q4    1   0.9058  0.4194  0.3943  11.00000  0.05    0.41
Q5    1   0.0686 -0.0167  0.2599  11.00000  0.05    0.39
Q6    1   0.1952  0.5447  0.2672  11.00000  0.05    0.37
Q7    1   0.1522  0.5133  0.3074  11.00000  0.05    0.36
Q8    1   0.7118  0.1973  0.3104  11.00000  0.05    0.34
Q9    1  -0.1360  0.5445  0.2879  11.00000  0.05    0.34
Q10   1   0.6537  0.6128  0.4923  11.00000  0.05    0.33
;
_shelx_res_checksum              23014
loop_
_space_group_symop_operation_xyz
'x, y, z'
'-x+1/2, y+1/2, -z+1/2'
'-x, -y, -z'
'x-1/2, -y-1/2, z-1/2'
loop_
_atom_site_type_symbol
_atom_site_label
_atom_site_fract_x
_atom_site_fract_y
_atom_site_fract_z
_atom_site_U_iso_or_equiv
_atom_site_adp_type
_atom_site_calc_flag
_atom_site_occupancy
S S1 0.0344(3) 0.3984(2) 0.27843(5) 0.0293(4) Uani d 1
O O1 0.8206(6) 0.3890(5) 0.44185(12) 0.0217(8) Uani d 1
O O2 0.7548(6) 0.7071(5) 0.49050(12) 0.0221(8) Uani d 1
C C2 0.3796(9) 0.5056(7) 0.36880(16) 0.0163(10) Uani d 1
H H2 0.473471 0.366253 0.364120 0.020 Uiso calc 1
C C7 0.6921(9) 0.5803(7) 0.45070(17) 0.0181(10) Uani d 1
C C1 0.4593(9) 0.6505(7) 0.41180(16) 0.0143(9) Uani d 1
C C4 0.0209(9) 0.7817(7) 0.34002(17) 0.0197(10) Uani d 1
H H4 -0.126616 0.826337 0.316074 0.024 Uiso calc 1
C C6 0.3209(9) 0.8586(7) 0.41854(17) 0.0184(10) Uani d 1
H H6 0.374641 0.953725 0.447257 0.022 Uiso calc 1
C C5 0.1042(9) 0.9253(7) 0.38291(17) 0.0205(10) Uani d 1
H H5 0.012895 1.066038 0.387354 0.025 Uiso calc 1
C C3 0.1584(9) 0.5728(7) 0.33320(16) 0.0173(10) Uani d 1
H H1 0.224(10) 0.250(8) 0.2837(17) 0.040(14) Uiso d 1
H H1A 0.972(16) 0.364(12) 0.468(3) 0.11(3) Uiso d 1
loop_
_atom_site_aniso_label
_atom_site_aniso_U_11
_atom_site_aniso_U_22
_atom_site_aniso_U_33
_atom_site_aniso_U_12
_atom_site_aniso_U_13
_atom_site_aniso_U_23
S1 0.0409(9) 0.0190(6) 0.0258(7) 0.0003(6) -0.0119(6) -0.0040(5)
O1 0.0187(18) 0.0195(15) 0.0261(18) 0.0086(14) -0.0043(15) -0.0017(14)
O2 0.0198(18) 0.0228(16) 0.0228(17) 0.0022(14) -0.0029(14) -0.0054(14)
C2 0.016(2) 0.0081(18) 0.025(2) 0.0012(18) 0.003(2) -0.0011(17)
C7 0.014(2) 0.015(2) 0.025(3) 0.0048(19) 0.002(2) -0.0005(19)
C1 0.011(2) 0.0125(19) 0.019(2) -0.0010(17) 0.0012(18) 0.0025(17)
C4 0.017(3) 0.017(2) 0.024(2) 0.0029(19) -0.006(2) 0.0013(19)
C6 0.017(2) 0.018(2) 0.021(2) -0.0019(19) 0.0035(19) -0.0020(19)
C5 0.019(2) 0.014(2) 0.028(3) 0.0025(19) 0.001(2) 0.0009(19)
C3 0.019(2) 0.016(2) 0.017(2) -0.0030(19) 0.0007(19) 0.0002(18)
loop_
_atom_type_symbol
_atom_type_description
_atom_type_scat_dispersion_real
_atom_type_scat_dispersion_imag
_atom_type_scat_source
C C 0.0033 0.0016 'International Tables Vol C Tables 4.2.6.8 and 6.1.1.4'
H H 0.0000 0.0000 'International Tables Vol C Tables 4.2.6.8 and 6.1.1.4'
O O 0.0106 0.0060 'International Tables Vol C Tables 4.2.6.8 and 6.1.1.4'
S S 0.1246 0.1234 'International Tables Vol C Tables 4.2.6.8 and 6.1.1.4'
loop_
_geom_angle_atom_site_label_1
_geom_angle_atom_site_label_2
_geom_angle_atom_site_label_3
_geom_angle
C3 C2 C1 119.2(4)
O2 C7 O1 123.0(4)
O2 C7 C1 119.6(4)
O1 C7 C1 117.4(4)
C6 C1 C2 120.4(4)
C6 C1 C7 119.6(4)
C2 C1 C7 120.0(4)
C3 C4 C5 119.9(4)
C5 C6 C1 120.2(4)
C6 C5 C4 120.1(4)
C4 C3 C2 120.2(4)
C4 C3 S1 116.9(3)
C2 C3 S1 122.8(3)
loop_
_geom_bond_atom_site_label_1
_geom_bond_atom_site_label_2
_geom_bond_distance
S1 C3 1.776(4)
O1 C7 1.287(5)
O2 C7 1.261(5)
C2 C3 1.390(6)
C2 C1 1.400(6)
C7 C1 1.484(6)
C1 C6 1.384(5)
C4 C3 1.385(6)
C4 C5 1.398(6)
C6 C5 1.374(6)

_cod_database_fobs_code 2108131
