#------------------------------------------------------------------------------
#$Date: 2018-12-07 05:37:15 +0200 (Fri, 07 Dec 2018) $
#$Revision: 212436 $
#$URL: file:///home/coder/svn-repositories/cod/cif/2/10/83/2108340.cif $
#------------------------------------------------------------------------------
#
# This file is available in the Crystallography Open Database (COD),
# http://www.crystallography.net/. The original data for this entry
# were provided by IUCr Journals, http://journals.iucr.org/.
#
# The file may be used within the scientific community so long as
# proper attribution is given to the journal article from which the
# data were obtained.
#
data_2108340
loop_
_publ_author_name
'Siidra, Oleg I.'
'Kozin, Michael S.'
'Depmeier, Wulf'
'Kayukov, Roman A.'
'Kovrugin, Vadim M.'
_publ_section_title
;
 Copper--lead selenite bromides: a new large family of compounds partly
 having Cu^2+^ substructures derivable from kagome nets
;
_journal_coeditor_code           PS5074
_journal_issue                   6
_journal_name_full               'Acta Crystallographica Section B'
_journal_page_first              712
_journal_page_last               724
_journal_paper_doi               10.1107/S2052520618016542
_journal_volume                  74
_journal_year                    2018
_chemical_formula_sum            'Br2 Cu O6 Pb2 Se2'
_chemical_formula_weight         891.66
_space_group_crystal_system      monoclinic
_space_group_IT_number           14
_space_group_name_Hall           '-P 2yn'
_space_group_name_H-M_alt        'P 1 21/n 1'
_symmetry_space_group_name_Hall  '-P 2yn'
_symmetry_space_group_name_H-M   'P 1 21/n 1'
_audit_creation_method           SHELXL-2014/7
_cell_angle_alpha                90
_cell_angle_beta                 93.8080(10)
_cell_angle_gamma                90
_cell_formula_units_Z            4
_cell_length_a                   6.9097(3)
_cell_length_b                   5.5036(2)
_cell_length_c                   24.8544(9)
_cell_measurement_reflns_used    2391
_cell_measurement_temperature    296(2)
_cell_measurement_theta_max      41.727
_cell_measurement_theta_min      3.014
_cell_volume                     943.08(6)
_computing_structure_refinement  'SHELXL-2014/7 (Sheldrick, 2014)'
_diffrn_ambient_temperature      296(2)
_diffrn_measured_fraction_theta_full 0.999
_diffrn_measured_fraction_theta_max 0.984
_diffrn_measurement_device_type  'Bruker Apex 2 Duo'
_diffrn_radiation_type           MoK\a
_diffrn_radiation_wavelength     0.71073
_diffrn_reflns_av_R_equivalents  0.0780
_diffrn_reflns_av_unetI/netI     0.0962
_diffrn_reflns_Laue_measured_fraction_full 0.999
_diffrn_reflns_Laue_measured_fraction_max 0.984
_diffrn_reflns_limit_h_max       12
_diffrn_reflns_limit_h_min       -12
_diffrn_reflns_limit_k_max       10
_diffrn_reflns_limit_k_min       -10
_diffrn_reflns_limit_l_max       46
_diffrn_reflns_limit_l_min       -46
_diffrn_reflns_number            21967
_diffrn_reflns_point_group_measured_fraction_full 0.999
_diffrn_reflns_point_group_measured_fraction_max 0.984
_diffrn_reflns_theta_full        25.242
_diffrn_reflns_theta_max         41.727
_diffrn_reflns_theta_min         3.014
_exptl_absorpt_coefficient_mu    54.033
_exptl_crystal_density_diffrn    6.280
_exptl_crystal_description       prism
_exptl_crystal_F_000             1516
_refine_diff_density_max         2.530
_refine_diff_density_min         -2.440
_refine_diff_density_rms         0.538
_refine_ls_extinction_coef       0.00059(4)
_refine_ls_extinction_expression Fc^*^=kFc[1+0.001xFc^2^\l^3^/sin(2\q)]^-1/4^
_refine_ls_extinction_method     'SHELXL-2014/7 (Sheldrick 2014'
_refine_ls_goodness_of_fit_ref   0.924
_refine_ls_hydrogen_treatment    undef
_refine_ls_matrix_type           full
_refine_ls_number_parameters     121
_refine_ls_number_reflns         6387
_refine_ls_number_restraints     0
_refine_ls_restrained_S_all      0.924
_refine_ls_R_factor_all          0.1082
_refine_ls_R_factor_gt           0.0440
_refine_ls_shift/su_max          0.000
_refine_ls_shift/su_mean         0.000
_refine_ls_structure_factor_coef Fsqd
_refine_ls_weighting_details
'w=1/[\s^2^(Fo^2^)+(0.0156P)^2^] where P=(Fo^2^+2Fc^2^)/3'
_refine_ls_weighting_scheme      calc
_refine_ls_wR_factor_gt          0.0565
_refine_ls_wR_factor_ref         0.0684
_reflns_Friedel_coverage         0.000
_reflns_number_gt                3650
_reflns_number_total             6387
_reflns_threshold_expression     'I > 2\s(I)'
_cod_data_source_file            ps5074sup1.cif
_cod_data_source_block           CuPb12
_cod_database_code               2108340
_shelx_shelxl_version_number     2014/7
_shelx_space_group_comment
;
The symmetry employed for this shelxl refinement is uniquely defined
by the following loop, which should always be used as a source of
symmetry information in preference to the above space-group names.
They are only intended as comments.
;
_shelx_res_file
;

    shelx.res created by SHELXL-2014/7


TITL r3465346_0m in P2(1)/n
CELL 0.71073   6.9097   5.5036  24.8544  90.000  93.808  90.000
ZERR    4.00   0.0003   0.0002   0.0009   0.000   0.001   0.000
LATT  1
SYMM 0.5-X, 0.5+Y, 0.5-Z
SFAC O CU SE BR PB
UNIT 24 4 8 8 8
TEMP 23.000
Acta
L.S. 20
conn 12 2 $Pb $Br
BOND
FMAP 2
PLAN 20
WGHT    0.015600
EXTI    0.000592
FVAR       0.04317   0.99960   0.99590
MOLE   1
PB1   5    0.741206    0.123345    0.108358    11.00000    0.01618    0.01758 =
         0.01357   -0.00100    0.00039   -0.00023
PB2   5    0.960124   -0.393945    0.225300    11.00000    0.01519    0.01588 =
         0.01808   -0.00345    0.00042    0.00050
SE1   3    1.233868    0.121853    0.039218    11.00000    0.01090    0.01027 =
         0.01113   -0.00134    0.00155    0.00035
SE2   3    0.493938   -0.415523    0.171546    11.00000    0.01048    0.01130 =
         0.01021   -0.00024    0.00083    0.00017
BR1   4    1.139476    0.103969    0.198422    11.00000    0.01995    0.01469 =
         0.01911   -0.00045   -0.00063    0.00006
BR2   4    1.002203   -0.384363    0.100035    11.00000    0.01908    0.02005 =
         0.01790   -0.00040    0.00432   -0.00159
CU1   2    1.387144   -0.338866    0.044784    11.00000    0.01806    0.00971 =
         0.01028   -0.00070   -0.00169    0.00073
O1    1    1.230470   -0.110313   -0.006632    11.00000    0.01735    0.01339 =
         0.00983   -0.00245   -0.00089    0.00142
O2    1    0.646918   -0.634399    0.199454    11.00000    0.01700    0.01556 =
         0.01426    0.00416   -0.00175    0.00124
O3    1    0.526609   -0.492750    0.106312    11.00000    0.02096    0.01460 =
         0.00741   -0.00074    0.00179    0.00481
O4    1    1.416721   -0.016767    0.079528    11.00000    0.01992    0.01061 =
         0.00888   -0.00011   -0.00370   -0.00031
O5    1    1.349118    0.347206    0.008147    11.00000    0.01854    0.00981 =
         0.01373   -0.00086   -0.00057   -0.00172
O6    1    0.640129   -0.172486    0.185030    11.00000    0.01855    0.01323 =
         0.01535   -0.00366   -0.00165    0.00091
MOLE   2
HKLF 4

REM  r3465346_0m in P2(1)/n
REM R1 =  0.0440 for    3650 Fo > 4sig(Fo)  and  0.1082 for all    6387 data
REM    121 parameters refined using      0 restraints

END

WGHT      0.0150      0.0000

REM Highest difference peak  2.530,  deepest hole -2.440,  1-sigma level  0.538
Q1    1   0.9557 -0.5217  0.2197  11.00000  0.05    2.53
Q2    1   0.5607 -0.6794  0.2374  11.00000  0.05    2.33
Q3    1   0.7011  0.1336  0.0921  11.00000  0.05    2.30
Q4    1   0.5678 -0.6257  0.2040  11.00000  0.05    2.28
Q5    1   0.5939 -0.6218  0.1771  11.00000  0.05    2.27
Q6    1   0.9329 -0.3850  0.2061  11.00000  0.05    2.23
Q7    1   1.3678  0.3321 -0.0270  11.00000  0.05    2.21
Q8    1   1.3037  0.3370  0.0462  11.00000  0.05    2.20
Q9    1   0.7501 -0.0041  0.1120  11.00000  0.05    2.13
Q10   1   0.9619 -0.5092  0.0979  11.00000  0.05    2.05
Q11   1   0.7156 -0.3851  0.2260  11.00000  0.05    2.05
Q12   1   1.1263 -0.1869  0.0396  11.00000  0.05    2.03
Q13   1   0.9581 -0.2714  0.2234  11.00000  0.05    2.02
Q14   1   0.5908 -0.3260  0.1868  11.00000  0.05    2.02
Q15   1   0.9088  0.1135  0.1010  11.00000  0.05    2.01
Q16   1   1.1504 -0.0558  0.2636  11.00000  0.05    2.00
Q17   1   0.8575  0.2994  0.0917  11.00000  0.05    1.99
Q18   1   1.5179  0.0944  0.1249  11.00000  0.05    1.98
Q19   1   0.8295 -0.3360  0.2275  11.00000  0.05    1.97
Q20   1   1.1152 -0.3871  0.2274  11.00000  0.05    1.96
;
_shelx_res_checksum              70976
_shelx_hkl_file
;
  -1   0   0   -0.12    0.30
  -2   0   0   10.67    1.00
  -3   0   0    0.26    0.66
  -4   0   0  299.65    8.25
  -4   0   0  296.66    8.81
   4   0   0  297.95    8.28
  -5   0   0    0.43    0.89
   5   0   0   -0.37    0.81
   5   0   0   -0.71    0.73
  -5   0   0   -1.02    0.69
  -6   0   0    5.15    1.17
  -6   0   0    5.41    1.37
   6   0   0    5.38    1.21
   6   0   0    4.64    1.19
  -7   0   0   -0.50    1.17
   7   0   0    0.05    1.03
  -7   0   0   -0.54    0.93
   8   0   0   95.67    4.16
  -8   0   0  101.18    4.87
  -8   0   0   97.55    4.32
  -9   0   0    0.91    1.35
  -9   0   0   -0.28    1.30
   9   0   0    0.44    1.31
 -10   0   0   20.01    2.66
  10   0   0   19.74    2.29
 -10   0   0   19.82    2.78
  11   0   0    0.07    1.28
 -11   0   0   -0.73    1.55
 -11   0   0   -1.24    1.57
  12   0   0   -0.54    1.37
 -12   0   0   -1.14    1.73
 -12   0   0   -0.79    1.71
   0  -1   0    0.04    0.24
  -1  -1   0   16.16    0.73
   1  -1   0   15.57    1.01
  -1   1   0   13.53    0.90
  -2  -1   0  104.19    3.08
  -2   1   0  100.64    3.40
  -3  -1   0   84.24    2.94
  -3  -1   0   86.85    2.76
   3  -1   0   84.01    2.63
  -3   1   0   86.72    3.30
   4  -1   0   10.66    1.02
  -4  -1   0    9.12    1.17
  -4  -1   0   10.09    1.18
  -4  -1   0    9.39    1.02
  -4   1   0   11.45    1.38
   4   1   0    8.97    1.14
   5  -1   0    8.07    1.09
  -5  -1   0    6.49    1.27
  -5  -1   0    7.03    1.09
   5   1   0   10.09    1.29
  -5   1   0    8.84    1.46
   5   1   0    8.25    1.26
  -6  -1   0   19.81    1.80
   6  -1   0   14.89    1.55
  -6  -1   0   17.78    2.05
  -6   1   0   22.93    1.98
  -6   1   0   19.77    2.20
   6   1   0   16.50    1.76
   6   1   0   14.43    1.71
   7  -1   0   15.85    1.70
  -7  -1   0   16.05    2.14
  -7  -1   0   14.03    1.76
   7   1   0   15.21    1.79
  -7   1   0   14.53    1.85
   7   1   0   14.04    1.79
  -7   1   0   15.60    2.15
  -8  -1   0    0.44    1.31
  -8  -1   0   -0.25    1.17
   8  -1   0    1.52    1.12
  -8   1   0   -0.22    1.16
  -8   1   0    0.36    1.30
   8   1   0    1.34    1.23
  -9  -1   0    0.59    1.61
  -9  -1   0    6.18    1.73
   9  -1   0    7.57    1.50
  -9   1   0    6.74    1.82
   9   1   0    6.93    1.61
  -9   1   0    6.71    1.78
 -10  -1   0   16.30    2.30
  10  -1   0   15.46    1.87
 -10  -1   0   14.15    2.62
 -10   1   0   19.36    2.66
 -10   1   0   17.06    2.65
  10   1   0   14.39    2.20
  11  -1   0    1.72    1.11
 -11  -1   0    2.42    1.78
 -11  -1   0    6.12    2.27
 -11   1   0    3.84    1.88
 -11   1   0    1.77    1.83
  11   1   0    1.36    1.53
 -12  -1   0    0.95    1.68
  12   1   0   -0.22    1.49
 -12   1   0    0.75    1.90
   0  -2   0   42.76    1.52
  -1  -2   0   14.58    0.80
   1  -2   0   15.31    1.06
  -2  -2   0   27.51    1.23
  -2  -2   0   24.23    1.54
  -2   2   0   24.41    1.56
  -3  -2   0   24.83    1.10
  -3  -2   0   23.97    1.70
  -3  -2   0   23.82    1.32
  -3   2   0   23.48    1.80
  -4  -2   0   20.86    1.47
  -4  -2   0   19.16    1.23
  -4  -2   0   18.29    1.73
  -4   2   0   19.22    1.84
   5  -2   0  188.22    5.22
  -5  -2   0  204.80    6.42
  -5  -2   0  197.67    6.70
  -5  -2   0  198.28    5.88
   5   2   0  203.29    6.28
  -5   2   0  205.40    6.85
  -6  -2   0    4.37    1.25
  -6  -2   0    2.60    1.13
  -6  -2   0    3.58    1.02
   6  -2   0    2.37    0.76
   6   2   0    4.12    1.23
   6   2   0    2.18    1.10
  -6   2   0    2.84    1.34
  -7  -2   0    9.30    1.82
   7  -2   0    7.24    1.02
  -7  -2   0    7.12    1.40
  -7   2   0    6.70    1.71
   7   2   0    8.75    1.56
   7   2   0    7.89    1.56
   8  -2   0    0.26    0.75
  -8  -2   0    0.73    1.48
  -8  -2   0    1.30    1.21
  -8   2   0   -0.11    1.32
   8   2   0   -0.65    1.09
   8   2   0    0.31    1.16
  -9  -2   0    6.45    1.92
  -9  -2   0   13.05    2.00
  -9   2   0    9.83    2.23
   9   2   0   13.93    2.15
 -10  -2   0    2.26    1.91
 -10  -2   0    0.79    1.42
 -10   2   0   -1.41    1.57
  10   2   0    0.83    1.46
 -11  -2   0    2.84    1.81
 -11  -2   0    1.48    2.12
 -11   2   0    5.59    2.13
  11   2   0    2.78    1.73
 -12  -2   0   -0.07    1.68
  12   2   0    1.93    1.68
   0  -3   0    0.32    0.42
   0  -3   0   -0.27    0.58
   1  -3   0    5.62    0.94
   1  -3   0    4.67    0.75
  -1  -3   0    5.20    0.62
  -1  -3   0    5.37    0.98
   2  -3   0   81.97    3.08
   2  -3   0   81.44    3.15
  -2  -3   0   86.18    2.74
  -2  -3   0   85.35    3.46
  -2   3   0   80.68    3.12
   3  -3   0   55.16    2.33
  -3  -3   0   57.76    2.85
  -3  -3   0   55.06    2.19
  -3   3   0   56.17    2.76
  -4  -3   0   11.68    1.64
   4  -3   0   15.20    1.27
  -4  -3   0   11.24    1.19
  -4  -3   0   12.14    0.78
  -4   3   0   10.79    1.62
  -5  -3   0   24.99    1.40
  -5  -3   0   25.21    2.35
  -5  -3   0   23.97    1.97
  -5   3   0   30.66    2.68
  -6  -3   0   35.56    2.70
  -6  -3   0   29.55    2.72
  -6  -3   0   38.55    1.96
  -6   3   0   36.01    3.07
  -7  -3   0    2.48    1.37
  -7  -3   0    0.66    0.94
  -7  -3   0   -1.67    1.10
  -7   3   0    1.01    1.27
   7   3   0    0.87    1.24
   7   3   0    0.22    1.12
  -8  -3   0    7.06    2.03
  -8  -3   0    8.95    1.54
   8   3   0    5.52    1.75
   8   3   0    5.96    1.65
  -8   3   0    7.34    2.03
  -9  -3   0   -2.12    1.52
  -9  -3   0    2.02    1.43
   9   3   0   -0.53    1.44
  -9   3   0   -2.26    1.38
 -10  -3   0   19.01    3.04
 -10  -3   0   16.47    2.13
  10   3   0   17.52    2.60
 -10   3   0   22.87    3.16
 -11  -3   0    1.13    1.53
  11   3   0   -1.35    1.59
 -11   3   0    1.24    1.96
 -12  -3   0   -0.47    1.48
  12   3   0    0.78    1.76
   0  -4   0  704.60   18.45
   0  -4   0  707.26   19.77
   1  -4   0    1.39    0.82
   1  -4   0    2.74    0.76
  -1  -4   0    3.07    1.01
  -1  -4   0    2.54    0.60
  -2  -4   0    1.78    0.59
  -2  -4   0    4.04    1.11
   2  -4   0    2.86    0.93
   2  -4   0    2.49    0.89
  -2   4   0    2.12    0.84
  -3  -4   0    7.29    1.47
   3  -4   0   10.28    1.30
  -3  -4   0    9.20    1.01
  -3   4   0    8.98    1.42
   4  -4   0  133.32    4.63
  -4  -4   0  137.37    4.56
  -4  -4   0  132.04    5.46
  -4   4   0  135.84    5.33
  -5  -4   0    7.54    1.27
  -5  -4   0    5.27    1.53
  -5   4   0    7.06    1.60
  -6  -4   0    5.08    1.32
  -6  -4   0    4.63    1.59
  -6   4   0    8.03    1.86
  -7  -4   0    0.46    1.25
  -7  -4   0    2.35    1.52
   7   4   0   -0.62    1.31
  -7   4   0    0.42    1.41
  -8  -4   0   39.71    3.58
  -8  -4   0   39.57    1.89
  -8   4   0   46.59    4.05
   8   4   0   40.52    3.60
  -9  -4   0    1.09    0.97
   9   4   0    0.79    1.53
  -9   4   0    0.66    1.63
 -10   4   0    9.83    2.43
  11   4   0   -3.19    1.66
   0  -5   0   -0.47    0.58
   0  -5   0    0.42    1.07
  -1  -5   0   21.23    1.50
   1  -5   0   22.33    1.77
   1  -5   0   21.14    2.12
  -1  -5   0   21.57    2.33
  -2  -5   0   12.22    1.19
   2  -5   0   11.21    1.63
   2  -5   0    8.53    1.35
  -2  -5   0    7.81    1.69
  -2   5   0    6.33    1.25
  -3  -5   0   37.04    1.99
  -3  -5   0   32.73    3.04
   3  -5   0   38.30    2.35
  -3   5   0   36.11    2.73
  -4  -5   0    0.80    0.80
  -4  -5   0   -0.15    1.36
  -4   5   0    0.78    1.15
  -5  -5   0    1.96    1.56
  -5   5   0    2.92    1.33
  -6  -5   0    1.20    1.55
  -6   5   0    2.80    1.50
  -7  -5   0    4.10    1.95
  -7   5   0    0.47    1.54
  -8  -5   0    5.34    1.97
  -8   5   0   -2.05    1.38
   8   5   0    3.96    1.96
  -9   5   0    4.78    2.11
   9   5   0   -0.60    1.72
 -10   5   0    4.50    2.16
   0  -6   0   31.52    2.23
   0  -6   0   30.05    2.96
   1  -6   0    6.65    1.63
   1  -6   0    5.89    1.26
  -1  -6   0    4.43    1.66
  -2  -6   0   18.37    2.59
   2  -6   0   20.52    2.35
  -2   6   0   17.12    1.94
   3  -6   0    1.76    1.28
  -3  -6   0    0.47    1.42
  -3   6   0    0.75    1.15
  -4  -6   0   24.11    3.06
  -4   6   0   31.18    2.94
  -5  -6   0   43.60    4.12
  -5   6   0   39.20    3.44
  -6  -6   0    3.71    2.05
  -6   6   0    6.82    1.95
  -7  -6   0    2.35    1.92
  -7   6   0    2.45    1.77
  -8  -6   0    0.96    1.84
   8   6   0    2.39    1.95
  -8   6   0   -0.77    1.75
  -9   6   0    8.39    2.45
   9   6   0    4.81    2.33
  10   6   0   -0.60    2.09
   0  -7   0   -0.76    1.47
  -1  -7   0    1.40    1.58
   1  -7   0    0.74    1.45
   2  -7   0   13.63    2.20
  -2  -7   0   10.84    2.53
  -3  -7   0    4.18    2.12
  -4  -7   0    1.79    2.03
  -5  -7   0    1.57    2.11
  -5   7   0    7.32    1.99
  -6  -7   0   16.50    3.12
  -6   7   0   13.29    2.60
  -7  -7   0    0.79    1.92
  -7   7   0    1.31    1.91
  -8  -7   0   -1.50    2.09
   8   7   0    3.59    2.33
  -8   7   0    3.29    2.26
   9   7   0   -2.26    1.92
   0  -8   0   64.23    5.30
   1  -8   0   -1.25    1.68
  -1  -8   0   -0.26    1.99
  -2  -8   0    5.55    2.44
   2  -8   0    7.00    2.19
  -3  -8   0    2.94    2.31
  -4  -8   0   21.65    3.84
  -5  -8   0   10.29    3.04
  -6  -8   0    5.21    2.66
  -7  -8   0   -2.13    2.09
   7   8   0    5.75    2.58
  -8  -8   0   -0.97    2.17
   8   8   0    5.49    2.75
   0  -9   0    2.08    2.13
  -1  -9   0   12.38    3.13
   1  -9   0    5.70    2.57
  -2  -9   0   -0.97    2.35
  -3  -9   0    5.16    2.80
  -4  -9   0   -0.14    2.17
  -5  -9   0   -2.18    2.35
  -6  -9   0    5.43    2.90
   0 -10   0   13.36    3.49
  -1 -10   0    3.70    2.88
  -2 -10   0    2.47    2.65
  -3 -10   0   -1.43    2.57
 -12   0   1   -1.78    1.57
  12   0  -1    1.43    1.45
 -12   0   1   -0.59    1.88
  11   0  -1    0.10    1.39
 -11   0   1    2.49    1.84
 -11   0   1    0.67    1.79
 -10   0   1    0.68    1.49
 -10   0   1   -0.45    1.49
  10   0  -1    0.93    1.38
   9   0  -1   20.33    2.30
  -9   0   1   23.90    2.91
  -9   0   1   23.68    2.59
  -8   0   1   -1.93    1.09
   8   0  -1    0.16    1.12
  -8   0   1    0.20    1.32
  -7   0   1    8.36    1.53
   7   0  -1    8.86    1.49
  -7   0   1    9.50    1.85
  -6   0   1    0.24    0.97
  -6   0   1    0.88    0.89
   6   0  -1    0.78    0.98
   6   0  -1    0.57    0.91
   5   0  -1   89.45    3.39
  -5   0   1   93.94    3.91
  -5   0   1   96.53    3.53
   5   0  -1   91.31    3.48
  -4   0   1    0.11    0.77
   4   0  -1   -0.22    0.69
  -4   0   1   -0.32    0.59
   3   0  -1   27.75    1.45
  -3   0   1   26.89    1.73
  -2   0   1   -0.04    0.55
  -1   0   1   61.72    1.93
  -1   0  -1   27.56    1.09
  -2   0  -1   -0.05    0.55
  -3   0  -1    6.53    1.00
  -4   0  -1   -0.21    0.56
   4   0   1   -0.43    0.59
  -4   0  -1   -0.24    0.66
   5   0   1  267.42    8.22
   5   0   1  261.47    7.82
  -5   0  -1  268.56    7.75
  -5   0  -1  281.93    8.49
   6   0   1    0.46    0.87
  -6   0  -1    1.17    0.93
   6   0   1    0.98    1.05
  -6   0  -1    0.71    1.04
  -7   0  -1   16.45    1.86
  -7   0  -1    9.26    1.78
   7   0   1    8.32    1.45
  -8   0  -1   -0.26    1.15
  -8   0  -1   -0.85    1.15
   8   0   1    1.86    1.26
  -9   0  -1    8.71    1.87
  -9   0  -1    4.68    1.77
   9   0   1    7.63    1.66
  10   0   1    0.46    1.32
 -10   0  -1   -0.38    1.44
 -10   0  -1   -0.82    1.54
 -11   0  -1    2.00    1.81
  11   0   1    3.71    1.55
 -11   0  -1    0.00    1.68
 -12   0  -1   -4.64    1.42
  12   0   1   -1.49    1.24
 -12  -1   1   -0.45    1.85
 -12  -1   1    1.27    1.83
 -12   1   1    0.98    1.92
  12   1  -1    1.26    1.58
 -11  -1   1    3.02    2.08
  11  -1  -1    0.49    1.04
 -11  -1   1    5.12    1.83
 -11   1   1    1.66    1.76
 -11   1   1    2.80    1.96
  11   1  -1    3.04    1.60
 -10  -1   1    1.13    1.61
 -10  -1   1    1.82    1.58
  10  -1  -1    0.11    1.21
  10   1  -1    2.11    1.54
 -10   1   1   -0.37    1.64
 -10   1   1    4.05    1.82
  -9  -1   1    4.65    1.63
  -9  -1   1    8.51    1.96
   9  -1  -1    7.68    1.48
  -9   1   1    2.92    1.61
   9   1  -1    5.30    1.55
  -9   1   1    5.97    1.88
  -8  -1   1   21.42    2.28
  -8  -1   1   23.49    2.73
   8  -1  -1   20.10    1.95
  -8   1   1   23.03    2.43
  -8   1   1   25.26    2.80
   8   1  -1   25.51    2.42
  -7  -1   1   -0.96    1.05
  -7  -1   1   -1.61    0.88
   7  -1  -1    0.00    0.94
  -7   1   1   -0.97    1.13
   7   1  -1   -1.05    0.93
  -7   1   1    0.31    1.13
   7   1  -1    1.82    1.10
  -6  -1   1    8.03    1.30
  -6  -1   1    6.21    1.42
   6  -1  -1    8.62    1.30
  -6   1   1    8.99    1.41
   6   1  -1    8.94    1.34
  -6   1   1    8.69    1.63
   6   1  -1    7.73    1.37
  -5  -1   1    1.28    0.80
  -5  -1   1    1.98    0.95
  -5  -1   1    1.17    0.79
   5  -1  -1    1.50    0.78
   5   1  -1    4.25    0.98
   5   1  -1    0.28    0.81
  -5   1   1    1.71    0.98
  -4  -1   1   57.45    2.30
  -4  -1   1   58.33    2.61
   4  -1  -1   56.13    2.18
  -4  -1   1   59.04    2.49
  -4   1   1   52.96    2.68
   4   1  -1   58.66    2.46
  -3  -1   1   68.48    2.38
   3  -1  -1   70.20    2.24
  -3  -1   1   70.58    2.57
  -3   1   1   69.19    2.80
  -2  -1   1   72.23    2.28
  -2   1   1   69.13    2.63
  -1  -1   1    0.28    0.26
   1  -1  -1    0.23    0.41
   0  -1  -1   10.45    0.59
   0  -1   1    9.80    0.51
  -1  -1  -1   81.77    2.34
  -1   1  -1   78.36    2.50
  -2  -1  -1  588.95   14.89
  -2   1  -1  563.49   15.18
  -3  -1  -1   21.27    1.34
  -3  -1  -1   20.98    1.13
  -3  -1  -1   19.78    1.45
   3  -1   1   20.46    1.12
  -3   1  -1   19.58    1.60
   4  -1   1    0.41    0.58
  -4  -1  -1    0.47    0.65
  -4  -1  -1    0.59    0.60
  -4  -1  -1   -0.44    0.66
   4   1   1    0.31    0.74
  -4   1  -1   -0.23    0.73
   4   1   1   -0.01    0.66
   5  -1   1   27.06    1.70
  -5  -1  -1   25.45    1.71
  -5  -1  -1   27.63    1.97
   5   1   1   28.34    1.91
  -5   1  -1   29.51    2.34
  -5   1  -1   26.04    1.81
   5   1   1   25.21    1.93
  -6  -1  -1  155.86    5.16
  -6  -1  -1  155.63    5.65
   6  -1   1  149.26    5.03
   6   1   1  161.06    5.55
  -6   1  -1  156.83    5.91
  -6   1  -1  151.92    5.18
   6   1   1  144.81    5.25
  -7  -1  -1   35.26    2.99
   7  -1   1   34.51    2.20
  -7  -1  -1   38.98    2.48
   7   1   1   35.51    2.40
  -7   1  -1   33.18    2.95
  -7   1  -1   35.75    2.64
   7   1   1   32.67    2.43
  -8  -1  -1    3.00    1.51
   8  -1   1    3.58    1.28
  -8  -1  -1    4.93    1.47
  -8   1  -1    4.29    1.68
   8   1   1    3.16    1.38
  -8   1  -1    4.50    1.45
  -9  -1  -1    0.77    1.54
  -9  -1  -1    1.24    1.42
   9  -1   1    0.36    1.16
  -9   1  -1    2.60    1.55
  -9   1  -1    0.76    1.46
   9   1   1    1.23    1.39
 -10  -1  -1   42.10    3.44
  10  -1   1   41.79    2.62
 -10  -1  -1   42.14    3.94
  10   1   1   52.95    3.31
 -10   1  -1   46.15    3.77
 -10   1  -1   36.26    3.76
 -11  -1  -1    5.91    2.07
 -11  -1  -1    1.96    1.74
  11  -1   1    2.24    1.16
  11   1   1    5.54    1.82
 -11   1  -1    4.92    2.09
 -11   1  -1    6.54    2.20
 -12  -1  -1   -1.11    1.59
 -12   1  -1    0.57    1.81
  12   1   1    0.52    1.57
 -12  -2   1    5.27    1.91
  12   2  -1    2.89    1.81
 -11  -2   1    1.06    1.68
 -11  -2   1   -0.11    1.90
  11   2  -1    2.53    1.69
 -11   2   1   -1.21    1.65
 -10  -2   1   19.44    2.92
 -10  -2   1   18.28    2.35
  10   2  -1   16.55    2.39
 -10   2   1   25.64    3.21
  -9  -2   1    0.82    1.60
  -9  -2   1   -1.17    1.21
  -9   2   1    4.26    1.73
   9   2  -1    2.05    1.46
  -8  -2   1   44.10    3.60
  -8  -2   1   49.30    2.98
   8   2  -1   52.22    3.03
  -8   2   1   39.67    3.60
  -7  -2   1   -0.75    0.97
   7  -2  -1   -0.64    0.68
  -7  -2   1    0.81    1.26
   7   2  -1    1.65    1.19
   7   2  -1    0.61    1.14
  -7   2   1   -1.40    1.18
  -6  -2   1    7.33    1.20
   6  -2  -1    5.95    0.82
  -6  -2   1    6.42    1.42
  -6  -2   1    8.21    1.44
   6   2  -1    6.23    1.34
   6   2  -1    4.28    1.24
  -6   2   1    8.09    1.67
  -5  -2   1   14.80    1.68
  -5  -2   1   11.96    1.26
  -5  -2   1   11.44    1.44
  -5   2   1   12.05    1.71
   5   2  -1   12.74    1.56
  -4  -2   1  278.17    8.47
  -4  -2   1  265.28    7.89
  -4  -2   1  280.93    7.53
  -4   2   1  277.01    8.49
  -3  -2   1   11.95    1.33
  -3  -2   1    9.26    0.89
  -3  -2   1    8.59    0.73
  -3   2   1    8.47    1.18
  -2  -2   1   53.90    2.30
  -2  -2   1   54.52    1.53
   2  -2  -1   55.41    2.25
  -2  -2   1   52.31    1.85
  -2   2   1   54.00    2.22
   1  -2  -1    0.96    0.50
  -1  -2   1    0.80    0.34
   0  -2   1  734.69   18.56
   0  -2  -1  725.28   18.63
  -1  -2  -1    0.80    0.39
   1  -2   1   -0.06    0.48
  -2  -2  -1   35.33    1.46
  -2  -2  -1   33.99    1.90
  -2   2  -1   35.10    1.83
  -3  -2  -1    3.54    0.65
  -3  -2  -1    2.79    0.47
  -3  -2  -1    3.09    0.83
  -3   2  -1    2.90    0.90
  -4  -2  -1   54.90    2.07
  -4  -2  -1   57.09    2.40
  -4  -2  -1   55.85    2.79
  -4   2  -1   59.32    2.98
  -5  -2  -1    1.77    0.90
   5  -2   1    1.44    0.61
  -5  -2  -1    0.93    0.70
   5  -2   1    0.25    0.53
  -5  -2  -1    1.43    0.94
   5   2   1    1.68    0.95
  -5   2  -1   -0.30    0.92
  -6  -2  -1    8.78    1.55
  -6  -2  -1    8.79    1.24
  -6  -2  -1    8.70    1.53
   6  -2   1    5.76    0.92
   6   2   1    7.63    1.47
   6   2   1    9.17    1.56
  -6   2  -1    6.26    1.60
  -7  -2  -1    1.29    1.02
   7  -2   1    0.90    0.84
  -7  -2  -1    0.25    1.27
   7   2   1   -0.19    1.06
  -7   2  -1    1.86    1.42
   7   2   1    2.41    1.18
  -8  -2  -1    2.77    1.64
  -8  -2  -1    4.67    1.32
   8  -2   1    3.98    0.93
  -8   2  -1    3.38    1.60
   8   2   1    3.89    1.45
   8   2   1    5.14    1.51
  -9  -2  -1    2.25    1.61
  -9  -2  -1   -0.72    1.19
  -9   2  -1   -0.69    1.51
   9   2   1   -0.55    1.36
 -10  -2  -1    0.63    1.87
 -10  -2  -1    2.88    1.61
  10   2   1    0.97    1.40
 -10   2  -1    1.18    1.67
 -11  -2  -1    1.03    1.89
 -11  -2  -1   -1.34    1.51
  11   2   1    0.21    1.58
 -11   2  -1    2.18    1.76
 -12  -2  -1    7.81    1.97
  12   2   1    7.07    2.00
 -12  -3   1    1.39    1.63
  12   3  -1    0.83    1.73
 -11  -3   1    6.71    1.79
 -11   3   1    4.83    2.16
  11   3  -1   -0.14    1.61
 -10  -3   1   -0.12    1.42
 -10  -3   1    1.39    1.99
  10   3  -1   -1.85    1.43
 -10   3   1    1.44    1.62
  -9  -3   1   13.07    2.52
  -9  -3   1    4.96    1.57
  -9   3   1    8.56    2.19
   9   3  -1    8.74    1.97
  -8  -3   1    5.57    1.84
  -8  -3   1    3.37    1.32
   8   3  -1    4.32    1.58
   8   3  -1    5.91    1.67
  -8   3   1    8.62    2.09
  -7  -3   1    2.20    1.36
  -7  -3   1   -0.26    1.17
  -7  -3   1    2.75    1.06
  -7   3   1    1.47    1.44
   7   3  -1    3.40    1.42
   7   3  -1    1.77    1.31
  -6  -3   1    5.03    0.98
  -6  -3   1    4.58    1.45
  -6  -3   1    5.18    1.30
  -6   3   1    2.14    1.31
  -5  -3   1    0.69    0.60
  -5  -3   1   -0.80    0.84
  -5  -3   1   -0.87    0.74
  -5   3   1    0.49    1.03
  -4  -3   1   69.85    2.80
  -4  -3   1   76.08    3.45
  -4  -3   1   73.49    2.25
  -4   3   1   76.35    3.60
  -3  -3   1   81.00    2.79
  -3  -3   1   84.86    3.57
  -3   3   1   75.54    3.34
  -2  -3   1   22.81    1.87
   2  -3  -1   22.69    1.39
  -2  -3   1   18.80    1.12
   2  -3  -1   26.60    1.66
  -2   3   1   21.45    1.52
   1  -3  -1    4.75    0.73
   1  -3  -1    6.73    0.95
  -1  -3   1    4.88    0.95
  -1  -3   1    5.87    0.61
   0  -3  -1    3.25    0.56
   0  -3  -1    5.74    0.96
   0  -3   1    4.68    0.61
   0  -3   1    4.04    0.90
  -1  -3  -1   46.79    1.81
  -1  -3  -1   46.35    2.35
   1  -3   1   46.03    2.21
   1  -3   1   47.60    1.97
   2  -3   1  201.67    6.22
  -2  -3  -1  200.62    5.74
  -2  -3  -1  196.98    6.59
  -2   3  -1  208.00    6.16
  -3  -3  -1    5.41    1.16
  -3  -3  -1    5.18    0.79
   3  -3   1    6.11    0.99
  -3   3  -1    3.82    1.09
  -4  -3  -1   25.85    1.05
   4  -3   1   25.38    1.59
  -4  -3  -1   23.72    2.20
  -4  -3  -1   23.81    1.62
  -4   3  -1   23.45    2.11
  -5  -3  -1   17.14    1.18
  -5  -3  -1   17.39    1.69
  -5  -3  -1   14.86    1.97
  -5   3  -1   15.13    1.91
  -6  -3  -1   43.32    2.12
  -6  -3  -1   43.18    2.74
  -6  -3  -1   40.77    2.83
  -6   3  -1   47.74    3.24
   6   3   1   44.45    2.93
  -7  -3  -1   37.33    3.07
  -7  -3  -1   32.80    2.11
  -7  -3  -1   34.69    3.05
  -7   3  -1   35.65    3.31
   7   3   1   30.94    2.90
  -8  -3  -1    3.27    1.66
  -8  -3  -1    1.73    1.20
   8   3   1    0.36    1.21
  -8   3  -1    0.84    1.54
   8   3   1   -1.01    1.24
  -9  -3  -1    2.56    1.87
  -9  -3  -1    3.30    1.43
   9   3   1    1.82    1.58
  -9   3  -1    1.14    1.73
 -10  -3  -1   16.73    2.99
 -10  -3  -1   20.76    2.28
  10   3   1   18.22    2.57
 -10   3  -1   13.64    2.69
 -11  -3  -1    6.05    1.75
 -11  -3  -1   11.70    3.01
  11   3   1    7.03    2.10
 -11   3  -1   13.63    2.72
 -12  -3  -1   -2.18    1.40
  12   3   1    1.10    1.80
  11   4  -1    0.46    1.78
 -10  -4   1    3.41    1.14
 -10   4   1    0.11    1.73
  -9  -4   1    8.04    1.25
  -9   4   1    3.93    1.96
   9   4  -1    5.83    1.97
  -8  -4   1    2.09    1.68
  -8  -4   1    2.02    1.56
  -8  -4   1    3.14    0.97
   8   4  -1    1.76    1.50
  -8   4   1    5.06    1.96
  -7  -4   1    2.29    1.45
  -7  -4   1    1.46    0.67
  -7  -4   1    0.17    1.37
  -7   4   1    3.46    1.63
  -6  -4   1   18.05    1.96
  -6  -4   1   16.87    2.24
  -6   4   1   15.89    2.39
  -5  -4   1   43.60    2.52
  -5  -4   1   49.69    3.24
  -5   4   1   50.87    3.12
  -4  -4   1   10.08    1.18
  -4  -4   1    8.57    1.71
  -4   4   1    7.51    1.55
   3  -4  -1   14.72    1.43
  -3  -4   1   11.08    1.69
  -3  -4   1   13.56    1.14
  -3   4   1   12.94    1.63
  -2  -4   1    7.80    0.85
  -2  -4   1    7.84    1.44
   2  -4  -1    6.35    1.10
   2  -4  -1    8.76    1.22
  -2   4   1    8.00    1.16
   1  -4  -1    3.37    1.03
  -1  -4   1    1.86    0.93
   1  -4  -1    3.24    0.79
  -1  -4   1    2.39    0.59
   0  -4   1   70.23    3.22
   0  -4  -1   69.25    3.12
   0  -4  -1   66.58    2.52
   0  -4   1   64.42    2.47
   1  -4   1   35.48    1.86
  -1  -4  -1   34.98    1.69
   1  -4   1   38.75    2.25
  -1  -4  -1   40.31    2.45
   2  -4   1   49.05    2.61
   2  -4   1   50.20    2.49
  -2  -4  -1   53.36    2.11
  -2  -4  -1   49.04    2.92
  -2   4  -1   51.52    2.50
  -3  -4  -1    5.27    1.36
   3  -4   1    4.48    1.05
  -3  -4  -1    4.86    0.86
  -3   4  -1    5.19    1.20
   4  -4   1   12.38    1.41
  -4  -4  -1   11.67    1.33
  -4  -4  -1    7.82    1.61
  -4   4  -1   12.05    1.75
  -5  -4  -1  113.49    5.15
  -5  -4  -1  117.54    4.36
  -5   4  -1  115.37    5.02
  -6  -4  -1    0.12    1.20
  -6  -4  -1    1.81    1.13
  -6   4  -1   -0.55    1.26
  -7  -4  -1    5.60    1.71
  -7  -4  -1    8.49    1.83
   7   4   1    6.22    1.79
  -7   4  -1    2.00    1.61
  -8  -4  -1    0.13    0.76
  -8  -4  -1    0.26    1.65
  -8   4  -1    2.13    1.69
   8   4   1    0.60    1.44
  -9  -4  -1    4.88    1.05
   9   4   1    7.05    2.07
  -9   4  -1    7.36    2.24
 -10   4  -1    1.32    1.83
  11   4   1    1.47    1.90
 -10   5   1   -1.16    1.78
   9   5  -1    0.44    1.78
  -9   5   1    4.10    2.03
  -8  -5   1   22.15    3.08
   8   5  -1   24.72    3.15
  -8   5   1   21.94    2.93
  -7  -5   1    2.00    1.73
  -7   5   1    7.58    2.04
  -6  -5   1    2.12    1.58
  -6   5   1    0.68    1.46
  -5  -5   1    6.50    1.76
  -5   5   1    2.72    1.30
  -4  -5   1   19.66    2.52
  -4   5   1   19.97    2.29
  -3  -5   1   13.47    2.16
  -3  -5   1    8.38    1.07
   3  -5  -1   10.18    1.52
  -3   5   1    8.79    1.53
   2  -5  -1   13.62    1.72
  -2  -5   1   15.01    1.25
   2  -5  -1   17.53    1.71
  -2  -5   1   13.56    1.97
  -2   5   1   11.99    1.51
   1  -5  -1   -0.15    0.92
   1  -5  -1    0.71    0.74
  -1  -5   1    0.14    0.58
  -1  -5   1   -0.10    1.05
   0  -5  -1   12.99    1.30
   0  -5  -1   11.56    1.72
   0  -5   1   13.57    1.90
   0  -5   1   12.93    1.27
   1  -5   1   24.68    1.85
   1  -5   1   23.87    2.35
  -1  -5  -1   24.49    1.63
  -1  -5  -1   25.41    2.49
  -2  -5  -1  201.08    7.54
  -2  -5  -1  196.60    6.11
   2  -5   1  206.13    6.99
  -2   5  -1  205.61    6.61
  -3  -5  -1    5.15    0.98
  -3  -5  -1    3.43    1.37
   3  -5   1    4.99    1.26
  -3   5  -1    4.53    1.26
  -4  -5  -1    4.50    1.70
  -4  -5  -1    6.59    1.17
  -4   5  -1    5.97    1.54
  -5  -5  -1   10.07    1.48
  -5  -5  -1   10.89    2.22
  -5   5  -1    8.51    1.81
  -6  -5  -1   79.19    4.71
  -6   5  -1   77.04    4.34
  -7  -5  -1    5.39    2.05
  -7   5  -1    5.17    1.89
   7   5   1    4.57    1.90
  -8  -5  -1   -0.42    1.61
  -8   5  -1   -0.72    1.52
   8   5   1    1.57    1.73
   9   5   1    0.25    1.68
  -9   5  -1    0.07    1.83
 -10   5  -1   21.91    3.30
   9   6  -1    0.09    1.83
  -9   6   1    0.13    1.92
  -8  -6   1    4.98    2.26
   8   6  -1   15.71    2.95
  -8   6   1    9.58    2.55
  -7  -6   1    1.29    1.85
  -7   6   1    2.33    1.72
  -6  -6   1    5.73    2.16
  -6   6   1    2.91    1.77
  -5  -6   1   19.36    3.01
  -5   6   1   23.91    2.72
  -4  -6   1   45.66    4.06
  -4   6   1   47.26    3.31
  -3  -6   1    7.91    2.00
   3  -6  -1    8.35    1.68
  -3   6   1   13.74    1.91
   2  -6  -1   -0.80    0.91
   2  -6  -1   -0.93    1.18
  -2  -6   1   -1.00    1.31
  -2   6   1   -1.01    0.92
  -1  -6   1    5.53    1.62
   1  -6  -1    5.25    1.23
   1  -6  -1    7.60    1.66
   0  -6   1   95.72    4.86
   0  -6  -1  103.35    3.90
   0  -6  -1   95.48    4.79
  -1  -6  -1    5.43    1.07
   1  -6   1    4.88    1.22
   1  -6   1    3.33    1.52
  -1  -6  -1    4.06    1.71
  -1   6  -1    5.64    1.23
  -2  -6  -1    2.68    1.50
   2  -6   1    3.25    1.36
  -2   6  -1    1.80    1.09
  -3  -6  -1   -0.48    1.43
   3  -6   1   -2.02    0.96
  -3   6  -1    0.05    1.13
  -4  -6  -1    7.15    2.13
  -4   6  -1    6.94    1.66
  -5  -6  -1    3.48    2.05
  -5   6  -1    3.29    1.58
  -6  -6  -1   -1.76    1.64
  -6   6  -1    2.38    1.57
  -7  -6  -1    2.29    1.98
  -7   6  -1    1.18    1.74
   7   6   1    3.50    2.08
  -8  -6  -1   -2.19    1.60
  -8   6  -1    3.91    2.05
   8   6   1    0.88    1.94
  -9   6  -1   -2.72    1.64
   9   6   1   -0.08    1.91
  10   6   1   -2.97    1.90
   9   7  -1    0.47    2.22
  -8  -7   1   -0.70    1.92
  -8   7   1    4.21    2.20
   8   7  -1   -1.88    1.89
  -7  -7   1    1.80    2.23
  -7   7   1   -1.04    1.76
  -6  -7   1   -0.08    2.09
  -6   7   1    1.05    1.76
  -5  -7   1   -1.49    1.90
  -5   7   1   -0.30    1.59
  -4  -7   1    3.54    2.13
  -4   7   1   13.46    2.31
  -3  -7   1   32.92    3.79
   2  -7  -1    8.71    2.05
  -2  -7   1    8.61    2.44
  -1  -7   1   10.28    2.52
   1  -7  -1   17.95    2.57
   0  -7   1    4.48    1.89
   0  -7  -1    6.64    1.97
   1  -7   1   10.85    2.21
  -1  -7  -1   16.03    2.71
   2  -7   1    7.31    1.95
  -2  -7  -1    9.37    2.44
   3  -7   1    0.72    1.45
  -3  -7  -1    2.67    1.94
  -4  -7  -1   22.52    3.46
  -5  -7  -1    3.70    2.22
  -6  -7  -1    4.44    2.44
  -6   7  -1    6.34    2.06
  -7  -7  -1    4.40    2.44
   7   7   1    1.53    2.13
  -7   7  -1    3.74    2.11
  -8  -7  -1    3.14    2.39
   8   7   1    2.22    2.39
  -8   7  -1    7.58    2.57
   9   7   1    0.70    2.18
  -8  -8   1   -0.73    2.27
   8   8  -1    0.57    2.41
  -7  -8   1   -1.30    2.22
   7   8  -1    2.54    2.50
  -6  -8   1    9.88    3.06
  -5  -8   1    7.89    2.92
  -4  -8   1    4.29    2.59
  -3  -8   1    5.08    2.37
  -2  -8   1    3.45    2.15
   2  -8  -1    4.74    2.10
   1  -8  -1    2.08    1.93
  -1  -8   1    1.12    2.04
   0  -8  -1   25.71    3.43
   0  -8   1   25.95    3.52
  -1  -8  -1   11.71    2.75
   1  -8   1    8.83    2.41
  -2  -8  -1   12.68    2.94
   2  -8   1   19.07    3.01
  -3  -8  -1    0.78    2.12
  -4  -8  -1    3.57    2.33
  -5  -8  -1   18.02    3.54
  -6  -8  -1   -3.09    2.01
  -7  -8  -1   -1.93    2.16
   7   8   1   -0.10    2.24
   8   8   1    1.40    2.62
  -6  -9   1   -1.44    2.48
  -5  -9   1    1.43    2.51
  -4  -9   1    4.92    2.92
  -3  -9   1   -2.09    2.24
  -2  -9   1    3.23    2.50
   1  -9  -1   -0.73    1.95
  -1  -9   1    4.66    2.62
   0  -9  -1   11.53    2.93
   0  -9   1    8.62    2.78
  -1  -9  -1   -0.88    2.09
   1  -9   1    1.03    2.07
  -2  -9  -1   14.25    3.45
  -3  -9  -1   -2.71    2.00
  -4  -9  -1   -0.78    2.46
  -5  -9  -1    2.48    2.61
  -6  -9  -1   20.23    3.96
   6   9   1   16.43    3.79
  -3 -10   1    6.37    3.14
  -2 -10   1    3.51    2.79
  -1 -10   1    0.88    2.51
   0 -10  -1    2.13    2.58
   0 -10   1    2.80    2.70
  -1 -10  -1    0.08    2.49
  -2 -10  -1    0.32    2.49
  -3 -10  -1    3.21    2.91
  12   0  -2    0.19    1.31
 -12   0   2   -0.07    1.87
 -12   0   2    0.93    1.79
 -11   0   2    1.71    1.76
 -11   0   2   -0.10    1.65
  11   0  -2    1.39    1.44
  10   0  -2   14.13    2.04
 -10   0   2   12.78    2.49
 -10   0   2   11.34    2.25
  -9   0   2   -0.03    1.30
   9   0  -2    1.44    1.33
  -9   0   2   -1.88    1.18
   8   0  -2    1.90    1.22
  -8   0   2    1.21    1.32
  -8   0   2    1.48    1.44
  -7   0   2    1.01    1.06
  -7   0   2    0.02    1.13
   7   0  -2    0.01    1.02
  -6   0   2   48.60    3.07
   6   0  -2   48.14    2.57
  -6   0   2   51.36    2.70
  -5   0   2    0.09    0.78
   5   0  -2    1.16    0.82
  -5   0   2    2.17    1.08
  -4   0   2   46.87    2.46
   4   0  -2   47.15    2.08
  -4   0   2   42.18    2.04
  -3   0   2    0.01    0.60
   3   0  -2    1.30    0.62
  -2   0   2  227.22    6.39
  -1   0   2    0.18    0.36
  -1   0  -2    0.45    0.33
  -2   0  -2  313.67    8.45
  -3   0  -2    0.17    0.61
   3   0   2   -0.05    0.56
   4   0   2   51.83    2.43
  -4   0  -2   51.84    2.12
   4   0   2   51.19    2.23
  -4   0  -2   45.77    2.36
  -5   0  -2    0.81    0.95
   5   0   2    0.11    0.77
   5   0   2    0.57    0.91
  -5   0  -2    1.09    0.74
  -6   0  -2   45.94    2.50
   6   0   2   48.90    2.75
   6   0   2   50.70    2.59
  -6   0  -2   46.24    2.89
   7   0   2   -0.29    0.97
  -7   0  -2   -0.21    0.95
  -7   0  -2    0.69    1.23
  -8   0  -2   36.27    3.26
   8   0   2   32.45    2.68
  -8   0  -2   37.14    2.88
  -9   0  -2    2.18    1.53
   9   0   2    0.65    1.35
  -9   0  -2   -0.54    1.40
  10   0   2    0.07    1.23
 -10   0  -2    0.39    1.57
 -10   0  -2   -2.43    1.36
 -11   0  -2    2.82    1.91
 -11   0  -2   -0.63    1.57
  11   0   2    2.07    1.48
 -12   0  -2   21.20    2.92
  12   0   2   17.81    2.13
 -12  -1   2    2.87    2.10
 -12  -1   2    0.04    1.65
  12   1  -2    0.52    1.55
 -12   1   2   -0.13    1.93
 -11  -1   2    3.16    1.75
  11  -1  -2    3.88    1.15
 -11  -1   2    5.05    2.19
 -11   1   2    7.83    2.19
  11   1  -2    3.29    1.74
 -11   1   2    2.23    1.85
 -10  -1   2    9.25    2.18
 -10  -1   2    5.58    1.93
  10  -1  -2    9.74    1.54
  10   1  -2   12.28    2.02
 -10   1   2   10.53    2.18
 -10   1   2    8.79    2.15
  -9  -1   2    9.41    1.87
  -9  -1   2   10.46    2.20
   9  -1  -2    8.81    1.53
  -9   1   2   12.05    2.25
   9   1  -2    8.44    1.79
  -8  -1   2   48.22    3.39
   8  -1  -2   55.04    2.73
  -8  -1   2   46.70    3.11
   8   1  -2   44.03    2.88
  -8   1   2   48.85    3.12
  -8   1   2   45.59    3.74
   7  -1  -2    1.36    1.00
  -7  -1   2   -1.13    1.01
  -7  -1   2    1.32    1.10
  -7   1   2    0.70    1.30
  -7   1   2    1.28    1.21
   7   1  -2   -0.39    1.04
   6  -1  -2   16.35    1.59
  -6  -1   2   11.93    1.70
  -6  -1   2   13.66    1.55
  -6   1   2   19.45    1.84
   6   1  -2   15.41    1.70
  -6   1   2   13.67    1.88
   6   1  -2   14.42    1.59
  -5  -1   2   11.57    1.31
  -5  -1   2   11.24    1.28
   5  -1  -2   13.68    1.28
  -5  -1   2    6.95    1.26
   5   1  -2    9.70    1.25
  -5   1   2   10.60    1.51
   5   1  -2   11.04    1.34
  -4  -1   2   43.46    2.17
  -4  -1   2   41.25    2.03
   4  -1  -2   45.16    1.88
  -4  -1   2   41.87    1.98
   4   1  -2   40.31    2.07
  -4   1   2   44.16    2.36
  -3  -1   2  137.72    4.17
  -3  -1   2  130.08    3.95
   3  -1  -2  132.72    3.76
  -3   1   2  127.49    4.42
  -2  -1   2  186.83    5.15
  -2   1   2  187.28    5.46
   1  -1  -2   -0.22    0.40
  -1  -1   2    0.25    0.24
   0  -1  -2    4.83    0.43
  -1  -1  -2   92.68    2.64
  -1   1  -2   89.25    2.81
  -2  -1  -2  362.24    9.45
  -2   1  -2  351.34    9.69
   3  -1   2   24.28    1.17
  -3  -1  -2   22.07    1.58
  -3  -1  -2   22.00    1.16
  -3  -1  -2   24.97    1.43
   3   1   2   22.23    1.54
  -3   1  -2   24.29    1.68
  -4  -1  -2    2.15    0.74
  -4  -1  -2    1.14    0.78
  -4  -1  -2    1.78    0.66
   4  -1   2    1.89    0.64
  -4   1  -2    1.17    0.82
   4   1   2    1.93    0.85
   4   1   2    1.23    0.82
   5  -1   2   17.44    1.83
  -5  -1  -2   15.01    1.61
  -5  -1  -2   15.91    1.44
   5  -1   2   17.71    1.43
   5   1   2   18.40    1.67
  -5   1  -2   17.83    1.54
   5   1   2   20.04    1.79
  -5   1  -2   16.26    1.80
  -6  -1  -2   98.27    4.30
   6  -1   2   96.90    3.65
  -6  -1  -2   95.18    3.76
  -6   1  -2   99.73    3.81
   6   1   2  102.24    3.92
   6   1   2  100.76    4.18
  -6   1  -2   98.70    4.41
  -7  -1  -2   64.00    3.30
   7  -1   2   72.99    3.22
  -7  -1  -2   73.01    3.88
  -7   1  -2   69.18    3.34
   7   1   2   65.12    3.45
  -7   1  -2   68.64    3.93
   7   1   2   69.56    3.37
  -8  -1  -2   10.34    1.77
   8  -1   2    9.62    1.55
  -8  -1  -2   12.61    2.21
  -8   1  -2   10.32    2.11
   8   1   2   10.03    1.70
  -8   1  -2   12.47    1.85
  -9  -1  -2   -0.07    1.30
  -9  -1  -2   -2.29    1.36
   9  -1   2   -0.05    1.21
  -9   1  -2   -2.34    1.32
  -9   1  -2   -0.10    1.34
   9   1   2   -1.79    1.24
 -10  -1  -2   14.55    2.25
 -10  -1  -2   14.84    2.58
  10  -1   2   11.97    1.76
 -10   1  -2   15.43    2.44
  10   1   2   11.37    2.05
 -10   1  -2   11.69    2.34
 -11  -1  -2   12.01    2.27
  11  -1   2   12.05    1.54
 -11  -1  -2   13.42    2.63
 -11   1  -2    9.65    2.26
  11   1   2   14.15    2.27
 -11   1  -2    9.90    2.48
 -12  -1  -2   -1.70    1.59
  12   1   2   -1.14    1.44
 -12   1  -2   -4.27    1.60
 -12  -2   2    0.53    1.68
  12   2  -2   -0.04    1.65
 -11  -2   2    4.55    1.88
 -11  -2   2    1.37    2.06
  11   2  -2    3.81    1.74
 -11   2   2   -1.02    1.63
 -10  -2   2    0.82    1.49
 -10  -2   2   -1.02    1.53
 -10   2   2    0.79    1.64
  10   2  -2   -0.75    1.38
  -9  -2   2   15.03    2.12
  -9  -2   2   10.35    2.24
   9   2  -2   17.62    2.27
  -9   2   2   15.85    2.61
  -8  -2   2    1.14    1.49
  -8  -2   2    1.76    1.28
   8   2  -2    2.05    1.29
  -8   2   2    3.14    1.52
   7  -2  -2    0.37    0.66
  -7  -2   2    0.32    1.26
  -7  -2   2    1.81    1.12
   7   2  -2    1.06    1.12
   7   2  -2    0.98    1.16
  -7   2   2   -0.06    1.14
  -6  -2   2    3.02    1.02
   6  -2  -2    2.29    0.63
  -6  -2   2    3.37    1.22
  -6  -2   2    5.55    1.27
   6   2  -2    2.43    1.14
  -6   2   2    3.50    1.39
  -5  -2   2   78.12    2.99
  -5  -2   2   76.69    3.30
  -5  -2   2   76.60    3.41
  -5   2   2   76.99    3.70
   5   2  -2   78.47    3.33
  -4  -2   2    0.56    0.59
  -4  -2   2    1.16    0.68
  -4  -2   2   -0.15    0.72
  -4   2   2    0.66    0.87
  -3  -2   2   12.05    0.96
  -3  -2   2   11.82    0.87
  -3  -2   2   10.76    1.22
  -3   2   2    9.54    1.20
  -2  -2   2    7.73    0.52
  -2  -2   2    7.11    0.63
   2  -2  -2    7.71    0.94
  -2  -2   2    6.25    0.93
  -2   2   2    7.86    0.94
  -1  -2   2   18.33    0.81
   1  -2  -2   19.30    1.16
  -1  -2   2   15.90    1.19
   0  -2  -2   22.66    1.06
   0  -2   2   23.32    0.98
  -1  -2  -2   27.79    1.65
   1  -2   2   31.17    1.43
  -1  -2  -2   30.45    1.24
  -1   2  -2   29.47    1.39
  -2  -2  -2    9.93    0.83
  -2  -2  -2   11.19    1.23
  -2   2  -2   12.59    1.21
  -3  -2  -2   45.59    1.59
  -3  -2  -2   45.82    1.97
  -3  -2  -2   47.46    2.36
  -3   2  -2   46.63    2.38
  -4  -2  -2    2.22    1.01
  -4  -2  -2    0.53    0.53
  -4  -2  -2    0.76    0.68
  -4   2  -2    0.74    0.90
   5  -2   2   85.55    3.30
  -5  -2  -2   82.90    2.93
   5  -2   2   76.40    2.60
  -5  -2  -2   78.49    3.31
  -5  -2  -2   77.77    3.62
   5   2   2   80.30    3.34
  -5   2  -2   81.65    3.83
   5   2   2   83.23    3.65
  -6  -2  -2    1.13    1.02
  -6  -2  -2   -0.71    0.73
   6  -2   2    0.62    0.77
   6   2   2   -0.74    0.92
  -6   2  -2    0.25    1.15
   6   2   2   -0.59    0.94
   7  -2   2   25.75    1.70
  -7  -2  -2   33.11    2.79
  -7  -2  -2   31.60    2.17
   7   2   2   30.52    2.53
  -7   2  -2   38.79    3.24
   7   2   2   29.00    2.63
   8  -2   2    1.26    0.87
  -8  -2  -2    0.48    1.32
  -8  -2  -2    1.06    1.17
   8   2   2    0.37    1.20
  -8   2  -2    0.02    1.39
   8   2   2    2.70    1.34
  -9  -2  -2    1.91    1.36
  -9  -2  -2    0.92    1.61
   9   2   2    1.62    1.50
  -9   2  -2    1.17    1.58
 -10  -2  -2    0.00    1.51
 -10  -2  -2   -0.41    1.81
 -10   2  -2    0.04    1.62
  10   2   2   -1.74    1.33
 -11  -2  -2    2.36    1.73
 -11  -2  -2    2.22    2.08
  11   2   2    2.42    1.73
 -11   2  -2    2.08    1.87
 -12  -2  -2    0.08    1.60
  12   2   2    0.28    1.69
 -12  -3   2    0.30    1.47
  12   3  -2    3.29    1.93
 -11  -3   2    0.47    1.48
  11   3  -2    0.80    1.63
 -11   3   2    1.63    1.75
 -10  -3   2    4.43    1.69
 -10  -3   2    6.94    2.45
 -10   3   2    3.44    1.90
  10   3  -2    3.53    1.82
  -9  -3   2    0.16    1.74
  -9  -3   2    1.12    1.34
  -9   3   2    5.64    2.02
   9   3  -2    3.08    1.70
  -8  -3   2   51.48    3.65
  -8  -3   2   51.37    2.87
  -8   3   2   53.63    4.27
   8   3  -2   52.99    3.26
   8   3  -2   44.92    3.14
  -7  -3   2    4.97    1.19
  -7  -3   2    4.25    1.50
  -7  -3   2    3.84    1.53
   7   3  -2    4.35    1.49
   7   3  -2    6.90    1.55
  -7   3   2    5.09    1.56
  -6  -3   2   19.97    2.22
  -6  -3   2   22.10    2.08
  -6  -3   2   20.29    1.60
  -6   3   2   17.39    2.24
  -5  -3   2    9.40    1.63
  -5  -3   2   13.13    1.12
  -5  -3   2   13.45    1.45
  -5   3   2   12.27    1.80
  -4  -3   2   23.13    2.07
  -4  -3   2   19.53    1.40
  -4  -3   2   19.63    1.04
  -4   3   2   23.44    2.15
  -3  -3   2   14.14    1.07
  -3  -3   2   17.01    1.68
  -3   3   2   14.95    1.59
   2  -3  -2   98.75    3.53
  -2  -3   2   97.66    2.95
   2  -3  -2   92.93    3.28
  -2  -3   2   97.65    3.78
  -1  -3   2    0.54    0.74
   1  -3  -2    0.35    0.53
   1  -3  -2   -0.06    0.60
  -1  -3   2    0.44    0.33
   0  -3   2    2.56    0.51
   0  -3  -2    2.51    0.78
   0  -3   2    2.44    0.83
   0  -3  -2    1.94    0.52
  -1  -3  -2  114.86    4.15
   1  -3   2  114.68    3.65
  -1  -3  -2  116.05    3.52
   1  -3   2  110.65    3.99
   2  -3   2  453.07   12.92
  -2  -3  -2  456.83   12.21
  -2  -3  -2  463.33   13.31
  -2   3  -2  465.70   12.62
   3  -3   2   11.63    1.25
  -3  -3  -2    7.77    0.94
  -3  -3  -2    9.31    1.36
  -3   3  -2    8.11    1.31
  -4  -3  -2   44.27    2.15
   4  -3   2   42.81    2.20
  -4  -3  -2   41.65    1.40
  -4  -3  -2   38.52    2.55
  -4   3  -2   43.23    2.66
  -5  -3  -2    6.77    1.19
  -5  -3  -2    5.31    1.40
  -5  -3  -2    6.52    0.82
  -5   3  -2    5.74    1.37
  -6  -3  -2  100.74    4.62
  -6  -3  -2  100.07    3.47
  -6  -3  -2  105.36    4.38
  -6   3  -2   98.92    4.65
   6   3   2  106.90    4.71
  -7  -3  -2   28.38    2.78
  -7  -3  -2   24.94    1.94
   7   3   2   27.23    2.74
  -7   3  -2   30.01    2.98
  -8  -3  -2   14.42    2.41
  -8  -3  -2   13.26    1.71
   8   3   2   17.20    2.34
   8   3   2   16.06    2.26
  -8   3  -2   12.05    2.27
  -9  -3  -2    4.79    2.04
  -9  -3  -2    0.20    1.25
  -9   3  -2    1.01    1.68
   9   3   2    4.10    1.72
   9   3   2    0.80    1.48
 -10  -3  -2   18.40    2.19
 -10  -3  -2   20.91    3.16
 -10   3  -2   23.07    3.24
  10   3   2   17.97    2.60
 -11  -3  -2   -0.11    1.46
 -11  -3  -2    6.42    2.56
 -11   3  -2    7.25    2.35
  11   3   2    3.00    1.79
 -12  -3  -2   -1.03    1.45
  12   3   2   -0.55    1.65
  11   4  -2   -2.44    1.73
 -10  -4   2    7.29    1.29
 -10   4   2    8.04    2.33
  -9  -4   2    1.04    1.04
   9   4  -2   -1.91    1.41
  -9   4   2    2.61    1.92
  -8  -4   2    1.50    0.94
  -8  -4   2    0.81    1.46
  -8   4   2   -0.82    1.43
   8   4  -2   -1.34    1.30
  -7  -4   2   10.25    1.89
  -7  -4   2   11.60    1.03
  -7  -4   2   12.83    2.16
  -7   4   2    9.88    2.09
  -6  -4   2   15.09    1.85
  -6  -4   2   16.75    2.29
  -6   4   2   19.50    2.42
  -5  -4   2   25.47    1.96
  -5  -4   2   26.82    2.68
  -5   4   2   25.03    2.58
  -4  -4   2    7.81    1.67
  -4  -4   2    6.78    1.02
  -4   4   2    4.94    1.35
   3  -4  -2    3.00    0.89
  -3  -4   2    4.12    1.25
   3  -4  -2    4.90    1.20
  -3  -4   2    3.76    0.70
  -3   4   2    2.72    1.05
   2  -4  -2   76.78    3.11
  -2  -4   2   80.59    3.62
   2  -4  -2   75.94    3.12
  -2  -4   2   70.85    2.55
  -1  -4   2    1.79    0.54
   1  -4  -2    3.69    1.00
   1  -4  -2    2.39    0.74
  -1  -4   2    2.39    1.06
   0  -4  -2   10.53    1.06
   0  -4   2    8.88    1.42
   0  -4   2    8.66    0.90
   0  -4  -2    8.96    1.38
   1  -4   2    1.22    0.89
  -1  -4  -2   -0.08    0.86
  -1  -4  -2    0.31    0.56
   1  -4   2   -0.89    0.52
  -2  -4  -2  111.88    4.73
  -2  -4  -2  118.35    3.88
   2  -4   2  118.56    4.48
  -2   4  -2  127.18    4.32
  -3  -4  -2    3.21    0.77
  -3  -4  -2    0.15    1.01
   3  -4   2    3.81    1.02
  -3   4  -2    2.96    1.09
  -4  -4  -2   29.71    2.76
   4  -4   2   31.51    2.06
  -4  -4  -2   27.41    1.94
  -4   4  -2   36.88    2.52
  -5  -4  -2   -0.09    0.89
  -5  -4  -2    0.99    1.24
  -5   4  -2    1.35    1.20
  -6  -4  -2   14.77    1.86
  -6  -4  -2   15.54    2.24
  -6   4  -2   15.44    2.20
  -7  -4  -2    3.55    1.69
  -7  -4  -2    2.62    1.57
   7   4   2    2.68    1.60
  -7   4  -2    3.43    1.63
  -8  -4  -2   30.87    3.18
  -8  -4  -2   29.04    1.45
   8   4   2   24.51    2.95
  -8   4  -2   32.13    3.38
  -9  -4  -2    0.69    1.93
  -9   4  -2   -0.11    1.70
   9   4   2    0.11    1.51
 -10   4  -2   -1.40    1.72
  11   4   2   -0.73    1.80
 -10   5   2    6.50    2.36
  -9   5   2   10.10    2.47
   9   5  -2    9.12    2.40
  -8  -5   2    9.16    2.27
  -8   5   2   11.25    2.34
   8   5  -2   15.91    2.66
  -7  -5   2    1.01    1.67
  -7   5   2    1.29    1.48
  -6  -5   2    4.18    1.83
  -6   5   2    4.76    1.64
  -5  -5   2    3.78    1.64
  -5   5   2    1.52    1.42
  -4  -5   2   21.89    2.62
  -4   5   2   24.31    2.48
   3  -5  -2   75.09    3.34
  -3  -5   2   72.72    4.10
  -3   5   2   71.81    3.51
   2  -5  -2   38.03    2.34
  -2  -5   2   35.27    1.78
   2  -5  -2   37.45    2.35
  -2  -5   2   36.93    3.07
  -1  -5   2   -0.91    1.06
   1  -5  -2   -0.64    0.89
  -1  -5   2    0.04    0.60
   1  -5  -2    0.65    0.75
   0  -5  -2   10.39    1.71
   0  -5   2   17.10    2.09
   0  -5   2   14.71    1.32
   0  -5  -2   12.82    1.31
  -1  -5  -2   18.35    2.24
   1  -5   2   14.17    1.82
  -1  -5  -2   18.62    1.46
   1  -5   2   15.81    1.50
  -1   5  -2   16.11    1.52
  -2  -5  -2   20.09    1.58
   2  -5   2   20.11    2.08
  -2  -5  -2   14.35    2.10
  -2   5  -2   20.89    1.91
  -3  -5  -2    2.49    1.39
   3  -5   2    0.25    0.99
  -3  -5  -2    1.37    0.80
  -3   5  -2    0.90    1.01
  -4  -5  -2   15.10    1.61
  -4  -5  -2   17.95    2.50
   4  -5   2   15.00    1.77
  -4   5  -2   17.58    2.09
  -5  -5  -2   20.25    2.68
  -5  -5  -2   20.78    1.98
  -5   5  -2   20.99    2.48
  -6  -5  -2   14.20    2.44
  -6  -5  -2   12.81    1.92
  -6   5  -2   11.46    2.09
  -7  -5  -2   30.83    3.49
  -7   5  -2   39.75    3.58
   7   5   2   36.79    3.70
  -8   5  -2   -0.69    1.60
   8   5   2    1.36    1.67
   9   5   2    1.96    1.99
  -9   5  -2    3.23    1.96
 -10   5  -2    1.03    1.82
   9   6  -2    4.21    2.33
  -9   6   2    5.23    2.27
  -8  -6   2    0.51    1.68
   8   6  -2    1.09    1.91
  -8   6   2    4.11    2.05
  -7  -6   2    0.11    1.70
  -7   6   2    0.07    1.60
  -6  -6   2    8.20    2.31
  -6   6   2   11.99    2.29
  -5  -6   2   13.10    2.59
  -5   6   2   11.18    2.14
  -4  -6   2   -1.85    1.47
  -4   6   2    1.88    1.37
  -3  -6   2    0.53    1.60
   3  -6  -2    0.02    1.09
  -3   6   2   -0.88    1.02
  -2  -6   2    9.30    2.16
   2  -6  -2    9.76    1.55
   2  -6  -2    9.42    1.73
  -2   6   2   11.43    1.66
   1  -6  -2    3.67    1.44
   1  -6  -2    5.56    1.25
  -1  -6   2    5.09    1.67
   0  -6   2   40.68    3.52
   0  -6  -2   48.92    2.56
   0  -6  -2   45.65    3.30
  -1  -6  -2   13.14    2.20
   1  -6   2   14.29    2.14
  -1  -6  -2   15.65    1.57
  -2  -6  -2   26.83    3.04
   2  -6   2   24.16    2.61
  -2  -6  -2   29.13    1.99
  -2   6  -2   25.88    2.29
  -3  -6  -2   11.43    2.36
   3  -6   2   15.36    2.08
  -3   6  -2   16.61    2.09
  -4  -6  -2    1.61    1.76
  -4   6  -2    1.90    1.30
  -5  -6  -2   24.44    3.24
  -5   6  -2   22.38    2.69
  -6  -6  -2   -1.01    1.78
  -6   6  -2    1.44    1.52
  -7  -6  -2   17.62    3.00
   7   6   2   14.16    2.82
  -7   6  -2   15.97    2.66
  -8  -6  -2   -1.77    1.69
   8   6   2   -1.26    1.79
  -8   6  -2    1.42    1.86
   9   6   2    1.05    1.91
  -9   6  -2    1.38    1.93
  10   6   2    2.86    2.28
   9   7  -2    0.11    2.16
  -8  -7   2   19.03    3.38
   8   7  -2   19.39    3.38
  -8   7   2   18.66    3.35
  -7  -7   2    3.81    2.32
  -7   7   2    4.69    2.13
  -6  -7   2   11.06    2.72
  -6   7   2    4.58    2.04
  -5  -7   2   -1.05    1.86
  -5   7   2    2.75    1.80
  -4  -7   2    8.47    2.45
  -4   7   2    3.80    1.75
  -3  -7   2    3.38    1.97
  -3   7   2    2.51    1.50
  -2  -7   2    3.31    2.00
   2  -7  -2   10.84    2.13
  -1  -7   2   -0.51    1.62
   1  -7  -2    3.13    1.55
   0  -7   2    9.22    2.15
   0  -7  -2    6.51    1.98
   1  -7   2    9.41    2.18
  -1  -7  -2   13.43    2.56
   2  -7   2  107.79    5.38
  -2  -7  -2  112.30    5.90
  -3  -7  -2    9.69    2.40
   3  -7   2    5.67    1.75
  -4  -7  -2   14.32    2.91
  -5  -7  -2    2.69    2.16
  -6  -7  -2   24.67    3.77
  -7  -7  -2    2.78    2.25
   7   7   2    3.51    2.36
  -8  -7  -2    2.05    2.24
   8   7   2    1.90    2.25
   9   7   2   -0.01    2.15
  -8  -8   2   -0.14    2.27
   8   8  -2    0.23    2.34
  -7  -8   2    5.82    2.77
  -6  -8   2    1.39    2.34
  -5  -8   2   13.85    3.24
  -4  -8   2   -0.47    2.07
  -3  -8   2    2.31    2.15
   2  -8  -2    3.45    1.92
  -2  -8   2    4.07    2.22
  -1  -8   2    0.68    1.92
   1  -8  -2    1.82    1.79
   0  -8  -2    2.45    1.87
   0  -8   2    0.67    1.97
   1  -8   2    1.36    1.84
  -1  -8  -2    1.47    1.88
   2  -8   2   10.95    2.56
  -2  -8  -2    8.81    2.78
  -3  -8  -2    0.92    2.20
  -4  -8  -2   11.66    3.05
  -5  -8  -2    4.45    2.76
  -6  -8  -2    2.15    2.38
  -7  -8  -2    5.70    2.69
   7   8   2    6.69    2.92
   8   8   2    7.20    2.95
  -6  -9   2   -0.22    2.51
  -5  -9   2    3.06    2.66
  -4  -9   2    6.91    2.98
  -3  -9   2   20.16    3.82
  -2  -9   2    5.07    2.70
   1  -9  -2    0.67    2.06
  -1  -9   2    3.89    2.45
   0  -9   2    6.35    2.66
   0  -9  -2    6.30    2.54
  -1  -9  -2    2.43    2.36
   1  -9   2    2.74    2.29
  -2  -9  -2    1.42    2.35
  -3  -9  -2   -0.28    2.35
  -4  -9  -2    5.31    2.94
  -5  -9  -2    1.58    2.64
  -6  -9  -2   -0.04    2.38
   6   9   2   -0.96    2.39
  -3 -10   2    5.06    3.10
  -2 -10   2   -2.24    2.54
  -1 -10   2    2.14    2.80
   0 -10  -2   10.88    3.10
   0 -10   2    3.63    2.81
  -1 -10  -2    6.09    2.86
  -2 -10  -2    3.89    2.86
  -3 -10  -2   -0.70    2.70
  12   0  -3    0.14    1.31
 -12   0   3   -1.34    1.76
 -12   0   3   -0.17    1.65
 -11   0   3   11.70    2.41
  11   0  -3   12.41    1.95
 -11   0   3   10.19    2.35
  10   0  -3   -1.41    1.20
 -10   0   3    1.46    1.60
 -10   0   3    1.86    1.68
   9   0  -3   12.97    1.90
  -9   0   3   12.04    2.01
  -9   0   3   11.75    2.25
  -8   0   3    0.19    1.17
   8   0  -3    0.28    1.10
  -8   0   3    0.77    1.38
  -7   0   3   29.15    2.48
  -7   0   3   30.92    2.82
   7   0  -3   34.05    2.33
  -6   0   3   -0.74    0.86
  -6   0   3    0.12    1.11
   6   0  -3   -0.61    0.81
   5   0  -3   64.65    2.82
  -5   0   3   64.26    3.26
  -5   0   3   71.74    2.91
  -4   0   3    1.12    0.82
   4   0  -3   -1.25    0.57
  -4   0   3    0.21    0.66
   3   0  -3  268.09    7.33
  -3   0   3  267.61    7.70
  -2   0   3    0.51    0.60
   1   0  -3   77.06    2.26
   0   0  -3   -0.13    0.16
  -1   0  -3    1.91    0.37
  -2   0  -3   -0.22    0.47
  -3   0  -3  168.56    5.26
   3   0   3  179.05    5.04
  -4   0  -3    0.36    0.74
   4   0   3    1.41    0.78
   4   0   3    0.95    0.69
  -4   0  -3   -0.37    0.53
  -5   0  -3   11.90    1.29
   5   0   3   11.81    1.33
  -5   0  -3   13.08    1.60
   5   0   3   12.05    1.53
  -6   0  -3   -0.58    0.92
   6   0   3   -0.61    0.89
   6   0   3    0.51    1.08
  -6   0  -3   -0.66    0.74
  -7   0  -3   89.95    3.79
   7   0   3   96.55    4.18
  -7   0  -3   79.05    4.20
   7   0   3   83.63    3.71
   8   0   3   -0.76    1.07
  -8   0  -3   -1.14    1.09
  -8   0  -3   -1.12    1.27
  -9   0  -3   17.75    2.57
   9   0   3   14.62    2.12
  -9   0  -3   16.36    2.31
 -10   0  -3    0.59    1.49
  10   0   3   -1.24    1.26
 -10   0  -3    0.65    1.53
  11   0   3    4.27    1.58
 -11   0  -3    5.04    2.11
 -11   0  -3    5.03    1.90
  12   0   3    1.48    1.42
 -12   0  -3   -1.47    1.63
 -12  -1   3   -1.89    1.55
 -12  -1   3    3.51    2.17
  12   1  -3    3.20    1.63
 -12   1   3   -1.47    1.85
 -11  -1   3   -0.60    1.53
  11  -1  -3    2.20    1.04
 -11  -1   3    0.84    1.74
 -11   1   3    0.83    1.69
  11   1  -3   -1.66    1.38
 -10  -1   3   -0.11    1.51
  10  -1  -3    2.08    1.21
 -10  -1   3    1.67    1.58
 -10   1   3    4.89    1.82
  10   1  -3    0.70    1.39
   9  -1  -3   10.83    1.62
  -9  -1   3    3.35    1.71
  -9  -1   3    7.13    1.75
   9   1  -3    4.77    1.60
  -9   1   3    6.07    1.98
  -8  -1   3   39.42    2.77
   8  -1  -3   41.40    2.47
  -8  -1   3   44.26    3.14
   8   1  -3   40.97    2.63
  -8   1   3   37.63    3.47
  -7  -1   3   -1.00    0.93
   7  -1  -3    0.28    0.99
  -7  -1   3   -0.41    1.04
  -7   1   3    1.92    1.19
   7   1  -3    0.84    1.10
  -7   1   3   -0.81    1.12
  -6  -1   3    0.29    1.06
   6  -1  -3   -0.61    0.85
  -6  -1   3    0.02    0.92
  -6   1   3   -0.09    0.99
  -6   1   3   -0.64    0.87
   6   1  -3    1.79    1.07
   6   1  -3   -0.82    0.80
  -5  -1   3   34.45    2.33
  -5  -1   3   31.78    1.92
  -5  -1   3   33.84    2.09
   5  -1  -3   32.16    1.77
  -5   1   3   31.74    2.50
   5   1  -3   33.22    2.00
  -4  -1   3    1.70    0.71
  -4  -1   3    0.62    0.74
  -4  -1   3    1.78    0.75
   4  -1  -3    1.43    0.67
   4   1  -3    1.93    0.81
  -4   1   3    0.63    0.78
  -3  -1   3  117.21    3.76
   3  -1  -3  113.94    3.37
  -3  -1   3  118.82    3.63
  -3   1   3  117.22    4.03
   2  -1  -3   29.78    1.67
  -2  -1   3   35.95    1.46
  -2   1   3   36.68    1.65
   1  -1  -3    4.39    0.57
   0  -1  -3   23.29    0.94
  -1  -1  -3   36.69    1.35
  -1   1  -3   35.72    1.43
  -2  -1  -3  185.70    5.19
  -2   1  -3  183.65    5.38
  -3  -1  -3   51.48    2.08
   3  -1   3   51.42    1.85
  -3  -1  -3   45.81    2.29
  -3  -1  -3   52.69    1.85
   3   1   3   52.15    2.32
  -3   1  -3   52.79    2.32
  -4  -1  -3  246.93    6.78
   4  -1   3  238.32    6.77
  -4  -1  -3  248.94    7.24
   4   1   3  247.18    7.59
  -4   1  -3  240.29    7.53
   4   1   3  239.75    7.05
  -5  -1  -3    0.77    0.73
   5  -1   3    1.12    0.79
   5  -1   3    2.36    1.18
  -5  -1  -3    1.28    0.94
   5   1   3    0.68    0.84
  -5   1  -3    1.87    0.84
   5   1   3    1.48    0.93
  -5   1  -3    0.57    0.95
   6  -1   3   35.74    2.60
   6  -1   3   34.25    2.09
  -6  -1  -3   39.82    2.21
  -6  -1  -3   38.28    2.54
   6   1   3   34.55    2.39
  -6   1  -3   31.72    2.78
   6   1   3   36.81    2.30
  -6   1  -3   36.13    2.23
  -7  -1  -3   15.54    2.15
  -7  -1  -3   15.18    1.78
   7  -1   3   16.86    1.77
   7   1   3   20.78    2.11
   7   1   3   17.67    2.07
  -7   1  -3   16.06    2.20
  -7   1  -3   20.21    2.05
  -8  -1  -3   20.92    2.67
  -8  -1  -3   24.54    2.34
   8  -1   3   25.95    2.23
  -8   1  -3   25.39    2.91
  -8   1  -3   32.74    2.70
   8   1   3   29.70    2.53
  -9  -1  -3    3.95    1.81
  -9  -1  -3    4.26    1.56
   9  -1   3    1.30    1.26
   9   1   3    0.38    1.40
  -9   1  -3    1.61    1.49
  -9   1  -3    4.42    1.86
 -10  -1  -3   -0.90    1.61
  10  -1   3    1.22    1.25
 -10  -1  -3    0.31    1.48
  10   1   3    1.95    1.57
 -10   1  -3    2.70    1.74
 -10   1  -3   -0.48    1.52
 -11  -1  -3    4.15    2.07
  11  -1   3    6.97    1.40
 -11  -1  -3    4.30    1.89
 -11   1  -3    6.83    2.20
  11   1   3    8.21    1.87
 -11   1  -3    4.70    2.06
 -12  -1  -3    1.03    1.72
  12   1   3    1.16    1.61
 -12   1  -3   -1.54    1.73
 -12  -2   3   10.20    2.16
  12   2  -3   10.57    2.25
 -11  -2   3    0.31    1.55
 -11  -2   3    2.34    1.93
 -11   2   3   -0.04    1.73
  11   2  -3   -2.47    1.41
 -10  -2   3    1.78    1.52
 -10  -2   3    2.14    1.83
 -10   2   3   -1.58    1.44
  10   2  -3   -0.57    1.39
  -9  -2   3    1.51    1.43
  -9  -2   3    0.27    1.53
   9   2  -3    2.08    1.44
  -9   2   3    0.20    1.57
  -8  -2   3   29.02    2.99
  -8  -2   3   26.46    2.50
   8   2  -3   29.31    2.63
  -8   2   3   29.89    3.09
  -7  -2   3    4.18    1.50
  -7  -2   3    5.62    1.34
  -7  -2   3    7.19    1.52
   7  -2  -3    4.20    0.73
   7   2  -3    6.72    1.53
   7   2  -3    6.44    1.38
  -7   2   3    4.44    1.50
  -6  -2   3  119.93    4.81
  -6  -2   3  123.16    4.39
  -6  -2   3  113.88    4.66
  -6   2   3  124.68    5.13
   6   2  -3  126.14    4.61
  -5  -2   3   10.94    1.42
  -5  -2   3   10.96    1.27
  -5  -2   3    7.96    1.35
  -5   2   3    5.88    1.36
   5   2  -3   11.64    1.50
  -4  -2   3   20.48    1.52
  -4  -2   3   23.10    1.86
  -4  -2   3   23.02    1.42
  -4   2   3   19.17    1.95
  -3  -2   3    4.45    0.65
  -3  -2   3    6.43    0.73
  -3  -2   3    4.24    0.84
  -3   2   3    3.28    0.89
  -2  -2   3  207.43    5.59
   2  -2  -3  211.88    6.12
  -2  -2   3  209.33    5.38
  -2  -2   3  203.81    6.31
  -1  -2   3    0.28    0.25
   1  -2  -3   -0.55    0.39
  -1  -2   3    0.68    0.58
   0  -2  -3   68.22    2.22
   0  -2   3   64.58    2.02
  -1  -2  -3    4.85    0.60
  -1  -2  -3    4.25    0.87
  -1   2  -3    4.92    0.71
  -2  -2  -3  257.67    7.06
  -2  -2  -3  252.59    7.70
  -2   2  -3  257.73    7.34
  -3  -2  -3    1.70    0.83
  -3  -2  -3    1.22    0.40
  -3  -2  -3    0.49    0.53
  -3   2  -3    0.51    0.70
   4  -2   3  118.55    3.20
  -4  -2  -3  111.86    3.49
   4  -2   3  110.49    4.13
  -4  -2  -3  119.28    4.04
  -4  -2  -3  119.84    4.51
  -4   2  -3  112.83    4.37
   5  -2   3    0.84    1.01
  -5  -2  -3    0.53    0.84
  -5  -2  -3    3.57    1.11
   5  -2   3    0.87    0.69
  -5  -2  -3    1.83    0.71
   5   2   3    0.47    0.97
  -5   2  -3    1.78    1.09
   5   2   3    0.98    0.98
  -6  -2  -3    0.90    1.01
   6  -2   3    1.33    0.83
  -6  -2  -3    0.12    0.77
   6   2   3    0.96    0.98
   6   2   3    0.01    0.98
  -6   2  -3    1.12    1.21
  -7  -2  -3    0.42    1.21
  -7  -2  -3   -0.43    0.92
   7  -2   3    1.84    0.91
   7   2   3   -1.24    0.98
   7   2   3   -0.53    1.08
  -7   2  -3    1.81    1.34
   8  -2   3   96.41    3.29
  -8  -2  -3   83.26    4.63
  -8  -2  -3   87.09    3.93
   8   2   3   93.12    4.47
   8   2   3   87.46    4.26
  -8   2  -3  100.22    5.08
  -9  -2  -3    3.00    1.42
  -9  -2  -3    2.62    1.76
   9   2   3   -1.02    1.21
  -9   2  -3    0.17    1.57
 -10  -2  -3    2.43    1.89
 -10  -2  -3    0.15    1.52
  10   2   3    2.75    1.65
 -10   2  -3   -0.86    1.45
 -11  -2  -3    1.74    2.00
 -11  -2  -3    0.32    1.58
 -11   2  -3    0.52    1.65
  11   2   3    0.74    1.61
 -12  -2  -3   18.60    2.46
  12   2   3   14.10    2.36
 -12  -3   3   -0.57    1.49
  12   3  -3    0.07    1.76
 -11  -3   3    2.98    1.67
 -11   3   3    1.42    1.82
  11   3  -3    1.14    1.71
 -10  -3   3    1.20    1.48
  10   3  -3    2.81    1.76
 -10   3   3    2.51    1.89
  -9  -3   3   12.38    1.88
  -9  -3   3    9.45    2.37
  -9   3   3   11.26    2.48
   9   3  -3   11.83    2.16
  -8  -3   3   27.75    3.07
  -8  -3   3   26.97    2.31
  -8  -3   3   28.36    2.77
   8   3  -3   31.39    2.87
  -8   3   3   31.83    3.35
   8   3  -3   27.00    2.72
  -7  -3   3    0.19    0.96
  -7  -3   3    0.26    1.17
  -7  -3   3    0.95    1.29
   7   3  -3    1.30    1.30
  -7   3   3   -0.14    1.21
  -6  -3   3    0.66    1.10
  -6  -3   3    1.80    1.06
  -6  -3   3    1.78    0.87
  -6   3   3    0.94    1.27
  -5  -3   3   15.02    1.81
  -5  -3   3   12.04    1.12
  -5  -3   3   13.45    1.46
  -5   3   3    8.68    1.70
  -4  -3   3    0.99    0.64
  -4  -3   3    1.17    0.51
  -4  -3   3    0.41    0.95
  -4   3   3    0.76    0.93
  -3  -3   3  108.32    4.27
  -3  -3   3  117.12    3.52
   3  -3  -3  115.61    4.25
  -3   3   3  108.47    4.17
  -2  -3   3   19.16    1.00
   2  -3  -3   20.41    1.60
  -2  -3   3   22.01    1.85
   1  -3  -3    2.14    0.63
   1  -3  -3    3.01    0.76
  -1  -3   3    2.14    0.83
  -1  -3   3    2.28    0.42
   0  -3   3    6.72    1.05
   0  -3  -3    8.72    0.85
   0  -3  -3    4.98    0.89
   0  -3   3    6.34    0.67
  -1  -3  -3   28.87    1.89
   1  -3   3   27.84    1.76
  -1  -3  -3   26.04    1.37
   1  -3   3   29.52    1.54
  -1   3  -3   27.03    1.47
  -2  -3  -3    1.25    0.88
   2  -3   3    2.25    0.82
  -2  -3  -3    1.96    0.57
  -2   3  -3    0.72    0.66
  -3  -3  -3   11.14    1.12
  -3  -3  -3   10.77    1.56
   3  -3   3   11.41    1.32
  -3   3  -3   10.37    1.37
   4  -3   3   35.58    2.03
  -4  -3  -3   31.24    1.25
  -4  -3  -3   36.19    2.52
  -4  -3  -3   33.12    1.17
  -4  -3  -3   30.55    1.88
  -4   3  -3   32.24    2.48
  -5  -3  -3    3.88    1.07
  -5  -3  -3    4.40    0.70
  -5  -3  -3    2.57    1.31
  -5   3  -3    3.18    1.26
  -6  -3  -3    4.54    1.42
  -6  -3  -3    3.99    0.89
  -6  -3  -3    4.33    1.29
  -6   3  -3    4.26    1.45
   6   3   3    1.34    1.24
  -7  -3  -3   34.12    2.07
  -7  -3  -3   33.29    2.97
   7   3   3   37.41    3.19
  -7   3  -3   35.54    3.30
  -8  -3  -3    3.89    1.25
  -8  -3  -3    4.79    1.75
  -8   3  -3    4.71    1.76
   8   3   3    4.94    1.66
   8   3   3    7.76    1.75
  -9  -3  -3   10.70    2.36
  -9  -3  -3    7.44    1.58
  -9   3  -3    9.40    2.30
   9   3   3    8.55    2.06
   9   3   3   10.86    2.23
 -10  -3  -3    2.38    2.16
 -10  -3  -3   -0.77    1.30
 -10   3  -3   -0.49    1.60
  10   3   3   -0.14    1.58
 -11  -3  -3    5.79    2.58
 -11  -3  -3    4.76    1.67
  11   3   3    4.29    1.93
 -11   3  -3    4.88    2.24
 -12  -3  -3    0.83    1.50
  12   3   3    1.81    1.83
  11   4  -3    6.60    2.24
 -10  -4   3   -0.49    1.12
 -10   4   3    0.67    1.78
  -9  -4   3    5.26    1.24
  -9   4   3    5.67    2.04
  -8  -4   3    0.34    0.88
  -8  -4   3   -0.51    1.34
   8   4  -3    0.51    1.44
  -8   4   3    0.66    1.45
  -7  -4   3   15.48    2.31
  -7  -4   3   15.56    1.21
  -7   4   3   12.14    2.21
  -6  -4   3    3.09    1.48
  -6  -4   3    3.65    1.21
  -6   4   3    3.36    1.60
  -5  -4   3   17.55    2.25
  -5  -4   3   17.28    1.62
  -5   4   3   16.64    2.14
  -4  -4   3    2.18    1.20
  -4  -4   3    0.94    0.70
  -4   4   3    0.69    1.02
  -3  -4   3   53.20    2.09
   3  -4  -3   54.30    2.40
   3  -4  -3   51.98    2.84
  -3  -4   3   52.78    2.99
  -3   4   3   50.33    2.70
   2  -4  -3   10.91    1.29
  -2  -4   3    8.85    0.81
   2  -4  -3   10.86    1.28
  -2  -4   3    8.27    1.43
  -1  -4   3   57.14    2.89
  -1  -4   3   50.56    1.97
   1  -4  -3   57.05    2.66
   1  -4  -3   53.83    2.39
   0  -4  -3   24.39    1.58
   0  -4  -3   26.52    2.11
   0  -4   3   27.69    2.19
   0  -4   3   24.94    1.43
  -1  -4  -3   -0.02    0.79
   1  -4   3    1.17    0.67
  -1  -4  -3    0.66    0.58
   1  -4   3    1.29    0.95
  -1   4  -3    0.56    0.63
  -2  -4  -3    6.84    0.97
  -2  -4  -3    6.10    1.36
   2  -4   3    6.60    1.27
  -2   4  -3    6.06    1.11
   3  -4   3   69.57    3.30
  -3  -4  -3   74.19    2.92
  -3  -4  -3   73.16    3.67
  -3   4  -3   80.63    3.47
  -4  -4  -3   10.27    1.83
   4  -4   3   13.74    1.55
  -4  -4  -3   11.20    1.36
  -4   4  -3   10.46    1.58
  -5  -4  -3    1.35    0.96
  -5  -4  -3   -1.29    1.02
  -5   4  -3    2.03    1.25
  -6  -4  -3    2.69    1.27
  -6  -4  -3   -0.23    1.28
   6   4   3    1.60    1.39
  -6   4  -3    4.58    1.59
  -7  -4  -3   56.71    3.88
  -7  -4  -3   64.52    3.76
  -7   4  -3   70.16    4.22
   7   4   3   66.78    4.08
  -8  -4  -3    2.20    1.73
  -8   4  -3    0.57    1.44
   8   4   3    0.89    1.49
  -9  -4  -3    4.10    2.09
  -9   4  -3    5.66    2.12
   9   4   3    4.46    1.88
 -10   4  -3    1.62    1.90
  11   4   3    5.40    2.20
 -10   5   3   -0.84    1.88
   9   5  -3    1.61    1.84
  -9   5   3    2.12    1.93
  -8  -5   3   14.82    2.62
   8   5  -3   21.90    2.94
  -8   5   3   15.47    2.69
  -7  -5   3    1.48    1.63
  -7   5   3    1.56    1.45
  -6  -5   3   -0.91    1.35
  -6   5   3    1.43    1.53
  -5  -5   3   14.04    2.26
  -5   5   3   12.65    2.14
  -4  -5   3    1.29    1.34
  -4   5   3    0.37    1.16
  -3  -5   3   17.45    2.32
   3  -5  -3   12.24    1.66
   3  -5  -3   17.05    1.76
  -3   5   3   13.68    1.72
   2  -5  -3    5.30    1.24
   2  -5  -3    5.56    1.20
  -2  -5   3    4.30    1.55
   1  -5  -3    0.30    0.77
  -1  -5   3   -0.16    1.02
   1  -5  -3    1.96    1.08
  -1  -5   3    0.84    0.64
   0  -5  -3   17.27    2.05
   0  -5  -3   15.98    1.49
   0  -5   3   18.18    1.42
   0  -5   3   18.55    2.20
   1  -5   3    8.10    1.50
   1  -5   3   10.18    1.26
  -1  -5  -3    5.67    1.54
  -1  -5  -3    7.46    1.08
  -1   5  -3    9.06    1.22
  -2  -5  -3   82.13    3.21
   2  -5   3   83.97    3.88
  -2  -5  -3   81.55    4.18
  -2   5  -3   84.20    3.56
  -3  -5  -3   20.53    1.70
   3  -5   3   27.23    2.36
  -3  -5  -3   21.60    2.50
  -3   5  -3   21.21    2.14
  -4  -5  -3   78.52    3.48
   4  -5   3   81.96    3.77
  -4  -5  -3   82.54    4.55
  -4   5  -3   84.11    3.97
  -5  -5  -3   -0.87    1.36
  -5  -5  -3    1.14    1.01
  -5   5  -3    0.33    1.06
  -6  -5  -3    9.36    2.20
  -6  -5  -3    7.64    1.63
  -6   5  -3    8.82    1.92
  -7  -5  -3    0.54    1.69
   7   5   3    4.00    1.85
  -7   5  -3    2.67    1.64
   8   5   3   22.89    3.10
  -8   5  -3   18.78    2.88
  -9   5  -3   -1.49    1.61
   9   5   3    1.69    1.89
 -10   5  -3    3.35    2.21
  10   5   3    2.22    2.10
  -9  -6   3    1.52    1.96
   9   6  -3   13.01    2.83
  -9   6   3    7.64    2.47
  -8  -6   3   11.02    2.60
   8   6  -3    9.09    2.53
  -8   6   3   12.60    2.69
  -7  -6   3   14.88    2.87
  -7   6   3   13.39    2.52
  -6  -6   3   26.11    3.43
  -6   6   3   30.21    3.26
  -5  -6   3   19.11    2.89
  -5   6   3   20.66    2.62
  -4  -6   3    8.46    2.20
  -4   6   3    9.10    1.85
  -3  -6   3    1.26    1.59
  -3   6   3    2.49    1.25
   2  -6  -3   47.47    3.05
  -2  -6   3   48.01    3.96
   2  -6  -3   44.02    2.83
  -2   6   3   48.11    2.84
   1  -6  -3   -0.49    0.89
   1  -6  -3   -0.42    1.18
  -1  -6   3   -0.71    1.17
   0  -6  -3   15.21    2.22
   0  -6  -3   14.54    1.63
   0  -6   3   11.47    2.05
  -1  -6  -3    1.11    1.36
  -1  -6  -3    4.85    1.06
   1  -6   3    3.36    1.50
  -2  -6  -3   54.33    3.75
   2  -6   3   50.12    3.32
  -2  -6  -3   54.62    2.70
  -2   6  -3   54.43    2.99
  -3  -6  -3    1.96    0.98
   3  -6   3    0.75    1.21
  -3  -6  -3   -0.71    1.40
  -3   6  -3   -0.64    1.08
  -4  -6  -3   41.29    3.92
  -4   6  -3   37.96    3.12
  -5  -6  -3    4.34    2.01
  -5   6  -3    4.58    1.65
  -6  -6  -3    2.38    2.02
  -6   6  -3    0.47    1.52
  -7  -6  -3    1.89    1.83
   7   6   3    7.92    2.47
  -7   6  -3    5.64    1.98
   8   6   3   25.71    3.58
  -8   6  -3   21.99    3.15
   9   6   3    2.83    2.18
  -9   6  -3    5.00    2.19
  10   6   3   -2.04    2.01
  -9  -7   3    3.25    2.30
   9   7  -3    7.82    2.66
  -8  -7   3    4.40    2.36
   8   7  -3   -0.64    1.94
  -8   7   3    5.28    2.35
  -7  -7   3   -1.28    1.89
  -7   7   3    1.87    1.94
  -6  -7   3   -1.24    1.65
  -6   7   3   -0.39    1.66
  -5  -7   3   -0.92    1.68
  -5   7   3    0.53    1.46
  -4  -7   3    1.41    1.87
  -4   7   3    3.43    1.71
  -3  -7   3   33.40    3.88
  -3   7   3   31.94    3.07
   2  -7  -3    0.72    1.36
   2  -7  -3    2.39    1.36
  -2  -7   3    3.49    2.01
  -2   7   3    0.17    1.17
  -1  -7   3    2.00    1.78
   1  -7  -3   -2.99    1.09
   0  -7   3    3.97    1.82
   0  -7  -3    6.08    1.93
   1  -7   3    4.10    1.84
  -1  -7  -3    5.41    2.06
   2  -7   3    8.14    2.03
  -2  -7  -3    5.17    2.13
  -3  -7  -3    3.06    2.03
   3  -7   3    0.51    1.39
  -4  -7  -3    1.32    1.92
  -5  -7  -3    0.52    2.04
  -6  -7  -3   -0.67    2.01
  -7  -7  -3   14.67    3.05
   7   7   3   12.64    3.09
   8   7   3    0.34    2.14
   9   7   3    2.99    2.38
  -8  -8   3    2.14    2.40
   8   8  -3   -1.22    2.19
  -7  -8   3    1.33    2.39
  -6  -8   3    0.58    2.24
  -5  -8   3   -0.02    2.30
  -4  -8   3   -0.87    1.86
  -3  -8   3   -0.11    2.04
  -2  -8   3   -0.27    2.06
   1  -8  -3   12.58    2.56
  -1  -8   3   13.22    2.85
   0  -8  -3   12.78    2.62
   0  -8   3   10.06    2.70
   1  -8   3    1.91    1.91
  -1  -8  -3   -0.64    1.78
   2  -8   3    4.93    2.12
  -2  -8  -3    3.75    2.24
  -3  -8  -3   17.25    3.33
  -4  -8  -3    8.29    2.89
  -5  -8  -3   -1.68    2.17
  -6  -8  -3    0.12    2.30
   6   8   3    1.52    2.34
  -7  -8  -3   11.96    3.38
   7   8   3   13.01    3.36
   8   8   3    0.32    2.43
  -6  -9   3    1.50    2.58
  -5  -9   3   -2.68    2.25
  -4  -9   3    8.52    3.19
  -3  -9   3    0.82    2.44
  -2  -9   3    1.03    2.34
   1  -9  -3    2.60    2.23
  -1  -9   3    3.73    2.50
   0  -9   3   -0.32    2.26
   0  -9  -3    1.65    2.25
  -1  -9  -3   -2.00    1.98
   1  -9   3    3.83    2.40
  -2  -9  -3   11.43    3.08
  -3  -9  -3    3.81    2.66
  -4  -9  -3   14.38    3.66
  -5  -9  -3   -1.60    2.29
   5   9   3   -1.49    2.27
  -6  -9  -3    1.01    2.59
   6   9   3   -3.96    2.18
  -3 -10   3    0.95    2.73
  -2 -10   3    3.06    2.81
  -1 -10   3   -1.97    2.37
   0 -10   3    5.64    2.80
   0 -10  -3    0.50    2.46
   1 -10   3    0.82    2.46
  -1 -10  -3   -1.11    2.41
  -2 -10  -3    1.95    2.79
 -12   0   4   18.27    3.06
  12   0  -4   19.59    2.06
 -12   0   4   17.54    2.73
 -11   0   4    1.50    1.74
 -11   0   4   -0.65    1.71
  11   0  -4   -1.75    1.25
 -10   0   4   -1.23    1.49
  10   0  -4    1.03    1.35
 -10   0   4    0.71    1.56
  -9   0   4    0.65    1.36
   9   0  -4   -0.08    1.19
  -9   0   4    0.50    1.34
   8   0  -4   27.13    2.34
  -8   0   4   34.48    2.83
  -8   0   4   29.34    2.91
   7   0  -4   -0.04    1.05
  -7   0   4   -0.65    1.05
  -7   0   4   -0.66    1.16
   6   0  -4  168.20    5.55
  -6   0   4  168.51    6.24
  -6   0   4  170.88    5.70
  -5   0   4    0.13    0.77
   5   0  -4   -0.41    0.78
  -5   0   4   -0.88    0.83
   4   0  -4   28.73    1.65
  -4   0   4   31.99    2.05
  -4   0   4   28.61    1.75
   3   0  -4   -0.42    0.56
  -3   0   4   -0.51    0.62
  -2   0   4    7.02    0.86
   1   0  -4   -0.07    0.31
   0   0  -4    0.23    0.20
   0   0  -4    0.39    0.20
  -1   0  -4   -0.03    0.30
  -2   0  -4  199.30    5.60
   3   0   4   -0.18    0.55
  -3   0  -4    0.35    0.59
   4   0   4  156.57    4.78
  -4   0  -4  157.94    5.13
   4   0   4  147.99    5.24
  -4   0  -4  153.51    4.62
  -5   0  -4    0.43    0.73
  -5   0  -4   -0.34    0.81
   5   0   4   -0.29    0.94
   5   0   4    0.76    0.88
   6   0   4   79.98    3.52
  -6   0  -4   79.04    3.42
   6   0   4   95.53    4.08
  -6   0  -4   88.57    4.08
  -7   0  -4    0.92    1.26
  -7   0  -4   -0.22    0.94
   7   0   4    0.20    1.03
   7   0   4    1.20    1.30
   8   0   4   38.10    2.66
  -8   0  -4   43.88    3.58
  -8   0  -4   43.37    2.95
  -9   0  -4    0.29    1.29
  -9   0  -4    0.01    1.39
   9   0   4   -1.19    1.23
  10   0   4   15.11    2.15
 -10   0  -4   20.05    2.89
 -10   0  -4   16.68    2.42
 -11   0  -4    0.51    1.59
  11   0   4   -0.57    1.35
 -11   0  -4    1.00    1.70
 -12   0  -4   12.88    2.47
  12   0   4   15.39    2.06
 -12  -1   4    1.88    2.13
 -12  -1   4    0.88    1.70
  12   1  -4   -0.09    1.47
 -12   1   4    0.76    1.89
 -11  -1   4   -2.28    1.48
  11  -1  -4   -2.22    0.86
 -11  -1   4    0.30    1.78
 -11   1   4   -0.35    1.58
  11   1  -4   -1.03    1.34
  10  -1  -4    4.83    1.35
 -10  -1   4    2.82    1.69
 -10  -1   4    6.98    2.01
 -10   1   4    9.51    2.27
  10   1  -4    7.00    1.77
  -9  -1   4    1.11    1.54
  -9  -1   4    2.30    1.47
   9  -1  -4    1.43    1.19
  -9   1   4    5.00    1.82
   9   1  -4    0.27    1.37
   8  -1  -4    8.85    1.46
  -8  -1   4    4.95    1.48
  -8  -1   4    3.24    1.69
  -8   1   4    9.11    2.05
   8   1  -4    8.77    1.58
   7  -1  -4    3.64    1.14
  -7  -1   4    1.43    1.15
  -7  -1   4    1.04    1.11
  -7   1   4    0.04    1.07
   7   1  -4    2.18    1.12
  -7   1   4    0.50    1.28
  -6  -1   4   18.44    1.65
  -6  -1   4   16.51    1.91
   6  -1  -4   16.91    1.60
  -6  -1   4   23.41    2.02
  -6   1   4   17.90    1.80
  -6   1   4   20.22    2.14
   6   1  -4   15.03    1.72
   6   1  -4   21.12    1.77
  -5  -1   4    1.89    0.97
  -5  -1   4   -0.40    0.76
   5  -1  -4    0.73    0.74
  -5  -1   4    0.34    0.75
   5   1  -4    1.20    0.85
  -5   1   4   -0.25    0.91
  -4  -1   4   28.49    1.73
   4  -1  -4   27.77    1.52
  -4  -1   4   28.06    1.90
  -4  -1   4   31.95    1.69
   4   1  -4   33.15    1.82
  -4   1   4   29.65    2.04
  -3  -1   4  140.45    4.27
  -3  -1   4  142.96    4.42
   3  -1  -4  142.61    4.01
  -3   1   4  141.87    4.64
  -2  -1   4   31.86    1.41
   2  -1  -4   34.68    1.59
   1  -1  -4  100.61    3.02
   0  -1  -4   28.47    1.12
  -1  -1  -4    4.29    0.53
  -1   1  -4    4.35    0.59
  -2  -1  -4    3.39    0.33
  -2  -1  -4    3.02    0.59
  -2   1  -4    2.46    0.64
  -3  -1  -4   12.92    1.14
  -3  -1  -4   13.60    0.94
   3  -1   4   12.75    0.99
   3   1   4   16.05    1.43
  -3   1  -4   12.56    1.27
  -4  -1  -4  223.94    6.18
   4  -1   4  193.58    7.03
  -4  -1  -4  216.97    6.62
   4  -1   4  220.96    6.21
   4   1   4  222.05    6.48
  -4   1  -4  227.71    6.96
   4   1   4  227.65    7.03
   5  -1   4   -0.62    1.10
   5  -1   4    1.12    0.73
  -5  -1  -4    0.95    0.71
  -5  -1  -4   -0.44    0.83
  -5   1  -4    0.44    0.91
   5   1   4   -0.33    0.79
  -5   1  -4    0.61    0.75
   5   1   4    1.45    0.95
  -6  -1  -4   -0.14    0.80
   6  -1   4    1.49    1.36
   6  -1   4    0.74    0.87
  -6  -1  -4    1.07    1.02
  -6   1  -4    2.58    1.02
   6   1   4    0.43    0.99
   6   1   4    0.58    1.02
  -6   1  -4    1.22    1.14
   7  -1   4   -1.69    0.93
  -7  -1  -4   -0.58    0.90
  -7  -1  -4    0.80    1.18
   7   1   4    2.36    1.24
  -7   1  -4   -1.60    1.15
   7   1   4   -2.81    0.95
  -7   1  -4    1.89    1.08
  -8  -1  -4    5.98    1.49
  -8  -1  -4    4.39    1.61
   8  -1   4    8.53    1.56
   8   1   4    7.36    1.61
  -8   1  -4    8.56    1.91
  -8   1  -4   11.98    1.90
   8   1   4    8.19    1.76
  -9  -1  -4   40.09    3.66
   9  -1   4   37.85    2.56
  -9  -1  -4   33.03    2.86
  -9   1  -4   36.83    3.14
  -9   1  -4   36.48    3.54
   9   1   4   32.07    2.91
  10  -1   4    1.54    1.30
 -10  -1  -4    3.34    1.68
 -10  -1  -4    2.46    1.73
 -10   1  -4    0.52    1.49
  10   1   4    2.97    1.63
 -10   1  -4    0.80    1.57
  11  -1   4    1.91    1.21
 -11  -1  -4   -0.61    1.51
 -11  -1  -4   -1.73    1.68
 -11   1  -4   -1.53    1.52
  11   1   4   -2.72    1.35
 -11   1  -4   -0.03    1.71
 -12  -1  -4   -0.37    1.75
 -12   1  -4    3.66    2.05
  12   1   4    0.40    1.54
 -12  -2   4    1.01    1.61
  12   2  -4   -0.67    1.58
 -11  -2   4   39.81    4.04
 -11  -2   4   34.90    3.23
 -11   2   4   36.00    3.81
 -10  -2   4   -0.47    1.44
 -10  -2   4    2.24    1.89
 -10   2   4   -1.09    1.44
  10   2  -4    0.53    1.54
  -9  -2   4    2.44    1.58
  -9  -2   4    6.92    2.05
   9   2  -4    4.80    1.63
  -9   2   4    2.41    1.67
  -8  -2   4    4.92    1.74
  -8  -2   4    0.05    1.14
  -8   2   4    1.65    1.38
   8   2  -4    1.59    1.33
  -7  -2   4  118.36    5.17
  -7  -2   4  123.10    4.87
  -7  -2   4  116.83    4.66
   7   2  -4  129.11    4.88
  -7   2   4  126.86    5.52
   7   2  -4  120.11    4.81
  -6  -2   4   -0.42    0.93
  -6  -2   4    0.94    1.02
  -6  -2   4   -1.14    0.88
   6   2  -4    1.21    1.03
  -6   2   4    1.10    1.11
  -5  -2   4   22.68    1.92
  -5  -2   4   26.59    2.08
  -5  -2   4   21.92    1.70
  -5   2   4   19.32    2.05
   5   2  -4   22.35    1.93
  -4  -2   4    1.91    0.72
  -4  -2   4    1.71    0.71
  -4  -2   4    2.07    0.86
  -4   2   4    2.11    1.00
  -3  -2   4  366.92    9.79
  -3  -2   4  367.43    9.59
  -3  -2   4  375.29   10.57
   3  -2  -4  363.84   10.38
  -3   2   4  358.87   10.38
  -2  -2   4    1.18    0.35
  -2  -2   4    1.15    0.65
   2  -2  -4    0.83    0.57
  -2  -2   4    0.65    0.38
  -1  -2   4  248.23    7.18
  -1  -2   4  236.89    6.26
   1  -2  -4  249.50    6.78
   0  -2  -4    0.93    0.43
   0  -2   4    1.19    0.37
   0   2  -4    1.76    0.38
  -1  -2  -4   24.29    1.50
  -1  -2  -4   22.99    1.22
  -1   2  -4   23.53    1.30
  -2  -2  -4    2.56    0.60
  -2  -2  -4    3.05    0.88
  -2   2  -4    3.54    0.78
  -3  -2  -4   54.93    2.70
   3  -2   4   55.87    2.53
  -3  -2  -4   52.72    1.75
  -3  -2  -4   54.84    2.23
  -3   2  -4   49.49    2.40
  -4  -2  -4    1.04    0.54
   4  -2   4    1.42    0.54
   4  -2   4    2.26    0.96
  -4  -2  -4    3.93    1.07
  -4  -2  -4    1.63    0.68
   4   2   4    1.55    0.87
  -4   2  -4    0.79    0.77
  -5  -2  -4   44.27    1.99
   5  -2   4   43.99    2.52
  -5  -2  -4   42.58    2.61
   5  -2   4   41.56    1.88
  -5  -2  -4   49.07    2.58
  -5  -2  -4   42.19    1.45
  -5   2  -4   45.58    2.73
   5   2   4   41.57    2.36
   5   2   4   44.84    2.63
   6  -2   4    2.70    0.90
  -6  -2  -4    0.15    0.78
  -6  -2  -4    2.16    1.07
   6   2   4    2.30    1.16
   6   2   4    0.90    1.05
  -6   2  -4    0.66    1.20
   7  -2   4   84.49    3.30
  -7  -2  -4   93.18    3.74
  -7  -2  -4   88.40    4.41
   7   2   4   93.86    4.39
   7   2   4   98.27    4.09
  -7   2  -4   99.97    4.78
  -8  -2  -4    1.32    1.18
   8  -2   4    1.01    0.99
  -8  -2  -4    4.53    1.65
   8   2   4    1.25    1.41
   8   2   4    3.11    1.45
  -8   2  -4    2.79    1.53
   9  -2   4   17.24    1.24
  -9  -2  -4   16.07    2.18
  -9  -2  -4   11.39    2.37
  -9   2  -4   14.64    2.56
   9   2   4   12.52    2.06
 -10  -2  -4    3.19    1.65
 -10  -2  -4    0.23    1.74
  10   2   4    1.10    1.58
 -10   2  -4    3.19    1.87
 -11  -2  -4   -1.00    1.86
 -11  -2  -4    1.46    1.58
  11   2   4   -0.56    1.51
 -11   2  -4    0.84    1.86
 -12  -2  -4    0.19    1.61
  12   2   4    0.94    1.74
 -12  -3   4    1.42    1.54
  12   3  -4   -0.07    1.78
 -11  -3   4    1.47    1.58
 -11   3   4    2.06    1.92
  11   3  -4    1.03    1.76
 -10  -3   4    3.01    1.57
 -10   3   4    0.25    1.60
  10   3  -4    1.72    1.61
  -9  -3   4    1.67    1.38
  -9  -3   4    2.55    1.81
  -9   3   4    3.47    1.84
   9   3  -4    2.46    1.60
  -8  -3   4    8.55    2.12
  -8  -3   4    7.10    1.51
  -8  -3   4   12.27    1.99
  -8   3   4   10.94    2.16
   8   3  -4    6.43    1.79
   8   3  -4    8.58    1.80
  -7  -3   4   -0.68    1.24
  -7  -3   4    1.41    1.05
  -7  -3   4    0.19    1.16
  -7   3   4   -0.82    1.23
   7   3  -4    0.42    1.17
  -6  -3   4   29.82    1.92
  -6  -3   4   31.42    2.68
  -6  -3   4   29.33    2.39
  -6   3   4   29.13    2.78
  -5  -3   4    1.49    0.72
  -5  -3   4   -0.50    0.75
  -5  -3   4    0.36    0.99
  -5   3   4    0.41    1.06
  -4  -3   4   24.87    1.55
  -4  -3   4   30.53    2.40
  -4  -3   4   27.26    1.28
  -4   3   4   25.37    2.26
  -3  -3   4   47.11    1.85
   3  -3  -4   54.49    2.67
  -3  -3   4   48.34    2.61
  -3   3   4   53.84    2.61
   2  -3  -4    4.14    0.90
  -2  -3   4    4.05    0.96
  -2  -3   4    5.84    0.55
   1  -3  -4    7.95    0.95
  -1  -3   4    9.56    0.63
  -1  -3   4    9.47    1.21
   1  -3  -4    9.73    1.06
   0  -3   4   56.92    2.59
   0  -3  -4   53.85    2.50
   0  -3  -4   60.32    2.23
   0  -3   4   56.03    1.95
   1  -3   4   33.24    1.98
  -1  -3  -4   35.01    1.61
  -1  -3  -4   33.91    2.03
  -1   3  -4   30.76    1.61
  -2  -3  -4   25.77    1.83
   2  -3   4   24.64    1.75
  -2  -3  -4   25.31    1.39
  -2   3  -4   23.68    1.63
  -3  -3  -4    0.91    0.57
   3  -3   4    2.00    0.88
  -3  -3  -4    2.48    1.10
  -3   3  -4    1.68    0.84
  -4  -3  -4  221.99    6.73
  -4  -3  -4  224.38    7.63
   4  -3   4  223.17    7.09
  -4  -3  -4  216.98    5.65
  -4  -3  -4  210.63    5.70
  -4   3  -4  229.75    7.21
  -5  -3  -4    5.01    1.13
  -5  -3  -4    3.33    1.26
   5  -3   4    5.30    1.21
  -5  -3  -4    4.10    0.72
  -5   3  -4    7.62    1.52
   5   3   4    4.36    1.40
  -6  -3  -4   -0.14    0.97
  -6  -3  -4   -0.10    0.71
  -6  -3  -4    0.92    1.10
   6   3   4    0.75    1.09
  -6   3  -4    0.19    1.18
  -7  -3  -4    1.77    1.25
  -7  -3  -4    0.85    0.89
  -7   3  -4   -0.21    1.38
   7   3   4    1.32    1.24
  -8  -3  -4   18.52    2.58
  -8  -3  -4   17.67    1.86
   8   3   4   22.89    2.68
   8   3   4   21.34    2.39
  -8   3  -4   22.44    2.88
  -9  -3  -4   16.72    1.98
  -9  -3  -4   17.56    2.70
   9   3   4   21.92    2.66
   9   3   4   20.95    2.72
  -9   3  -4   25.79    3.17
 -10  -3  -4    0.34    1.40
 -10  -3  -4    3.90    2.16
  10   3   4   -1.27    1.49
 -10   3  -4   -1.07    1.54
 -11  -3  -4    1.35    2.22
 -11  -3  -4   -0.58    1.42
 -11   3  -4   -0.78    1.76
  11   3   4    0.96    1.76
 -12  -3  -4    0.36    1.45
  12   3   4    0.45    1.62
  11   4  -4   -0.17    1.87
 -10  -4   4    0.72    1.16
  10   4  -4    0.09    1.76
 -10   4   4    1.66    1.92
  -9  -4   4   10.31    1.46
  -9   4   4    9.73    2.42
  -8  -4   4   19.12    1.61
  -8  -4   4   16.93    2.53
   8   4  -4   15.72    2.43
  -8   4   4   13.47    2.42
  -7  -4   4    7.77    1.91
  -7  -4   4    8.63    1.05
  -7   4   4   10.06    2.04
  -6  -4   4   65.70    3.87
  -6   4   4   72.64    4.13
  -5  -4   4    9.60    1.29
  -5  -4   4    8.66    1.76
  -5   4   4    9.56    1.86
  -4  -4   4    7.12    0.97
  -4  -4   4    8.54    1.62
  -4   4   4    7.30    1.42
   3  -4  -4   15.57    1.36
  -3  -4   4   14.86    1.08
   3  -4  -4   13.38    1.64
  -3  -4   4   14.80    1.95
  -3   4   4   14.96    1.71
  -2  -4   4   30.77    1.34
   2  -4  -4   27.78    1.80
   2  -4  -4   27.66    1.94
  -2  -4   4   24.97    2.26
   1  -4  -4    4.59    0.92
  -1  -4   4    4.65    1.24
  -1  -4   4    5.94    0.67
   1  -4  -4    6.07    1.10
   0  -4  -4   -0.33    0.80
   0  -4  -4    0.15    0.53
   0  -4   4   -0.19    0.81
   0  -4   4    0.04    0.51
  -1  -4  -4    1.60    0.93
   1  -4   4    2.01    1.02
  -1  -4  -4    2.25    0.69
  -1   4  -4    2.72    0.76
  -2  -4  -4   63.54    2.54
  -2  -4  -4   63.95    3.28
   2  -4   4   58.75    3.02
  -2   4  -4   59.30    2.78
  -3  -4  -4    2.18    0.77
   3  -4   4    3.12    1.10
  -3  -4  -4    2.12    1.13
  -3   4  -4    3.00    1.03
   4  -4   4   52.55    2.81
  -4  -4  -4   49.98    2.55
  -4  -4  -4   53.60    3.34
  -4   4  -4   48.59    2.93
  -5  -4  -4    3.70    1.09
  -5  -4  -4    1.47    1.35
  -5   4  -4    1.49    1.17
  -6  -4  -4   23.50    2.77
  -6  -4  -4   24.76    2.36
  -6   4  -4   22.14    2.62
   6   4   4   21.30    2.63
  -7  -4  -4    1.18    1.33
   7   4   4    1.66    1.40
  -7   4  -4   -1.08    1.22
  -8  -4  -4   17.86    2.67
  -8   4  -4   15.29    2.57
   8   4   4   15.02    2.51
  -9  -4  -4    2.12    2.04
  -9   4  -4   -0.43    1.64
   9   4   4    4.98    1.96
 -10  -4  -4    4.86    2.45
 -10   4  -4    9.19    2.45
  11   4   4   -0.98    1.82
 -10   5   4    3.96    2.19
  -9  -5   4    3.09    1.90
   9   5  -4    1.64    1.81
  -9   5   4   -0.09    1.60
  -8  -5   4    3.16    1.89
  -8   5   4    0.32    1.66
  -7  -5   4    3.14    1.76
  -7   5   4    2.09    1.62
  -6  -5   4    4.51    1.81
  -6   5   4    5.86    1.83
  -5  -5   4   -0.76    1.37
  -5   5   4   -2.46    1.17
  -4  -5   4    2.79    1.56
  -4   5   4    0.98    1.14
   3  -5  -4   45.19    2.74
   3  -5  -4   46.22    2.50
  -3  -5   4   48.67    3.31
  -3   5   4   45.57    2.71
   2  -5  -4   24.71    2.12
   2  -5  -4   26.60    2.20
  -2  -5   4   28.44    2.69
  -1  -5   4   43.72    3.00
   1  -5  -4   37.26    2.56
   1  -5  -4   43.70    2.34
   0  -5  -4   -0.64    0.67
   0  -5   4    0.47    0.98
   0  -5   4   -0.07    0.62
   0  -5  -4    0.88    0.99
   0   5  -4    1.06    0.69
   1  -5   4    0.10    0.99
  -1  -5  -4    1.23    1.07
  -1  -5  -4    1.50    0.75
  -1   5  -4   -0.03    0.74
  -2  -5  -4   10.44    1.26
   2  -5   4   10.13    1.72
  -2  -5  -4    9.59    1.76
  -2   5  -4   11.03    1.46
   3  -5   4    1.35    1.19
  -3  -5  -4    1.73    1.37
  -3  -5  -4   -0.54    0.69
  -3   5  -4    1.06    1.00
   4  -5   4   22.44    2.22
  -4  -5  -4   15.09    2.38
  -4  -5  -4   18.31    1.83
  -4   5  -4   21.30    2.23
  -5  -5  -4    4.12    1.24
  -5  -5  -4    3.41    1.74
  -5   5  -4    5.54    1.57
  -6  -5  -4    7.47    1.65
  -6  -5  -4    7.61    2.08
   6   5   4   10.45    2.24
  -6   5  -4    7.24    1.86
  -7  -5  -4    1.33    1.56
  -7  -5  -4    2.16    1.77
   7   5   4    1.55    1.79
  -7   5  -4    3.12    1.71
  -8   5  -4   -2.44    1.44
   8   5   4    1.93    1.80
   9   5   4   24.68    3.38
  -9   5  -4   20.90    3.04
  10   5   4    2.63    2.10
 -10   5  -4    6.54    2.38
  -9  -6   4    2.16    2.03
   9   6  -4   -1.42    1.80
  -9   6   4    0.49    1.95
  -8  -6   4    1.67    1.91
  -8   6   4    4.13    2.02
  -7  -6   4   28.92    3.58
  -7   6   4   25.38    3.25
  -6  -6   4   -0.79    1.60
  -6   6   4    2.66    1.73
  -5  -6   4    0.03    1.58
  -5   6   4   -0.49    1.38
  -4  -6   4    8.45    2.17
  -4   6   4    8.80    1.82
  -3  -6   4   48.47    4.22
   3  -6  -4   51.72    3.32
  -3   6   4   60.69    3.35
   2  -6  -4    9.70    1.57
  -2  -6   4   10.11    2.09
   2  -6  -4    9.89    1.76
  -1  -6   4   52.72    3.72
   1  -6  -4   54.14    3.31
   1  -6  -4   50.44    2.85
   0  -6   4    1.18    1.36
   0  -6  -4    0.56    1.25
   0  -6  -4    2.52    1.05
   1  -6   4    5.78    1.71
  -1  -6  -4    4.45    1.54
  -1  -6  -4    5.56    1.19
  -2  -6  -4    0.05    0.87
   2  -6   4    3.37    1.42
  -2  -6  -4    1.98    1.49
   3  -6   4   44.01    3.03
  -3  -6  -4   37.06    2.34
  -3  -6  -4   36.79    3.57
  -3   6  -4   34.91    2.78
  -4  -6  -4    2.51    1.73
  -4   6  -4    4.17    1.46
  -5  -6  -4    6.16    2.20
  -5   6  -4    6.65    1.82
  -6  -6  -4    2.34    1.93
  -6   6  -4    0.85    1.51
   6   6   4    7.67    2.23
  -7  -6  -4   30.15    3.74
  -7   6  -4   27.87    3.28
   7   6   4   27.53    3.64
   8   6   4   10.90    2.70
  -8   6  -4    4.09    2.18
  -9   6  -4    8.11    2.52
   9   6   4    6.28    2.33
  10   6   4    4.83    2.34
  -9  -7   4   -2.07    2.09
   9   7  -4    0.13    2.10
  -8  -7   4    4.87    2.39
  -8   7   4    0.14    1.99
  -7  -7   4    0.88    2.12
  -7   7   4    1.55    1.88
  -6  -7   4   18.48    3.34
  -6   7   4   15.12    2.68
  -5  -7   4    1.17    1.90
  -5   7   4    1.25    1.70
  -4  -7   4    6.13    2.27
  -4   7   4   -0.98    1.27
  -3  -7   4   -2.23    1.58
  -3   7   4    2.94    1.47
   2  -7  -4    1.48    1.39
   2  -7  -4   -1.02    1.25
  -2  -7   4    0.03    1.73
  -2   7   4    2.37    1.37
   1  -7  -4   -0.04    1.18
  -1  -7   4    0.96    1.64
   1  -7  -4    2.14    1.52
   0  -7   4   17.77    2.80
   0  -7  -4   19.16    2.64
   1  -7   4    5.03    1.90
  -1  -7  -4    7.37    2.12
  -2  -7  -4    4.55    2.07
   2  -7   4    1.69    1.72
   3  -7   4   -0.47    1.41
  -3  -7  -4   -0.17    1.74
  -4  -7  -4   40.95    4.42
  -5  -7  -4    5.21    2.50
  -6  -7  -4   -0.62    1.97
   6   7   4   -1.52    1.85
  -7  -7  -4    0.99    2.13
   7   7   4   -0.03    2.06
   8   7   4    6.75    2.69
   9   7   4    0.36    2.17
  -8  -8   4    3.67    2.62
   8   8  -4    2.03    2.47
  -7  -8   4    3.90    2.56
  -6  -8   4   11.54    3.12
  -5  -8   4    6.08    2.78
  -4  -8   4   -1.31    2.01
  -3  -8   4    6.58    2.65
  -2  -8   4    5.29    2.65
   1  -8  -4    1.00    1.76
  -1  -8   4   -1.09    1.86
   0  -8  -4    1.82    1.87
   0  -8   4    2.71    2.17
  -1  -8  -4    1.42    2.00
   1  -8   4   -1.21    1.63
  -2  -8  -4    6.01    2.52
   2  -8   4    3.82    2.15
  -3  -8  -4    3.55    2.35
  -4  -8  -4    2.52    2.25
  -5  -8  -4    3.81    2.57
  -6  -8  -4    0.66    2.42
   6   8   4    2.98    2.53
  -7  -8  -4   -1.17    2.21
   7   8   4   -1.03    2.22
  -6  -9   4   -1.90    2.45
  -5  -9   4    0.75    2.47
  -4  -9   4    2.97    2.70
  -3  -9   4    8.14    2.94
  -2  -9   4    6.55    2.93
   1  -9  -4    9.92    2.74
  -1  -9   4    6.05    2.71
   0  -9  -4    0.21    2.20
   0  -9   4    1.33    2.26
   1  -9   4    0.14    2.17
  -1  -9  -4    2.99    2.29
   2  -9   4   12.78    2.99
  -2  -9  -4   12.69    3.21
  -3  -9  -4   -1.54    2.19
  -4  -9  -4    3.63    2.68
  -5  -9  -4    4.91    2.89
   5   9   4    2.28    2.77
  -6  -9  -4    3.79    2.82
   6   9   4   -0.58    2.50
  -3 -10   4    2.73    3.04
  -2 -10   4    5.96    2.97
  -1 -10   4    6.78    3.16
   0 -10   4   -2.45    2.19
   0 -10  -4    1.32    2.47
  -1 -10  -4    4.15    2.81
   1 -10   4    2.02    2.68
  -2 -10  -4   -0.72    2.44
 -12   0   5   -0.62    1.76
 -12   0   5    0.79    1.81
  12   0  -5   -0.74    1.18
 -11   0   5   50.42    4.07
 -11   0   5   59.62    4.62
  11   0  -5   54.57    3.19
  10   0  -5   -0.98    1.22
 -10   0   5   -1.45    1.33
 -10   0   5    0.04    1.60
  -9   0   5    6.13    1.79
   9   0  -5    7.94    1.68
  -9   0   5    4.86    1.88
  -8   0   5   -0.98    1.19
   8   0  -5   -0.98    1.04
  -8   0   5   -1.66    1.26
  -7   0   5  232.69    7.54
  -7   0   5  227.24    8.10
   7   0  -5  228.61    7.24
  -6   0   5    0.33    0.93
  -6   0   5   -0.32    0.97
   6   0  -5   -0.68    0.85
   5   0  -5   10.60    1.31
  -5   0   5    9.84    1.47
  -5   0   5   10.43    1.32
  -4   0   5    1.24    0.84
   4   0  -5    0.24    0.70
  -4   0   5   -0.78    0.66
   3   0  -5  143.00    4.36
  -3   0   5  148.33    4.71
  -2   0   5   -0.03    0.52
   1   0  -5  163.21    4.42
   0   0  -5   -0.02    0.24
   0   0  -5    0.11    0.25
  -1   0  -5   31.92    1.21
  -2   0  -5   -0.16    0.42
   3   0   5   15.79    1.22
  -3   0  -5   14.55    1.22
   3   0   5   15.48    1.47
  -4   0  -5    0.35    0.56
  -4   0  -5    0.32    0.68
   4   0   5   -0.35    0.83
   4   0   5    0.02    0.67
   5   0   5    2.47    1.14
  -5   0  -5    1.93    0.94
  -5   0  -5    2.21    0.80
   5   0   5    4.50    1.04
   6   0   5   -1.21    0.98
  -6   0  -5    0.85    1.05
   6   0   5   -0.40    0.88
  -6   0  -5    0.01    0.80
   7   0   5    9.01    1.57
  -7   0  -5   11.41    1.62
   7   0   5   12.88    1.98
  -7   0  -5   12.62    1.93
  -8   0  -5   -1.05    1.31
   8   0   5    0.19    1.20
  -8   0  -5   -0.09    1.15
   9   0   5   -0.17    1.31
  -9   0  -5    0.25    1.52
  -9   0  -5   -1.02    1.28
  10   0   5   -1.62    1.31
 -10   0  -5    0.24    1.51
 -10   0  -5    0.63    1.51
 -11   0  -5   16.04    2.52
  11   0   5   15.31    2.18
 -11   0  -5   12.76    2.59
  12   0   5    1.50    1.42
 -12   0  -5   -1.78    1.68
 -12  -1   5    0.62    1.72
 -12  -1   5    0.09    2.00
  12   1  -5    0.01    1.55
 -12   1   5   -1.58    1.82
 -11  -1   5    2.75    1.77
 -11  -1   5    2.63    1.90
  11  -1  -5    1.06    0.94
 -11   1   5    0.80    1.72
  11   1  -5   -0.56    1.46
 -10  -1   5   21.15    2.58
 -10  -1   5   16.39    2.64
  10  -1  -5   17.05    1.73
 -10   1   5   15.12    2.62
  10   1  -5   15.94    2.19
   9  -1  -5    4.01    1.30
  -9  -1   5    2.12    1.53
  -9  -1   5    3.27    1.67
  -9   1   5    5.18    1.82
   9   1  -5    3.92    1.61
  -8  -1   5   -1.23    1.09
  -8  -1   5    0.47    1.28
   8  -1  -5   -0.12    1.04
   8   1  -5    0.16    1.10
  -8   1   5    1.37    1.50
   7  -1  -5    1.13    1.00
  -7  -1   5    0.01    1.13
  -7  -1   5   -0.38    1.04
  -7   1   5    1.72    1.39
   7   1  -5   -0.56    1.02
   6  -1  -5   65.94    2.77
  -6  -1   5   62.63    3.43
  -6  -1   5   63.69    3.19
  -6  -1   5   68.24    2.89
  -6   1   5   71.06    3.63
  -6   1   5   64.46    3.06
   6   1  -5   66.20    2.92
   6   1  -5   65.43    3.10
  -5  -1   5   84.19    3.24
  -5  -1   5   88.45    3.71
   5  -1  -5   84.47    3.11
  -5  -1   5   86.50    3.47
   5   1  -5   83.93    3.42
  -5   1   5   86.27    3.78
  -4  -1   5   20.91    1.58
  -4  -1   5   21.67    1.72
   4  -1  -5   19.75    1.32
  -4  -1   5   17.48    1.40
  -4   1   5   21.37    1.91
   4   1  -5   21.61    1.62
  -3  -1   5   13.67    1.20
  -3  -1   5   15.75    1.24
   3  -1  -5   15.57    1.03
  -3   1   5   15.25    1.39
  -2  -1   5   35.16    1.51
   2  -1  -5   35.60    1.66
   1  -1  -5  267.34    7.35
   1   1  -5  280.61    6.61
   0  -1  -5   80.18    2.46
  -1  -1  -5   63.73    2.11
  -1   1  -5   65.59    2.06
  -2  -1  -5    8.56    0.83
  -2  -1  -5    8.76    0.64
   2  -1   5   10.85    0.80
  -2  -1  -5    8.03    0.52
  -2   1  -5    8.09    0.88
   2   1   5    9.78    1.15
  -3  -1  -5   98.05    3.25
   3  -1   5   93.91    3.78
  -3  -1  -5   97.73    2.94
   3  -1   5   96.90    3.02
   3   1   5   93.23    3.60
  -3   1  -5   94.97    3.41
  -4  -1  -5  122.85    4.22
  -4  -1  -5  127.04    3.82
   4  -1   5  121.50    3.87
   4  -1   5  121.53    4.77
   4   1   5  126.86    4.13
   4   1   5  123.92    4.55
  -4   1  -5  116.22    4.35
  -5  -1  -5   16.72    1.67
   5  -1   5   11.86    1.88
   5  -1   5   16.62    1.45
  -5  -1  -5   12.29    1.26
  -5   1  -5   14.53    1.38
   5   1   5   11.47    1.46
   5   1   5   14.20    1.74
  -5   1  -5   15.22    1.75
   6  -1   5    5.52    1.16
   6  -1   5    0.45    1.30
  -6  -1  -5    5.08    1.40
  -6  -1  -5    0.81    0.90
  -6   1  -5    0.94    1.08
   6   1   5    1.98    1.23
   6   1   5    3.67    1.14
  -6   1  -5    5.28    1.19
  -7  -1  -5   13.24    1.97
  -7  -1  -5   10.08    1.52
   7  -1   5    8.41    1.41
  -7   1  -5    8.62    1.83
   7   1   5    5.93    1.49
  -7   1  -5    9.53    1.59
   7   1   5   11.02    1.85
   8  -1   5    3.95    1.34
  -8  -1  -5    2.33    1.48
  -8  -1  -5    3.90    1.39
  -8   1  -5    1.11    1.33
   8   1   5    3.54    1.39
   8   1   5    3.64    1.60
  -8   1  -5    2.95    1.44
  -9  -1  -5   47.79    4.03
  -9  -1  -5   55.78    3.37
   9  -1   5   49.08    2.92
  -9   1  -5   45.59    3.93
  -9   1  -5   49.74    3.32
   9   1   5   44.83    3.42
 -10  -1  -5    0.54    1.68
  10  -1   5   -0.92    1.14
 -10  -1  -5   -0.86    1.37
 -10   1  -5    3.28    1.82
  10   1   5    1.11    1.64
 -10   1  -5    1.32    1.58
  11  -1   5    2.90    1.29
 -11  -1  -5    3.93    2.14
 -11  -1  -5    1.17    1.73
  11   1   5    4.10    1.75
 -11   1  -5    1.94    1.85
 -11   1  -5    1.73    1.93
 -12  -1  -5   -2.48    1.46
 -12   1  -5   -2.35    1.68
  12   1   5   -1.77    1.43
 -12  -2   5    5.19    1.86
  12   2  -5    8.14    2.06
 -11  -2   5    2.74    1.68
 -11  -2   5    4.45    2.08
 -11   2   5    4.02    1.95
  11   2  -5    2.12    1.62
 -10  -2   5   -0.55    1.43
 -10  -2   5    1.39    1.78
  10   2  -5    0.96    1.54
 -10   2   5   -1.74    1.51
  -9  -2   5    3.59    1.58
  -9  -2   5    1.93    1.66
  -9   2   5    0.55    1.57
   9   2  -5    2.56    1.44
  -8  -2   5   -1.62    1.36
  -8  -2   5    1.27    1.29
   8   2  -5    0.51    1.27
  -8   2   5    0.57    1.36
  -7  -2   5    1.25    1.11
  -7  -2   5    0.20    1.04
  -7  -2   5    2.00    1.27
   7   2  -5    1.67    1.24
  -7   2   5   -0.81    1.21
   7   2  -5   -0.31    1.01
  -6  -2   5   22.52    2.21
  -6  -2   5   24.54    2.06
  -6  -2   5   28.26    2.04
   6   2  -5   26.10    2.25
  -6   2   5   28.19    2.66
  -5  -2   5    1.36    0.92
  -5  -2   5    4.06    1.06
  -5  -2   5    2.43    0.91
  -5   2   5    1.07    1.10
   5   2  -5    2.92    1.08
  -4  -2   5   21.97    1.79
  -4  -2   5   21.60    1.50
  -4  -2   5   20.12    1.51
   4   2  -5   19.56    1.62
  -4   2   5   19.48    1.83
  -3  -2   5   15.77    1.41
   3  -2  -5   12.26    1.32
  -3  -2   5   13.99    1.09
  -3  -2   5   15.67    1.03
  -3   2   5   13.11    1.33
  -2  -2   5   20.71    0.89
  -2  -2   5   20.46    1.42
  -2  -2   5   21.63    1.06
   2  -2  -5   20.33    1.48
  -1  -2   5    2.07    0.74
   1  -2  -5    1.69    0.59
   0  -2   5   86.38    3.09
   0  -2  -5   86.89    2.77
   0   2  -5   83.97    2.45
   1  -2   5   16.44    1.37
  -1  -2  -5   18.79    1.07
  -1  -2  -5   17.02    1.41
  -1   2  -5   15.78    1.05
   2  -2   5    1.07    0.77
  -2  -2  -5    0.94    0.72
  -2  -2  -5    1.04    0.49
  -2  -2  -5    0.38    0.20
  -2   2  -5   -0.19    0.53
  -3  -2  -5    0.20    0.49
  -3  -2  -5    0.70    0.78
   3  -2   5   -0.76    0.79
  -3  -2  -5   -0.08    0.36
  -3   2  -5    0.58    0.67
  -4  -2  -5   31.73    2.46
  -4  -2  -5   27.83    1.36
   4  -2   5   26.08    1.34
   4  -2   5   30.11    2.14
  -4  -2  -5   24.80    1.77
  -4   2  -5   28.29    2.00
   4   2   5   26.81    2.24
  -5  -2  -5    0.94    0.79
   5  -2   5    0.57    1.04
   5  -2   5    0.19    0.70
  -5  -2  -5    0.14    0.37
  -5  -2  -5    0.10    0.63
   5   2   5    1.66    1.09
   5   2   5   -1.08    0.83
  -5   2  -5    1.26    1.00
  -6  -2  -5  103.36    4.41
  -6  -2  -5  105.33    3.08
   6  -2   5  104.50    3.68
  -6  -2  -5  107.93    3.84
   6  -2   5  118.68    4.55
   6   2   5  115.49    4.74
  -6   2  -5  104.06    4.68
   6   2   5  106.19    4.24
   7  -2   5   -0.60    0.92
  -7  -2  -5    0.21    1.24
  -7  -2  -5    0.78    0.99
   7   2   5   -0.01    1.17
   7   2   5    1.23    1.25
  -7   2  -5    0.92    1.34
   8  -2   5    4.00    1.11
  -8  -2  -5    4.98    1.40
  -8  -2  -5    3.66    1.68
   8   2   5    3.88    1.48
  -8   2  -5    7.07    1.94
   8   2   5    5.08    1.68
   9  -2   5   -0.68    0.78
  -9  -2  -5   -1.67    1.33
  -9  -2  -5   -1.01    1.27
  -9   2  -5   -1.33    1.43
   9   2   5    2.90    1.54
 -10  -2  -5   23.10    3.21
 -10  -2  -5   17.78    2.37
  10   2   5   19.45    2.51
 -10   2  -5   17.29    2.76
 -11  -2  -5    1.14    1.92
 -11  -2  -5    0.90    1.55
 -11   2  -5   -1.24    1.63
  11   2   5   -0.31    1.49
 -12  -2  -5    4.36    1.85
  12   2   5    5.34    1.96
 -12  -3   5    3.69    1.63
  12   3  -5    1.21    1.82
 -11  -3   5   -0.70    1.45
  11   3  -5   -0.63    1.63
 -11   3   5    2.21    2.02
 -10  -3   5   14.42    2.09
  10   3  -5   16.10    2.45
 -10   3   5   15.67    2.75
  -9  -3   5    6.11    1.60
  -9   3   5   10.41    2.30
   9   3  -5    6.37    1.90
  -8  -3   5    0.09    1.16
  -8  -3   5   -1.01    1.11
  -8  -3   5   -0.53    1.48
  -8   3   5    0.63    1.42
   8   3  -5   -0.78    1.31
   8   3  -5   -0.08    1.22
  -7  -3   5    1.22    1.38
  -7  -3   5    1.13    1.13
  -7  -3   5    1.36    1.27
  -7   3   5    2.22    1.43
   7   3  -5    2.63    1.35
  -6  -3   5   21.56    1.78
  -6  -3   5   24.74    2.38
  -6  -3   5   24.12    2.17
   6   3  -5   20.30    2.13
  -6   3   5   20.72    2.47
  -5  -3   5   72.16    3.53
  -5  -3   5   69.58    3.03
  -5  -3   5   70.29    2.70
  -5   3   5   74.55    3.73
  -4  -3   5    4.82    0.82
  -4  -3   5    4.22    1.16
  -4  -3   5    5.83    0.76
  -4   3   5    4.59    1.28
  -3  -3   5   39.06    1.58
  -3  -3   5   39.37    1.25
  -3  -3   5   39.29    2.34
   3  -3  -5   41.06    2.27
  -3   3   5   38.96    2.21
   2  -3  -5   67.22    2.75
  -2  -3   5   64.92    1.98
  -2  -3   5   59.24    2.81
  -1  -3   5  328.84    9.79
   1  -3  -5  322.94    9.11
  -1  -3   5  327.42    8.47
   1  -3  -5  332.51    9.42
   0  -3  -5   31.31    1.59
   0  -3   5   29.89    1.30
   0  -3   5   32.27    1.99
   0  -3  -5   29.56    1.81
   0   3  -5   31.47    1.32
  -1  -3  -5    7.53    0.88
  -1  -3  -5    7.74    1.19
   1  -3   5    6.85    1.10
  -1   3  -5    7.24    0.85
   2  -3   5   -0.55    0.76
  -2  -3  -5    0.36    0.54
  -2  -3  -5    0.57    0.81
  -2   3  -5    0.65    0.69
  -3  -3  -5   69.11    2.74
  -3  -3  -5   61.63    3.21
   3  -3   5   72.57    3.15
  -3   3  -5   65.12    2.93
  -4  -3  -5   42.91    2.71
  -4  -3  -5   37.60    2.13
   4  -3   5   37.82    2.42
  -4  -3  -5   39.94    1.29
  -4   3  -5   41.22    2.49
  -5  -3  -5   17.61    1.14
   5  -3   5   18.19    1.90
  -5  -3  -5   16.47    1.71
  -5  -3  -5   20.49    2.30
  -5   3  -5   16.53    2.00
   5   3   5   16.67    2.11
  -6  -3  -5    8.91    1.11
  -6  -3  -5   10.73    1.70
   6   3   5   10.50    1.85
  -6   3  -5    9.98    1.84
  -7  -3  -5   10.71    1.34
  -7  -3  -5    8.27    1.83
  -7   3  -5    8.29    1.89
   7   3   5   10.57    1.97
  -8  -3  -5    0.91    1.11
  -8  -3  -5    1.08    1.47
   8   3   5   -1.15    1.34
   8   3   5   -0.29    1.28
  -8   3  -5   -1.26    1.25
  -9  -3  -5   33.74    3.60
  -9  -3  -5   35.12    2.66
   9   3   5   37.13    3.47
   9   3   5   34.90    3.18
  -9   3  -5   45.66    4.04
 -10  -3  -5    0.86    1.37
 -10  -3  -5   -2.48    1.73
  10   3   5    3.22    1.82
 -10   3  -5    1.26    1.68
 -11  -3  -5    1.48    2.33
 -11  -3  -5    0.17    1.44
  11   3   5    0.95    1.73
 -11   3  -5   -0.05    1.83
 -12  -3  -5    0.19    1.46
  12   3   5   -1.10    1.72
  11   4  -5   21.80    3.00
 -10  -4   5    2.29    1.26
 -10   4   5   -0.59    1.85
  10   4  -5   -0.13    1.80
  -9  -4   5   -0.01    1.12
  -9   4   5    2.15    1.78
  -8  -4   5   -0.26    1.49
  -8  -4   5    3.00    1.10
  -8   4   5    2.17    1.72
  -7  -4   5   85.18    3.05
  -7  -4   5   92.70    4.68
  -7   4   5   96.66    5.02
  -6  -4   5    4.92    0.66
  -6  -4   5    3.62    1.51
  -6   4   5    4.36    1.57
  -5  -4   5    0.05    1.02
  -5   4   5    1.56    1.26
  -4  -4   5   11.52    1.82
  -4  -4   5   12.81    1.15
  -4   4   5   12.83    1.82
   3  -4  -5   93.78    3.29
  -3  -4   5   86.53    4.02
   3  -4  -5   87.37    3.76
  -3  -4   5   85.39    2.81
  -3   4   5   86.05    3.74
   2  -4  -5    0.58    0.72
  -2  -4   5   -0.14    0.87
  -2  -4   5    1.41    0.44
   2  -4  -5    1.28    0.81
  -1  -4   5   36.58    2.42
   1  -4  -5   37.95    2.15
  -1  -4   5   32.91    1.42
   1  -4  -5   36.97    2.02
   0  -4  -5    1.28    0.65
   0  -4  -5    3.22    0.98
   0  -4   5    3.76    0.71
   0  -4   5    3.28    1.07
   0   4  -5    3.17    0.67
  -1  -4  -5   10.85    1.58
   1  -4   5    7.28    1.42
  -1  -4  -5    7.51    0.99
  -1   4  -5   10.98    1.13
  -2  -4  -5   -1.30    0.80
  -2  -4  -5    0.45    0.58
   2  -4   5    0.62    0.89
  -2   4  -5    0.54    0.70
   3  -4   5   11.62    1.61
  -3  -4  -5   13.00    1.35
  -3  -4  -5    8.51    1.69
  -3   4  -5   10.56    1.43
  -4  -4  -5    2.53    1.30
   4  -4   5    1.81    1.11
  -4  -4  -5    1.18    0.84
  -4   4  -5    0.28    0.90
  -5  -4  -5    0.98    1.31
  -5  -4  -5   -0.29    0.86
  -5   4  -5    2.78    1.22
  -6  -4  -5   15.35    1.98
  -6  -4  -5   13.74    2.23
  -6   4  -5   14.30    2.15
   6   4   5   12.81    2.14
  -7  -4  -5    3.92    1.59
   7   4   5    2.72    1.62
  -7   4  -5    4.38    1.66
  -8  -4  -5    8.70    2.12
   8   4   5   10.99    2.27
  -8   4  -5    9.67    2.13
  -9  -4  -5   -0.12    1.77
  -9   4  -5   -0.30    1.62
   9   4   5    0.04    1.54
 -10  -4  -5    2.10    2.41
 -10   4  -5    3.04    1.94
  11   4   5    6.33    2.25
 -10   5   5   10.81    2.64
  -9  -5   5   -1.16    1.82
   9   5  -5   -1.46    1.70
  -9   5   5   -1.70    1.68
  -8  -5   5   -0.56    1.58
  -8   5   5    4.08    1.89
  -7  -5   5    1.47    1.62
  -7   5   5    2.02    1.64
  -6  -5   5   43.23    3.80
  -6   5   5   41.52    3.72
  -5  -5   5   12.90    2.27
  -5   5   5   14.19    2.12
  -4  -5   5   18.45    2.50
  -4   5   5   17.71    2.20
   3  -5  -5    7.60    1.46
  -3  -5   5    5.62    1.67
  -3   5   5    7.01    1.42
  -2  -5   5    0.33    1.09
   2  -5  -5    3.34    1.06
   2  -5  -5    2.98    1.05
   1  -5  -5   10.27    1.36
   1  -5  -5   11.18    1.62
  -1  -5   5   10.26    1.83
   0  -5   5   28.34    2.64
   0  -5  -5   27.57    1.88
   0  -5  -5   25.06    2.36
  -1  -5  -5   44.41    2.97
   1  -5   5   44.28    2.94
  -1  -5  -5   43.79    2.28
  -1   5  -5   44.21    2.22
   2  -5   5    2.46    1.29
  -2  -5  -5    6.64    1.10
  -2  -5  -5    3.39    1.40
  -2   5  -5    2.27    1.00
  -3  -5  -5   17.40    2.36
  -3  -5  -5   17.93    1.69
   3  -5   5   23.74    2.36
  -3   5  -5   22.86    2.06
  -4  -5  -5   80.69    3.49
  -4  -5  -5   71.69    4.34
   4  -5   5   80.90    3.83
  -4   5  -5   75.70    3.72
  -5  -5  -5   13.57    1.78
  -5  -5  -5   15.12    2.40
  -5   5  -5   13.68    2.04
  -6  -5  -5   -0.56    1.10
  -6  -5  -5    3.38    1.73
  -6   5  -5   -1.23    1.18
   6   5   5    0.50    1.57
  -7  -5  -5    2.90    1.65
  -7  -5  -5    0.20    1.66
  -7   5  -5    1.68    1.60
   7   5   5    5.28    1.94
  -8   5  -5    1.42    1.70
   8   5   5   -0.09    1.64
   9   5   5   23.11    3.21
  -9   5  -5   19.54    3.04
  10   5   5    1.32    2.09
 -10   5  -5    1.85    2.04
  -9  -6   5    4.89    2.29
   9   6  -5    7.03    2.44
  -9   6   5    9.32    2.57
  -8  -6   5   -0.47    1.79
  -8   6   5   -1.69    1.72
  -7  -6   5    0.65    1.77
  -7   6   5    2.17    1.84
  -6  -6   5   10.53    2.49
  -6   6   5    7.89    2.12
  -5  -6   5    9.75    2.33
  -5   6   5    8.67    2.01
  -4  -6   5   11.42    2.41
  -4   6   5    8.33    1.88
   3  -6  -5   29.02    2.70
  -3  -6   5   38.57    3.69
  -3   6   5   35.50    2.95
  -2  -6   5    4.31    1.78
   2  -6  -5    0.92    1.07
   2  -6  -5    2.83    1.30
   1  -6  -5   -0.45    0.86
  -1  -6   5   -0.62    1.31
   1  -6  -5   -1.04    1.09
   0  -6   5   15.91    2.37
   0  -6  -5   15.70    2.21
   0  -6  -5   15.24    1.68
  -1  -6  -5    6.59    1.82
  -1  -6  -5    7.99    1.31
   1  -6   5    6.86    1.81
  -2  -6  -5    0.35    1.38
  -2  -6  -5    0.44    0.89
   2  -6   5   -0.20    1.18
   3  -6   5    2.11    1.32
  -3  -6  -5    3.13    1.14
  -3  -6  -5    2.27    1.61
   4  -6   5    0.18    1.18
  -4  -6  -5    0.56    1.12
  -4  -6  -5    1.27    1.67
  -4   6  -5   -0.33    1.16
  -5  -6  -5   -0.43    1.63
  -5   6  -5    0.31    1.31
  -6  -6  -5   15.05    2.86
  -6   6  -5   17.39    2.56
   6   6   5   21.07    3.16
  -7  -6  -5   -1.27    1.68
  -7   6  -5    0.03    1.73
   7   6   5    3.04    2.03
  -8   6  -5    0.19    1.80
   8   6   5    0.85    2.04
  -9   6  -5    1.86    2.23
   9   6   5   -1.36    1.76
  10   6   5    1.35    2.14
  -9  -7   5    1.61    2.28
   9   7  -5    3.88    2.41
  -8  -7   5    1.13    2.12
  -8   7   5    2.07    2.07
  -7  -7   5    1.97    2.09
  -7   7   5   -2.85    1.70
  -6  -7   5    6.93    2.47
  -6   7   5    8.27    2.25
  -5  -7   5   11.62    2.81
  -5   7   5   11.45    2.41
  -4  -7   5    3.77    1.97
  -4   7   5    2.07    1.56
  -3  -7   5    3.76    2.18
  -3   7   5    4.46    1.59
  -2  -7   5   20.98    3.11
   2  -7  -5   20.26    2.35
   2  -7  -5   19.76    2.41
  -2   7   5   21.03    2.36
   1  -7  -5   75.86    3.88
   1  -7  -5   80.12    4.43
  -1  -7   5   76.20    4.83
   0  -7  -5    2.89    1.24
   0  -7  -5   -0.36    1.51
   0  -7   5    3.54    1.85
   1  -7   5    0.61    1.55
  -1  -7  -5    0.45    1.60
   2  -7   5    6.79    2.01
  -2  -7  -5    7.78    2.23
  -3  -7  -5   14.74    2.87
   3  -7   5    8.35    2.07
  -4  -7  -5    0.50    1.93
  -5  -7  -5   18.08    3.31
  -6  -7  -5   10.17    2.86
   6   7   5    7.76    2.70
  -7  -7  -5    1.75    2.22
   7   7   5    3.23    2.43
   8   7   5    1.32    2.23
   9   7   5   12.64    3.22
  -8  -8   5    4.09    2.47
   8   8  -5   -0.35    2.31
  -7  -8   5    2.31    2.49
  -6  -8   5    3.66    2.51
  -5  -8   5    2.64    2.46
  -4  -8   5   13.00    3.02
  -3  -8   5   12.13    3.09
  -2  -8   5   -0.10    2.04
  -1  -8   5   11.97    2.82
   1  -8  -5    8.06    2.34
   0  -8   5    1.28    2.01
   0  -8  -5    1.03    1.76
  -1  -8  -5    0.85    1.93
   1  -8   5   -1.44    1.80
  -2  -8  -5   -1.43    1.82
   2  -8   5   -0.67    1.69
  -3  -8  -5    6.00    2.59
  -4  -8  -5    1.04    2.18
  -5  -8  -5   -2.14    2.04
   5   8   5   -2.14    2.06
  -6  -8  -5    9.75    3.21
   6   8   5    7.29    2.80
   7   8   5   -4.75    2.03
  -6  -9   5   13.97    3.59
  -5  -9   5   -0.14    2.46
  -4  -9   5    2.11    2.57
  -3  -9   5    5.11    2.82
  -2  -9   5   -3.88    2.01
  -1  -9   5   -1.12    2.18
   0  -9  -5    1.12    2.21
   0  -9   5    2.46    2.32
   1  -9   5    3.66    2.51
  -1  -9  -5   14.35    3.19
  -2  -9  -5   -3.18    1.96
   2  -9   5   -2.42    2.10
  -3  -9  -5   -0.43    2.30
  -4  -9  -5   17.04    3.81
  -5  -9  -5    2.76    2.66
   5   9   5    5.51    2.86
  -6  -9  -5   -0.40    2.42
   6   9   5   -0.04    2.56
  -2 -10   5    4.54    2.91
  -1 -10   5   -0.28    2.51
   0 -10   5    4.69    2.84
  -1 -10  -5   -2.46    2.20
   1 -10   5    3.24    2.88
  -2 -10  -5    0.80    2.55
 -12   0   6    2.05    1.98
  12   0  -6    1.35    1.28
 -12   0   6    2.44    1.95
  11   0  -6   -0.71    1.30
 -11   0   6    0.52    1.69
 -11   0   6   -0.85    1.64
 -10   0   6    0.71    1.46
 -10   0   6    0.03    1.57
  10   0  -6    3.64    1.49
  -9   0   6    1.24    1.49
  -9   0   6    1.27    1.56
   9   0  -6   -0.22    1.15
  -8   0   6    1.65    1.42
  -8   0   6    4.03    1.65
   8   0  -6    3.68    1.34
  -7   0   6   -0.31    1.13
   7   0  -6   -0.11    1.00
  -7   0   6   -0.88    1.23
   6   0  -6    3.29    1.06
  -6   0   6    0.24    1.11
  -6   0   6    2.93    1.17
   5   0  -6   -0.30    0.78
  -5   0   6   -0.40    0.82
  -5   0   6    2.31    0.99
  -4   0   6  287.14    8.11
   4   0  -6  289.56    8.03
  -4   0   6  282.68    8.51
  -3   0   6    0.18    0.64
   3   0  -6    0.10    0.63
   2   0  -6   26.63    1.31
  -2   0   6   27.19    1.39
   1   0  -6   -0.06    0.37
   0   0  -6  109.02    3.02
   0   0  -6  107.52    2.76
  -1   0  -6    0.00    0.37
  -2   0  -6    2.59    0.58
  -3   0  -6    0.20    0.45
   3   0   6    0.05    0.60
   3   0   6   -0.31    0.79
  -3   0  -6    0.10    0.58
   4   0   6    1.49    0.74
  -4   0  -6    0.52    0.66
   4   0   6   -0.36    0.90
  -4   0  -6   -0.08    0.52
  -5   0  -6   -0.12    0.69
   5   0   6   -1.30    0.99
   5   0   6   -0.59    0.78
  -5   0  -6    1.28    0.89
  -6   0  -6  124.15    5.05
   6   0   6  128.44    5.20
   6   0   6  125.34    4.62
  -6   0  -6  124.38    4.44
   7   0   6    0.16    1.30
  -7   0  -6    0.79    1.00
  -7   0  -6   -0.29    1.17
   7   0   6    0.12    0.99
   8   0   6    3.33    1.37
  -8   0  -6    4.66    1.66
  -8   0  -6    2.29    1.33
   9   0   6   -0.03    1.27
  -9   0  -6   -0.37    1.21
  -9   0  -6    2.65    1.75
  10   0   6   30.44    2.75
 -10   0  -6   19.72    2.64
 -10   0  -6   21.66    3.07
 -11   0  -6   -0.50    1.57
 -11   0  -6   -0.90    1.62
  11   0   6    0.04    1.41
 -12   0  -6    2.43    1.98
  12   0   6    3.82    1.59
 -12  -1   6    0.25    1.69
 -12  -1   6   -0.71    1.97
  12   1  -6   -3.27    1.40
  11  -1  -6    5.38    1.05
 -11  -1   6    5.81    2.17
 -11  -1   6    3.71    1.87
 -11   1   6    4.76    1.98
  11   1  -6    6.49    1.89
 -10  -1   6    8.62    2.04
 -10  -1   6    4.59    1.95
  10  -1  -6    9.81    1.44
  10   1  -6    7.33    1.79
 -10   1   6    8.22    2.21
  -9  -1   6   51.97    3.48
   9  -1  -6   49.91    2.69
  -9  -1   6   51.62    3.68
  -9   1   6   51.58    3.67
   9   1  -6   52.17    3.23
  -8  -1   6    0.66    1.36
  -8  -1   6   -0.72    1.20
   8  -1  -6    1.02    1.07
   8   1  -6    0.09    1.09
  -8   1   6   -0.81    1.19
  -7  -1   6    2.34    1.29
   7  -1  -6    3.35    1.15
  -7  -1   6    4.69    1.49
   7   1  -6    4.17    1.26
  -7   1   6    1.27    1.31
  -6  -1   6   40.76    2.67
   6  -1  -6   47.55    2.29
  -6  -1   6   43.53    2.27
  -6  -1   6   46.67    2.65
  -6   1   6   42.61    2.82
   6   1  -6   44.51    2.27
  -6   1   6   47.16    2.60
   6   1  -6   46.87    2.60
  -5  -1   6  221.93    7.12
   5  -1  -6  214.87    6.38
  -5  -1   6  218.75    6.70
  -5  -1   6  223.20    6.73
  -5   1   6  214.06    7.23
   5   1  -6  222.54    6.76
  -4  -1   6    1.23    0.87
  -4  -1   6    5.32    0.86
  -4  -1   6    4.45    0.93
   4  -1  -6    3.72    0.76
   4   1  -6    3.32    0.88
  -4   1   6    6.88    1.21
   3  -1  -6    8.23    1.08
  -3  -1   6    5.77    0.89
   3  -1  -6    6.21    0.74
  -3  -1   6    7.03    0.92
  -3   1   6    5.44    0.96
   2  -1  -6    2.03    0.68
  -2  -1   6    2.40    0.56
   1  -1  -6  638.17   16.87
   1   1  -6  672.60   15.47
   0  -1  -6   62.65    2.04
   0   1  -6   62.09    1.73
  -1  -1  -6    0.83    0.43
  -1   1  -6    0.94    0.39
  -2  -1  -6   17.56    1.09
   2  -1   6   16.91    1.03
  -2  -1  -6   19.14    0.72
  -2  -1  -6   16.93    0.90
   2   1   6   18.83    1.54
  -2   1  -6   17.65    1.12
   3  -1   6  109.67    4.23
   3  -1   6  108.36    3.37
  -3  -1  -6  108.68    3.60
  -3  -1  -6  111.80    3.28
  -3   1  -6  109.33    3.77
   3   1   6  107.73    4.05
   4  -1   6   25.30    1.54
   4  -1   6   25.37    2.35
  -4  -1  -6   26.21    1.45
  -4  -1  -6   22.11    1.73
   4   1   6   24.54    1.81
   4   1   6   25.25    2.06
  -4   1  -6   21.25    1.80
  -5  -1  -6    7.92    1.06
  -5  -1  -6    8.64    1.32
   5  -1   6    8.09    1.14
   5  -1   6    8.30    1.67
   5   1   6    8.70    1.49
   5   1   6    6.64    1.25
  -5   1  -6    7.27    1.36
  -5   1  -6   11.87    1.28
   6  -1   6    0.90    1.29
  -6  -1  -6    1.89    1.08
  -6  -1  -6    1.23    0.89
   6  -1   6   -0.05    0.90
   6   1   6   -0.96    0.94
   6   1   6    1.51    1.15
  -6   1  -6    2.32    0.97
  -6   1  -6    2.87    1.28
   7  -1   6    4.90    1.33
  -7  -1  -6    2.03    1.06
  -7  -1  -6    6.25    1.58
  -7   1  -6    5.18    1.51
  -7   1  -6    5.97    1.42
   7   1   6    7.44    1.62
   7   1   6    5.48    1.37
   8  -1   6   -0.16    1.14
  -8  -1  -6   -1.24    0.99
  -8  -1  -6    1.01    1.48
  -8   1  -6   -0.38    1.16
   8   1   6    0.59    1.22
  -8   1  -6    0.54    1.43
   8   1   6    1.28    1.43
  -9  -1  -6   15.11    2.15
  -9  -1  -6   11.60    2.26
   9  -1   6   14.14    1.90
  -9   1  -6   13.08    2.41
   9   1   6   13.52    2.10
  -9   1  -6   14.03    2.18
  10  -1   6    1.64    1.33
 -10  -1  -6   -1.33    1.42
 -10  -1  -6    1.52    1.72
  10   1   6    0.79    1.58
 -10   1  -6    0.68    1.63
 -10   1  -6   -0.18    1.48
 -11  -1  -6   -0.97    1.54
 -11  -1  -6    0.31    1.90
  11  -1   6    1.02    1.25
 -11   1  -6    0.63    1.69
  11   1   6    0.66    1.49
 -11   1  -6    1.04    1.76
 -12  -1  -6    3.50    1.87
 -12   1  -6    0.17    1.88
  12   1   6    1.01    1.65
 -12  -2   6   -0.10    1.57
  12   2  -6    3.01    1.86
 -11  -2   6   20.90    2.62
 -11   2   6   22.68    3.16
  11   2  -6   25.82    2.80
 -10  -2   6    1.95    1.59
 -10  -2   6    2.57    1.90
 -10   2   6   -0.12    1.59
  10   2  -6    1.45    1.52
  -9  -2   6   31.65    3.26
  -9  -2   6   28.19    2.74
  -9   2   6   29.81    3.34
   9   2  -6   30.00    2.82
  -8  -2   6   -0.92    1.19
  -8  -2   6   -1.58    1.35
  -8   2   6    2.95    1.49
   8   2  -6    0.71    1.30
  -7  -2   6   16.15    1.91
  -7  -2   6   16.26    2.17
  -7  -2   6   16.19    1.94
   7   2  -6   20.35    2.10
  -7   2   6   16.77    2.31
  -6  -2   6    0.80    1.01
  -6  -2   6    5.61    1.32
  -6  -2   6    2.34    1.12
   6   2  -6    3.29    1.17
  -6   2   6    1.17    1.15
  -5  -2   6   14.03    1.50
  -5  -2   6   13.25    1.53
  -5  -2   6   11.69    1.49
   5   2  -6   16.22    1.67
  -5   2   6   11.25    1.73
  -4  -2   6    0.85    0.69
  -4  -2   6    1.22    0.76
  -4  -2   6    0.79    0.72
  -4   2   6    1.75    0.99
   4   2  -6    1.01    0.79
   3  -2  -6    3.26    0.85
  -3  -2   6    3.52    0.82
  -3  -2   6    2.55    0.69
  -3  -2   6    4.76    0.66
  -3   2   6    1.81    0.77
  -2  -2   6    0.64    0.67
  -2  -2   6    0.34    0.28
   2  -2  -6    0.91    0.57
  -2  -2   6    0.46    0.44
  -1  -2   6    3.80    0.80
   1  -2  -6    1.97    0.58
  -1  -2   6    2.82    0.41
   0  -2  -6    2.72    0.59
   0  -2   6    2.80    0.74
   0   2  -6    2.66    0.34
  -1  -2  -6  204.01    6.51
  -1  -2  -6  212.74    6.00
   1  -2   6  217.04    6.54
  -1   2  -6  213.67    5.82
  -2  -2  -6    2.49    0.29
  -2  -2  -6    2.70    0.93
  -2  -2  -6    2.06    0.61
   2  -2   6    2.98    0.94
  -2   2  -6    1.79    0.63
   3  -2   6    8.78    1.37
   3  -2   6    7.85    0.68
  -3  -2  -6    9.20    1.02
  -3  -2  -6    5.88    1.19
  -3  -2  -6    7.49    0.64
  -3   2  -6    5.94    0.99
   3   2   6    5.60    1.18
   4  -2   6    4.85    0.78
  -4  -2  -6    4.47    1.17
  -4  -2  -6    3.63    0.65
   4  -2   6    5.27    1.28
  -4  -2  -6    2.29    0.86
   4   2   6    4.65    1.13
  -4   2  -6    3.19    1.06
  -5  -2  -6  114.00    3.76
  -5  -2  -6  115.89    2.98
   5  -2   6  113.51    3.74
   5  -2   6  104.10    4.63
  -5  -2  -6  118.58    4.38
  -5   2  -6  117.33    4.63
   5   2   6  118.70    4.81
   5   2   6  116.96    4.27
   6  -2   6   10.80    1.29
   6  -2   6   13.19    1.93
  -6  -2  -6   12.83    0.89
  -6  -2  -6   11.83    1.36
  -6  -2  -6   10.12    1.63
  -6   2  -6   11.62    1.81
   6   2   6    9.96    1.77
   6   2   6   12.64    1.70
   7  -2   6    7.53    1.29
  -7  -2  -6    9.85    1.80
  -7  -2  -6    9.47    0.91
  -7  -2  -6    9.08    1.42
   7   2   6    5.84    1.68
  -7   2  -6    5.93    1.72
   7   2   6   11.57    1.80
  -8  -2  -6    4.45    1.36
  -8  -2  -6    4.99    1.70
   8  -2   6    5.05    1.20
   8   2   6    4.04    1.49
  -8   2  -6    5.34    1.77
   8   2   6    3.01    1.40
  -9  -2  -6    6.14    2.13
   9  -2   6    9.56    1.15
  -9  -2  -6    9.80    1.89
   9   2   6    7.83    2.09
   9   2   6    9.14    1.90
  -9   2  -6    6.88    2.10
 -10  -2  -6    1.05    1.37
 -10  -2  -6    0.51    1.79
 -10   2  -6    3.46    1.83
  10   2   6   -0.12    1.46
 -11  -2  -6   28.13    2.84
 -11  -2  -6   34.30    3.92
  11   2   6   28.70    3.14
 -12  -2  -6    0.16    1.63
  12   2   6    1.60    1.69
 -12  -3   6   -0.61    1.48
  12   3  -6    2.43    1.84
 -11  -3   6    7.63    1.87
 -11   3   6    4.41    2.18
  11   3  -6    7.18    2.13
 -10  -3   6    5.77    1.73
  10   3  -6    7.92    2.10
 -10   3   6    7.21    2.29
  -9  -3   6   18.20    2.17
  -9   3   6   19.21    2.84
   9   3  -6   17.82    2.45
  -8  -3   6    0.06    1.59
  -8  -3   6    1.90    1.28
   8   3  -6    2.70    1.56
  -8   3   6    1.37    1.59
  -7  -3   6    0.70    1.10
  -7  -3   6    0.15    1.15
  -7  -3   6   -0.09    1.25
   7   3  -6    1.76    1.30
  -7   3   6   -0.94    1.23
  -6  -3   6   44.21    2.82
  -6  -3   6   42.53    2.72
  -6  -3   6   46.25    2.42
  -6   3   6   51.35    3.42
   6   3  -6   43.82    2.75
  -5  -3   6  102.94    3.86
  -5  -3   6  104.06    3.58
  -5  -3   6  107.44    4.43
  -5   3   6  107.00    4.71
  -4  -3   6   13.63    1.16
  -4  -3   6   15.85    1.75
  -4  -3   6   14.03    1.11
  -4   3   6   15.63    1.85
  -3  -3   6   16.05    1.00
  -3  -3   6   16.40    0.85
  -3  -3   6   17.03    1.75
   3  -3  -6   18.23    1.70
  -2  -3   6    2.39    0.35
  -2  -3   6    1.86    0.80
   2  -3  -6    4.44    0.90
   2   3  -6    2.91    0.43
   1  -3  -6  118.04    4.05
  -1  -3   6  123.40    4.44
   1  -3  -6  122.86    4.00
  -1  -3   6  118.63    3.25
   0  -3  -6   24.90    1.65
   0  -3  -6   26.15    1.41
   0  -3   6   22.11    1.79
   0   3  -6   20.26    1.05
  -1  -3  -6    9.96    1.01
   1  -3   6    5.51    1.12
  -1  -3  -6    7.45    1.18
  -1   3  -6    9.71    0.91
   2  -3   6   17.76    1.71
  -2  -3  -6   18.62    1.81
  -2  -3  -6   15.86    1.27
  -2   3  -6   15.96    1.36
  -3  -3  -6   63.54    2.60
  -3  -3  -6   60.87    3.16
   3  -3   6   60.49    3.00
  -3   3  -6   59.53    2.74
  -4  -3  -6   72.46    2.96
   4  -3   6   61.41    3.22
  -4  -3  -6   67.00    3.50
  -4  -3  -6   71.02    1.97
   4   3   6   71.49    3.54
  -4   3  -6   66.57    3.24
  -5  -3  -6   13.46    1.56
   5  -3   6   15.95    1.89
  -5  -3  -6   18.05    1.11
  -5  -3  -6   13.77    1.96
   5   3   6   16.98    2.10
  -5   3  -6   14.49    1.85
  -6  -3  -6   -1.69    0.92
  -6  -3  -6    0.69    0.71
   6   3   6    3.39    1.43
  -6   3  -6   -1.00    1.10
  -7  -3  -6    0.91    1.29
  -7  -3  -6    0.64    0.88
  -7   3  -6   -1.02    1.22
   7   3   6   -0.51    1.09
  -8  -3  -6    0.95    1.12
  -8  -3  -6    2.15    1.58
   8   3   6   -1.26    1.25
  -8   3  -6    0.36    1.56
   8   3   6    1.17    1.58
  -9  -3  -6    9.31    2.34
  -9  -3  -6    6.94    1.59
   9   3   6    8.58    2.02
  -9   3  -6    5.51    2.06
   9   3   6    9.84    2.18
 -10  -3  -6    3.26    2.03
 -10  -3  -6    2.27    1.47
 -10   3  -6    1.21    1.77
  10   3   6   -1.16    1.54
 -11  -3  -6    1.82    2.17
 -11  -3  -6    1.67    1.42
 -11   3  -6    0.46    1.98
  11   3   6   -0.35    1.63
 -12  -3  -6    1.47    1.52
  12   3   6    0.41    1.85
  11   4  -6    3.09    2.00
 -10  -4   6    1.49    1.27
  10   4  -6    1.72    1.78
 -10   4   6    0.05    1.81
  -9  -4   6    1.02    1.18
  -9   4   6    2.42    1.89
  -8  -4   6    2.35    1.65
  -8  -4   6    3.67    1.21
  -8   4   6    3.22    1.66
  -7  -4   6    2.06    0.91
  -7  -4   6    2.52    1.52
  -7   4   6    2.75    1.66
  -6  -4   6    4.06    1.44
  -6  -4   6    4.23    0.73
  -6   4   6    3.08    1.58
  -5  -4   6    7.39    1.61
  -5   4   6    8.34    1.73
  -4  -4   6  108.74    4.74
   4  -4  -6  111.44    4.70
  -4   4   6  113.26    4.70
  -3  -4   6    8.62    1.60
   3  -4  -6    9.39    1.13
   3  -4  -6    9.89    1.41
   2  -4  -6    2.09    0.84
  -2  -4   6    1.83    1.08
   2  -4  -6    2.59    0.93
  -1  -4   6    7.38    1.33
  -1  -4   6    7.88    0.70
   1  -4  -6    7.51    1.11
   1  -4  -6    6.66    1.18
   0  -4  -6   39.51    2.35
   0  -4   6   41.03    2.49
   0  -4  -6   37.55    2.02
   0   4  -6   38.22    1.66
  -1  -4  -6   25.15    2.20
   1  -4   6   29.46    2.43
  -1  -4  -6   25.68    1.66
  -1   4  -6   24.93    1.58
  -2  -4  -6    1.31    1.03
  -2  -4  -6    0.48    0.68
   2  -4   6    2.12    1.12
  -2   4  -6    0.68    0.72
   3  -4   6    1.47    1.06
  -3  -4  -6    1.51    0.78
  -3  -4  -6    1.59    1.21
  -3   4  -6    2.55    0.92
  -4  -4  -6    3.02    0.97
  -4  -4  -6   -0.61    1.17
   4  -4   6    1.81    1.14
  -4   4  -6    1.65    1.01
  -5  -4  -6   -0.82    0.84
  -5  -4  -6    0.28    1.32
   5  -4   6    0.20    1.05
   5   4   6   -0.32    1.20
  -5   4  -6    0.47    1.11
  -6  -4  -6   41.69    2.83
  -6  -4  -6   41.48    3.58
   6   4   6   41.04    3.59
  -6   4  -6   38.94    3.24
  -7  -4  -6    1.36    1.38
  -7   4  -6   -0.46    1.24
   7   4   6    3.52    1.67
  -8  -4  -6    2.14    1.64
   8   4   6    2.30    1.69
  -8   4  -6   -1.02    1.54
  -9  -4  -6    1.97    1.94
  -9   4  -6    1.44    1.65
   9   4   6    1.56    1.76
 -10  -4  -6    6.61    2.62
  10   4   6    8.38    2.32
 -10   4  -6    6.37    2.39
  11   4   6   -0.39    1.88
 -10   5   6    1.97    2.03
  -9  -5   6   29.95    3.54
   9   5  -6   32.47    3.66
  -9   5   6   31.13    3.72
  -8  -5   6    3.68    1.93
  -8   5   6   -0.11    1.61
  -7  -5   6    1.66    1.68
  -7   5   6   -1.09    1.50
  -6  -5   6    6.51    1.89
  -6   5   6   10.72    2.22
  -5  -5   6  104.18    5.18
  -5   5   6  104.58    4.97
  -4  -5   6    1.03    1.34
  -4   5   6   -0.76    1.06
  -3  -5   6   20.98    2.42
   3  -5  -6   19.73    2.04
  -3   5   6   20.78    2.10
   2  -5  -6    3.33    1.10
   2  -5  -6    5.02    1.17
  -2  -5   6    4.63    1.55
   1  -5  -6  294.28    9.35
   1  -5  -6  288.16    8.84
  -1  -5   6  305.15    9.93
   0  -5   6   16.76    2.09
   0  -5  -6   10.93    1.67
   0  -5  -6   11.69    1.41
  -1  -5  -6    0.22    0.73
   1  -5   6    1.89    1.28
  -1  -5  -6    1.60    1.21
  -1   5  -6    1.61    0.82
   2  -5   6   -1.05    1.06
  -2  -5  -6   -0.11    1.19
  -2  -5  -6   -0.10    0.74
  -2   5  -6   -0.45    0.73
  -3  -5  -6   22.85    1.91
   3  -5   6   26.93    2.52
  -3  -5  -6   22.37    2.68
  -3   5  -6   22.15    2.02
   4  -5   6   -0.58    1.14
  -4  -5  -6   -0.22    1.23
  -4  -5  -6    0.51    0.92
  -4   5  -6   -0.50    0.92
  -5  -5  -6    1.55    1.11
  -5  -5  -6    1.13    1.50
  -5   5  -6    0.95    1.25
  -6  -5  -6    3.23    1.43
  -6  -5  -6    4.75    2.00
   6   5   6    3.40    1.91
  -6   5  -6    0.74    1.40
  -7  -5  -6    1.43    1.50
  -7   5  -6    5.35    1.83
   7   5   6    2.88    1.87
  -8  -5  -6   -1.34    1.69
   8   5   6    2.56    1.85
  -8   5  -6    5.08    1.93
  -9   5  -6   11.12    2.55
   9   5   6   11.87    2.71
  10   5   6   -0.56    1.97
 -10   5  -6   -0.98    1.88
  -9  -6   6    2.11    2.13
  -9   6   6    3.66    2.20
   9   6  -6    5.69    2.41
  -8  -6   6    0.12    1.77
  -8   6   6   -1.30    1.62
  -7  -6   6    5.12    2.12
  -7   6   6    3.04    1.94
  -6  -6   6    3.11    1.96
  -6   6   6    5.69    2.04
  -5  -6   6    4.18    1.87
  -5   6   6    2.49    1.54
  -4  -6   6    5.23    2.01
  -4   6   6    3.87    1.56
  -3  -6   6   -0.74    1.31
   3  -6  -6   -0.56    1.08
  -3   6   6   -0.08    1.10
   2  -6  -6    2.25    1.22
  -2  -6   6    2.03    1.61
   2  -6  -6    3.10    1.23
  -1  -6   6    1.70    1.41
   1  -6  -6    0.63    1.07
   1  -6  -6    0.37    0.97
   0  -6   6    1.08    1.32
   0  -6  -6    0.20    1.16
   0  -6  -6   -0.44    0.85
   1  -6   6   45.25    3.26
  -1  -6  -6   49.25    3.43
  -1  -6  -6   51.73    2.75
  -2  -6  -6    1.13    1.35
  -2  -6  -6    3.21    1.09
   2  -6   6    0.61    1.29
  -3  -6  -6    6.54    1.89
   3  -6   6    7.39    1.76
  -3  -6  -6    4.93    1.30
  -4  -6  -6    2.34    1.71
   4  -6   6    5.29    1.64
  -4  -6  -6    3.64    1.27
  -5  -6  -6   25.83    2.47
  -5  -6  -6   21.91    3.17
  -5   6  -6   26.57    2.67
  -6  -6  -6   17.21    3.00
  -6   6  -6   14.00    2.33
   6   6   6   16.08    3.02
  -7   6  -6    6.42    2.04
   7   6   6    5.32    2.20
  -8   6  -6    5.31    2.17
   8   6   6    8.56    2.58
  -9   6  -6    3.85    2.19
   9   6   6    7.68    2.54
  10   6   6    5.78    2.58
  -9  -7   6    3.28    2.33
   9   7  -6    2.44    2.32
  -8  -7   6    6.08    2.47
  -8   7   6    1.98    2.13
  -7  -7   6    1.30    2.14
  -7   7   6    6.49    2.32
  -6  -7   6    9.85    2.78
  -6   7   6   15.91    2.84
  -5  -7   6    5.92    2.26
  -5   7   6    7.08    2.12
  -4  -7   6    3.45    2.19
  -4   7   6    8.00    2.00
   3  -7  -6   31.29    3.03
  -3  -7   6   28.29    3.67
  -3   7   6   25.48    2.80
   2  -7  -6    1.87    1.36
  -2  -7   6   -0.17    1.70
   2  -7  -6    2.66    1.42
  -2   7   6    1.31    1.30
   1  -7  -6    1.92    1.34
   1  -7  -6    2.94    1.54
  -1  -7   6    1.09    1.70
   0  -7  -6    1.33    1.16
   0  -7   6    2.65    1.75
   0  -7  -6    1.02    1.53
  -1  -7  -6   10.23    1.69
   1  -7   6   12.69    2.52
  -1  -7  -6   16.71    2.75
   2  -7   6    2.38    1.72
  -2  -7  -6    4.44    1.92
  -3  -7  -6    3.48    2.04
   3  -7   6    6.15    1.91
  -4  -7  -6   29.46    3.83
  -5  -7  -6    7.81    2.64
  -6  -7  -6    2.76    2.11
   6   7   6    3.98    2.35
   7   7   6    0.68    2.10
   8   7   6    0.19    2.21
   9   7   6   -0.85    2.15
  -8  -8   6    6.04    2.69
  -7  -8   6    1.03    2.38
  -6  -8   6    2.64    2.34
  -5  -8   6    3.38    2.50
  -4  -8   6   16.65    3.41
  -3  -8   6    2.56    2.35
  -2  -8   6    0.48    2.15
  -1  -8   6    4.05    2.28
   1  -8  -6    2.46    1.98
   0  -8   6   13.99    2.90
   0  -8  -6   13.21    2.67
   1  -8   6   10.88    2.72
  -1  -8  -6   18.03    3.02
   2  -8   6   -0.49    1.77
  -2  -8  -6    1.62    2.07
  -3  -8  -6   -0.58    2.06
   3  -8   6    2.51    1.95
  -4  -8  -6   -0.11    1.92
  -5  -8  -6    1.29    2.10
   5   8   6    0.43    2.22
  -6  -8  -6    3.69    2.64
   6   8   6    2.92    2.44
   7   8   6    1.92    2.55
  -6  -9   6   -0.10    2.43
  -5  -9   6   10.02    3.24
  -4  -9   6    4.02    2.80
  -3  -9   6    3.03    2.57
  -2  -9   6    0.78    2.45
  -1  -9   6   45.36    5.21
   0  -9   6    2.41    2.47
   0  -9  -6    2.85    2.26
  -1  -9  -6    2.16    2.27
   1  -9   6   -0.57    2.17
   2  -9   6    1.43    2.30
  -2  -9  -6    2.67    2.44
  -3  -9  -6    3.13    2.51
  -4  -9  -6   -1.18    2.46
   4   9   6    3.27    2.67
  -5  -9  -6    1.63    2.59
   5   9   6    4.41    2.83
  -2 -10   6   -0.07    2.54
  -1 -10   6   -1.31    2.48
   0 -10   6   -1.91    2.44
   1 -10   6    5.49    3.03
  -1 -10  -6    8.84    3.01
  -2 -10  -6    1.36    2.59
   2  10   6    0.97    2.54
  12   0  -7   -0.30    1.17
 -12   0   7   -0.17    1.90
 -12   0   7    0.20    1.80
 -11   0   7    2.18    1.86
 -11   0   7    1.23    1.71
  11   0  -7    3.45    1.49
 -10   0   7    0.84    1.56
 -10   0   7    1.88    1.64
  10   0  -7    0.28    1.29
   9   0  -7   78.98    3.73
  -9   0   7   75.13    4.45
  -9   0   7   82.88    4.22
  -8   0   7    0.10    1.17
   8   0  -7   -0.94    1.14
  -8   0   7   -2.44    1.19
  -7   0   7   47.75    3.10
  -7   0   7   56.39    3.42
   7   0  -7   49.31    2.71
  -6   0   7    0.43    1.01
   6   0  -7   -0.57    0.86
  -6   0   7    0.75    1.04
  -5   0   7   57.82    2.93
  -5   0   7   48.00    2.54
   5   0  -7   52.54    2.43
  -4   0   7    0.13    0.75
  -4   0   7   -0.93    0.72
   4   0  -7   -0.90    0.65
  -3   0   7  176.97    5.40
   3   0  -7  175.59    5.16
   2   0  -7   -0.11    0.45
   1   0  -7   74.31    2.28
   0   0  -7    0.38    0.34
  -1   0  -7  988.24   23.31
  -1   0  -7 1000.00   25.24
   2   0   7   -0.63    0.69
  -2   0  -7    0.09    0.43
   3   0   7    0.72    0.62
  -3   0  -7   -0.20    0.47
  -3   0  -7    0.16    0.53
   3   0   7    2.50    0.98
   4   0   7    0.88    0.70
  -4   0  -7   -0.04    0.63
   4   0   7   -0.48    0.93
  -4   0  -7   -0.24    0.53
  -5   0  -7  240.31    7.76
   5   0   7  258.36    8.39
   5   0   7  245.27    7.39
  -5   0  -7  249.69    7.18
  -6   0  -7    0.70    1.06
   6   0   7    1.00    0.96
   6   0   7    0.79    1.22
  -6   0  -7    0.09    0.81
  -7   0  -7   12.09    1.96
   7   0   7   11.56    1.72
   7   0   7   10.79    2.02
  -7   0  -7   11.40    1.62
  -8   0  -7   -0.81    1.02
   8   0   7    1.84    1.29
  -8   0  -7   -1.15    1.25
  -9   0  -7   26.98    3.07
  -9   0  -7   25.52    2.65
   9   0   7   27.61    2.65
 -10   0  -7   -0.51    1.43
  10   0   7   -0.28    1.37
 -10   0  -7   -0.28    1.68
 -11   0  -7   12.40    2.52
  11   0   7   13.61    2.11
 -11   0  -7   11.07    2.30
 -12   0  -7    0.56    1.81
  12   0   7   -1.38    1.34
 -12  -1   7    2.79    2.12
 -12  -1   7    0.31    1.66
  12   1  -7    3.52    1.67
 -11  -1   7    1.12    1.89
 -11  -1   7    2.78    1.80
  11  -1  -7    1.05    0.82
  11   1  -7    0.25    1.55
 -11   1   7    0.75    1.58
  10  -1  -7    4.08    1.18
 -10  -1   7    3.91    1.80
 -10  -1   7    0.47    1.62
 -10   1   7    1.67    1.74
  10   1  -7   -0.16    1.37
   9  -1  -7   39.63    2.38
  -9  -1   7   42.08    3.64
  -9  -1   7   43.23    3.32
   9   1  -7   36.61    2.96
  -9   1   7   38.17    3.58
  -8  -1   7    2.19    1.33
   8  -1  -7    4.89    1.24
  -8  -1   7    4.06    1.65
  -8   1   7    3.88    1.68
   8   1  -7    3.21    1.35
  -7  -1   7   15.73    2.18
  -7  -1   7   13.20    1.86
   7  -1  -7   14.54    1.61
   7   1  -7   15.47    1.85
  -7   1   7   14.03    2.10
  -6  -1   7   19.94    1.95
  -6  -1   7   24.72    2.33
   6  -1  -7   18.84    1.65
  -6   1   7   20.89    2.29
  -6   1   7   21.68    1.98
   6   1  -7   19.11    1.87
  -5  -1   7   76.06    3.42
  -5  -1   7   72.24    2.88
  -5  -1   7   76.48    3.24
   5  -1  -7   72.28    2.83
   5   1  -7   74.06    3.13
  -5   1   7   69.95    3.50
  -4  -1   7   14.42    1.45
   4  -1  -7   14.38    1.16
  -4  -1   7   14.86    1.21
  -4  -1   7   10.26    1.27
  -4   1   7   11.64    1.43
   4   1  -7   13.73    1.39
   3  -1  -7   14.30    1.32
  -3  -1   7   13.77    1.26
   3  -1  -7   12.91    0.99
  -3  -1   7   14.10    1.21
  -3   1   7   14.24    1.32
   2  -1  -7   73.39    2.28
   2  -1  -7   77.11    2.70
  -2  -1   7   76.48    2.68
  -2  -1   7   79.72    2.53
   1  -1  -7  235.05    6.41
   1   1  -7  229.81    6.03
   1   1  -7  236.52    5.76
   0  -1  -7   30.61    1.30
   0   1  -7   29.76    0.99
  -1  -1  -7   93.80    2.85
  -1   1  -7   86.26    2.66
   2  -1   7   11.69    1.38
   2  -1   7    8.70    0.82
  -2  -1  -7    8.75    0.87
  -2  -1  -7    8.68    0.57
  -2  -1  -7    9.25    0.70
   2   1   7    9.56    1.18
  -2   1  -7    8.14    0.85
  -3  -1  -7   -0.26    0.49
   3  -1   7    0.84    1.00
  -3  -1  -7    0.88    0.49
   3  -1   7    0.67    0.54
   3   1   7   -0.09    0.75
  -3   1  -7    0.55    0.63
  -4  -1  -7   37.62    1.77
   4  -1   7   40.18    1.93
  -4  -1  -7   36.49    1.98
   4  -1   7   38.59    2.94
   4   1   7   35.01    2.28
   4   1   7   39.25    2.06
  -4   1  -7   39.83    2.19
   5  -1   7   -0.25    0.75
   5  -1   7    0.15    1.21
  -5  -1  -7    0.01    0.63
  -5  -1  -7   -0.55    0.74
   5   1   7   -0.64    0.78
   5   1   7    1.04    0.95
  -5   1  -7    0.26    0.86
  -5   1  -7    1.12    0.80
  -6  -1  -7    9.39    1.31
   6  -1   7    7.75    1.32
  -6  -1  -7    7.91    1.55
   6  -1   7    9.27    1.89
  -6   1  -7    9.36    1.69
   6   1   7    7.76    1.62
   6   1   7   11.57    1.59
  -6   1  -7   13.27    1.51
  -7  -1  -7    5.23    1.26
   7  -1   7    4.65    1.25
  -7  -1  -7    5.84    1.69
   7  -1   7    4.97    1.69
   7   1   7    4.09    1.49
  -7   1  -7    6.62    1.43
  -7   1  -7    4.26    1.53
   7   1   7    5.31    1.41
  -8  -1  -7    3.68    1.63
  -8  -1  -7    3.75    1.26
   8  -1   7    2.78    1.32
   8   1   7    2.67    1.47
   8   1   7    0.89    1.36
  -8   1  -7    2.75    1.35
  -8   1  -7    2.74    1.45
  -9  -1  -7   -0.89    1.35
   9  -1   7    2.96    1.37
  -9  -1  -7    3.68    1.59
  -9   1  -7   -0.20    1.33
  -9   1  -7    2.18    1.68
   9   1   7    2.48    1.38
 -10  -1  -7    0.96    1.58
  10  -1   7    3.07    1.41
 -10  -1  -7    4.03    1.77
 -10   1  -7    1.21    1.73
  10   1   7    2.05    1.56
 -10   1  -7    0.09    1.57
  11  -1   7    3.70    1.38
 -11  -1  -7    1.67    1.67
 -11  -1  -7    4.15    2.21
 -11   1  -7    3.02    1.83
  11   1   7    4.49    1.76
 -11   1  -7    1.51    1.99
 -12  -1  -7    6.09    2.03
 -12   1  -7    2.51    2.01
  12   1   7    6.62    1.92
 -12  -2   7    1.15    1.68
  12   2  -7    2.82    1.84
 -11  -2   7    1.63    1.66
  11   2  -7   -1.62    1.42
 -11   2   7   -1.07    1.70
 -10  -2   7    2.62    1.65
 -10  -2   7    3.69    1.97
  10   2  -7    4.44    1.77
 -10   2   7    4.38    1.99
  -9  -2   7    4.10    1.81
  -9  -2   7    0.67    1.41
  -9   2   7    1.01    1.52
   9   2  -7    1.10    1.40
  -8  -2   7   10.05    2.07
  -8  -2   7    9.92    1.80
   8   2  -7   10.14    1.81
  -8   2   7    9.97    2.09
  -7  -2   7   -1.12    0.97
  -7  -2   7    0.21    1.12
  -7  -2   7    1.28    1.39
  -7   2   7    1.43    1.37
   7   2  -7   -0.73    1.02
  -6  -2   7    5.88    1.29
  -6  -2   7    6.34    1.28
  -6  -2   7    2.48    1.29
   6   2  -7    7.08    1.40
  -6   2   7    3.84    1.38
  -5  -2   7   -1.82    0.70
  -5  -2   7    1.98    0.95
  -5  -2   7    0.59    0.89
   5   2  -7    0.37    0.97
  -5   2   7    0.79    1.08
  -4  -2   7  264.05    7.93
  -4  -2   7  258.67    7.47
  -4  -2   7  251.50    7.47
  -4   2   7  254.32    8.09
   4   2  -7  267.46    7.56
  -3  -2   7    2.25    0.76
  -3  -2   7    0.49    0.62
  -3  -2   7    0.62    0.49
   3  -2  -7    1.02    0.77
   2  -2  -7    2.47    0.68
  -2  -2   7    2.30    0.34
  -2  -2   7    2.81    0.61
  -2  -2   7    3.05    0.80
   1  -2  -7    5.80    0.75
  -1  -2   7    7.02    0.98
  -1  -2   7    6.54    0.62
   1   2  -7    6.35    0.47
   0  -2  -7   47.69    1.87
   0  -2   7   44.04    2.14
   0   2  -7   46.38    1.35
   1  -2   7   12.74    1.34
  -1  -2  -7   14.18    1.10
  -1  -2  -7   13.71    1.41
  -1   2  -7   12.58    0.87
  -2  -2  -7   23.85    0.84
  -2  -2  -7   24.91    1.39
  -2  -2  -7   25.17    1.78
   2  -2   7   24.96    1.01
   2  -2   7   23.99    1.75
   2   2   7   22.93    1.68
  -2   2  -7   21.68    1.37
   3  -2   7    1.87    0.56
   3  -2   7    0.49    1.03
  -3  -2  -7    2.62    0.72
  -3  -2  -7    1.62    0.45
  -3  -2  -7    1.15    0.95
  -3   2  -7    1.32    0.74
   3   2   7    0.50    0.85
   4  -2   7   13.79    1.14
  -4  -2  -7   12.89    1.01
  -4  -2  -7    8.52    1.15
   4  -2   7   10.79    1.72
   4   2   7   11.49    1.65
  -4   2  -7   10.70    1.41
  -5  -2  -7    2.01    0.91
  -5  -2  -7    3.79    0.79
   5  -2   7    4.07    0.97
  -5  -2  -7    3.09    0.41
   5  -2   7    3.62    1.41
   5   2   7    4.34    1.15
   5   2   7    3.74    1.28
  -5   2  -7    1.50    1.10
  -6  -2  -7   60.61    3.28
   6  -2   7   75.44    3.73
  -6  -2  -7   65.68    2.07
   6  -2   7   64.77    2.78
  -6  -2  -7   63.20    2.75
  -6   2  -7   64.00    3.62
   6   2   7   65.07    3.64
   6   2   7   64.80    3.23
  -7  -2  -7    3.62    1.19
   7  -2   7    2.93    1.12
  -7  -2  -7    4.26    1.51
  -7   2  -7    3.05    1.48
   7   2   7    4.97    1.46
   7   2   7    3.08    1.43
  -8  -2  -7    3.49    1.33
   8  -2   7    8.68    1.38
  -8  -2  -7    7.65    1.88
   8   2   7    6.85    1.69
   8   2   7    9.06    1.89
  -8   2  -7    4.83    1.75
   9  -2   7    0.47    0.91
  -9  -2  -7    2.53    1.88
  -9  -2  -7    1.90    1.30
   9   2   7   -0.04    1.41
  -9   2  -7   -0.17    1.54
   9   2   7   -2.60    1.27
 -10  -2  -7   15.78    2.82
 -10  -2  -7   13.54    2.15
 -10   2  -7   19.14    2.89
  10   2   7   18.99    2.50
 -11  -2  -7    0.89    1.61
 -11  -2  -7    0.98    1.99
 -11   2  -7   -0.20    1.65
  11   2   7   -1.44    1.52
 -12  -2  -7   -0.29    1.56
  12   2   7   -1.45    1.63
 -12  -3   7   -1.95    1.44
  12   3  -7    0.44    1.75
 -11  -3   7    0.88    1.52
 -11   3   7    1.57    1.69
  11   3  -7    0.73    1.69
 -10  -3   7    0.18    1.40
 -10   3   7    0.71    1.70
  10   3  -7    0.04    1.51
  -9  -3   7   47.59    3.07
   9   3  -7   48.22    3.68
  -9   3   7   46.01    4.10
  -8  -3   7    0.28    1.26
   8   3  -7   -1.89    1.25
  -8   3   7   -0.95    1.27
  -7  -3   7   24.42    2.51
  -7  -3   7   25.32    2.16
  -7  -3   7   24.07    2.45
   7   3  -7   26.56    2.55
  -7   3   7   24.90    2.85
  -6  -3   7   14.34    1.90
  -6  -3   7   16.63    1.66
  -6  -3   7   17.69    1.86
   6   3  -7   14.88    1.91
  -6   3   7   12.12    2.12
  -5  -3   7  128.16    4.15
  -5  -3   7  117.72    4.90
  -5  -3   7  120.85    4.29
  -5   3   7  129.79    5.17
  -4  -3   7    2.00    0.67
   4  -3  -7    1.29    0.97
  -4  -3   7    2.72    0.68
  -4  -3   7    1.70    0.98
  -4   3   7    0.67    0.91
   3  -3  -7   71.02    3.10
  -3  -3   7   67.76    3.16
  -3  -3   7   72.10    2.26
  -3  -3   7   72.85    2.22
  -2  -3   7   40.13    1.28
  -2  -3   7   41.62    2.30
   2  -3  -7   44.82    2.14
   2   3  -7   44.05    1.46
  -1  -3   7  260.10    8.04
   1  -3  -7  253.01    7.44
   1  -3  -7  260.75    7.65
   0  -3   7   23.88    1.95
   0  -3  -7   25.74    1.72
   0  -3  -7   20.51    1.35
   0   3  -7   21.26    0.98
  -1  -3  -7   51.83    2.14
   1  -3   7   50.43    2.60
  -1  -3  -7   53.16    2.57
  -1   3  -7   48.27    1.90
  -2  -3  -7    0.87    0.85
  -2  -3  -7    0.42    0.55
   2  -3   7    2.95    1.05
  -2   3  -7    1.71    0.65
   3  -3   7    0.21    0.98
  -3  -3  -7    1.08    0.98
  -3  -3  -7    1.72    0.71
  -3   3  -7    0.62    0.74
   4  -3   7    8.00    1.53
  -4  -3  -7    6.44    1.08
  -4  -3  -7    4.58    1.34
  -4   3  -7    7.01    1.24
   4   3   7    4.20    1.30
  -5  -3  -7    5.57    1.22
  -5  -3  -7    6.17    0.77
   5  -3   7    6.61    1.54
   5   3   7    3.01    1.35
  -5   3  -7    2.84    1.22
  -6  -3  -7    9.60    1.08
  -6  -3  -7    8.28    1.54
   6   3   7   11.32    1.98
  -6   3  -7    7.14    1.70
  -7  -3  -7    3.20    1.51
  -7  -3  -7    3.48    1.04
  -7   3  -7    2.83    1.54
   7   3   7    2.59    1.44
  -8  -3  -7    0.17    1.06
  -8  -3  -7   -1.19    1.42
   8   3   7   -0.35    1.38
  -8   3  -7    2.69    1.56
   8   3   7   -1.12    1.39
  -9  -3  -7   -0.06    1.65
  -9  -3  -7   -0.63    1.21
   9   3   7    0.34    1.43
  -9   3  -7    2.56    1.77
   9   3   7    2.06    1.73
 -10  -3  -7   -1.78    1.62
 -10  -3  -7    2.31    1.40
  10   3   7   -0.86    1.61
 -10   3  -7   -2.27    1.43
 -11  -3  -7    6.62    2.60
 -11  -3  -7    8.33    1.69
 -11   3  -7    1.41    2.06
  11   3   7    7.39    2.10
 -12  -3  -7    0.08    1.39
  12   3   7   -0.68    1.72
  11   4  -7    0.69    1.85
 -10  -4   7    0.10    1.25
 -10   4   7    0.42    1.84
  10   4  -7   -0.18    1.69
  -9  -4   7   34.88    2.30
  -9   4   7   35.09    3.84
  -8  -4   7    0.42    1.08
  -8  -4   7    1.12    1.46
  -8   4   7    1.23    1.64
  -7  -4   7   25.87    2.79
  -7  -4   7   25.36    1.72
  -7   4   7   20.79    2.77
  -6  -4   7   -0.96    1.08
  -6  -4   7    0.83    0.67
  -6   4   7    0.27    1.40
  -5  -4   7   33.54    2.97
  -5   4   7   33.61    2.99
   4  -4  -7    2.83    1.23
  -4  -4   7    0.73    1.09
  -4   4   7   -0.58    0.99
  -3  -4   7   89.32    4.15
   3  -4  -7   89.40    3.85
  -2  -4   7    0.01    0.87
   2  -4  -7    1.47    0.83
   2  -4  -7    1.71    0.79
  -1  -4   7   24.23    2.24
   1  -4  -7   24.62    1.76
   1  -4  -7   25.35    1.86
   0  -4   7   -1.00    0.86
   0  -4  -7    1.55    0.90
   0  -4  -7    1.70    0.73
   0   4  -7   -0.19    0.45
   1  -4   7  421.20   12.52
  -1  -4  -7  418.23   12.52
  -1  -4  -7  423.14   11.59
  -1   4  -7  403.05   11.19
   2  -4   7    2.14    1.14
  -2  -4  -7   -0.01    1.02
  -2  -4  -7    2.67    0.83
  -2   4  -7    3.68    0.87
   3  -4   7    3.07    1.24
  -3  -4  -7    4.24    1.40
  -3  -4  -7    3.28    0.95
  -3   4  -7    4.33    1.05
  -4  -4  -7    7.35    1.65
  -4  -4  -7    7.00    1.24
   4  -4   7   10.75    1.70
  -4   4  -7    8.45    1.46
  -5  -4  -7   92.59    4.01
  -5  -4  -7  102.23    4.95
   5  -4   7   97.46    4.29
  -5   4  -7   92.67    4.31
   5   4   7   90.81    4.75
  -6  -4  -7   25.22    2.44
  -6   4  -7   24.10    2.57
   6   4   7   28.42    3.13
  -7  -4  -7   11.77    2.05
   7   4   7   13.95    2.36
  -7   4  -7   12.18    2.24
  -8  -4  -7    4.09    1.83
   8   4   7    0.86    1.62
  -8   4  -7    5.40    1.80
  -9  -4  -7   11.60    2.65
  -9   4  -7   10.83    2.42
   9   4   7   10.47    2.34
 -10  -4  -7   -0.29    2.09
 -10   4  -7   -0.28    1.82
  10   4   7    1.77    1.92
  11   4   7   13.40    2.62
 -10   5   7   11.26    2.69
  -9   5   7    7.18    2.29
  -8  -5   7    6.26    2.08
  -8   5   7    1.14    1.85
  -7  -5   7    1.48    1.63
  -7   5   7    1.87    1.59
  -6  -5   7    5.43    1.87
  -6   5   7    9.69    2.07
  -5  -5   7    2.87    1.49
  -5   5   7    3.59    1.47
  -4  -5   7    2.71    1.39
   4  -5  -7    2.55    1.31
  -4   5   7    4.90    1.42
   3  -5  -7    4.03    1.23
  -3  -5   7    6.00    1.69
  -2  -5   7   16.88    2.31
   2  -5  -7   14.20    1.61
   2  -5  -7   14.13    1.74
   1  -5  -7    4.35    1.23
   1  -5  -7    7.78    1.26
  -1  -5   7    5.57    1.57
   0  -5   7   13.49    2.04
   0  -5  -7   17.78    1.65
   0  -5  -7   13.16    1.79
   1  -5   7    5.81    1.59
  -1  -5  -7    2.71    1.24
  -1  -5  -7    5.50    1.08
   2  -5   7   27.30    2.68
  -2  -5  -7   28.28    2.80
  -2  -5  -7   24.13    2.00
  -2   5  -7   26.44    1.88
   3  -5   7    2.90    1.35
  -3  -5  -7    1.93    0.96
  -3  -5  -7    2.42    1.39
  -3   5  -7    5.38    1.14
   4  -5   7   34.41    2.92
  -4  -5  -7   33.83    2.36
  -4  -5  -7   38.54    3.46
  -4   5  -7   32.38    2.61
  -5  -5  -7   -0.03    1.48
  -5  -5  -7    0.15    1.13
   5   5   7    1.32    1.61
  -5   5  -7    4.63    1.44
  -6  -5  -7    3.58    1.48
  -6  -5  -7    6.22    1.96
   6   5   7   -0.58    1.45
  -6   5  -7    3.14    1.51
  -7  -5  -7    3.96    1.70
  -7   5  -7    5.76    1.89
   7   5   7    5.05    1.98
  -8  -5  -7    6.01    2.15
  -8   5  -7    2.59    1.86
   8   5   7    5.90    2.15
  -9   5  -7    3.23    2.01
   9   5   7    1.47    2.00
  10   5   7    2.00    2.04
  -9  -6   7    2.15    2.12
   9   6  -7    1.52    2.01
  -9   6   7    2.10    2.01
  -8  -6   7    6.92    2.36
  -8   6   7    5.16    2.25
  -7  -6   7    1.47    1.94
  -7   6   7    0.91    1.73
  -6  -6   7   -0.19    1.44
  -6   6   7    2.67    1.71
  -5  -6   7    0.68    1.58
  -5   6   7    0.25    1.35
  -4  -6   7   59.76    4.31
  -4   6   7   68.36    3.92
   3  -6  -7    1.32    1.28
  -3  -6   7    2.73    1.63
  -3   6   7    3.40    1.33
   2  -6  -7    2.21    1.18
   2  -6  -7    0.91    1.17
  -2  -6   7    1.94    1.44
   1  -6  -7   17.39    2.16
  -1  -6   7   16.25    2.50
   1  -6  -7   20.11    2.03
   0  -6  -7   24.33    2.65
   0  -6   7   21.17    2.73
   0  -6  -7   27.28    2.24
  -1  -6  -7   32.99    3.19
   1  -6   7   29.89    3.09
  -1  -6  -7   32.05    2.26
  -2  -6  -7    0.32    1.40
   2  -6   7    0.23    1.32
  -2  -6  -7    0.08    0.98
  -3  -6  -7    2.94    1.62
  -3  -6  -7    2.85    1.16
   3  -6   7    2.46    1.54
  -4  -6  -7    5.32    1.38
   4  -6   7    5.88    1.78
  -4  -6  -7    2.84    1.91
  -5  -6  -7    3.71    2.05
  -5  -6  -7    1.72    1.34
   5   6   7    3.40    2.07
  -6  -6  -7   10.83    2.71
   6   6   7   11.33    2.79
  -6   6  -7   15.16    2.36
  -7   6  -7    4.18    1.97
   7   6   7    6.58    2.44
  -8   6  -7    3.62    2.03
   8   6   7    0.57    1.98
   9   6   7    1.93    2.21
  -9   6  -7    0.42    1.99
  10   6   7    3.36    2.42
  -9  -7   7   13.93    3.01
   9   7  -7    7.06    2.76
  -8  -7   7    0.62    2.03
  -8   7   7   -0.07    1.91
  -7  -7   7    3.28    2.26
  -7   7   7    0.60    1.94
  -6  -7   7   -0.39    1.87
  -6   7   7   -0.23    1.69
  -5  -7   7   43.05    4.51
  -5   7   7   37.54    3.80
  -4  -7   7   -0.38    1.87
  -4   7   7   -0.11    1.43
  -3  -7   7   20.23    3.22
   3  -7  -7   22.51    2.60
  -3   7   7   25.98    2.79
   2  -7  -7    2.22    1.43
  -2  -7   7    0.31    1.74
   1  -7  -7   53.28    3.31
  -1  -7   7   46.21    4.39
   1  -7  -7   48.95    3.49
   0  -7  -7    2.05    1.66
   0  -7  -7   -0.14    1.16
   0  -7   7    0.10    1.46
   1  -7   7    4.10    1.95
  -1  -7  -7    6.74    1.49
  -1  -7  -7    4.57    1.89
   2  -7   7    0.91    1.64
  -2  -7  -7   -2.90    1.49
   3  -7   7    0.82    1.54
  -3  -7  -7   -0.99    1.70
  -4  -7  -7   -1.96    1.74
  -5  -7  -7   -0.50    1.84
   5   7   7    3.75    2.15
  -6  -7  -7   -0.11    1.93
   6   7   7    1.23    2.09
   7   7   7    2.77    2.26
   8   7   7   -1.20    2.16
   9   7   7    1.85    2.48
  -8  -8   7   -0.30    2.16
  -7  -8   7    4.47    2.62
  -6  -8   7    0.06    2.05
  -6   8   7   -1.00    1.96
  -5  -8   7    7.56    2.79
  -5   8   7   12.28    2.86
  -4  -8   7    7.84    2.69
  -4   8   7    3.98    2.03
  -3  -8   7   24.59    3.86
  -2  -8   7    0.71    2.05
  -1  -8   7    4.03    2.32
   1  -8  -7    3.11    1.89
   0  -8  -7    0.34    1.74
   0  -8   7    1.64    2.00
   1  -8   7   42.14    4.33
  -1  -8  -7   43.96    4.38
  -2  -8  -7    1.66    2.15
   2  -8   7    1.20    1.92
  -3  -8  -7    4.86    2.45
   3  -8   7    6.31    2.28
  -4  -8  -7   10.51    2.92
   4   8   7    5.03    2.52
  -5  -8  -7   15.06    3.28
   5   8   7   18.72    3.62
  -6  -8  -7   19.20    3.75
   6   8   7   11.46    3.25
   7   8   7    3.09    2.72
  -6  -9   7    1.36    2.54
  -5  -9   7   -1.79    2.40
  -4  -9   7    1.08    2.45
  -3  -9   7    6.32    2.79
  -2  -9   7   -0.07    2.46
  -1  -9   7    2.92    2.75
   0  -9   7    1.53    2.49
   0  -9  -7    4.48    2.37
  -1  -9  -7    0.55    2.06
   1  -9   7   -1.15    2.19
  -2  -9  -7    8.73    2.87
   2  -9   7    1.67    2.31
  -3  -9  -7   -1.50    2.10
   3   9   7    2.19    2.46
  -4  -9  -7   11.16    3.17
   4   9   7    5.95    2.91
  -5  -9  -7   -1.41    2.39
   5   9   7   -1.90    2.37
  -2 -10   7    0.58    2.65
  -1 -10   7    5.44    3.16
   0 -10   7    7.32    3.29
   1 -10   7   10.74    3.46
  -1 -10  -7    6.26    2.79
   1  10   7    4.36    2.60
  -2 -10  -7   -0.02    2.45
   2  10   7   -0.44    2.33
  12   0  -8   -0.07    1.17
 -12   0   8   -1.28    1.71
 -12   0   8   -0.51    1.84
  11   0  -8   -1.30    1.26
 -11   0   8   -0.05    1.71
 -11   0   8    0.08    1.72
  10   0  -8    6.25    1.62
 -10   0   8    5.23    1.85
 -10   0   8    5.69    1.95
   9   0  -8    1.28    1.28
  -9   0   8   -0.38    1.36
  -9   0   8    0.90    1.50
   8   0  -8    5.31    1.43
  -8   0   8    6.06    1.88
  -8   0   8    5.83    1.58
  -7   0   8    0.63    1.12
   7   0  -8    0.48    1.02
  -7   0   8    1.02    1.28
   6   0  -8    7.67    1.34
  -6   0   8    6.18    1.45
  -6   0   8    9.22    1.44
   5   0  -8    0.15    0.81
  -5   0   8   -0.55    0.78
  -5   0   8    0.13    0.95
  -4   0   8  281.08    8.48
  -4   0   8  283.86    8.15
   4   0  -8  291.32    8.08
   3   0  -8   -0.11    0.57
  -3   0   8    5.29    0.89
   2   0  -8   29.02    1.41
   2   0  -8   28.80    1.41
   1   0  -8    0.20    0.39
   0   0  -8    1.36    0.40
  -1   0  -8    0.20    0.30
  -1   0  -8    0.07    0.37
  -2   0  -8   10.30    0.91
   2   0   8    9.54    1.30
   3   0   8    0.04    0.80
  -3   0  -8    0.13    0.54
  -3   0  -8   -0.74    0.44
   3   0   8   -0.16    0.54
   4   0   8   13.16    1.77
   4   0   8   11.67    1.27
  -4   0  -8   14.34    1.19
  -4   0  -8   13.51    1.38
   5   0   8   -0.37    1.07
  -5   0  -8    0.97    0.71
  -5   0  -8    0.41    0.81
   5   0   8   -0.27    0.77
  -6   0  -8  141.12    4.84
   6   0   8  142.32    5.14
   6   0   8  148.64    5.95
  -6   0  -8  146.69    5.60
   7   0   8   -1.47    1.26
  -7   0  -8   -0.68    0.89
   7   0   8   -0.65    1.00
  -7   0  -8   -0.43    1.17
  -8   0  -8   19.34    2.56
   8   0   8   17.61    2.15
   8   0   8   16.75    2.49
  -8   0  -8   17.01    2.04
  -9   0  -8   -0.56    1.33
  -9   0  -8    1.22    1.51
   9   0   8   -0.01    1.34
 -10   0  -8    8.60    2.23
  10   0   8    4.48    1.67
 -10   0  -8   12.07    2.19
 -11   0  -8   -0.71    1.60
 -11   0  -8   -1.56    1.66
  11   0   8    0.08    1.46
 -12   0  -8   -3.44    1.55
  12   0   8   -0.02    1.44
 -12  -1   8    1.35    1.80
  12   1  -8    0.28    1.56
 -11  -1   8    0.00    1.68
 -11  -1   8    3.84    2.06
 -11   1   8    3.15    1.89
  11   1  -8    1.92    1.55
 -10  -1   8    0.37    1.58
 -10  -1   8    0.14    1.58
  10  -1  -8   -0.15    0.99
  10   1  -8   -1.72    1.38
 -10   1   8    1.82    1.72
  -9  -1   8    8.46    1.90
  -9  -1   8    6.33    1.88
   9  -1  -8    7.02    1.40
   9   1  -8    7.62    1.68
  -9   1   8    6.88    2.00
  -8  -1   8    8.33    1.85
   8  -1  -8    8.14    1.42
  -8  -1   8    9.42    1.77
   8   1  -8   10.13    1.77
  -8   1   8    6.73    1.79
   7  -1  -8   83.42    3.38
  -7  -1   8   82.18    3.84
  -7  -1   8   75.89    4.05
  -7   1   8   84.42    4.27
   7   1  -8   86.98    3.74
   6  -1  -8    1.45    0.90
  -6  -1   8   -0.01    1.04
  -6  -1   8    1.46    1.10
  -6   1   8   -0.01    1.01
   6   1  -8    1.31    1.01
   5  -1  -8    3.68    0.89
  -5  -1   8    3.47    1.12
  -5  -1   8    1.66    0.94
  -5  -1   8    3.08    0.86
  -5   1   8    4.04    1.14
   5   1  -8    1.94    0.93
  -4  -1   8   10.32    1.25
  -4  -1   8    9.09    1.01
   4  -1  -8   10.36    1.05
  -4  -1   8    9.59    1.26
  -4   1   8    9.76    1.33
   4   1  -8   10.78    1.25
  -3  -1   8  257.47    7.34
   3  -1  -8  256.12    7.51
  -3  -1   8  263.72    7.34
   3  -1  -8  256.42    6.93
   3   1  -8  260.95    7.19
  -3   1   8  252.16    7.50
  -2  -1   8  157.32    4.44
   2  -1  -8  148.55    4.19
   2  -1  -8  154.68    4.64
  -2  -1   8  153.41    4.60
   1  -1  -8   28.42    1.35
   1   1  -8   29.50    1.03
   1   1  -8   29.17    1.11
   0  -1  -8    0.56    0.42
   0   1  -8    0.67    0.28
   0   1  -8    1.18    0.33
   1  -1   8  127.12    3.65
  -1  -1  -8  125.65    3.79
  -1  -1  -8  125.85    3.42
   1   1   8  124.18    4.22
  -1   1  -8  127.76    3.60
   2  -1   8   30.11    1.40
  -2  -1  -8   27.78    1.42
  -2  -1  -8   28.29    1.15
  -2  -1  -8   27.95    0.99
   2  -1   8   27.39    1.91
  -2   1  -8   27.86    1.39
   2   1   8   29.77    1.90
   3  -1   8  175.29    6.20
   3  -1   8  177.41    5.07
  -3  -1  -8  178.44    4.49
  -3  -1  -8  170.99    5.32
  -3  -1  -8  177.20    4.91
   3   1   8  174.59    5.96
  -3   1  -8  170.76    5.34
  -4  -1  -8   28.01    1.81
  -4  -1  -8   25.50    1.44
   4  -1   8   26.22    1.62
   4  -1   8   24.81    2.39
  -4   1  -8   25.24    1.49
   4   1   8   24.99    2.25
   4   1   8   27.05    1.73
  -4   1  -8   24.91    1.78
  -5  -1  -8   18.68    1.49
  -5  -1  -8   14.77    1.62
   5  -1   8   16.39    1.56
   5  -1   8   17.11    2.24
  -5   1  -8   19.79    1.60
   5   1   8   18.90    1.74
  -5   1  -8   20.13    1.97
   5   1   8   17.92    2.06
   6  -1   8   40.79    3.32
  -6  -1  -8   35.76    2.45
  -6  -1  -8   33.53    2.03
   6  -1   8   36.00    2.23
  -6   1  -8   31.78    2.12
   6   1   8   33.07    2.85
   6   1   8   31.43    2.43
  -6   1  -8   30.25    2.65
  -7  -1  -8   32.72    2.27
  -7  -1  -8   32.09    2.92
   7  -1   8   28.54    2.35
   7  -1   8   32.27    3.00
  -7   1  -8   28.23    2.34
  -7   1  -8   26.63    2.70
   7   1   8   31.24    2.58
   7   1   8   33.07    3.00
  -8  -1  -8    9.57    2.07
  -8  -1  -8    8.49    1.67
   8  -1   8    6.19    1.54
  -8   1  -8    9.62    1.71
   8   1   8   13.17    2.22
   8   1   8    8.17    1.75
  -8   1  -8   12.80    2.22
   9  -1   8    1.40    1.33
  -9  -1  -8    1.03    1.66
  -9  -1  -8    1.85    1.47
   9   1   8    1.99    1.52
  -9   1  -8    1.85    1.68
  -9   1  -8    0.20    1.44
 -10  -1  -8    0.30    1.51
 -10  -1  -8    1.32    1.84
  10  -1   8   -0.52    1.24
 -10   1  -8   -1.42    1.36
  10   1   8    0.75    1.48
 -10   1  -8   -1.39    1.53
  11  -1   8   13.59    1.81
 -11  -1  -8   11.95    2.19
 -11  -1  -8   19.32    3.08
 -11   1  -8   11.99    2.46
  11   1   8   10.70    2.10
 -12  -1  -8    5.59    1.99
 -12   1  -8    2.25    2.04
  12   1   8    4.91    1.82
 -12  -2   8    0.50    1.62
  12   2  -8    2.27    1.73
 -11  -2   8    2.43    1.74
  11   2  -8    0.94    1.56
 -11   2   8    4.00    2.05
 -10  -2   8    1.54    1.90
 -10  -2   8    5.05    1.73
 -10   2   8    0.10    1.64
  10   2  -8   -1.32    1.37
  -9  -2   8   46.49    3.92
  -9  -2   8   44.13    3.40
  -9   2   8   56.04    3.83
   9   2  -8   46.36    3.21
  -8  -2   8    1.30    1.58
  -8  -2   8    0.65    1.28
   8   2  -8   -0.21    1.19
  -8   2   8    1.30    1.35
  -7  -2   8   84.83    4.14
  -7  -2   8   83.23    3.86
  -7   2   8   87.86    4.46
   7   2  -8   77.55    3.73
  -6  -2   8    0.67    0.90
  -6  -2   8   -0.63    0.95
  -6  -2   8   -1.21    1.02
  -6   2   8    0.24    1.08
   6   2  -8    0.02    1.07
  -5  -2   8    6.61    1.25
  -5  -2   8    9.90    1.39
  -5  -2   8   13.07    1.52
   5   2  -8    9.56    1.43
  -5   2   8    6.87    1.44
  -4  -2   8    1.12    0.79
  -4  -2   8    1.46    0.75
   4  -2  -8    1.34    0.97
  -4  -2   8    2.23    0.89
   4   2  -8    1.42    0.81
  -4   2   8    3.91    1.07
   3  -2  -8  174.46    5.54
  -3  -2   8  161.89    5.04
  -3  -2   8  168.97    5.45
  -3  -2   8  173.16    4.86
  -2  -2   8    2.73    0.32
  -2  -2   8    1.73    0.61
  -2  -2   8    2.19    0.75
   2  -2  -8    3.16    0.74
   1  -2  -8    4.56    0.74
  -1  -2   8    6.48    0.71
  -1  -2   8    6.80    0.97
   1   2  -8    5.93    0.51
   0  -2  -8    0.33    0.44
   0  -2   8    0.14    0.64
   0  -2   8    0.16    0.43
   0  -2  -8   -0.10    0.62
   0   2   8    0.20    0.60
   0   2  -8   -0.22    0.19
  -1  -2  -8  941.27   24.26
   1  -2   8  954.34   25.50
  -1  -2  -8  941.96   25.41
   1  -2   8  903.54   23.28
  -1   2  -8  940.19   23.91
   1   2   8  965.27   25.44
   2  -2   8    4.69    1.12
  -2  -2  -8    4.37    0.40
  -2  -2  -8    4.44    1.02
  -2  -2  -8    3.54    0.76
   2  -2   8    3.86    0.62
   2   2   8    3.58    0.97
  -2   2  -8    3.68    0.70
   3  -2   8   73.04    3.34
  -3  -2  -8   63.02    2.63
   3  -2   8   67.45    2.30
  -3  -2  -8   65.34    2.14
   3   2   8   67.49    3.23
  -3   2  -8   70.17    2.79
  -4  -2  -8    4.31    0.98
  -4  -2  -8    3.65    0.68
   4  -2   8    3.47    1.34
   4  -2   8    3.55    0.85
  -4   2  -8    3.76    1.04
   4   2   8    6.02    1.31
  -5  -2  -8   32.00    2.27
   5  -2   8   38.12    2.00
   5  -2   8   33.39    2.91
  -5  -2  -8   36.87    1.82
   5   2   8   34.87    2.52
   5   2   8   37.80    2.29
  -5   2  -8   33.71    2.37
   6  -2   8    3.43    1.12
   6  -2   8    3.76    1.54
  -6  -2  -8    0.63    0.82
  -6  -2  -8    2.34    0.53
  -6  -2  -8    3.01    1.24
  -6   2  -8    4.03    1.30
   6   2   8    3.75    1.28
   6   2   8    3.10    1.43
  -7  -2  -8   11.25    1.96
  -7  -2  -8    8.95    1.36
   7  -2   8    7.31    1.33
   7   2   8   11.06    1.97
   7   2   8    8.50    1.71
  -7   2  -8    8.07    1.81
  -8  -2  -8    0.69    1.36
   8  -2   8    0.08    1.04
  -8  -2  -8   -0.27    1.11
  -8   2  -8    2.58    1.60
   8   2   8    1.76    1.41
   8   2   8   -2.90    1.18
  -9  -2  -8    8.81    2.15
  -9  -2  -8   14.82    2.07
   9  -2   8    9.08    1.28
   9   2   8    8.15    1.91
   9   2   8    9.08    2.18
  -9   2  -8   10.14    2.21
 -10  -2  -8   -2.56    1.48
 -10  -2  -8    2.19    1.52
 -10   2  -8    0.28    1.59
  10   2   8   -0.24    1.45
 -11  -2  -8   -0.43    1.86
 -11  -2  -8   -0.06    1.55
 -11   2  -8    0.70    1.90
  11   2   8    2.40    1.73
 -12  -2  -8   -1.12    1.58
  12   2   8    0.96    1.76
 -12  -3   8    4.53    1.76
  12   3  -8    5.01    1.95
 -11  -3   8   -2.31    1.35
 -11   3   8    0.03    1.76
  11   3  -8    3.87    1.87
 -10  -3   8    2.29    1.46
  10   3  -8    4.55    1.80
 -10   3   8    4.76    2.07
  -9  -3   8    2.04    1.40
  -9   3   8    0.18    1.46
   9   3  -8    0.69    1.48
  -8  -3   8    9.16    1.73
  -8   3   8    8.49    2.05
   8   3  -8    7.10    1.86
  -7  -3   8   11.93    1.72
  -7  -3   8   15.18    2.07
  -7  -3   8   11.69    1.89
   7   3  -8   10.65    1.91
  -7   3   8   15.59    2.45
  -6  -3   8    5.52    1.22
  -6  -3   8    5.49    1.29
  -6  -3   8    1.48    1.12
   6   3  -8    1.68    1.19
  -6   3   8    6.86    1.74
  -5  -3   8   10.18    1.60
  -5  -3   8   10.59    1.29
  -5  -3   8   12.87    1.35
  -5   3   8   11.73    1.76
   5   3  -8    9.38    1.51
   4  -3  -8    1.89    1.07
  -4  -3   8    1.84    0.72
  -4  -3   8    1.60    0.63
  -4  -3   8   -0.36    0.88
  -4   3   8    1.60    1.04
  -3  -3   8   75.05    2.43
  -3  -3   8   79.74    3.37
   3  -3  -8   79.23    3.37
  -3  -3   8   75.84    2.33
  -2  -3   8  118.98    4.45
   2  -3  -8  111.15    4.11
   2   3  -8  123.75    3.25
   1  -3  -8    0.56    0.71
  -1  -3   8    0.20    0.72
   1  -3  -8    1.08    0.64
   0  -3  -8   14.31    1.46
   0  -3   8   12.81    1.53
   0  -3  -8   14.18    1.25
   0   3  -8   14.05    0.70
  -1  -3  -8   57.18    2.78
   1  -3   8   58.75    2.82
  -1  -3  -8   59.06    2.38
  -1   3  -8   57.32    2.05
   2  -3   8   43.96    2.59
  -2  -3  -8   39.44    1.95
  -2  -3  -8   40.02    2.54
  -2   3  -8   39.89    1.91
   3  -3   8   98.56    4.17
  -3  -3  -8   91.76    4.10
  -3  -3  -8   93.46    3.49
   3   3   8   91.71    4.06
  -3   3  -8   89.83    3.51
  -4  -3  -8   24.05    2.44
   4  -3   8   24.77    2.39
  -4  -3  -8   18.50    1.69
   4   3   8   27.58    2.59
  -4   3  -8   25.43    2.08
  -5  -3  -8   15.49    1.74
   5  -3   8   12.69    1.91
  -5  -3  -8   15.09    1.05
  -5   3  -8   14.39    1.86
   5   3   8   13.88    2.07
   6  -3   8   16.89    2.16
  -6  -3  -8   19.63    2.11
  -6  -3  -8   15.50    1.29
   6   3   8   16.04    2.27
  -6   3  -8   19.45    2.31
  -7  -3  -8   14.14    2.13
  -7  -3  -8   16.46    1.54
  -7   3  -8   20.12    2.50
   7   3   8   16.64    2.43
  -8  -3  -8   15.42    1.74
  -8  -3  -8   14.80    2.38
   8   3   8   11.80    2.26
  -8   3  -8   14.88    2.45
  -9  -3  -8    3.48    1.38
  -9  -3  -8    6.81    2.19
   9   3   8    3.32    1.95
   9   3   8    5.78    1.88
  -9   3  -8    0.56    1.65
 -10  -3  -8    2.72    2.06
 -10  -3  -8    2.06    1.40
  10   3   8    2.04    1.69
 -10   3  -8    0.73    1.84
 -11  -3  -8    2.03    2.27
 -11  -3  -8    4.36    1.55
  11   3   8    9.76    2.24
 -12  -3  -8    7.15    1.58
  11   4  -8    0.08    1.79
 -10  -4   8    1.55    1.28
  10   4  -8    1.81    1.85
 -10   4   8   -0.09    1.85
  -9  -4   8    2.23    1.32
  -9   4   8    0.32    1.73
  -8  -4   8    8.46    1.98
  -8  -4   8    8.41    1.41
  -8   4   8    9.36    2.30
  -7  -4   8   -0.52    1.18
  -7  -4   8   -0.89    0.85
  -7   4   8   -1.34    1.41
  -6  -4   8    4.45    0.83
  -6  -4   8    6.19    1.65
  -6   4   8    3.69    1.59
  -5  -4   8    1.18    1.21
  -5   4   8    4.32    1.45
   4  -4  -8  116.54    4.79
  -4  -4   8  101.71    4.71
  -4   4   8  110.99    4.71
   3  -4  -8   24.60    2.17
  -3  -4   8   19.54    2.18
   2  -4  -8    5.51    1.11
  -2  -4   8    4.85    1.23
   2  -4  -8    6.00    1.10
  -1  -4   8   19.26    2.03
   1  -4  -8   19.57    1.65
   1  -4  -8   19.88    1.77
   0  -4  -8    6.83    1.06
   0  -4  -8    5.41    1.23
   0  -4   8    6.89    1.39
   0   4  -8    7.05    0.67
   1  -4   8   26.21    2.34
  -1  -4  -8   25.86    1.80
  -1  -4  -8   31.54    2.52
  -1   4  -8   27.44    1.45
   2  -4   8    4.35    1.31
  -2  -4  -8    5.86    1.38
  -2  -4  -8    5.54    0.99
  -2   4  -8    4.46    0.88
  -3  -4  -8   14.76    2.11
  -3  -4  -8   14.80    1.50
   3  -4   8   19.39    2.17
  -3   4  -8   15.33    1.55
  -4  -4  -8    2.76    1.00
   4  -4   8    2.70    1.34
  -4  -4  -8    4.33    1.51
  -4   4  -8    1.13    0.97
   4   4   8    3.63    1.36
  -5  -4  -8   20.47    2.04
  -5  -4  -8   17.97    2.51
   5  -4   8   18.13    2.15
  -5   4  -8   19.57    2.18
   5   4   8   17.49    2.42
  -6  -4  -8   68.01    3.62
   6   4   8   62.51    4.01
  -6   4  -8   68.25    3.81
  -7  -4  -8    7.90    1.78
  -7   4  -8    4.22    1.61
   7   4   8    9.60    2.10
  -8  -4  -8    6.14    1.99
   8   4   8    4.12    1.94
  -8   4  -8    8.35    2.09
  -9  -4  -8    1.12    1.98
   9   4   8   -0.19    1.74
  -9   4  -8    3.71    1.90
 -10  -4  -8    6.73    2.56
 -10   4  -8    8.31    2.34
  10   4   8    5.30    2.32
  11   4   8   -1.46    1.78
 -10   5   8    0.82    1.94
  -9   5   8    6.17    2.22
  -8  -5   8    0.74    1.74
  -8   5   8   -2.87    1.35
  -7  -5   8   48.63    4.15
  -7   5   8   54.13    4.38
  -6  -5   8    1.58    1.51
  -6   5   8    1.74    1.62
  -5  -5   8    4.30    1.71
  -5   5   8    5.63    1.74
  -4  -5   8    5.13    1.66
   4  -5  -8    4.93    1.49
  -4   5   8    2.10    1.32
   3  -5  -8   78.70    3.77
  -3  -5   8   81.84    4.28
  -2  -5   8   31.85    2.87
   2  -5  -8   29.96    2.14
   2  -5  -8   25.35    2.23
  -1  -5   8    8.88    1.71
   1  -5  -8    7.99    1.31
   1  -5  -8    9.66    1.54
   0  -5   8   -0.71    1.14
   0  -5  -8    0.53    1.04
   0  -5  -8   -0.06    0.80
  -1  -5  -8   77.07    3.26
  -1  -5  -8   66.03    3.73
   1  -5   8   72.57    3.94
  -2  -5  -8    5.67    1.18
   2  -5   8    7.49    1.63
  -2  -5  -8    5.76    1.65
  -3  -5  -8   43.82    2.48
  -3  -5  -8   35.44    3.34
   3  -5   8   42.50    2.95
  -3   5  -8   38.20    2.36
  -4  -5  -8    4.95    1.69
  -4  -5  -8    4.46    1.25
   4  -5   8    4.50    1.59
  -4   5  -8    5.04    1.36
   5  -5   8   12.05    1.99
  -5  -5  -8    7.39    1.53
  -5  -5  -8    8.22    2.20
   5   5   8    4.88    1.91
  -5   5  -8    6.67    1.59
  -6  -5  -8   18.41    2.26
  -6   5  -8   15.59    2.27
   6   5   8   15.14    2.67
  -7  -5  -8   16.41    2.49
  -7   5  -8   22.70    2.77
   7   5   8   23.86    3.20
  -8  -5  -8    0.65    1.79
  -8   5  -8    0.77    1.64
   8   5   8    2.41    1.86
  -9  -5  -8    0.26    2.19
   9   5   8    4.39    2.09
  -9   5  -8   -0.01    1.76
  10   5   8   -0.68    2.00
  -9  -6   8   15.47    2.94
  -9   6   8   12.63    2.79
   9   6  -8   18.90    3.16
  -8  -6   8    1.28    1.88
  -8   6   8   -1.63    1.69
  -7  -6   8   18.53    3.05
  -7   6   8   21.54    3.06
  -6  -6   8    1.07    1.73
  -6   6   8    4.11    1.92
  -5  -6   8    3.99    2.02
  -5   6   8    7.19    1.97
   4  -6  -8    2.83    1.49
  -4  -6   8    4.64    1.79
  -4   6   8    6.35    1.71
  -3  -6   8   45.04    3.85
   3  -6  -8   35.86    3.02
  -3   6   8   38.05    3.13
  -2  -6   8    2.41    1.60
   2  -6  -8    3.59    1.30
   2  -6  -8    3.31    1.33
   1  -6  -8    1.85    1.30
   1  -6  -8   -0.64    0.97
  -1  -6   8   -0.42    1.38
   0  -6   8   -0.36    1.33
   0  -6  -8   -0.60    1.11
   0  -6  -8   -1.49    0.81
  -1  -6  -8  117.89    4.52
   1  -6   8  104.98    5.24
  -1  -6  -8  109.41    5.27
  -2  -6  -8    3.74    1.20
  -2  -6  -8    3.63    1.60
   2  -6   8    2.67    1.53
   3  -6   8    5.01    1.77
  -3  -6  -8    1.24    1.51
  -3  -6  -8    3.20    1.22
  -4  -6  -8    8.67    2.31
   4  -6   8    9.16    1.95
  -4  -6  -8    9.88    1.68
  -5  -6  -8   10.25    2.46
  -5  -6  -8    9.47    1.85
   5   6   8   14.32    2.67
  -6  -6  -8    9.14    2.03
  -6  -6  -8    9.87    2.70
   6   6   8   10.65    2.66
   7   6   8    0.59    1.88
  -7   6  -8    1.93    1.82
  -8   6  -8    4.02    2.16
   8   6   8    0.01    1.95
   9   6   8    2.85    2.25
  10   6   8    2.88    2.30
  -9  -7   8    1.41    2.28
   9   7  -8    0.77    2.07
  -8  -7   8   -1.00    1.93
  -8   7   8   -4.14    1.74
  -7  -7   8    2.08    2.11
  -7   7   8    1.20    1.92
  -6  -7   8    1.26    1.80
  -6   7   8    1.74    1.96
  -5  -7   8    9.37    2.64
  -5   7   8    6.37    2.11
  -4  -7   8    1.82    1.91
  -4   7   8    0.76    1.47
  -3  -7   8    3.35    2.05
   3  -7  -8    1.20    1.54
  -3   7   8    2.69    1.52
  -2  -7   8   23.28    3.24
   2  -7  -8   20.92    2.45
  -1  -7   8    9.26    2.35
   1  -7  -8    8.99    1.76
   1  -7  -8    7.92    1.87
   0  -7   8   11.03    2.49
   0  -7  -8   10.61    1.79
   0  -7  -8   12.10    2.23
  -1  -7  -8    1.03    1.25
  -1  -7  -8    2.26    1.68
   1  -7   8    2.67    1.68
   2  -7   8   16.65    2.76
  -2  -7  -8   17.73    2.92
  -2  -7  -8   18.64    2.17
  -3  -7  -8   22.84    3.31
   3  -7   8   22.77    2.96
   4  -7   8    6.80    2.01
  -4  -7  -8   12.07    2.82
   4   7   8    7.89    2.50
  -5  -7  -8    0.58    1.86
   5   7   8    3.34    2.26
  -6  -7  -8    0.31    1.93
   6   7   8    3.18    2.43
   7   7   8    2.95    2.49
   8   7   8    0.55    2.19
   9   7   8    0.72    2.27
  -7  -8   8   -0.50    2.08
  -6  -8   8   -3.28    1.96
  -6   8   8    1.08    2.27
  -5  -8   8    1.69    2.09
  -5   8   8    2.25    2.13
  -4  -8   8   15.18    3.32
  -4   8   8   21.33    3.03
  -3  -8   8    4.19    2.65
  -3   8   8   10.72    2.36
  -2  -8   8    2.67    2.22
  -1  -8   8    4.91    2.25
   1  -8  -8    7.41    2.19
   0  -8   8    3.96    2.23
   0  -8  -8    6.94    2.17
  -1  -8  -8    7.98    2.47
   1  -8   8   20.92    3.30
   2  -8   8    1.91    2.03
  -2  -8  -8    0.68    1.97
  -3  -8  -8    7.82    2.72
   3  -8   8    5.25    2.29
  -4  -8  -8    1.28    2.28
   4   8   8    4.43    2.48
  -5  -8  -8   13.41    3.23
   5   8   8   11.17    3.19
   6   8   8    5.52    2.75
   7   8   8    0.74    2.44
  -6  -9   8    1.15    2.58
  -5  -9   8    0.25    2.55
  -4  -9   8   -2.61    2.15
  -3  -9   8    9.04    3.20
  -2  -9   8    2.96    2.84
  -1  -9   8   -3.45    2.07
   0  -9  -8    1.85    2.14
   0  -9   8    1.25    2.33
  -1  -9  -8    9.04    2.81
   1  -9   8    7.94    2.74
  -2  -9  -8    2.82    2.32
   2  -9   8   -2.65    1.86
   2   9   8   -1.15    2.09
  -3  -9  -8    6.18    2.78
   3   9   8    7.07    2.89
  -4  -9  -8   -1.59    2.30
   4   9   8    2.60    2.61
  -5  -9  -8    1.10    2.70
   5   9   8    1.53    2.54
  -2 -10   8   -0.97    2.60
  -1 -10   8    4.51    2.95
   0 -10   8   -2.51    2.40
   1 -10   8    2.19    2.67
  -1 -10  -8    6.02    2.85
   1  10   8    4.50    2.84
  -2 -10  -8   -0.01    2.43
   2  10   8    1.89    2.61
 -12   0   9    1.64    1.85
  12   0  -9    0.57    1.19
 -11   0   9   -0.41    1.68
 -11   0   9   -0.03    1.72
  11   0  -9    1.47    1.41
 -10   0   9    1.13    1.62
  10   0  -9    0.87    1.35
 -10   0   9    0.80    1.61
   9   0  -9    1.47    1.25
  -9   0   9    3.91    1.63
  -9   0   9    1.93    1.65
  -8   0   9   -0.79    1.20
   8   0  -9   -0.85    1.07
  -8   0   9    1.28    1.39
  -7   0   9    9.01    1.85
  -7   0   9    4.31    1.41
   7   0  -9    5.63    1.31
  -6   0   9    1.14    1.03
  -6   0   9    1.36    1.11
   6   0  -9    0.22    0.90
  -5   0   9   31.13    2.23
  -5   0   9   28.50    2.30
   5   0  -9   25.84    1.94
  -4   0   9   -0.63    0.74
  -4   0   9    0.46    0.74
   4   0  -9    0.92    0.74
   3   0  -9   59.17    2.35
  -3   0   9   60.58    2.46
   2   0  -9   -0.60    0.46
   2   0  -9    0.15    0.48
   1   0  -9  543.55   14.03
   0   0  -9   -0.34    0.35
  -1   0  -9  246.12    6.60
  -1   0  -9  239.54    5.99
  -2   0  -9   -0.58    0.37
   2   0   9   -1.27    0.80
  -2   0  -9   -0.63    0.42
  -3   0  -9  324.12    8.66
  -3   0  -9  325.99    9.12
   3   0   9  321.26   10.01
   3   0   9  330.19    8.85
   4   0   9   -0.94    0.93
  -4   0  -9   -0.12    0.56
   4   0   9    1.22    0.71
  -4   0  -9    0.09    0.67
   5   0   9    0.48    1.16
  -5   0  -9    0.81    0.76
   5   0   9    1.06    0.85
  -5   0  -9    0.32    0.93
   6   0   9    1.12    0.95
  -6   0  -9    0.75    0.85
   6   0   9    0.44    1.27
  -6   0  -9   -2.67    0.87
  -7   0  -9   80.49    3.58
   7   0   9   80.53    3.69
  -7   0  -9   81.43    4.17
   7   0   9   87.27    4.46
  -8   0  -9    0.03    1.13
   8   0   9   -2.54    1.10
  -8   0  -9   -0.61    1.21
   8   0   9    2.25    1.57
  -9   0  -9    1.10    1.62
   9   0   9    2.04    1.41
  -9   0  -9    1.22    1.41
  10   0   9    1.09    1.55
 -10   0  -9   -1.14    1.49
 -10   0  -9    0.40    1.67
 -11   0  -9    1.10    1.74
  11   0   9    0.92    1.50
 -11   0  -9    1.27    1.89
 -12   0  -9    0.15    1.74
  12   0   9   -1.01    1.39
 -12  -1   9    6.22    2.16
  12   1  -9    9.08    2.00
 -11  -1   9    8.78    2.30
 -11  -1   9    2.82    1.83
  11   1  -9    7.19    1.91
 -11   1   9   11.26    2.49
 -10  -1   9    3.23    1.71
  10  -1  -9    2.09    1.07
 -10  -1   9    0.98    1.69
  10   1  -9    3.70    1.67
 -10   1   9    1.19    1.65
  -9  -1   9    9.42    2.06
  -9  -1   9    7.97    1.90
   9  -1  -9    5.89    1.36
   9   1  -9    5.23    1.58
  -9   1   9    7.55    2.10
   8  -1  -9   14.54    1.68
  -8  -1   9   19.59    2.52
  -8  -1   9   14.40    2.08
  -8   1   9   11.73    2.13
   8   1  -9   14.98    1.99
  -7  -1   9   80.04    3.96
  -7  -1   9   71.63    3.64
   7  -1  -9   71.38    3.08
  -7   1   9   70.31    3.84
   7   1  -9   69.56    3.38
   6  -1  -9    0.57    0.89
  -6  -1   9    0.08    0.98
  -6  -1   9    1.84    1.23
   6   1  -9    2.20    1.06
  -6   1   9    1.05    1.09
  -5  -1   9   15.12    1.37
   5  -1  -9   16.80    1.41
  -5  -1   9   16.60    1.67
  -5  -1   9   12.19    1.65
  -5   1   9   17.31    1.69
   5   1  -9   17.74    1.71
  -5   1   9   13.35    1.75
  -4  -1   9    5.69    0.88
  -4  -1   9    5.39    1.04
  -4  -1   9    6.38    1.13
   4  -1  -9    6.25    0.92
   4   1  -9    6.48    1.05
  -4   1   9    4.89    1.10
   3  -1  -9  179.19    5.03
   3  -1  -9  173.08    5.50
  -3  -1   9  176.28    5.40
  -3  -1   9  178.79    5.36
   3   1  -9  179.75    5.25
  -2  -1   9  150.86    4.50
  -2  -1   9  149.23    4.31
   2  -1  -9  143.95    4.15
   2  -1  -9  152.93    4.60
   1  -1  -9   33.53    1.27
   1  -1  -9   33.37    1.49
  -1  -1   9   34.98    1.63
   1   1  -9   32.58    1.16
   0  -1   9    0.40    0.65
   0  -1  -9    0.62    0.43
   0   1  -9   -0.11    0.31
   0   1  -9    0.69    0.28
  -1  -1  -9   33.94    1.26
  -1  -1  -9   38.86    1.61
   1  -1   9   33.93    1.99
   1  -1   9   35.46    1.52
  -1   1  -9   34.12    1.37
   1   1   9   34.88    1.86
   2  -1   9  148.54    4.23
  -2  -1  -9  139.11    4.36
   2  -1   9  137.69    5.07
  -2  -1  -9  140.62    4.00
  -2  -1  -9  144.09    3.62
  -2   1  -9  144.04    4.28
   2   1   9  150.35    5.03
   3  -1   9  204.63    5.79
  -3  -1  -9  206.24    5.62
   3  -1   9  194.93    6.97
  -3  -1  -9  202.60    6.06
  -3  -1  -9  203.71    5.13
  -3   1  -9  202.11    6.03
   3   1   9  202.25    6.75
  -4  -1  -9    0.99    0.61
   4  -1   9    1.84    0.77
  -4  -1  -9    2.06    0.78
   4  -1   9    2.63    1.33
  -4   1  -9    2.83    0.84
   4   1   9    1.19    0.98
   4   1   9    2.67    0.91
  -4   1  -9    1.86    0.68
  -5  -1  -9    3.21    0.88
   5  -1   9    1.71    1.41
   5  -1   9    4.10    1.02
  -5  -1  -9    3.28    1.00
   5   1   9    1.64    1.17
  -5   1  -9    5.05    1.19
  -5   1  -9    2.91    0.89
   5   1   9    1.93    0.97
  -6  -1  -9   28.36    2.47
  -6  -1  -9   28.24    1.91
   6  -1   9   26.16    2.16
   6  -1   9   37.17    3.21
  -6   1  -9   32.38    2.69
  -6   1  -9   30.18    2.17
   6   1   9   27.84    2.36
   6   1   9   29.96    2.82
  -7  -1  -9   26.37    2.21
   7  -1   9   21.36    2.11
  -7  -1  -9   20.91    2.35
   7  -1   9   31.21    2.97
   7   1   9   25.56    2.78
  -7   1  -9   23.63    2.61
  -7   1  -9   25.24    2.19
   7   1   9   21.57    2.26
   8  -1   9   32.29    2.66
  -8  -1  -9   32.18    3.24
  -8  -1  -9   32.97    2.71
  -8   1  -9   34.95    2.81
   8   1   9   44.50    3.62
  -8   1  -9   32.89    3.25
   8   1   9   36.57    2.91
  -9  -1  -9    0.26    1.38
   9  -1   9    0.53    1.29
  -9  -1  -9    4.82    1.81
  -9   1  -9    3.96    1.62
  -9   1  -9    2.11    1.78
   9   1   9    2.47    1.61
 -10  -1  -9    0.85    1.68
 -10  -1  -9    0.52    1.51
  10  -1   9    0.00    1.36
 -10   1  -9    0.33    1.69
  10   1   9    1.12    1.54
 -10   1  -9    0.35    1.67
 -11  -1  -9    4.80    1.90
  11  -1   9    5.74    1.50
 -11  -1  -9   10.56    2.67
 -11   1  -9    3.70    2.14
 -11   1  -9    9.78    2.37
  11   1   9    9.70    2.01
 -12  -1  -9    5.96    2.06
 -12   1  -9    5.39    2.18
  12   1   9    9.16    2.08
 -12  -2   9   -0.02    1.59
  12   2  -9    1.48    1.69
 -11  -2   9    2.24    1.77
 -11   2   9    1.11    1.81
  11   2  -9    0.08    1.54
 -10  -2   9   -1.87    1.34
  10   2  -9    0.06    1.41
 -10   2   9    4.12    1.90
  -9  -2   9    0.46    1.57
  -9  -2   9    3.24    1.59
  -9   2   9   -1.60    1.34
   9   2  -9    0.58    1.40
  -8  -2   9    6.87    1.95
  -8  -2   9    5.44    1.60
  -8   2   9   11.43    2.19
   8   2  -9    9.36    1.83
  -7  -2   9    1.87    1.26
  -7  -2   9    1.36    1.22
   7   2  -9    0.86    1.12
  -7   2   9    1.72    1.41
  -6  -2   9    3.91    1.11
  -6  -2   9    3.71    1.28
  -6  -2   9    3.86    1.26
  -6   2   9    4.39    1.40
   6   2  -9    3.34    1.31
  -5  -2   9    9.04    1.35
  -5  -2   9   10.20    1.38
  -5  -2   9    9.14    1.39
  -5   2   9    8.08    1.53
   5   2  -9   11.08    1.53
   4  -2  -9   43.70    2.50
  -4  -2   9   40.63    2.27
  -4  -2   9   41.46    2.08
  -4  -2   9   43.67    2.19
  -4   2   9   43.65    2.48
   4   2  -9   47.65    2.29
   3  -2  -9    2.18    0.82
  -3  -2   9    0.98    0.53
  -3  -2   9    0.57    0.69
  -3  -2   9    1.08    0.75
  -2  -2   9   10.15    1.15
  -2  -2   9    9.02    0.53
   2  -2  -9   10.40    1.12
  -2  -2   9    9.87    0.99
  -1  -2   9    2.00    0.75
  -1  -2   9    1.22    0.60
   1  -2  -9    0.04    0.52
   1   2  -9    0.12    0.31
   0  -2  -9   -0.09    0.46
   0  -2   9    0.39    0.51
   0  -2   9    0.67    0.69
   0   2   9    0.66    0.66
   0   2  -9    0.65    0.22
   1  -2   9   25.61    1.28
  -1  -2  -9   28.03    1.51
   1  -2   9   31.02    2.00
   1   2   9   23.98    1.74
  -1   2  -9   28.29    1.18
   2  -2   9    7.91    1.40
  -2  -2  -9    5.26    0.46
  -2  -2  -9    6.78    0.87
   2  -2   9    5.78    0.74
  -2   2  -9    4.98    0.74
   2   2   9    5.92    1.18
  -3  -2  -9   27.67    1.67
  -3  -2  -9   29.24    1.24
   3  -2   9   23.08    2.31
   3  -2   9   30.04    1.47
   3   2   9   28.37    2.06
  -3   2  -9   31.13    1.70
  -4  -2  -9   31.77    2.05
  -4  -2  -9   32.12    1.53
   4  -2   9   31.42    2.80
   4  -2   9   35.62    1.79
   4   2   9   31.81    1.99
  -4   2  -9   35.48    2.21
   4   2   9   33.78    2.37
   5  -2   9    3.60    1.52
   5  -2   9    3.12    1.01
  -5  -2  -9    4.05    1.16
  -5  -2  -9    4.31    0.85
   5   2   9    2.91    1.19
   5   2   9    2.17    1.14
  -5   2  -9    3.92    1.15
   6  -2   9   91.47    4.55
   6  -2   9   84.71    3.40
  -6  -2  -9   88.54    3.34
  -6  -2  -9   88.09    4.10
  -6   2  -9   84.01    4.03
   6   2   9   88.43    3.85
   6   2   9   86.26    4.33
   7  -2   9    2.03    1.10
  -7  -2  -9    0.31    1.24
  -7  -2  -9    0.26    0.92
   7   2   9    0.21    1.29
  -7   2  -9    1.05    1.35
   7   2   9    0.28    1.17
   8  -2   9   29.68    2.08
  -8  -2  -9   26.20    2.36
  -8  -2  -9   30.01    3.17
   8   2   9   33.12    2.94
   8   2   9   36.11    3.35
  -8   2  -9   28.74    3.06
  -9  -2  -9   -1.10    1.12
  -9  -2  -9   -0.05    1.63
   9  -2   9   -1.03    0.96
   9   2   9   -0.30    1.46
  -9   2  -9   -2.42    1.30
   9   2   9   -0.38    1.65
 -10  -2  -9   -1.29    1.71
 -10  -2  -9    1.37    1.52
  10   2   9   -1.81    1.52
 -10   2  -9    3.95    1.93
 -11  -2  -9    2.38    1.64
 -11  -2  -9    0.77    1.96
  11   2   9    0.39    1.66
 -11   2  -9   -0.63    1.84
 -12  -2  -9   -0.16    1.59
  12   2   9   -1.35    1.59
 -12  -3   9    0.78    1.62
  12   3  -9    1.50    1.79
 -11  -3   9    3.72    1.69
 -11   3   9    7.27    2.36
  11   3  -9    5.30    2.00
 -10  -3   9    1.26    1.51
 -10   3   9   -0.53    1.67
  10   3  -9    1.91    1.63
  -9  -3   9    0.95    1.49
  -9   3   9    1.88    1.60
   9   3  -9    0.54    1.61
  -8  -3   9    2.53    1.42
  -8   3   9    4.99    1.86
   8   3  -9    2.29    1.46
  -7  -3   9   95.28    4.43
  -7  -3   9   94.24    4.03
  -7   3   9  100.86    4.97
   7   3  -9   97.02    4.41
  -6  -3   9   18.15    2.07
  -6  -3   9   14.65    1.66
  -6   3   9   18.87    2.40
   6   3  -9   16.03    1.98
  -5  -3   9    3.94    1.03
  -5  -3   9    3.84    1.18
  -5  -3   9    5.44    1.05
  -5   3   9    5.28    1.43
   5   3  -9    4.87    1.23
  -4  -3   9    0.36    0.55
   4  -3  -9    0.51    0.88
  -4  -3   9    0.80    0.71
  -4  -3   9    0.06    0.89
  -4   3   9    0.47    0.95
   3  -3  -9  136.17    4.80
  -3  -3   9  131.05    3.67
  -3  -3   9  134.82    3.91
  -3  -3   9  135.71    4.94
  -2  -3   9   51.49    1.53
   2  -3  -9   53.08    2.50
  -2  -3   9   50.55    2.61
   2   3  -9   48.27    1.71
  -1  -3   9   11.86    1.46
   1  -3  -9   11.11    1.17
   1  -3  -9   10.96    1.23
   0  -3  -9    3.03    0.96
   0  -3   9    3.49    1.00
   0  -3  -9    4.29    0.80
   0   3  -9    5.04    0.37
  -1  -3  -9   59.36    2.39
  -1  -3  -9   53.29    2.81
   1  -3   9   55.64    2.84
  -1   3  -9   55.47    1.96
  -2  -3  -9   65.41    2.66
  -2  -3  -9   62.38    3.18
   2  -3   9   68.66    3.31
   2   3   9   64.93    3.16
  -2   3  -9   64.06    2.49
  -3  -3  -9  156.09    6.07
  -3  -3  -9  164.64    5.35
   3  -3   9  165.24    6.11
  -3   3  -9  174.71    5.33
   3   3   9  152.52    6.01
  -4  -3  -9   -0.13    0.74
   4  -3   9   -1.02    1.09
  -4   3  -9   -0.79    0.74
   4   3   9    0.89    1.14
   5  -3   9    0.77    1.33
  -5  -3  -9    1.79    0.98
  -5  -3  -9    1.91    0.61
  -5   3  -9    2.82    1.12
   5   3   9    1.03    1.16
  -6  -3  -9   23.10    2.31
   6  -3   9   23.84    2.55
  -6  -3  -9   21.30    1.44
   6   3   9   24.04    2.65
  -6   3  -9   20.79    2.31
  -7  -3  -9   41.12    3.27
  -7  -3  -9   34.14    2.04
  -7   3  -9   37.11    3.26
   7   3   9   38.66    3.53
  -8  -3  -9   10.90    2.13
  -8  -3  -9    9.53    1.45
  -8   3  -9   10.90    2.19
   8   3   9   10.71    2.23
  -9  -3  -9    5.46    2.03
  -9  -3  -9    0.07    1.22
  -9   3  -9    5.49    2.01
   9   3   9    1.25    1.63
   9   3   9    4.33    1.89
 -10  -3  -9   -0.57    1.82
 -10  -3  -9   -0.99    1.25
  10   3   9    2.16    1.80
 -10   3  -9    0.07    1.77
 -11  -3  -9    7.49    1.70
 -11  -3  -9    1.52    2.23
  11   3   9    2.89    2.02
  11   4  -9   -1.87    1.70
 -10  -4   9    1.77    1.29
 -10   4   9   -1.59    1.66
  10   4  -9   -0.07    1.78
  -9  -4   9    3.06    1.36
  -9   4   9    4.08    1.99
  -8  -4   9    3.01    1.21
  -8  -4   9    2.34    1.64
  -8   4   9    3.43    1.76
  -7  -4   9    2.13    1.44
  -7  -4   9    1.02    0.96
  -7   4   9    1.76    1.51
  -6  -4   9   -0.11    1.21
  -6  -4   9    0.70    0.76
  -6   4   9    0.14    1.30
  -5  -4   9   16.62    2.15
  -5   4   9   14.17    2.05
   4  -4  -9   16.69    2.04
  -4  -4   9   14.00    1.97
  -4   4   9   16.97    2.01
  -3  -4   9   24.31    2.35
   3  -4  -9   21.78    2.10
   2  -4  -9    7.95    1.26
   2  -4  -9    7.24    1.14
  -2  -4   9    6.20    1.36
   1  -4  -9  171.05    5.66
   1  -4  -9  161.29    5.49
  -1  -4   9  168.74    6.14
   0  -4   9    7.53    1.49
   0  -4  -9    9.14    1.39
   0  -4  -9    5.73    1.07
   1  -4   9   65.38    3.40
  -1  -4  -9   65.41    2.88
  -1  -4  -9   66.22    3.31
  -1   4  -9   66.50    2.34
  -2  -4  -9   12.32    1.86
  -2  -4  -9    9.36    1.25
   2  -4   9    9.93    1.75
  -2   4  -9   12.36    1.21
   3  -4   9  118.64    5.21
  -3  -4  -9  138.88    5.63
  -3  -4  -9  130.14    4.65
  -3   4  -9  132.73    4.57
   3   4   9  133.84    5.57
  -4  -4  -9    0.00    0.81
  -4  -4  -9    0.17    1.13
   4  -4   9   -0.27    1.11
  -4   4  -9   -0.92    0.82
   4   4   9   -0.69    1.03
   5  -4   9    1.07    1.27
  -5  -4  -9    2.37    1.12
  -5   4  -9    1.40    1.18
   5   4   9    1.33    1.39
  -6  -4  -9    2.64    1.38
  -6   4  -9    2.51    1.40
   6   4   9    3.93    1.69
  -7  -4  -9   35.13    3.24
  -7   4  -9   39.36    3.36
   7   4   9   35.45    3.62
  -8  -4  -9    5.55    1.96
   8   4   9    4.27    2.06
  -8   4  -9    4.66    1.81
  -9  -4  -9    2.76    1.97
  -9   4  -9    2.88    1.77
   9   4   9    2.82    1.89
 -10  -4  -9    1.58    2.28
  10   4   9    0.43    1.88
 -10   4  -9    1.57    1.95
 -10   5   9    1.80    1.89
  -9   5   9    3.19    2.02
  -8  -5   9   14.05    2.58
  -8   5   9    8.39    2.27
  -7  -5   9    5.51    1.95
  -7   5   9    6.95    2.11
  -6  -5   9    1.68    1.58
  -6   5   9    0.72    1.45
  -5  -5   9   16.56    2.47
  -5   5   9   18.74    2.44
  -4  -5   9    2.11    1.48
   4  -5  -9    1.27    1.26
  -4   5   9    2.97    1.33
  -3  -5   9   32.89    3.11
   3  -5  -9   34.47    2.78
  -2  -5   9   83.16    4.28
   2  -5  -9   87.57    3.59
   2  -5  -9   78.94    3.63
   1  -5  -9   26.33    2.14
   1  -5  -9   28.42    2.36
  -1  -5   9   28.53    2.84
   0  -5  -9    1.05    1.14
   0  -5  -9    1.26    0.87
   0  -5   9    3.65    1.42
  -1  -5  -9    2.35    0.93
  -1  -5  -9    1.74    1.23
   1  -5   9    4.14    1.48
  -2  -5  -9   31.18    2.94
   2  -5   9   31.18    2.96
  -2  -5  -9   28.17    2.22
  -3  -5  -9   35.75    2.37
   3  -5   9   42.41    3.38
  -3  -5  -9   35.73    3.31
  -3   5  -9   37.47    2.26
   4  -5   9   -1.10    1.18
  -4  -5  -9   -0.37    0.97
  -4  -5  -9    0.16    1.38
  -4   5  -9    1.27    1.02
   4   5   9   -0.58    1.21
  -5  -5  -9    7.13    2.04
  -5  -5  -9    7.11    1.56
   5  -5   9    7.87    1.84
  -5   5  -9    6.64    1.61
   5   5   9    5.74    1.90
  -6  -5  -9   17.49    2.26
  -6   5  -9   13.38    2.12
   6   5   9   14.10    2.58
  -7  -5  -9    4.85    1.78
   7   5   9    5.12    2.04
  -7   5  -9    2.18    1.68
  -8  -5  -9   13.81    2.60
  -8   5  -9   15.63    2.55
   8   5   9   14.47    2.81
  -9  -5  -9   -1.46    1.93
   9   5   9   -0.38    1.75
  -9   5  -9    0.47    1.86
  10   5   9    1.13    1.99
  -9  -6   9    0.52    1.95
   9   6  -9    2.13    2.15
  -9   6   9    0.25    1.80
  -8  -6   9    3.06    2.11
  -8   6   9    1.32    1.93
  -7  -6   9    1.24    1.80
  -7   6   9    1.06    1.70
  -6  -6   9    1.63    1.77
  -6   6   9    1.39    1.72
  -5  -6   9   17.97    2.87
  -5   6   9   15.93    2.43
  -4  -6   9   14.29    2.50
   4  -6  -9   17.41    2.34
  -4   6   9   16.83    2.34
   3  -6  -9   10.04    1.86
  -3  -6   9    8.33    2.08
  -2  -6   9    0.95    1.43
   2  -6  -9    1.18    1.10
   2  -6  -9    1.83    1.19
   1  -6  -9    7.73    1.65
  -1  -6   9    8.46    2.02
   1  -6  -9   10.18    1.60
   0  -6  -9   -0.16    0.92
   0  -6  -9   -1.08    1.08
   0  -6   9    1.22    1.39
  -1  -6  -9   45.08    3.65
   1  -6   9   41.66    3.66
  -1  -6  -9   42.14    2.62
  -2  -6  -9    1.76    1.13
  -2  -6  -9    6.36    1.87
   2  -6   9    6.74    1.98
  -3  -6  -9   42.64    2.71
   3  -6   9   36.95    3.51
  -3  -6  -9   44.59    3.95
  -4  -6  -9    2.38    1.74
   4  -6   9    6.32    1.92
  -4  -6  -9    3.99    1.42
   4   6   9    5.21    1.94
  -5  -6  -9    6.09    2.28
  -5  -6  -9    7.58    1.69
   5   6   9    2.01    1.98
  -6  -6  -9    8.65    2.03
   6   6   9   12.83    2.76
   7   6   9    2.85    2.15
   8   6   9   10.13    2.77
   9   6   9    2.86    2.21
  10   6   9    0.08    2.10
  -9  -7   9    1.95    2.32
   9   7  -9    0.34    2.29
  -8  -7   9   -3.57    1.78
  -7  -7   9   33.09    4.07
  -6  -7   9   11.29    2.85
  -6   7   9   15.34    2.88
  -5  -7   9    0.15    1.90
  -5   7   9    0.55    1.65
  -4  -7   9    0.76    2.04
  -4   7   9    1.53    1.61
   3  -7  -9   20.42    2.56
  -3  -7   9   18.00    3.02
  -3   7   9   19.85    2.56
  -2  -7   9    3.95    1.97
   2  -7  -9    6.19    1.66
  -1  -7   9    2.03    1.81
   1  -7  -9    3.46    1.58
   1  -7  -9    3.25    1.40
   0  -7   9    1.88    1.91
   0  -7  -9    0.53    1.44
   0  -7  -9   -1.15    1.10
   1  -7   9   16.78    2.73
  -1  -7  -9   21.02    2.30
  -1  -7  -9   15.68    2.61
  -2  -7  -9   18.67    2.17
   2  -7   9   17.42    2.79
  -2  -7  -9   15.91    2.81
   3  -7   9   35.75    3.67
  -3  -7  -9   36.54    3.01
  -3  -7  -9   47.27    4.44
   4  -7   9   -0.58    1.60
  -4  -7  -9   -1.28    1.85
   4   7   9   -1.14    1.79
  -5  -7  -9    5.11    2.41
   5   7   9    1.06    2.19
   6   7   9    5.44    2.55
   7   7   9   10.01    3.00
   8   7   9   -0.40    2.29
  -7  -8   9    3.66    2.54
  -6  -8   9   -1.64    2.04
  -6   8   9   -0.92    1.94
  -5  -8   9    3.25    2.46
  -5   8   9    3.02    2.19
  -4  -8   9   11.37    3.11
  -4   8   9   10.88    2.43
  -3  -8   9   -1.61    1.95
  -3   8   9    1.33    1.67
   2  -8  -9    3.91    1.84
  -2  -8   9    2.04    2.18
  -2   8   9    2.67    1.72
   1  -8  -9    7.14    2.10
  -1  -8   9    6.06    2.66
   0  -8  -9   -0.27    1.66
   0  -8   9    3.10    2.20
  -1  -8  -9   -1.53    1.71
   1  -8   9   -0.32    1.95
   2  -8   9    7.08    2.40
  -2  -8  -9    9.12    2.60
  -3  -8  -9   17.55    3.32
   3  -8   9   15.40    3.02
   3   8   9   16.82    3.29
  -4  -8  -9    0.66    2.34
   4   8   9   -4.05    1.92
  -5  -8  -9    4.86    2.62
   5   8   9    7.73    2.72
   6   8   9    1.55    2.53
   7   8   9    3.26    2.42
  -5  -9   9    8.48    3.18
  -4  -9   9   -3.40    2.14
  -3  -9   9    4.12    2.74
  -2  -9   9   34.82    4.90
  -1  -9   9   10.98    3.31
   0  -9   9    3.39    2.47
   0  -9  -9    2.89    2.21
   0   9   9    2.22    2.12
   1  -9   9   -0.02    2.28
  -1  -9  -9    0.35    2.07
   1   9   9   -0.55    1.89
  -2  -9  -9    7.42    2.84
   2  -9   9   10.14    3.08
   2   9   9    7.50    2.78
  -3  -9  -9    2.03    2.56
   3   9   9    2.31    2.59
  -4  -9  -9   -1.00    2.32
   4   9   9    1.99    2.48
   5   9   9    7.29    3.07
  -2 -10   9    0.85    2.85
  -1 -10   9    5.56    3.25
   0 -10   9   -1.70    2.64
  -1 -10  -9    9.70    3.22
   1 -10   9   14.27    3.57
   1  10   9    7.45    2.99
  12   0 -10    1.30    1.18
 -12   0  10    1.31    1.89
 -11   0  10    1.28    1.78
 -11   0  10   -1.73    1.48
  11   0 -10    1.25    1.35
 -10   0  10    8.47    2.12
  10   0 -10    8.20    1.69
 -10   0  10    9.58    2.12
  -9   0  10    0.26    1.31
   9   0 -10    1.96    1.28
  -9   0  10    0.94    1.46
  -8   0  10    1.49    1.44
   8   0 -10    0.78    1.13
  -8   0  10    3.08    1.47
   7   0 -10   -1.74    0.90
  -7   0  10    1.12    1.12
  -7   0  10   -0.98    1.05
  -6   0  10    5.04    1.27
  -6   0  10    5.62    1.36
   6   0 -10    3.77    1.13
   5   0 -10   -0.52    0.81
  -5   0  10   -0.43    0.87
  -5   0  10   -0.28    0.84
  -4   0  10    1.33    0.85
   4   0 -10    1.06    0.80
  -4   0  10    1.62    0.89
  -3   0  10    0.42    0.62
   3   0 -10   -0.05    0.61
   3   0 -10    0.62    0.61
   2   0 -10   87.73    2.85
   2   0 -10   88.76    2.91
   1   0 -10   -0.04    0.38
   0   0 -10  206.01    5.62
  -1   0 -10   -0.08    0.37
   1   0  10    0.42    0.76
  -1   0 -10   -0.18    0.30
  -2   0 -10    0.70    0.51
   2   0  10    0.87    0.84
   2   0  10    1.43    0.57
  -2   0 -10    0.65    0.46
  -3   0 -10   -0.83    0.47
   3   0  10   -0.62    0.54
  -3   0 -10   -0.10    0.46
   3   0  10   -0.74    0.93
  -4   0 -10  170.61    5.11
   4   0  10  170.97    6.38
   4   0  10  168.09    5.31
  -4   0 -10  174.12    5.58
   5   0  10    1.85    1.33
  -5   0 -10   -0.99    0.63
   5   0  10   -0.42    0.83
  -5   0 -10    1.65    0.94
   6   0  10   10.60    1.56
  -6   0 -10    8.25    1.60
   6   0  10   12.32    2.10
  -6   0 -10   10.00    1.36
   7   0  10    0.77    1.48
  -7   0 -10   -0.67    1.03
   7   0  10   -1.05    1.00
  -7   0 -10    0.53    1.03
   8   0  10   90.61    4.77
  -8   0 -10   79.24    4.56
   8   0  10   77.27    3.88
  -8   0 -10   87.37    3.94
   9   0  10    1.03    1.35
  -9   0 -10    0.23    1.49
  -9   0 -10   -0.26    1.35
 -10   0 -10    2.81    1.90
 -10   0 -10    4.22    1.78
  10   0  10    7.37    1.91
  11   0  10    0.35    1.47
 -11   0 -10    0.16    1.82
 -11   0 -10   -2.23    1.54
  12   0  10    6.74    1.76
 -12   0 -10    1.25    1.84
 -12  -1  10   11.10    2.36
  12   1 -10   13.50    2.19
 -11  -1  10    4.59    2.05
 -11  -1  10    0.68    1.70
  11   1 -10    0.56    1.52
 -11   1  10    2.11    1.93
 -10  -1  10   -0.85    1.58
 -10  -1  10    1.74    1.63
  10  -1 -10    1.33    0.99
  10   1 -10   -0.14    1.43
 -10   1  10    2.36    1.70
  -9  -1  10    1.62    1.51
   9  -1 -10    3.62    1.18
  -9  -1  10    1.78    1.50
   9   1 -10    4.92    1.59
  -9   1  10    2.90    1.75
  -8  -1  10   10.61    2.03
  -8  -1  10    9.67    1.82
   8  -1 -10   11.01    1.53
   8   1 -10   10.03    1.78
  -8   1  10   12.45    2.18
  -7  -1  10   61.24    3.52
  -7  -1  10   58.57    3.22
   7  -1 -10   55.11    2.66
  -7   1  10   52.68    3.47
   7   1 -10   56.32    3.03
  -6  -1  10    4.35    1.33
  -6  -1  10    5.35    1.37
   6  -1 -10    5.68    1.15
   6   1 -10    5.95    1.27
  -6   1  10    1.81    1.19
   5  -1 -10    0.52    0.81
  -5  -1  10    1.83    0.73
  -5  -1  10    1.44    0.96
  -5  -1  10    0.16    0.98
   5   1 -10    0.61    0.89
  -5   1  10    1.91    1.11
  -5   1  10    2.62    1.01
  -4  -1  10   27.82    1.54
   4  -1 -10   26.54    1.54
  -4  -1  10   29.19    1.96
  -4  -1  10   25.83    1.96
  -4   1  10   27.48    1.91
   4   1 -10   27.54    1.77
  -3  -1  10    8.38    1.13
   3  -1 -10    5.77    0.99
  -3  -1  10    8.63    1.03
   3  -1 -10    7.95    0.89
  -3  -1  10    6.54    0.88
   3   1 -10    6.30    0.94
   2  -1 -10   65.46    2.52
   2  -1 -10   66.91    2.22
  -2  -1  10   68.12    2.24
  -2  -1  10   63.09    2.55
  -2  -1  10   67.66    2.51
   2   1 -10   62.71    2.16
   1  -1 -10   11.78    1.00
  -1  -1  10   13.85    1.25
  -1  -1  10   13.79    1.12
   1  -1 -10   14.40    0.88
   1   1 -10   12.54    0.74
   0  -1  10    1.63    0.57
   0  -1 -10    1.81    0.54
   0  -1  10    3.22    0.86
   0   1 -10    2.02    0.40
   0   1 -10    1.78    0.36
   1  -1  10    1.22    0.83
   1  -1  10    2.05    0.58
  -1  -1 -10    2.17    0.44
  -1  -1 -10    3.36    0.65
   1   1  10    3.20    0.88
  -1   1 -10    2.90    0.50
   2  -1  10   91.92    3.80
   2  -1  10   89.85    2.96
  -2  -1 -10   89.63    2.73
  -2  -1 -10   86.06    2.39
  -2  -1 -10   90.78    3.08
  -2   1 -10   90.10    2.95
   2   1  10   90.01    3.61
  -3  -1 -10   80.50    3.02
  -3  -1 -10   80.58    2.32
   3  -1  10   79.39    2.86
   3  -1  10   75.58    3.71
  -3  -1 -10   79.31    2.63
   3   1  10   80.41    3.58
   3   1  10   83.64    2.98
  -3   1 -10   79.26    2.94
  -4  -1 -10    2.02    0.67
   4  -1  10    2.80    1.43
  -4  -1 -10    2.77    0.88
  -4  -1 -10    4.73    0.64
   4  -1  10    3.56    0.89
   4   1  10    4.64    1.32
  -4   1 -10    1.79    0.81
  -4   1 -10    1.98    0.68
   4   1  10    2.82    0.92
  -5  -1 -10   56.04    2.97
  -5  -1 -10   64.50    2.59
   5  -1  10   55.61    3.64
   5  -1  10   60.71    2.69
   5   1  10   62.88    3.50
   5   1  10   58.36    2.87
  -5   1 -10   62.92    3.12
  -5   1 -10   57.63    2.56
   6  -1  10    2.72    1.64
  -6  -1 -10    2.60    0.95
   6  -1  10    1.75    1.05
  -6  -1 -10    1.06    1.06
   6   1  10    1.11    1.07
   6   1  10    0.54    1.26
  -6   1 -10    2.52    1.22
  -6   1 -10    1.77    0.97
  -7  -1 -10   16.42    1.81
   7  -1  10   22.45    2.74
  -7  -1 -10   18.54    2.28
   7  -1  10   17.57    1.95
  -7   1 -10   15.01    2.19
  -7   1 -10   18.89    1.94
   7   1  10   17.46    2.46
   7   1  10   20.10    2.16
   8  -1  10   15.38    2.01
  -8  -1 -10   23.08    2.80
  -8  -1 -10   19.68    2.18
   8   1  10   20.82    2.40
  -8   1 -10   17.19    2.44
  -8   1 -10   16.10    2.02
   8   1  10   21.90    2.76
   9  -1  10   27.80    2.51
  -9  -1 -10   24.51    3.04
  -9  -1 -10   26.45    2.62
   9   1  10   30.33    3.21
   9   1  10   23.45    2.67
  -9   1 -10   23.90    3.09
  -9   1 -10   30.33    2.87
 -10  -1 -10   -2.16    1.56
 -10  -1 -10   -1.15    1.37
  10  -1  10    2.06    1.48
 -10   1 -10    1.60    1.79
 -10   1 -10    0.75    1.73
  10   1  10   -0.15    1.48
 -11  -1 -10    0.67    1.94
  11  -1  10    4.21    1.47
 -11  -1 -10    1.05    1.63
  11   1  10    0.55    1.59
 -11   1 -10    2.30    1.95
 -11   1 -10    2.58    1.92
 -12  -1 -10    1.00    1.79
 -12   1 -10    2.62    1.96
  12   1  10    1.59    1.72
 -12  -2  10    0.44    1.63
  12   2 -10    0.07    1.63
 -11  -2  10    9.48    2.16
 -11   2  10    7.64    2.34
  11   2 -10    4.91    1.96
 -10  -2  10   -0.43    1.43
  10   2 -10   -1.39    1.28
 -10   2  10   -0.34    1.63
  -9  -2  10    0.53    1.56
  -9  -2  10    0.97    1.52
  -9   2  10    0.34    1.57
   9   2 -10    1.42    1.39
  -8  -2  10    0.46    1.29
  -8  -2  10   -0.53    1.45
  -8   2  10   -2.03    1.18
   8   2 -10   -0.10    1.25
  -7  -2  10   30.62    2.82
  -7  -2  10   29.94    2.61
   7   2 -10   31.27    2.63
  -7   2  10   35.43    3.18
  -6  -2  10    3.42    1.23
  -6  -2  10    2.97    1.07
  -6  -2  10    1.09    1.06
   6   2 -10    1.20    1.16
  -6   2  10    2.08    1.32
  -5  -2  10  205.93    6.60
  -5  -2  10  192.05    6.48
  -5  -2  10  196.49    6.42
  -5   2  10  212.07    7.13
   5   2 -10  207.59    6.53
   4  -2 -10    6.50    1.27
  -4  -2  10    4.00    0.97
  -4  -2  10    5.99    1.07
  -4  -2  10    3.77    0.94
   4   2 -10    2.48    0.92
  -4   2  10    3.11    1.01
  -3  -2  10   -0.61    0.61
   3  -2 -10   -0.10    0.65
  -3  -2  10   -0.09    0.67
  -3  -2  10    0.59    0.53
  -2  -2  10    1.72    0.72
  -2  -2  10    2.29    0.81
   2  -2 -10    0.94    0.63
   1  -2 -10  428.59   11.67
  -1  -2  10  419.85   11.27
  -1  -2  10  434.55   12.27
   1   2 -10  440.51   10.43
   0  -2  10    6.23    0.81
   0  -2 -10    7.78    0.90
   0  -2  10    7.79    1.22
   0   2 -10    8.18    0.47
   0   2  10    7.50    1.04
   1  -2  10    0.48    0.56
   1  -2  10    0.96    0.90
  -1  -2 -10   -0.91    0.42
  -1   2 -10    0.02    0.35
   1   2  10    1.23    0.74
   2  -2  10   -0.98    0.51
   2  -2  10    0.88    0.98
  -2  -2 -10   -0.21    0.47
  -2  -2 -10    0.05    0.31
   2   2  10   -1.11    0.60
  -2   2 -10    0.64    0.49
   3  -2  10  340.59    9.06
  -3  -2 -10  339.22    8.78
   3  -2  10  335.46   10.68
  -3  -2 -10  338.08    9.60
  -3   2 -10  343.45    9.53
   3   2  10  332.97   10.48
   4  -2  10   -0.07    0.75
   4  -2  10   -2.84    1.02
  -4  -2 -10   -0.07    0.48
  -4  -2 -10   -0.13    0.73
   4   2  10    1.09    1.00
  -4   2 -10    0.90    0.75
   4   2  10    0.87    0.92
  -5  -2 -10   16.65    1.82
   5  -2  10   16.87    2.40
   5  -2  10   18.04    1.58
  -5  -2 -10   17.64    1.37
   5   2  10   20.42    1.93
   5   2  10   14.02    2.05
  -5   2 -10   18.52    1.92
   6  -2  10    0.16    1.41
  -6  -2 -10    1.15    0.84
   6  -2  10    2.33    1.06
  -6  -2 -10    0.23    1.09
   6   2  10    0.31    1.19
   6   2  10   -0.14    1.06
  -6   2 -10   -0.20    1.12
   7  -2  10   46.77    3.24
  -7  -2 -10   43.72    3.09
   7  -2  10   36.15    2.33
  -7  -2 -10   44.06    2.52
  -7   2 -10   41.52    3.34
   7   2  10   46.22    2.88
   7   2  10   46.84    3.77
   8  -2  10    1.53    1.19
  -8  -2 -10    1.41    1.40
  -8  -2 -10    2.16    1.32
   8   2  10    1.47    1.45
  -8   2 -10    3.61    1.57
   8   2  10    2.55    1.65
  -9  -2 -10   10.54    1.85
  -9  -2 -10   15.06    2.63
   9  -2  10   15.52    1.54
  -9   2 -10   10.63    2.23
   9   2  10   12.39    2.17
   9   2  10   10.65    2.25
 -10  -2 -10   -4.33    1.36
 -10  -2 -10   -1.46    1.34
 -10   2 -10    0.70    1.56
  10   2  10   -0.56    1.55
 -11  -2 -10    1.82    1.57
 -11  -2 -10    1.80    2.09
  11   2  10   -1.01    1.56
 -11   2 -10    0.95    1.90
 -12  -2 -10    0.40    1.61
  12   2  10    0.15    1.69
 -12  -3  10   12.30    2.13
  12   3 -10   11.48    2.43
 -11  -3  10    0.43    1.52
 -11   3  10    3.34    1.92
  11   3 -10    2.30    1.78
 -10  -3  10    6.73    1.80
 -10   3  10    3.39    1.96
  10   3 -10    7.21    2.00
  -9  -3  10    6.51    1.74
  -9   3  10    3.19    1.76
   9   3 -10    5.75    1.94
  -8  -3  10   19.09    2.17
   8   3 -10   20.17    2.49
  -8   3  10   20.68    2.84
  -7  -3  10   17.63    2.00
  -7  -3  10   13.93    2.00
  -7   3  10   14.74    2.31
   7   3 -10   16.46    2.18
  -6  -3  10   -0.19    0.99
  -6  -3  10    0.53    1.13
  -6   3  10    1.18    1.25
   6   3 -10    2.30    1.32
  -5  -3  10   -0.56    0.90
  -5  -3  10    0.75    0.91
   5   3 -10    0.57    1.02
  -5   3  10    2.20    1.12
  -4  -3  10   21.40    2.04
  -4  -3  10   24.62    1.70
   4  -3 -10   24.75    2.24
  -4   3  10   26.18    2.31
   3  -3 -10    2.72    0.93
  -3  -3  10    3.13    0.75
  -3  -3  10    3.67    1.03
   2  -3 -10  105.18    3.55
   2  -3 -10  105.52    3.84
  -2  -3  10  104.14    2.98
  -2  -3  10   99.43    4.11
   2   3 -10  102.74    2.99
  -2   3  10  104.75    3.53
  -1  -3  10   22.24    1.96
   1  -3 -10   21.17    1.62
   1  -3 -10   22.98    1.65
  -1   3  10   26.41    1.63
   1   3 -10   21.87    1.00
   0  -3 -10    0.22    0.78
   0  -3  10    0.99    0.90
   0  -3 -10    1.22    0.63
   0   3  10    1.13    0.81
  -1  -3 -10    8.59    1.31
  -1  -3 -10    6.12    0.94
   1  -3  10    8.82    1.48
  -1   3 -10    8.37    0.73
   1   3  10    6.41    1.19
  -2  -3 -10   21.29    1.54
  -2  -3 -10   23.39    2.14
   2  -3  10   24.80    2.29
   2   3  10   21.41    2.08
  -2   3 -10   24.28    1.42
  -3  -3 -10   13.79    1.84
  -3  -3 -10   15.89    1.53
   3  -3  10   19.70    2.28
  -3   3 -10   16.60    1.49
   3   3  10   14.52    1.85
   4  -3  10    5.08    1.57
  -4  -3 -10    3.43    1.01
   4   3  10    3.34    1.28
  -4   3 -10    2.38    0.96
   5  -3  10    9.09    1.92
  -5  -3 -10    7.25    1.41
  -5  -3 -10    9.89    0.90
  -5   3 -10    9.83    1.64
   5   3  10   10.99    1.89
   6  -3  10    8.05    1.84
  -6  -3 -10    7.56    0.99
  -6  -3 -10    4.68    1.36
  -6   3 -10    7.05    1.61
   6   3  10    7.95    1.88
  -7  -3 -10    4.40    1.55
  -7  -3 -10    3.16    1.02
  -7   3 -10    4.56    1.64
   7   3  10    2.81    1.62
  -8  -3 -10   21.87    1.88
  -8  -3 -10   22.59    2.80
  -8   3 -10   18.46    2.58
   8   3  10   23.86    2.99
  -9  -3 -10   11.35    2.44
  -9  -3 -10   10.55    1.63
  -9   3 -10    9.97    2.34
   9   3  10   12.03    2.53
   9   3  10    9.26    2.21
 -10  -3 -10    6.02    1.58
 -10  -3 -10    8.92    2.55
  10   3  10    5.09    2.09
 -10   3 -10    4.95    2.02
  10   3  10    5.70    2.01
 -11  -3 -10   -0.66    1.36
  11   3  10    0.94    1.81
  11   4 -10    0.24    1.85
 -10  -4  10   -0.63    1.31
 -10   4  10    1.63    1.90
  10   4 -10    2.23    2.03
  -9  -4  10   -0.31    1.17
  -9   4  10   -1.76    1.57
  -8  -4  10    1.18    1.13
  -8  -4  10    0.10    1.41
  -8   4  10    1.85    1.64
  -7  -4  10    2.90    1.50
  -7  -4  10    2.86    1.09
  -7   4  10    2.45    1.75
  -6  -4  10    3.17    0.90
  -6  -4  10    5.44    1.62
  -6   4  10    6.44    1.86
  -5  -4  10   11.76    1.89
  -5  -4  10   14.37    0.98
  -5   4  10   10.65    1.99
   4  -4 -10    4.52    1.29
  -4  -4  10    2.62    1.23
  -4   4  10    2.04    1.15
  -3  -4  10    2.12    1.15
   3  -4 -10    2.32    1.01
   2  -4 -10   42.38    2.19
   2  -4 -10   39.45    2.42
  -2  -4  10   36.47    2.55
   1  -4 -10   19.67    1.73
   1  -4 -10   16.18    1.66
  -1  -4  10   16.75    2.00
   0  -4 -10   59.79    3.01
   0  -4  10   57.98    3.15
   0  -4 -10   57.97    2.74
  -1  -4 -10   56.36    3.03
  -1  -4 -10   59.16    2.65
   1  -4  10   56.71    3.27
  -1   4 -10   54.53    2.01
  -2  -4 -10   -0.20    0.70
  -2  -4 -10    0.60    1.03
   2  -4  10    0.66    1.17
   2   4  10    1.75    1.10
  -2   4 -10    0.94    0.68
  -3  -4 -10   41.05    2.96
   3  -4  10   41.47    2.83
  -3  -4 -10   39.02    2.30
  -3   4 -10   36.83    2.12
   3   4  10   40.31    2.94
  -4  -4 -10   85.54    4.47
  -4  -4 -10   86.70    3.65
   4  -4  10   75.60    4.16
   4   4  10   77.03    4.32
  -4   4 -10   88.76    3.65
   5  -4  10    0.55    1.37
  -5  -4 -10    0.30    1.04
  -5   4 -10   -0.87    0.98
   5   4  10   -0.88    1.20
  -6  -4 -10    3.22    1.37
   6   4  10    3.61    1.67
  -6   4 -10    5.37    1.57
  -7  -4 -10    0.26    1.36
  -7   4 -10    1.95    1.46
   7   4  10   -0.78    1.50
  -8  -4 -10   48.59    4.08
   8   4  10   45.21    4.22
  -8   4 -10   44.35    3.81
  -9  -4 -10    5.44    2.18
  -9   4 -10    2.11    1.76
   9   4  10   -1.63    1.52
 -10  -4 -10    2.98    2.31
  10   4  10    2.64    2.01
 -10   4 -10    5.71    2.17
  -9   5  10   -0.64    1.75
  -8  -5  10   -0.09    1.57
  -8   5  10    0.64    1.60
  -7  -5  10   28.19    3.17
  -7   5  10   29.77    3.38
  -6  -5  10   15.07    2.38
  -6   5  10   11.70    2.37
  -5  -5  10    0.87    1.35
  -5   5  10    0.92    1.40
  -4  -5  10    2.59    1.51
   4  -5 -10    2.61    1.27
  -4   5  10    3.35    1.48
  -3  -5  10    1.65    1.41
   3  -5 -10    4.24    1.28
  -2  -5  10   10.03    1.89
   2  -5 -10   13.25    1.68
   2  -5 -10   15.46    1.72
   1  -5 -10    0.56    1.00
   1  -5 -10   -0.74    0.76
  -1  -5  10   -1.04    1.02
   0  -5 -10   -1.36    0.65
   0  -5 -10   -0.79    0.96
   0  -5  10   -0.80    1.06
  -1  -5 -10    1.87    1.25
   1  -5  10    2.52    1.34
  -1  -5 -10    0.09    0.85
   2  -5  10   39.06    3.32
  -2  -5 -10   36.39    2.35
  -2  -5 -10   35.56    3.11
   3  -5  10   71.63    4.07
  -3  -5 -10   63.98    3.22
  -3  -5 -10   72.36    4.11
   3   5  10   68.21    4.03
   4  -5  10   -0.28    1.31
  -4  -5 -10    2.51    1.15
  -4  -5 -10   -0.05    1.30
   4   5  10    0.82    1.40
  -4   5 -10    0.81    1.02
  -5  -5 -10   64.49    3.40
  -5  -5 -10   55.30    3.99
   5  -5  10   61.66    3.78
   5   5  10   64.77    4.25
  -5   5 -10   54.91    3.27
  -6  -5 -10   -0.91    1.08
  -6   5 -10    2.02    1.45
   6   5  10    1.54    1.75
  -7  -5 -10    8.77    2.03
   7   5  10    9.16    2.39
  -7   5 -10   11.83    2.17
  -8  -5 -10    2.79    1.85
   8   5  10    2.81    1.92
  -8   5 -10    2.30    1.83
  -9  -5 -10    9.97    2.85
   9   5  10    6.59    2.42
  -9   5 -10    7.79    2.34
  10   5  10    3.59    2.26
  -9   6  10    1.17    2.00
  -8  -6  10    2.42    2.05
  -8   6  10    2.79    2.00
  -7  -6  10   15.98    2.82
  -7   6  10   10.63    2.50
  -6  -6  10   10.36    2.45
  -6   6  10    2.57    1.79
  -5  -6  10   29.64    3.47
  -5   6  10   40.39    3.70
   4  -6 -10   13.54    2.25
  -4  -6  10   20.26    2.90
  -4   6  10   17.27    2.40
   3  -6 -10    9.67    1.73
  -3  -6  10    6.49    2.02
  -2  -6  10    0.78    1.39
   2  -6 -10    2.09    1.25
  -1  -6  10   78.45    4.52
   1  -6 -10   74.24    3.81
   1  -6 -10   68.06    3.63
   0  -6  10    4.07    1.71
   0  -6 -10    3.58    1.47
   0  -6 -10    5.51    1.35
  -1  -6 -10    1.12    1.02
  -1  -6 -10    0.67    1.28
   1  -6  10    5.08    1.70
   2  -6  10   -1.01    1.28
  -2  -6 -10    2.21    1.51
  -2  -6 -10   -0.25    1.00
  -3  -6 -10   68.24    3.45
  -3  -6 -10   62.31    4.31
   3  -6  10   64.22    4.14
   3   6  10   62.58    4.36
  -4  -6 -10    0.82    1.28
   4  -6  10    1.41    1.59
  -4  -6 -10   -0.25    1.56
   4   6  10   -1.17    1.52
  -5  -6 -10   18.66    2.98
  -5  -6 -10   15.73    2.17
   5   6  10   17.53    2.99
  -6  -6 -10    4.61    1.84
   6   6  10    3.06    1.97
  -7  -6 -10    8.71    2.34
   7   6  10    5.22    2.36
   8   6  10    5.97    2.50
   9   6  10   10.32    2.85
  -9  -7  10    1.81    2.35
  -8  -7  10    8.54    2.66
  -7  -7  10   -1.83    1.80
  -7   7  10   -2.05    1.89
  -6  -7  10    4.54    2.23
  -6   7  10   -4.46    1.50
  -5  -7  10   -1.47    1.84
  -5   7  10    0.05    1.64
  -4  -7  10    2.00    1.99
  -4   7  10    0.32    1.50
   3  -7 -10   -0.14    1.32
  -3  -7  10    0.04    1.80
  -3   7  10    1.83    1.42
  -2  -7  10   51.00    4.72
   2  -7 -10   53.67    3.56
  -1  -7  10    4.28    2.14
   1  -7 -10    4.22    1.66
   1  -7 -10    4.00    1.49
   0  -7 -10    2.78    1.63
   0  -7  10    0.99    1.79
   0  -7 -10   -0.73    1.10
  -1  -7 -10   -0.86    1.12
   1  -7  10    1.64    1.73
  -1  -7 -10    0.00    1.48
   2  -7  10    5.09    2.14
  -2  -7 -10    4.59    1.51
  -2  -7 -10    7.98    2.21
  -3  -7 -10   -0.23    1.89
  -3  -7 -10   -0.16    1.30
   3  -7  10   -0.11    1.66
   3   7  10    4.03    2.12
  -4  -7 -10    0.74    1.91
   4  -7  10    0.71    1.72
   4   7  10   -0.63    1.85
  -5  -7 -10    0.70    2.00
   5   7  10    2.52    2.18
   6   7  10    4.26    2.49
   7   7  10    1.53    2.27
   8   7  10    5.27    2.69
  -7  -8  10   -0.27    2.14
  -6  -8  10    2.14    2.34
  -6   8  10    2.34    2.27
  -5  -8  10    9.47    2.87
  -5   8  10    5.11    2.57
  -4  -8  10    3.44    2.41
  -4   8  10    1.10    1.88
  -3  -8  10   -1.12    1.78
   3  -8 -10    2.12    1.83
  -3   8  10   -1.46    1.55
   2  -8 -10    0.41    1.63
  -2  -8  10   -1.77    1.81
  -2   8  10    0.39    1.61
  -1  -8  10    8.29    2.74
   1  -8 -10    5.69    1.94
   0  -8  10   14.48    3.11
   0  -8 -10   16.93    2.83
  -1  -8 -10   24.28    3.38
   1  -8  10   24.68    3.71
   2  -8  10   -2.46    1.72
  -2  -8 -10   -0.72    1.83
   2   8  10   -0.83    1.86
  -3  -8 -10   17.33    3.33
   3  -8  10   21.40    3.38
   3   8  10   17.72    3.34
  -4  -8 -10   12.78    3.15
   4   8  10   14.13    3.25
   5   8  10   -0.67    2.14
   6   8  10    3.47    2.64
   7   8  10   -0.19    2.27
  -5  -9  10    2.38    2.53
  -4  -9  10   -0.05    2.45
  -3  -9  10   -0.04    2.51
  -2  -9  10   -0.93    2.39
  -1  -9  10    2.95    2.61
   0  -9  10    1.85    2.41
   0  -9 -10   -0.52    2.00
   0   9  10   -0.29    1.96
  -1  -9 -10   -1.10    2.10
   1  -9  10    1.31    2.36
   1   9  10    0.05    2.15
   2  -9  10    2.16    2.39
  -2  -9 -10    0.23    2.21
   2   9  10    2.89    2.55
  -3  -9 -10   10.00    3.08
   3   9  10   10.63    3.11
   4   9  10   -0.63    2.32
   5   9  10   13.35    3.46
  -1 -10  10    2.63    2.86
   0 -10  10    1.15    2.80
  -1 -10 -10   -0.96    2.31
   1 -10  10    1.32    2.97
   1  10  10    3.95    2.72
 -12   0  11    0.81    1.86
  12   0 -11   -1.09    1.09
 -11   0  11   25.67    3.21
 -11   0  11   20.97    2.90
  11   0 -11   23.12    2.24
 -10   0  11    0.93    1.69
  10   0 -11   -1.48    1.22
 -10   0  11   -0.01    1.65
   9   0 -11    2.57    1.34
  -9   0  11   -0.12    1.41
  -9   0  11    1.54    1.51
   8   0 -11   -1.68    1.05
  -8   0  11   -0.02    1.39
  -8   0  11    0.15    1.26
  -7   0  11   37.45    2.82
  -7   0  11   44.00    3.29
   7   0 -11   30.11    2.39
  -6   0  11   -0.39    0.91
   6   0 -11   -1.82    0.82
  -6   0  11    1.10    1.07
   5   0 -11  228.64    6.83
  -5   0  11  228.14    7.31
  -5   0  11  216.29    6.98
   4   0 -11    0.09    0.76
  -4   0  11   -0.01    0.74
  -4   0  11    0.14    0.75
   3   0 -11    0.64    0.65
  -3   0  11    0.34    0.61
   3   0 -11    0.16    0.60
   2   0 -11    0.19    0.48
   2   0 -11    0.19    0.51
   1   0 -11  223.39    6.15
   0   0 -11    0.48    0.42
   0   0 -11    0.41    0.38
   0   0  11    0.56    0.70
  -1   0 -11    3.09    0.46
   1   0  11    3.59    0.95
  -1   0 -11    2.94    0.55
  -1   0 -11    3.16    0.58
  -2   0 -11    0.22    0.44
  -2   0 -11    0.15    0.42
  -2   0 -11    0.19    0.36
   2   0  11    0.23    0.56
   2   0  11    0.03    0.83
   3   0  11  189.24    5.45
  -3   0 -11  185.67    5.60
   3   0  11  178.71    6.51
  -3   0 -11  179.46    5.24
   4   0  11   -1.55    0.98
   4   0  11    0.07    0.70
  -4   0 -11    0.57    0.70
  -4   0 -11   -0.18    0.56
   5   0  11    7.82    1.28
   5   0  11   10.42    1.94
  -5   0 -11    8.42    1.44
  -5   0 -11    6.69    1.06
   6   0  11   -2.67    1.10
   6   0  11    0.09    0.95
  -6   0 -11   -0.06    1.01
  -6   0 -11   -0.46    0.79
  -7   0 -11    2.84    1.19
   7   0  11    1.60    1.55
   7   0  11   -0.32    1.13
  -7   0 -11    1.37    1.33
   8   0  11    0.19    1.30
  -8   0 -11    1.21    1.30
  -8   0 -11    0.71    1.38
   8   0  11    1.39    1.57
  -9   0 -11   15.49    2.20
   9   0  11   15.24    2.24
  -9   0 -11   11.53    2.26
  10   0  11    0.28    1.48
 -10   0 -11    1.63    1.59
 -10   0 -11    2.37    1.71
  11   0  11    4.99    1.76
 -11   0 -11    1.69    1.75
 -11   0 -11    4.42    2.23
 -12   0 -11   -2.45    1.57
  12   0  11   -0.50    1.44
 -12  -1  11   19.02    2.81
  12   1 -11   16.51    2.36
 -11  -1  11    1.15    1.68
  11   1 -11   -0.68    1.43
 -11   1  11    2.01    1.92
 -10  -1  11    4.53    1.84
  10  -1 -11    4.34    1.07
 -10  -1  11    1.84    1.78
  10   1 -11    3.64    1.65
 -10   1  11    3.05    1.82
  -9  -1  11    2.07    1.56
  -9  -1  11    1.62    1.59
   9  -1 -11    5.20    1.25
  -9   1  11    3.60    1.77
   9   1 -11    0.35    1.32
  -8  -1  11   16.27    2.33
  -8  -1  11    9.57    1.91
   8  -1 -11   16.34    1.70
   8   1 -11   14.36    1.93
  -8   1  11   13.64    2.13
   7  -1 -11    6.07    1.25
  -7  -1  11    6.93    1.66
  -7  -1  11    8.07    1.61
   7   1 -11    7.79    1.54
  -7   1  11    8.29    1.74
  -6  -1  11   10.31    1.58
   6  -1 -11   10.98    1.36
  -6  -1  11    7.64    1.53
  -6   1  11    9.38    1.66
   6   1 -11    7.79    1.44
  -5  -1  11   40.53    1.96
   5  -1 -11   35.90    1.98
  -5  -1  11   37.32    2.36
  -5  -1  11   36.97    2.35
   5   1 -11   38.82    2.34
  -5   1  11   36.82    2.55
  -5   1  11   34.85    2.30
  -4  -1  11   25.42    1.46
  -4  -1  11   28.37    1.95
   4  -1 -11   25.24    1.55
   4  -1 -11   21.16    1.92
  -4  -1  11   23.23    1.82
  -4   1  11   22.10    1.93
   4   1 -11   21.45    1.74
  -3  -1  11   52.31    2.53
   3  -1 -11   55.77    2.46
   3  -1 -11   54.87    2.11
  -3  -1  11   52.98    2.22
  -3  -1  11   59.88    2.38
   3   1 -11   57.15    2.33
   2  -1 -11   27.22    1.34
   2  -1 -11   25.30    1.48
  -2  -1  11   26.17    1.62
  -2  -1  11   29.48    1.27
  -2  -1  11   26.36    1.50
   2   1 -11   26.22    1.25
  -1  -1  11    1.02    0.63
   1  -1 -11    1.20    0.51
   1  -1 -11    0.86    0.48
  -1  -1  11    0.59    0.67
   1   1 -11    0.01    0.31
   0  -1  11   40.37    1.74
   0  -1  11   41.75    2.17
   0  -1 -11   41.86    1.70
   0   1 -11   38.97    1.41
   0   1 -11   42.87    1.42
   0   1  11   39.06    1.99
  -1  -1 -11   43.24    1.85
  -1  -1 -11   41.09    1.54
   1  -1  11   42.51    1.80
   1  -1  11   40.62    2.28
  -1   1 -11   43.70    1.59
   1   1  11   40.14    2.19
   2  -1  11    8.96    1.50
  -2  -1 -11    6.29    0.86
  -2  -1 -11    6.22    0.68
   2  -1  11    6.11    0.86
  -2   1 -11    7.01    0.79
   2   1  11    6.00    1.15
  -3  -1 -11    0.37    0.56
   3  -1  11    1.08    1.10
  -3  -1 -11   -0.01    0.48
   3  -1  11    0.41    0.59
  -3  -1 -11   -0.06    0.36
  -3   1 -11   -0.92    0.46
  -3   1 -11    0.41    0.60
   3   1  11    0.48    0.95
   3   1  11    0.29    0.71
  -4  -1 -11    1.21    0.50
  -4  -1 -11    1.86    0.67
  -4  -1 -11    2.10    0.80
   4  -1  11    1.08    0.71
   4  -1  11    2.74    1.45
  -4   1 -11    0.14    0.73
  -4   1 -11    0.28    0.61
   4   1  11    2.71    1.19
   4   1  11    1.32    0.85
  -5  -1 -11  153.24    4.86
  -5  -1 -11  160.43    5.54
   5  -1  11  158.93    5.15
   5  -1  11  137.68    6.25
  -5   1 -11  149.57    4.93
   5   1  11  153.60    6.15
   5   1  11  156.71    5.32
  -5   1 -11  162.32    5.53
  -6  -1 -11    9.63    1.63
  -6  -1 -11   12.56    1.46
   6  -1  11   13.31    1.66
   6  -1  11   11.45    2.21
   6   1  11    9.99    1.94
  -6   1 -11   11.05    1.44
   6   1  11   11.87    1.69
  -6   1 -11   12.85    1.78
  -7  -1 -11    1.72    1.29
   7  -1  11    7.68    2.01
  -7  -1 -11    4.59    1.18
   7  -1  11    5.05    1.35
   7   1  11    5.90    1.83
   7   1  11    2.82    1.27
  -7   1 -11    3.80    1.44
  -7   1 -11    3.58    1.23
  -8  -1 -11    1.49    1.25
   8  -1  11    0.36    1.19
  -8  -1 -11    1.96    1.63
   8   1  11    2.45    1.47
  -8   1 -11   -0.15    1.43
  -8   1 -11   -0.19    1.16
   8   1  11    3.12    1.66
   9  -1  11   15.06    2.08
  -9  -1 -11   13.87    2.13
  -9  -1 -11   14.52    1.58
  -9  -1 -11   16.98    2.73
   9   1  11   12.04    2.12
  -9   1 -11   15.50    2.63
   9   1  11   14.24    2.60
  -9   1 -11   16.15    2.30
 -10  -1 -11   24.71    3.25
  10  -1  11   19.09    2.22
 -10  -1 -11   24.09    2.69
 -10   1 -11   18.28    2.91
  10   1  11   20.66    2.64
 -10   1 -11   20.35    2.73
 -11  -1 -11    1.19    1.97
 -11  -1 -11   -1.63    1.46
  11  -1  11    0.66    1.32
  11   1  11   -2.15    1.41
 -11   1 -11    2.89    1.86
 -11   1 -11    0.80    1.69
 -12  -1 -11    0.83    1.72
 -12   1 -11    0.13    1.84
  12   1  11    0.15    1.61
 -12  -2  11   -1.61    1.51
  12   2 -11   -0.33    1.62
 -11  -2  11   -2.61    1.39
 -11   2  11   -1.59    1.57
  11   2 -11    0.68    1.62
 -10  -2  11   19.72    2.55
 -10   2  11   23.86    3.13
  10   2 -11   23.50    2.67
  -9  -2  11   -2.06    1.33
  -9   2  11   -0.64    1.26
   9   2 -11   -2.48    1.13
  -8  -2  11    2.48    1.44
  -8  -2  11    0.34    1.40
   8   2 -11   -1.63    1.14
  -8   2  11    2.52    1.49
  -7  -2  11   -0.12    1.20
  -7  -2  11    0.06    1.29
  -7   2  11   -2.49    1.19
   7   2 -11   -2.05    0.98
  -6  -2  11   62.45    3.31
  -6  -2  11   69.46    3.18
  -6  -2  11   59.36    3.38
   6   2 -11   69.24    3.32
  -6   2  11   61.27    3.72
  -5  -2  11    1.92    0.96
  -5  -2  11    4.66    1.19
  -5  -2  11    3.86    1.13
   5   2 -11    3.94    1.11
  -5   2  11   -0.02    0.94
   4  -2 -11    0.28    0.91
  -4  -2  11   -0.35    0.74
  -4  -2  11   -0.95    0.79
  -4  -2  11   -0.26    0.67
   4   2 -11   -0.70    0.78
  -4   2  11    1.91    0.95
   3  -2 -11    8.25    1.20
  -3  -2  11    9.96    1.25
  -3  -2  11    6.13    1.03
  -3  -2  11    7.70    0.85
   3   2 -11   10.75    1.17
  -2  -2  11  257.85    7.81
  -2  -2  11  252.43    7.28
   2  -2 -11  260.92    7.57
  -1  -2  11   22.31    1.74
  -1  -2  11   19.63    1.38
   1  -2 -11   18.68    1.35
   1   2 -11   17.84    0.93
  -1   2  11   20.34    1.32
   0  -2 -11  204.01    5.98
   0  -2  11  203.97    5.72
   0  -2  11  201.21    6.55
   0   2  11  198.06    6.29
   0   2 -11  203.37    5.27
  -1  -2 -11   15.17    1.25
   1  -2  11   19.89    1.25
   1  -2  11   22.24    1.95
   1   2  11   19.31    1.71
  -1   2 -11   19.11    0.95
  -2  -2 -11    2.59    0.70
  -2  -2 -11    3.08    0.46
   2  -2  11    3.47    1.23
   2  -2  11    3.39    0.76
   2   2  11    1.99    0.97
  -2   2 -11    2.92    0.65
  -3  -2 -11    5.95    0.69
   3  -2  11    5.83    1.46
  -3  -2 -11    6.35    0.98
   3  -2  11    4.91    0.86
   3   2  11    4.43    1.17
  -3   2 -11    5.70    0.95
   4  -2  11  142.90    6.27
  -4  -2 -11  162.83    5.33
   4  -2  11  165.30    4.98
  -4  -2 -11  156.13    4.61
   4   2  11  162.96    5.25
  -4   2 -11  160.74    5.31
   4   2  11  151.66    6.08
   5  -2  11    1.33    0.93
  -5  -2 -11    1.92    1.01
  -5  -2 -11    0.41    0.66
   5  -2  11    2.00    1.48
   5   2  11   -0.13    0.92
   5   2  11    0.59    1.15
  -5   2 -11    1.07    1.04
  -6  -2 -11    8.84    1.66
   6  -2  11    9.58    1.43
   6  -2  11    8.59    2.09
  -6  -2 -11    8.00    1.18
   6   2  11    9.78    1.64
  -6   2 -11    9.56    1.64
   6   2  11    7.83    1.80
   7  -2  11    1.61    1.55
  -7  -2 -11    0.77    1.01
  -7  -2 -11    0.67    1.27
   7  -2  11    1.09    1.15
  -7   2 -11   -0.60    1.18
   7   2  11    0.35    1.24
   7   2  11   -0.86    1.27
  -8  -2 -11   67.25    4.14
  -8  -2 -11   65.05    3.31
   8  -2  11   58.29    2.92
  -8   2 -11   64.79    4.09
   8   2  11   63.09    4.13
   8   2  11   60.33    3.64
   9  -2  11   -0.69    0.99
  -9  -2 -11   -0.42    1.28
  -9  -2 -11    3.33    1.73
   9   2  11   -1.43    1.52
  -9   2 -11   -3.13    1.30
   9   2  11    1.24    1.43
 -10  -2 -11    6.63    2.30
 -10  -2 -11    3.01    1.62
 -10   2 -11    2.64    1.83
  10   2  11    2.40    1.77
 -11  -2 -11   -1.52    1.47
 -11  -2 -11   -2.71    1.75
  11   2  11   -3.42    1.43
 -11   2 -11   -0.44    1.89
 -12  -2 -11    0.08    1.58
  12   2  11   -1.02    1.59
 -12  -3  11    5.30    1.77
  12   3 -11    4.71    2.03
 -11  -3  11    2.75    1.61
  11   3 -11    0.87    1.68
 -11   3  11    0.47    1.90
 -10  -3  11   -1.83    1.41
  10   3 -11   -2.28    1.42
 -10   3  11   -2.72    1.44
  -9  -3  11    3.16    1.60
   9   3 -11    4.37    1.87
  -9   3  11    2.83    1.77
  -8  -3  11   -1.19    1.24
  -8   3  11    1.63    1.50
   8   3 -11    0.25    1.45
  -7  -3  11    6.89    1.61
  -7  -3  11    3.41    1.38
   7   3 -11    6.96    1.82
  -7   3  11    1.95    1.65
  -6  -3  11   -1.13    0.95
  -6  -3  11    1.84    1.13
  -6   3  11    0.37    1.11
   6   3 -11   -0.61    1.13
  -5  -3  11   30.19    2.02
  -5  -3  11   28.34    2.43
  -5   3  11   29.28    2.66
   5   3 -11   35.21    2.53
   4  -3 -11    7.94    1.41
  -4  -3  11    7.78    1.14
  -4  -3  11    7.97    1.41
  -4   3  11    6.43    1.34
  -3  -3  11   24.96    2.17
  -3  -3  11   26.22    1.56
   3  -3 -11   26.74    2.11
  -2  -3  11   12.22    1.60
  -2  -3  11   13.46    0.99
   2  -3 -11   12.61    1.42
   2   3 -11   13.93    0.95
  -2   3  11   12.94    1.21
   1  -3 -11    5.15    0.90
  -1  -3  11    3.59    1.12
  -1   3  11    6.81    1.06
   1   3 -11    6.34    0.62
   0  -3 -11   26.58    1.74
   0  -3  11   22.92    2.04
   0  -3 -11   25.64    1.87
   0   3  11   27.19    1.85
   1  -3  11   74.55    3.62
  -1  -3 -11   82.16    3.47
  -1  -3 -11   70.74    2.96
  -1   3 -11   76.05    2.38
   1   3  11   73.16    3.33
  -2  -3 -11    0.08    0.67
   2  -3  11    0.91    1.14
  -2   3 -11    0.33    0.52
   2   3  11   -0.91    0.84
   3  -3  11   26.96    2.65
  -3  -3 -11   25.23    1.77
   3   3  11   25.54    2.40
  -3   3 -11   26.26    1.70
  -4  -3 -11   -0.40    0.77
   4  -3  11    2.05    1.49
  -4   3 -11   -0.61    0.75
   4   3  11    0.91    1.19
  -5  -3 -11  168.18    5.89
  -5  -3 -11  161.37    4.58
   5  -3  11  157.99    6.67
  -5   3 -11  165.12    5.80
   5   3  11  159.08    6.56
  -6  -3 -11    6.80    0.96
  -6  -3 -11    4.23    1.45
   6  -3  11    5.76    1.86
   6   3  11    8.53    1.98
  -6   3 -11    6.04    1.52
  -7  -3 -11    4.87    1.57
  -7  -3 -11    4.37    1.05
  -7   3 -11    4.08    1.59
   7   3  11    5.31    1.84
  -8  -3 -11   -0.83    1.43
  -8  -3 -11    0.49    1.08
   8   3  11   -0.08    1.30
  -8   3 -11   -0.93    1.35
  -9  -3 -11   25.05    3.28
  -9  -3 -11   26.78    2.23
   9   3  11   30.96    3.49
  -9   3 -11   20.29    2.93
   9   3  11   26.92    3.03
 -10  -3 -11    7.46    1.59
 -10  -3 -11    6.47    2.40
 -10   3 -11    6.45    2.21
  10   3  11    5.33    1.93
  10   3  11    4.24    2.25
 -11  -3 -11    0.40    1.34
  11   3  11   -2.94    1.51
  11   4 -11   14.22    2.69
 -10  -4  11    0.52    1.36
  10   4 -11    2.39    1.94
 -10   4  11    2.59    1.94
  -9  -4  11    0.04    1.26
   9   4 -11   -0.75    1.74
  -9   4  11   -0.76    1.61
  -8  -4  11    4.79    1.37
  -8   4  11    5.85    1.98
  -7  -4  11   26.87    2.81
  -7  -4  11   23.10    1.86
  -7   4  11   21.30    2.95
  -6  -4  11    8.83    1.18
  -6  -4  11    9.06    1.89
  -6   4  11    7.89    1.98
  -5  -4  11   74.50    3.96
  -5  -4  11   74.68    2.48
  -5   4  11   76.54    4.03
   4  -4 -11   13.71    1.89
  -4  -4  11   14.58    2.02
  -3  -4  11    3.16    1.26
   3  -4 -11    6.08    1.36
  -2  -4  11    5.49    1.42
   2  -4 -11    4.26    1.13
   2  -4 -11    6.37    1.13
  -2   4  11    4.30    0.98
   2   4 -11    4.83    0.68
  -1  -4  11   54.08    3.12
   1  -4 -11   59.88    2.75
   1  -4 -11   56.73    2.81
  -1   4  11   54.43    2.70
   0  -4 -11    2.00    1.03
   0  -4 -11    1.48    0.85
   0  -4  11    0.53    1.08
   0   4  11    0.99    0.92
   1  -4  11    0.93    1.13
  -1  -4 -11   -0.23    0.72
  -1  -4 -11   -0.05    0.85
   1   4  11    0.46    0.91
  -2  -4 -11    3.05    1.30
   2  -4  11    1.14    1.25
  -2  -4 -11    2.40    0.85
  -2   4 -11    2.28    0.67
   2   4  11    2.00    1.20
   3  -4  11   68.19    3.89
  -3  -4 -11   72.04    3.87
  -3  -4 -11   71.26    3.22
  -3   4 -11   67.95    2.93
   3   4  11   68.70    3.79
  -4  -4 -11    0.07    0.89
   4  -4  11    0.65    1.31
  -4   4 -11   -0.77    0.80
   4   4  11    1.05    1.24
  -5  -4 -11    6.36    1.38
   5  -4  11    4.02    1.77
   5   4  11    5.20    1.74
  -5   4 -11    4.17    1.35
  -6  -4 -11    2.59    1.28
   6  -4  11    4.74    1.76
   6   4  11    1.90    1.63
  -6   4 -11    3.21    1.40
  -7  -4 -11    0.23    1.36
  -7   4 -11   -1.46    1.21
   7   4  11    0.22    1.51
  -8  -4 -11    1.26    1.73
  -8   4 -11    3.55    1.75
   8   4  11    1.42    1.82
  -9  -4 -11    5.12    2.15
   9   4  11    9.21    2.38
  -9   4 -11    7.99    2.19
 -10  -4 -11    4.04    2.31
 -10   4 -11   -1.90    1.69
  10   4  11   -0.57    1.93
  -9   5  11   -0.39    1.78
  -8  -5  11    5.39    2.04
  -8   5  11    9.71    2.35
  -7  -5  11   -1.67    1.33
  -7   5  11    1.84    1.71
  -6  -5  11   -1.67    1.33
  -6   5  11    1.43    1.59
  -5  -5  11    9.13    1.88
  -5   5  11    4.21    1.67
  -4  -5  11    3.53    1.54
   4  -5 -11    0.87    1.15
  -4   5  11   -0.19    1.08
   3  -5 -11   11.36    1.72
  -3  -5  11   10.46    2.04
   2  -5 -11   15.99    1.82
  -2  -5  11   16.25    2.28
   2  -5 -11   17.31    1.78
   1  -5 -11    2.28    1.03
   1  -5 -11    1.72    1.03
  -1  -5  11    3.85    1.42
   0  -5  11    6.62    1.68
   0  -5 -11    7.23    1.53
   0  -5 -11    6.55    1.26
  -1  -5 -11    2.21    1.29
   1  -5  11    2.02    1.34
  -1  -5 -11    3.25    1.08
  -2  -5 -11    0.96    1.24
  -2  -5 -11    0.86    0.98
   2  -5  11    1.82    1.45
   2   5  11    0.33    1.13
  -3  -5 -11   18.89    1.96
   3  -5  11   10.72    2.13
  -3  -5 -11   16.12    2.44
   3   5  11   15.77    2.40
   4  -5  11    2.11    1.50
  -4  -5 -11    2.30    1.14
  -4  -5 -11   -0.25    1.26
  -4   5 -11    1.62    1.02
   4   5  11    2.87    1.54
  -5  -5 -11   20.47    2.20
   5  -5  11   15.87    2.44
  -5   5 -11   16.45    2.01
   5   5  11   17.87    2.82
  -6  -5 -11    2.74    1.48
   6   5  11    0.27    1.75
  -6   5 -11    0.92    1.38
  -7  -5 -11    0.51    1.42
   7   5  11    0.70    1.86
  -7   5 -11   -0.07    1.52
  -8  -5 -11   -1.27    1.70
   8   5  11    4.32    2.30
  -8   5 -11    3.45    1.85
  -9  -5 -11    0.71    2.11
  -9   5 -11    1.10    1.83
   9   5  11    2.73    2.16
  10   5  11   19.72    3.46
  -8  -6  11    2.42    2.03
  -8   6  11    2.10    2.02
  -7  -6  11    0.68    1.73
  -7   6  11    1.74    1.92
  -6  -6  11   14.98    2.73
  -6   6  11   18.96    2.84
  -5  -6  11    3.63    1.92
  -5   6  11    1.64    1.58
   4  -6 -11    2.38    1.53
  -4  -6  11    4.08    1.83
  -4   6  11    4.91    1.70
  -3  -6  11    3.05    1.61
   3  -6 -11    7.44    1.60
   2  -6 -11   33.02    2.80
  -2  -6  11   35.29    3.53
   1  -6 -11   18.42    2.14
  -1  -6  11   15.19    2.44
   1  -6 -11   18.07    2.19
   0  -6  11   49.90    4.21
   0  -6 -11   55.04    3.07
   0  -6 -11   59.43    3.50
  -1  -6 -11   23.42    2.74
   1  -6  11   29.21    3.23
  -1  -6 -11   24.44    2.25
  -2  -6 -11    1.79    1.46
  -2  -6 -11    2.22    1.16
   2  -6  11    5.51    1.82
   2   6  11    1.74    1.49
  -3  -6 -11    9.34    2.30
  -3  -6 -11   10.64    1.75
   3  -6  11   10.76    2.28
   3   6  11   13.96    2.62
  -4  -6 -11   47.03    4.36
   4  -6  11   48.03    3.97
  -4  -6 -11   47.88    3.08
   4   6  11   46.22    4.42
  -5  -6 -11    1.06    1.34
   5   6  11    0.63    1.69
  -6  -6 -11    1.27    1.57
   6   6  11   -0.19    1.78
  -7  -6 -11    1.18    1.95
   7   6  11   -2.15    1.80
   8   6  11   22.79    3.73
   9   6  11    0.43    2.11
  -9  -7  11    2.65    2.24
  -8  -7  11    4.39    2.27
  -7  -7  11    1.15    2.01
  -7   7  11    2.95    2.12
  -6  -7  11    1.29    2.04
  -6   7  11    0.84    2.00
  -5  -7  11    8.25    2.60
  -5   7  11    9.31    2.33
  -4  -7  11   -0.58    1.62
   4  -7 -11   -0.27    1.47
  -4   7  11   -0.80    1.30
   3  -7 -11    3.63    1.57
  -3  -7  11    2.01    1.93
  -3   7  11    2.10    1.54
  -2  -7  11    1.24    1.87
   2  -7 -11    0.15    1.25
   1  -7 -11    5.46    1.62
  -1  -7  11    8.36    2.33
   1  -7 -11    6.31    1.72
   0  -7 -11    2.02    1.56
   0  -7  11    3.27    1.88
   0  -7 -11    2.40    1.34
   1  -7  11   21.92    3.19
  -1  -7 -11   21.11    2.87
  -1  -7 -11   21.91    2.40
  -2  -7 -11   -0.47    1.72
   2  -7  11   -0.33    1.52
  -2  -7 -11   -0.96    1.19
   2   7  11    1.40    1.77
   3  -7  11   11.13    2.44
  -3  -7 -11    9.04    2.44
  -3  -7 -11    8.11    1.81
   3   7  11    7.65    2.51
  -4  -7 -11   -0.43    1.32
  -4  -7 -11   -0.54    1.77
   4  -7  11   -0.38    1.70
   4   7  11    0.64    1.99
   5   7  11   40.07    4.60
   6   7  11    3.77    2.42
   7   7  11    1.54    2.41
   8   7  11    1.26    2.31
  -7  -8  11    5.95    2.77
  -6  -8  11    4.63    2.56
  -6   8  11    4.96    2.57
  -5  -8  11    7.61    2.85
  -5   8  11   14.82    2.97
  -4  -8  11    5.36    2.70
  -4   8  11    2.40    2.05
   3  -8 -11    4.49    1.96
  -3  -8  11    6.78    2.59
  -3   8  11    5.91    2.17
   2  -8 -11    2.54    1.70
  -2  -8  11   -0.92    1.91
  -1  -8  11    9.62    2.75
   1  -8 -11    7.80    2.08
   0  -8  11    0.12    1.90
   0  -8 -11   -0.12    1.70
   0   8  11    0.18    1.67
   1  -8  11    1.66    2.21
  -1  -8 -11    0.10    1.83
   1   8  11    1.86    1.90
   2  -8  11    3.44    2.20
  -2  -8 -11   -0.02    1.84
   2   8  11    0.14    1.90
   3  -8  11    1.75    2.07
  -3  -8 -11   -0.44    2.08
   3   8  11    4.18    2.39
  -4  -8 -11   -1.36    2.00
   4   8  11    2.69    2.29
   5   8  11    7.84    2.99
   6   8  11    4.45    2.80
   7   8  11    1.72    2.61
  -5  -9  11   -1.84    2.38
  -4  -9  11    1.51    2.52
  -3  -9  11   -3.07    2.26
  -2  -9  11    5.48    2.78
  -1  -9  11   -0.32    2.34
   0  -9  11    4.39    2.71
   1  -9  11    0.62    2.32
  -1  -9 -11    1.93    2.26
   1   9  11    0.83    2.15
  -2  -9 -11   -0.29    2.03
   2  -9  11    2.28    2.38
   2   9  11   -0.35    2.24
  -3  -9 -11    4.44    2.53
   3   9  11    7.25    2.84
   4   9  11    4.86    2.90
   5   9  11   -1.39    2.22
   0 -10  11    2.69    3.03
 -12   0  12    2.14    1.97
  12   0 -12   -1.29    1.06
 -11   0  12   -0.56    1.67
  11   0 -12    0.13    1.34
 -11   0  12    0.84    1.77
  10   0 -12   55.03    3.15
 -10   0  12   60.19    4.14
 -10   0  12   57.91    4.01
   9   0 -12   -1.09    1.12
  -9   0  12    1.42    1.57
  -9   0  12    1.01    1.48
  -8   0  12    2.92    1.55
   8   0 -12    1.24    1.17
  -8   0  12    0.98    1.31
  -7   0  12    0.24    1.10
  -7   0  12    0.62    1.11
   7   0 -12    1.84    1.11
   6   0 -12  154.78    5.30
  -6   0  12  154.75    5.52
  -6   0  12  155.97    5.86
   5   0 -12   -0.64    0.86
  -5   0  12    0.29    0.94
  -5   0  12   -2.82    0.76
   4   0 -12   36.71    2.05
  -4   0  12   39.09    2.21
  -4   0  12   33.80    2.11
  -3   0  12    0.26    0.59
   3   0 -12    0.44    0.64
   3   0 -12   -0.70    0.59
  -3   0  12   -0.51    0.68
   2   0 -12  334.40    9.11
   2   0 -12  334.35    8.94
   1   0 -12    0.11    0.40
   0   0 -12   92.32    2.94
   0   0  12  103.08    3.71
   0   0 -12   99.84    3.04
  -1   0 -12   -0.42    0.38
   1   0  12   -0.44    0.71
  -1   0 -12   -0.55    0.37
  -1   0 -12    0.29    0.35
  -2   0 -12    1.45    0.43
   2   0  12    0.81    0.57
  -2   0 -12    1.51    0.57
   2   0  12    1.10    0.92
  -2   0 -12    1.63    0.54
  -3   0 -12   -0.84    0.50
   3   0  12    0.26    0.63
   3   0  12   -1.10    0.97
  -3   0 -12   -0.11    0.49
   4   0  12    8.86    1.16
  -4   0 -12    4.99    0.86
   4   0  12    4.11    1.44
  -4   0 -12    4.13    0.96
  -5   0 -12   -0.33    0.70
  -5   0 -12   -0.70    0.76
   5   0  12   -0.62    0.88
   5   0  12   -1.49    1.05
   6   0  12   -0.17    1.41
   6   0  12    0.19    1.01
  -6   0 -12    0.27    1.04
  -6   0 -12    0.33    0.90
  -7   0 -12   -0.88    1.03
  -7   0 -12   -0.39    0.96
   7   0  12    1.98    1.58
   7   0  12    0.63    1.20
  -8   0 -12   20.66    2.61
   8   0  12   30.66    3.23
   8   0  12   17.25    2.27
  -8   0 -12   17.98    2.18
   9   0  12    0.68    1.45
  -9   0 -12    0.97    1.43
  -9   0 -12   -0.22    1.53
 -10   0 -12    2.73    1.81
  10   0  12    0.39    1.52
 -10   0 -12    1.89    1.59
 -11   0 -12    0.53    1.68
 -11   0 -12   -2.28    1.68
  11   0  12   -0.71    1.43
 -11   0 -12   -0.59    1.26
 -12   0 -12    4.40    2.07
  12   0  12    4.18    1.72
 -12  -1  12    7.08    2.14
  12   1 -12    2.29    1.65
 -11  -1  12    1.20    1.77
  11   1 -12    1.56    1.54
 -11   1  12   -0.61    1.71
 -10  -1  12   10.11    2.25
  10  -1 -12    5.31    1.09
 -10  -1  12    3.52    1.77
  10   1 -12    5.61    1.75
 -10   1  12    6.29    2.05
  -9  -1  12   15.96    2.39
   9  -1 -12   18.89    1.75
  -9  -1  12   13.45    2.36
   9   1 -12   17.09    2.20
  -9   1  12   19.09    2.66
  -8  -1  12   -1.31    1.17
   8  -1 -12   -0.81    0.97
  -8  -1  12    2.59    1.55
  -8   1  12    0.77    1.31
   8   1 -12   -0.97    1.17
  -7  -1  12    2.22    1.26
  -7  -1  12   -0.48    1.20
   7  -1 -12    0.63    1.00
   7   1 -12    1.22    1.11
  -7   1  12   -1.30    1.08
  -6  -1  12   25.84    2.29
  -6  -1  12   29.78    2.52
   6  -1 -12   28.60    1.85
  -6   1  12   31.70    2.77
   6   1 -12   26.67    2.28
  -5  -1  12   50.40    2.71
  -5  -1  12   48.07    2.27
   5  -1 -12   54.19    2.37
  -5  -1  12   49.44    2.70
  -5   1  12   49.79    2.93
   5   1 -12   48.77    2.60
  -4  -1  12   11.77    1.49
   4  -1 -12   10.67    1.40
  -4  -1  12   13.21    1.41
  -4  -1  12   12.12    1.17
   4  -1 -12   12.22    1.21
   4   1 -12   10.09    1.31
  -4   1  12   10.61    1.42
  -3  -1  12   66.23    2.83
   3  -1 -12   70.76    2.87
   3  -1 -12   69.11    2.51
  -3  -1  12   69.47    2.69
  -3  -1  12   71.11    2.70
   3   1 -12   68.78    2.70
  -2  -1  12    2.31    0.82
   2  -1 -12    1.54    0.62
   2  -1 -12    1.61    0.67
  -2  -1  12    0.53    0.63
   2   1 -12    1.31    0.50
   1  -1 -12   35.12    1.42
   1  -1 -12   33.40    1.60
  -1  -1  12   37.15    1.74
  -1  -1  12   32.66    1.89
   1   1 -12   36.37    1.34
   0  -1  12  150.52    5.08
   0  -1  12  150.34    4.48
   0  -1 -12  152.89    4.49
   0   1 -12  141.79    3.95
   0   1  12  147.21    4.93
   0   1 -12  154.81    4.16
   1  -1  12   50.61    2.63
  -1  -1 -12   54.96    2.12
   1  -1  12   49.06    2.02
  -1  -1 -12   52.13    1.80
  -1   1 -12   52.49    1.73
   1   1  12   53.64    2.58
  -1   1 -12   53.70    1.88
  -2  -1 -12  130.23    3.80
   2  -1  12  127.67    4.99
  -2  -1 -12  132.74    4.23
   2  -1  12  134.18    4.08
  -2   1 -12  131.37    4.04
   2   1  12  127.13    4.83
   3  -1  12   17.36    1.41
   3  -1  12   22.88    2.33
  -3  -1 -12   16.88    0.95
  -3  -1 -12   15.19    1.36
  -3  -1 -12   17.08    1.15
   3   1  12   13.68    1.75
   3   1  12   19.92    1.51
  -3   1 -12   17.95    1.22
  -3   1 -12   14.66    1.33
  -4  -1 -12   19.73    1.13
  -4  -1 -12   15.47    1.56
   4  -1  12   18.45    2.34
  -4  -1 -12   19.23    1.31
   4  -1  12   21.32    1.65
   4   1  12   21.68    1.75
  -4   1 -12   21.14    1.53
  -4   1 -12   16.18    1.58
   4   1  12   18.51    2.11
   5  -1  12  174.78    5.75
  -5  -1 -12  179.70    5.50
  -5  -1 -12  180.89    4.95
  -5  -1 -12  184.08    6.17
   5  -1  12  174.15    7.15
   5   1  12  177.49    6.87
  -5   1 -12  183.00    6.15
  -5   1 -12  172.98    5.57
   5   1  12  183.26    5.96
   6  -1  12   27.61    3.05
   6  -1  12   24.14    2.09
  -6  -1 -12   21.69    1.51
  -6  -1 -12   26.69    2.03
  -6  -1 -12   22.20    2.24
   6   1  12   27.11    2.33
  -6   1 -12   20.51    2.23
   6   1  12   23.68    2.79
  -6   1 -12   26.08    2.05
  -7  -1 -12    2.42    1.11
   7  -1  12    1.02    1.20
   7  -1  12    1.70    1.67
  -7  -1 -12    2.57    1.42
  -7   1 -12    1.77    1.30
   7   1  12    1.87    1.32
  -7   1 -12    3.11    1.22
   7   1  12    1.96    1.60
  -8  -1 -12    3.69    1.06
  -8  -1 -12    3.13    1.30
  -8  -1 -12    3.20    1.64
   8  -1  12    2.51    1.69
   8  -1  12    1.96    1.38
   8   1  12    2.42    1.70
  -8   1 -12    6.23    1.77
  -8   1 -12    3.74    1.46
   8   1  12    6.03    1.72
  -9  -1 -12    9.98    1.40
  -9  -1 -12    8.65    2.29
  -9  -1 -12   12.30    2.02
   9  -1  12   10.57    1.87
  -9   1 -12   11.01    2.04
   9   1  12    9.38    2.37
   9   1  12   10.66    2.07
  -9   1 -12    8.97    2.18
 -10  -1 -12   27.50    3.46
 -10  -1 -12   28.18    2.90
  10  -1  12   34.58    2.77
 -10   1 -12   39.13    3.96
  10   1  12   29.63    3.04
 -10   1 -12   39.42    3.46
 -11  -1 -12   -1.05    1.74
  11  -1  12   -1.43    1.21
 -11  -1 -12   -0.43    1.53
 -11   1 -12   -0.59    1.70
 -11   1 -12   -1.30    1.81
  11   1  12   -2.13    1.42
 -12  -1 -12   -0.21    1.70
  12   1  12   -0.18    1.62
 -12   1 -12   -0.03    1.84
 -12  -2  12    1.12    1.70
  12   2 -12    0.95    1.70
 -11  -2  12    6.46    2.00
 -11   2  12    9.49    2.44
  11   2 -12    4.87    1.93
 -10  -2  12    2.25    1.67
 -10   2  12    1.74    1.88
  10   2 -12    1.16    1.62
  -9  -2  12    1.46    1.57
   9   2 -12    0.68    1.42
  -9   2  12    0.25    1.50
  -8  -2  12    3.11    1.68
  -8  -2  12    1.83    1.47
   8   2 -12    5.40    1.62
  -8   2  12    3.41    1.63
  -7  -2  12    2.31    1.29
  -7  -2  12    3.14    1.48
   7   2 -12    5.34    1.50
  -7   2  12    0.51    1.34
  -6  -2  12    2.67    1.28
  -6  -2  12    5.30    1.44
  -6  -2  12    2.51    1.14
  -6   2  12    3.65    1.42
   6   2 -12    3.34    1.33
  -5  -2  12   51.12    2.66
  -5  -2  12   43.44    2.59
  -5  -2  12   45.76    2.51
  -5   2  12   47.35    2.87
   5   2 -12   46.17    2.59
  -4  -2  12    1.92    0.87
  -4  -2  12    2.88    1.08
  -4  -2  12    3.00    0.89
   4  -2 -12    3.83    1.08
  -4   2  12    4.46    1.13
   4   2 -12    7.28    1.19
  -3  -2  12   24.61    1.40
  -3  -2  12   23.16    1.70
   3  -2 -12   25.62    1.98
  -3  -2  12   23.59    1.81
   3   2 -12   23.26    1.59
  -2  -2  12   14.11    1.36
   2  -2 -12   11.00    1.23
  -2  -2  12   11.87    1.40
   1  -2 -12    4.04    0.78
  -1  -2  12    2.00    0.76
  -1  -2  12    5.28    1.02
  -1   2  12    4.82    0.85
   1   2 -12    3.64    0.55
   0  -2  12    5.81    0.88
   0  -2  12    4.42    1.12
   0  -2 -12    5.57    0.87
   0   2 -12    6.18    0.46
   0   2 -12    3.97    0.55
   0   2  12    4.03    0.96
  -1  -2 -12   71.04    2.75
   1  -2  12   69.91    3.32
   1  -2  12   70.58    2.60
   1   2  12   72.65    3.13
  -1   2 -12   71.23    2.29
  -2  -2 -12    0.51    0.39
  -2  -2 -12    0.73    0.63
   2  -2  12    1.06    0.69
   2  -2  12    0.79    1.07
  -2   2 -12   -0.07    0.47
   2   2  12    1.05    0.90
   3  -2  12   36.48    2.99
   3  -2  12   34.17    1.79
  -3  -2 -12   36.10    1.46
  -3  -2 -12   35.25    2.07
  -3   2 -12   31.68    1.81
   3   2  12   33.87    2.41
   4  -2  12    2.25    0.94
  -4  -2 -12    1.40    0.82
  -4  -2 -12    1.25    0.62
   4  -2  12    1.78    1.45
  -4   2 -12   -0.13    0.74
   4   2  12    2.24    1.20
   4   2  12    0.08    0.86
   5  -2  12    1.67    0.99
   5  -2  12    2.86    1.56
  -5  -2 -12    2.00    1.07
  -5  -2 -12    1.42    0.72
  -5   2 -12    2.86    1.03
   5   2  12    1.09    1.22
   5   2  12    3.01    1.15
   6  -2  12    0.93    1.04
  -6  -2 -12    1.65    0.92
  -6  -2 -12    1.73    1.18
   6  -2  12    2.15    1.71
   6   2  12   -0.51    1.18
   6   2  12   -0.93    1.25
  -6   2 -12    1.55    1.16
  -7  -2 -12   57.27    2.84
   7  -2  12   57.69    2.91
  -7  -2 -12   55.08    3.59
   7  -2  12   64.63    3.98
   7   2  12   61.49    3.41
   7   2  12   58.15    3.91
  -7   2 -12   54.02    3.57
   8  -2  12   -0.49    1.14
  -8  -2 -12   -1.17    1.07
  -8  -2 -12    1.19    1.48
  -8   2 -12   -0.23    1.42
   8   2  12   -0.07    1.28
   8   2  12   -0.18    1.53
  -9  -2 -12    1.04    1.32
   9  -2  12    3.31    1.19
  -9  -2 -12    1.58    1.78
   9   2  12    2.20    1.77
   9   2  12    0.96    1.72
  -9   2 -12    2.75    1.80
 -10  -2 -12    0.05    1.69
 -10  -2 -12    0.55    1.56
  10   2  12    3.59    1.85
 -10   2 -12    0.51    1.67
 -11  -2 -12    7.35    1.94
  11   2  12    8.52    2.18
 -12  -3  12    8.29    1.91
  12   3 -12    7.21    2.18
 -11  -3  12    0.62    1.54
  11   3 -12   -0.46    1.63
 -11   3  12   -1.31    1.84
 -10  -3  12   10.62    2.05
 -10   3  12   11.19    2.54
  10   3 -12   10.66    2.21
  -9  -3  12   20.34    2.40
  -9   3  12   16.79    2.75
   9   3 -12   17.79    2.59
  -8  -3  12    1.95    1.43
   8   3 -12   -0.22    1.39
  -8   3  12   -0.16    1.50
  -7  -3  12   -0.72    1.10
  -7  -3  12    0.07    1.13
  -7   3  12    2.07    1.58
   7   3 -12    0.87    1.38
  -6  -3  12   13.32    1.75
  -6  -3  12   16.69    2.04
   6   3 -12   18.77    2.12
  -6   3  12   16.10    2.32
  -5  -3  12   24.98    2.02
  -5  -3  12   24.79    2.29
   5  -3 -12   26.82    2.54
   5   3 -12   25.16    2.22
  -5   3  12   24.10    2.47
  -4  -3  12    4.91    1.25
  -4  -3  12    6.87    1.17
   4  -3 -12    5.59    1.28
   4   3 -12    4.58    1.18
   3  -3 -12   30.86    2.29
  -3  -3  12   29.86    1.75
  -3  -3  12   24.61    2.15
   2  -3 -12   -0.25    0.70
  -2  -3  12    0.03    0.74
  -2  -3  12    0.81    0.61
  -2   3  12   -0.51    0.59
   2   3 -12    0.39    0.47
  -1  -3  12   40.96    1.48
   1  -3 -12   41.31    2.19
  -1  -3  12   39.20    2.39
  -1   3  12   39.77    2.08
   1   3 -12   41.31    1.52
   0  -3  12  135.37    5.22
   0  -3 -12  148.16    4.72
   0   3  12  138.82    5.00
  -1  -3 -12    9.70    1.19
   1  -3  12   12.89    1.75
   1   3  12   14.25    1.65
  -1   3 -12   11.95    0.82
   2  -3  12   58.01    3.38
  -2  -3 -12   58.54    2.59
   2   3  12   52.93    2.99
  -2   3 -12   53.68    2.13
  -3  -3 -12    0.42    0.73
   3  -3  12    0.89    1.30
   3   3  12   -0.03    0.97
  -3   3 -12    1.15    0.68
  -4  -3 -12   17.74    1.74
   4  -3  12   18.38    2.52
  -4   3 -12   18.44    1.71
   4   3  12   13.19    2.01
  -5  -3 -12   54.80    1.97
   5  -3  12   52.28    3.66
  -5  -3 -12   47.28    2.82
   5   3  12   47.89    3.33
  -5   3 -12   56.60    3.01
  -6  -3 -12   24.83    2.50
   6  -3  12   31.47    3.20
  -6  -3 -12   31.38    1.65
   6   3  12   34.10    3.29
  -6   3 -12   31.94    2.75
  -7  -3 -12    2.26    0.98
  -7  -3 -12    1.87    1.43
  -7   3 -12    1.61    1.30
   7   3  12    0.95    1.63
  -8  -3 -12    0.07    1.06
  -8  -3 -12    2.41    1.69
   8   3  12   -0.63    1.47
  -8   3 -12   -0.11    1.45
  -9  -3 -12    2.79    1.29
  -9  -3 -12    3.67    1.81
  -9   3 -12    0.42    1.71
   9   3  12    1.67    1.86
   9   3  12   -0.77    1.54
 -10  -3 -12   36.79    2.44
 -10  -3 -12   30.66    3.86
 -10   3 -12   30.91    3.64
  10   3  12   39.89    4.22
  10   3  12   33.20    3.54
 -11  -3 -12    2.03    1.41
  11   3  12   -1.04    1.79
  11   4 -12   -0.17    1.86
 -10  -4  12   28.04    2.33
  10   4 -12   25.61    3.26
 -10   4  12   36.25    4.00
  -9  -4  12   -2.16    1.19
  -9   4  12    4.41    1.95
   9   4 -12    2.33    1.90
  -8  -4  12   -0.95    1.14
  -8   4  12   -2.61    1.25
  -7  -4  12    0.34    1.06
  -7  -4  12   -1.01    1.24
  -7   4  12    0.00    1.49
  -6  -4  12   69.72    3.97
  -6  -4  12   63.77    2.72
  -6   4  12   66.03    4.13
  -5  -4  12    6.41    1.59
   5  -4 -12    1.08    1.19
  -5  -4  12    2.63    0.77
  -5   4  12    2.55    1.37
   4  -4 -12    4.65    1.41
  -4  -4  12    4.71    1.44
   3  -4 -12   17.79    1.99
  -3  -4  12   13.23    1.82
  -2  -4  12   96.97    4.49
   2  -4 -12  107.40    4.17
  -2   4  12  100.23    3.80
   2   4 -12  101.10    3.08
   1  -4 -12   13.77    1.56
   1  -4 -12   12.79    1.53
  -1  -4  12   12.89    1.84
  -1   4  12   16.63    1.71
   0  -4 -12   60.44    2.85
   0  -4 -12   54.14    2.95
   0  -4  12   60.24    3.40
   0   4  12   53.97    2.92
  -1  -4 -12    7.64    1.22
  -1  -4 -12    6.36    1.41
   1  -4  12    6.53    1.50
   1   4  12    5.81    1.39
  -2  -4 -12   -0.22    1.06
   2  -4  12    0.26    1.11
  -2  -4 -12    2.19    0.90
   2   4  12   -0.52    1.00
  -2   4 -12   -1.03    0.53
  -3  -4 -12    1.04    0.89
   3  -4  12    3.21    1.49
  -3   4 -12   -0.30    0.70
   3   4  12   -0.07    1.11
   4  -4  12    5.29    1.76
  -4  -4 -12    5.61    1.27
  -4   4 -12    4.63    1.18
   4   4  12    4.70    1.60
  -5  -4 -12    0.46    1.02
   5  -4  12    0.10    1.41
   5   4  12    2.49    1.53
  -5   4 -12    0.63    1.02
  -6  -4 -12    0.62    1.18
   6  -4  12    0.89    1.57
  -6   4 -12   -0.35    1.17
   6   4  12   -0.37    1.48
  -7  -4 -12   -0.65    1.16
  -7   4 -12   -0.26    1.34
   7   4  12    3.53    1.78
  -8  -4 -12   10.75    2.27
   8   4  12    6.40    2.23
  -8   4 -12    9.45    2.11
  -9  -4 -12   -0.16    1.81
   9   4  12   -0.15    1.68
  -9   4 -12    0.73    1.76
 -10  -4 -12    0.07    2.23
 -10   4 -12   -0.89    1.75
  10   4  12    0.24    1.92
  -9   5  12    9.82    2.60
  -8  -5  12   -0.42    1.79
  -8   5  12    3.27    1.98
  -7  -5  12    0.81    1.53
  -7   5  12    0.99    1.77
  -6  -5  12    3.78    1.73
  -6   5  12    5.94    1.97
  -5  -5  12   49.03    3.56
   5  -5 -12   47.75    3.42
  -5   5  12   55.40    3.68
  -4  -5  12    9.65    2.01
   4  -5 -12    8.79    1.72
  -4   5  12    8.95    1.79
   3  -5 -12   15.72    1.97
  -3  -5  12   15.96    2.27
   2  -5 -12   -0.15    0.91
  -2  -5  12   -1.56    1.07
   2  -5 -12    0.08    0.92
  -2   5  12   -1.51    0.80
   1  -5 -12    1.95    1.00
  -1  -5  12   -1.05    1.16
   1  -5 -12    3.42    1.22
  -1   5  12    2.24    1.14
   0  -5 -12   28.56    2.58
   0  -5  12   28.13    2.88
   0  -5 -12   28.38    2.32
   0   5  12   25.72    2.45
   1  -5  12   36.46    3.30
  -1  -5 -12   39.56    2.85
  -1  -5 -12   34.84    2.32
   1   5  12   34.42    2.99
  -2  -5 -12   38.16    2.52
   2  -5  12   44.15    3.70
  -2  -5 -12   46.17    3.22
   2   5  12   39.81    3.40
  -3  -5 -12    6.71    1.35
  -3  -5 -12    9.95    2.04
   3  -5  12    4.26    1.68
   3   5  12    7.40    1.84
  -4  -5 -12    6.70    1.49
   4  -5  12    5.28    1.81
   4   5  12    6.82    1.90
   5  -5  12   82.25    4.53
  -5  -5 -12   77.24    3.93
  -5   5 -12   83.06    3.91
   5   5  12   75.08    4.81
  -6  -5 -12    5.82    1.65
   6   5  12    7.39    2.14
  -6   5 -12    6.85    1.78
  -7  -5 -12    3.86    1.71
  -7   5 -12    5.62    1.79
   7   5  12    3.40    2.10
  -8  -5 -12    2.04    1.94
   8   5  12    5.35    2.39
  -8   5 -12    3.60    1.81
  -9  -5 -12   14.16    2.90
  -9   5 -12    7.06    2.32
   9   5  12    6.98    2.52
  10   5  12    3.54    2.30
  -8  -6  12   11.67    2.74
  -8   6  12    6.61    2.45
  -7  -6  12    1.45    1.76
  -7   6  12    3.61    2.02
  -6  -6  12   10.32    2.39
  -6   6  12    9.69    2.35
  -5  -6  12    8.35    2.22
  -5   6  12    1.38    1.71
   4  -6 -12    7.04    1.86
  -4  -6  12    7.89    2.15
  -4   6  12    7.18    1.90
  -3  -6  12    6.95    2.11
   3  -6 -12    3.94    1.49
   2  -6 -12    8.88    1.70
  -2  -6  12   11.64    2.19
   1  -6 -12    0.24    1.13
   1  -6 -12    0.53    1.04
  -1  -6  12    0.58    1.43
  -1   6  12   -0.07    1.13
   0  -6  12    3.06    1.58
   0  -6 -12    0.25    1.11
   0  -6 -12    3.62    1.41
   0   6  12    1.97    1.32
   1  -6  12    4.69    1.93
  -1  -6 -12    5.16    1.36
  -1  -6 -12    8.51    1.89
   1   6  12    9.27    1.99
   2  -6  12   -0.67    1.49
  -2  -6 -12    0.83    1.43
  -2  -6 -12   -0.50    0.97
   2   6  12    1.38    1.53
  -3  -6 -12   -0.62    1.59
   3  -6  12   -1.33    1.45
  -3  -6 -12   -0.29    1.07
   3   6  12   -1.29    1.48
  -4  -6 -12    0.01    1.70
  -4  -6 -12   -0.24    1.06
   4  -6  12   -1.26    1.44
   4   6  12    1.64    1.85
  -5  -6 -12    1.36    1.39
   5  -6  12    0.25    1.63
   5   6  12   -0.30    1.67
  -6  -6 -12    0.28    1.54
   6   6  12    0.61    1.98
  -7  -6 -12   14.78    2.70
   7   6  12    9.62    2.79
   8   6  12    0.07    2.06
   9   6  12    0.35    2.15
  -8  -7  12   -0.30    1.91
  -7  -7  12   -1.81    1.87
  -7   7  12    0.88    1.98
  -6  -7  12    1.55    2.11
  -6   7  12   -1.42    1.85
  -5  -7  12   -0.06    1.89
  -5   7  12    1.29    1.78
   4  -7 -12    2.14    1.59
  -4  -7  12    1.98    2.00
  -4   7  12    2.47    1.77
   3  -7 -12    1.79    1.49
  -3  -7  12    4.02    2.04
   2  -7 -12   -0.39    1.27
  -2  -7  12   -1.34    1.48
   1  -7 -12   10.77    2.04
   1  -7 -12   16.35    2.26
  -1  -7  12   11.12    2.71
  -1   7  12   13.61    2.19
   0  -7  12   36.49    4.02
   0  -7 -12   37.64    3.17
   0  -7 -12   43.58    3.72
   0   7  12   42.88    3.82
  -1  -7 -12    0.02    1.23
   1  -7  12   -1.24    1.57
  -1  -7 -12   -0.41    1.51
   1   7  12   -0.59    1.47
  -2  -7 -12    6.15    2.13
   2  -7  12    6.51    2.27
  -2  -7 -12    1.90    1.36
   2   7  12    6.42    2.22
  -3  -7 -12    8.59    1.92
  -3  -7 -12    6.68    2.37
   3  -7  12    7.09    2.26
   3   7  12    7.07    2.38
  -4  -7 -12    6.70    1.89
   4  -7  12    3.50    2.03
  -4  -7 -12    4.37    2.21
   4   7  12    5.52    2.43
   5   7  12   -0.81    1.95
   6   7  12   12.92    3.15
   7   7  12    2.48    2.36
   8   7  12   -0.82    2.19
  -7  -8  12    1.61    2.30
  -6  -8  12    8.70    2.75
  -6   8  12    8.40    2.80
  -5  -8  12   -1.47    1.82
  -5   8  12    2.03    2.24
  -4  -8  12    4.08    2.68
  -4   8  12    1.47    1.88
  -3  -8  12   11.07    3.01
   3  -8 -12   13.62    2.55
  -3   8  12    9.02    2.27
  -2  -8  12    7.09    2.76
   2  -8 -12    6.98    2.08
   1  -8 -12    5.44    1.97
  -1  -8  12    6.54    2.65
   0  -8 -12    8.83    2.13
   0  -8 -12   17.48    2.84
   0  -8  12    8.37    2.80
   0   8  12   10.20    2.53
   1  -8  12    7.74    2.76
  -1  -8 -12    3.75    2.05
   1   8  12    3.60    2.08
   2  -8  12    1.57    2.15
  -2  -8 -12    0.35    1.91
   2   8  12   -1.12    1.81
   3  -8  12    1.28    1.99
  -3  -8 -12    1.46    2.09
   3   8  12   -1.03    1.86
   4   8  12    7.91    2.86
   5   8  12   -1.42    2.20
   6   8  12    2.27    2.54
   7   8  12   -0.03    2.41
  -5  -9  12   11.54    3.29
  -4  -9  12    6.33    2.92
  -3  -9  12    2.57    2.65
  -2  -9  12    4.88    2.82
  -1  -9  12   -0.65    2.41
   0  -9  12   -2.65    2.17
   1  -9  12    4.53    2.76
  -1  -9 -12    6.81    2.50
   1   9  12    4.71    2.46
   2  -9  12    2.98    2.54
   2   9  12    9.79    3.06
   3   9  12    0.24    2.26
   4   9  12   -2.44    2.33
   5   9  12   12.94    3.51
  12   0 -13   -0.22    1.07
 -12   0  13   -0.25    1.82
 -11   0  13    1.14    1.88
  11   0 -13    1.70    1.38
 -11   0  13    0.95    1.78
  10   0 -13   -0.27    1.30
 -10   0  13   -4.34    1.29
 -10   0  13    0.89    1.61
   9   0 -13    5.18    1.48
  -9   0  13    6.92    1.94
  -9   0  13    4.28    1.88
   8   0 -13   -0.11    1.12
  -8   0  13    2.16    1.46
  -8   0  13    0.70    1.37
   7   0 -13   13.24    1.70
  -7   0  13   13.44    1.92
  -7   0  13   11.15    1.92
  -6   0  13    0.59    1.07
   6   0 -13    0.30    0.97
  -6   0  13   -0.63    1.05
  -5   0  13    1.36    1.05
  -5   0  13    1.17    1.05
   5   0 -13    1.51    0.99
   4   0 -13   -0.21    0.79
  -4   0  13   -0.51    0.76
  -4   0  13    0.06    0.81
   3   0 -13  118.16    4.05
   3   0 -13  125.51    4.01
  -3   0  13  123.62    4.09
   2   0 -13    0.01    0.51
   2   0 -13   -0.86    0.53
   1   0 -13   -0.35    0.43
  -1   0  13   -0.08    0.59
   0   0 -13    0.54    0.44
   0   0  13    2.09    0.82
   0   0 -13    0.53    0.45
  -1   0 -13  193.81    5.02
  -1   0 -13  188.75    5.58
  -1   0 -13  193.72    5.42
   1   0  13  199.78    6.50
   1   0  13  200.17    5.59
   2   0  13    0.95    0.62
   2   0  13   -0.28    0.82
  -2   0 -13   -0.02    0.41
  -2   0 -13    0.38    0.47
  -2   0 -13   -0.05    0.48
  -3   0 -13    1.18    0.65
   3   0  13    0.92    1.17
   3   0  13    2.24    0.78
  -3   0 -13    1.63    0.63
  -4   0 -13    0.43    0.62
  -4   0 -13   -0.88    0.70
   4   0  13    1.34    0.84
   4   0  13   -1.41    1.16
   5   0  13   -0.45    0.88
  -5   0 -13   -0.56    0.80
  -5   0 -13   -0.13    0.75
   5   0  13   -0.26    1.36
   6   0  13   -0.02    1.00
  -6   0 -13   -1.67    0.72
  -6   0 -13   -0.49    0.89
   6   0  13    0.11    1.35
   7   0  13   66.52    3.66
  -7   0 -13   78.25    4.14
   7   0  13   75.57    4.50
  -7   0 -13   79.05    3.52
   8   0  13   -0.05    1.54
   8   0  13    0.15    1.35
  -8   0 -13   -1.00    1.05
  -8   0 -13    1.17    1.40
  -9   0 -13   -1.01    1.22
   9   0  13    0.97    1.46
  -9   0 -13   -0.10    1.53
  10   0  13    2.58    1.61
 -10   0 -13   -0.50    1.51
 -10   0 -13    0.49    1.66
 -11   0 -13   11.22    1.78
 -11   0 -13   11.67    2.73
 -11   0 -13   14.86    2.51
  11   0  13   14.78    2.22
  12   0  13   -0.61    1.49
 -12   0 -13    1.45    1.86
 -12  -1  13    1.32    1.82
  12   1 -13    1.01    1.53
 -11  -1  13   -3.54    1.48
  11   1 -13   -0.71    1.42
 -11   1  13    2.62    1.94
  10  -1 -13   19.27    1.45
 -10  -1  13   28.59    3.21
 -10  -1  13   21.97    2.77
  10   1 -13   20.87    2.51
 -10   1  13   18.98    2.79
   9  -1 -13   15.15    1.62
  -9  -1  13   17.15    2.53
  -9  -1  13   15.47    2.42
   9   1 -13   16.12    2.20
  -9   1  13   16.96    2.56
   8  -1 -13   15.65    1.67
  -8  -1  13   16.69    2.33
  -8  -1  13   13.96    2.13
  -8   1  13   12.91    2.16
   8   1 -13   14.68    2.02
  -7  -1  13    0.88    1.28
   7  -1 -13    1.25    1.06
  -7  -1  13    1.04    1.25
   7   1 -13    0.36    1.09
  -7   1  13    0.81    1.32
   6  -1 -13    6.85    1.22
  -6  -1  13   12.04    1.74
  -6  -1  13    7.16    1.48
   6   1 -13   10.72    1.60
  -6   1  13    8.08    1.64
   5  -1 -13   30.90    1.84
  -5  -1  13   35.00    2.33
  -5  -1  13   30.88    2.35
  -5  -1  13   28.34    1.74
  -5   1  13   35.01    2.65
   5   1 -13   23.57    2.09
  -4  -1  13  112.14    3.82
  -4  -1  13  111.61    4.04
   4  -1 -13  109.22    3.67
  -4  -1  13  113.53    4.20
   4  -1 -13  111.46    4.19
  -4   1  13  104.99    4.17
   4   1 -13  105.52    3.90
  -3  -1  13    3.03    0.79
   3  -1 -13    0.92    0.71
  -3  -1  13    3.68    0.80
   3  -1 -13    2.02    0.79
  -3  -1  13    1.40    0.87
   3   1 -13    3.10    0.85
  -2  -1  13    1.03    0.69
  -2  -1  13    1.60    0.77
   2  -1 -13    2.03    0.68
   2  -1 -13    2.35    0.65
   2   1 -13    2.16    0.55
   1  -1 -13   14.72    1.02
  -1  -1  13   15.34    1.46
   1  -1 -13   15.10    1.21
  -1  -1  13   15.35    1.29
   1   1 -13   15.56    0.91
   1   1 -13   16.54    1.17
  -1   1  13   17.35    1.39
   0  -1 -13  203.77    5.88
   0  -1  13  200.64    5.84
   0  -1  13  208.01    6.59
   0   1 -13  205.14    5.55
   0   1 -13  205.40    5.26
   0   1  13  198.04    6.39
  -1  -1 -13   19.93    1.06
   1  -1  13   20.04    1.89
   1  -1  13   18.20    1.32
  -1  -1 -13   18.44    1.24
  -1   1 -13   19.47    1.01
   1   1  13   24.59    1.95
  -1   1 -13   20.59    1.10
  -2  -1 -13   41.56    1.73
   2  -1  13   45.84    2.03
   2  -1  13   43.95    2.69
  -2  -1 -13   46.53    2.06
  -2   1 -13   44.83    1.84
  -2   1 -13   43.33    1.89
   2   1  13   44.31    2.54
   3  -1  13   23.95    2.45
  -3  -1 -13   22.82    1.10
  -3  -1 -13   22.34    1.32
   3  -1  13   23.59    1.56
  -3  -1 -13   21.97    1.55
   3   1  13   23.55    2.25
  -3   1 -13   23.87    1.42
   3   1  13   24.95    1.62
  -3   1 -13   21.18    1.52
   4  -1  13   27.44    2.81
   4  -1  13   25.74    1.88
  -4  -1 -13   23.66    1.26
  -4  -1 -13   27.86    1.88
  -4  -1 -13   25.73    1.52
   4   1  13   25.63    2.53
  -4   1 -13   29.53    1.86
  -4   1 -13   26.59    1.64
   4   1  13   27.13    2.02
   5  -1  13   38.88    2.33
  -5  -1 -13   39.63    2.47
  -5  -1 -13   42.02    2.16
  -5  -1 -13   37.70    1.77
   5  -1  13   41.72    3.58
  -5   1 -13   43.27    2.23
  -5   1 -13   41.70    2.48
   5   1  13   39.24    3.34
   5   1  13   44.08    2.55
   6  -1  13    9.38    1.56
  -6  -1 -13   10.79    1.10
  -6  -1 -13   11.74    1.43
  -6  -1 -13    8.43    1.63
   6  -1  13   12.48    2.31
  -6   1 -13   12.82    1.57
   6   1  13    9.85    1.69
  -6   1 -13   10.33    1.75
   6   1  13    9.64    2.04
  -7  -1 -13    0.41    1.01
  -7  -1 -13    1.21    0.83
  -7  -1 -13    0.02    1.26
   7  -1  13   -2.83    1.34
   7  -1  13    2.69    1.24
   7   1  13    1.31    1.26
   7   1  13   -0.89    1.34
  -7   1 -13   -1.19    0.94
  -7   1 -13    2.10    1.29
  -8  -1 -13   -1.02    1.11
   8  -1  13    0.44    1.58
  -8  -1 -13   -0.66    0.87
   8  -1  13    0.42    1.32
  -8  -1 -13    1.18    1.43
  -8   1 -13    0.81    1.24
   8   1  13   -0.69    1.35
  -8   1 -13    2.41    1.57
   8   1  13    0.21    1.59
  -9  -1 -13   -0.85    1.47
   9  -1  13    0.68    1.40
  -9  -1 -13    0.06    1.39
  -9  -1 -13    1.88    1.09
  -9   1 -13    0.61    1.56
   9   1  13   -0.26    1.76
  -9   1 -13   -0.54    1.39
   9   1  13    0.82    1.48
  10  -1  13   14.63    2.13
 -10  -1 -13   23.40    3.19
 -10  -1 -13   15.57    2.43
 -10   1 -13   22.45    2.75
 -10   1 -13   18.95    3.04
  10   1  13   17.93    2.54
 -11  -1 -13   -1.37    1.55
 -11  -1 -13   -1.66    1.58
  11  -1  13   -0.24    1.28
 -11   1 -13    0.88    2.08
  11   1  13   -1.25    1.43
 -11   1 -13   -2.22    1.58
 -12  -1 -13    0.76    1.72
  12   1  13   -0.66    1.63
 -12   1 -13   -3.14    1.66
 -12  -2  13   -0.57    1.68
  12   2 -13    1.02    1.77
 -11  -2  13   -0.49    1.61
 -11   2  13    2.44    1.94
  11   2 -13    1.52    1.69
 -10  -2  13   29.20    3.02
  10   2 -13   30.02    3.01
 -10   2  13   28.77    3.47
  -9  -2  13   -0.06    1.51
  -9   2  13   -0.55    1.60
   9   2 -13    1.44    1.55
  -8  -2  13   31.95    2.90
   8   2 -13   34.01    2.98
  -8   2  13   42.59    3.67
  -7  -2  13    1.79    1.41
  -7  -2  13    1.10    1.31
   7   2 -13    2.28    1.31
  -7   2  13   -1.32    1.10
  -6  -2  13   76.60    3.45
  -6  -2  13   77.05    3.57
  -6  -2  13   75.80    3.74
  -6   2  13   75.55    4.11
  -5  -2  13    6.14    1.30
  -5  -2  13    4.59    1.10
  -5  -2  13    4.15    1.18
   5   2 -13    6.49    1.28
  -5   2  13    5.01    1.38
   4  -2 -13  125.60    4.71
  -4  -2  13  123.41    4.46
  -4  -2  13  126.75    4.51
  -4  -2  13  116.53    4.19
   4   2 -13  129.96    4.41
  -3  -2  13   16.48    1.58
  -3  -2  13   10.09    1.36
   3  -2 -13   12.98    1.45
  -3  -2  13   12.28    1.06
   3   2 -13   14.29    1.36
  -2  -2  13    8.29    1.21
   2  -2 -13    8.43    1.14
  -2  -2  13    9.57    1.22
  -1  -2  13   -0.44    0.63
   1  -2 -13    0.29    0.54
  -1  -2  13    0.17    0.72
   1   2 -13    0.20    0.42
  -1   2  13    0.13    0.61
   0  -2 -13   21.05    1.39
   0  -2  13   20.38    1.48
   0  -2  13   16.74    1.72
   0   2 -13   18.92    0.83
   0   2 -13   20.79    1.07
   0   2  13   18.02    1.62
   1  -2  13   -0.37    0.83
  -1  -2 -13    0.66    0.58
   1  -2  13    0.22    0.69
   1   2  13    0.24    0.80
  -1   2 -13   -0.11    0.38
  -2  -2 -13   33.43    1.92
   2  -2  13   33.73    1.82
   2  -2  13   35.74    2.87
  -2  -2 -13   34.76    1.33
  -2   2 -13   33.23    1.62
   2   2  13   32.25    2.36
  -3  -2 -13    2.63    0.60
   3  -2  13    0.76    0.76
  -3  -2 -13    2.26    0.85
   3  -2  13    0.50    1.25
   3   2  13    3.23    1.25
  -3   2 -13    0.92    0.68
   4  -2  13   50.94    4.07
   4  -2  13   52.57    2.50
  -4  -2 -13   57.05    2.16
  -4  -2 -13   56.54    2.73
   4   2  13   58.71    3.39
  -4   2 -13   52.48    2.43
  -4   2 -13   58.72    2.69
   4   2  13   53.10    2.64
   5  -2  13    0.83    1.03
   5  -2  13   -0.14    1.50
  -5  -2 -13    0.69    0.72
  -5  -2 -13    3.32    1.11
  -5   2 -13    0.18    0.80
   5   2  13    0.37    1.05
   5   2  13    3.02    1.34
  -6  -2 -13   48.99    3.16
   6  -2  13   49.81    2.72
   6  -2  13   53.71    3.85
  -6  -2 -13   54.44    2.48
   6   2  13   50.96    3.59
  -6   2 -13   50.08    3.02
   6   2  13   51.98    3.07
   7  -2  13    0.38    1.58
  -7  -2 -13    1.23    1.20
   7  -2  13    1.45    1.20
  -7  -2 -13    1.72    1.02
  -7   2 -13   -0.35    1.22
   7   2  13    0.91    1.54
   7   2  13    0.10    1.26
  -8  -2 -13    5.66    1.79
   8  -2  13    8.33    1.59
  -8  -2 -13    8.03    1.52
   8   2  13    5.85    1.70
  -8   2 -13    6.05    1.78
   8   2  13    7.56    2.20
   9  -2  13    2.22    1.16
  -9  -2 -13    2.64    1.44
  -9  -2 -13    2.31    1.64
   9   2  13    0.91    1.83
  -9   2 -13    0.02    1.45
   9   2  13    3.23    1.65
 -10  -2 -13    4.78    2.19
 -10  -2 -13    2.28    1.59
 -10   2 -13    5.41    2.14
  10   2  13    5.14    1.82
 -11  -2 -13    0.74    1.60
  11   2  13    2.27    1.86
 -12  -3  13    2.86    1.67
  12   3 -13   -1.24    1.71
 -11  -3  13   -0.30    1.54
  11   3 -13    2.05    1.81
 -10  -3  13   10.16    2.03
  10   3 -13   10.26    2.23
 -10   3  13    9.98    2.37
  -9  -3  13    9.02    1.93
  -9   3  13   16.38    2.69
   9   3 -13    9.79    2.16
  -8  -3  13    4.78    1.66
  -8   3  13    5.32    2.01
   8   3 -13    9.37    2.03
  -7  -3  13    2.83    1.42
  -7   3  13    8.33    2.08
   7   3 -13    7.16    1.82
  -6  -3  13   11.04    1.69
  -6  -3  13    8.79    1.54
   6   3 -13   11.26    1.80
  -6   3  13    7.89    1.88
   5  -3 -13   31.44    2.87
  -5  -3  13   41.57    2.62
  -5  -3  13   38.55    2.38
  -5   3  13   39.83    2.82
   5   3 -13   39.78    2.52
   4  -3 -13   64.83    3.31
  -4  -3  13   65.68    3.25
  -4  -3  13   67.96    2.95
   4   3 -13   65.48    3.08
  -3  -3  13    7.51    1.12
   3  -3 -13   12.57    1.58
  -3  -3  13    9.94    1.51
  -2  -3  13    6.43    1.29
   2  -3 -13    7.42    1.18
  -2  -3  13    8.99    1.02
   2   3 -13    8.93    0.86
  -2   3  13    9.06    1.09
  -1  -3  13    0.23    0.80
  -1  -3  13   -0.11    0.54
   1  -3 -13    1.11    0.75
  -1   3  13   -0.25    0.69
   1   3 -13   -0.29    0.40
   0  -3 -13   75.65    2.99
   0  -3  13   77.74    3.55
   0  -3  13   72.53    2.19
   0   3  13   68.20    3.16
  -1  -3 -13   25.15    1.85
   1  -3  13   20.79    2.23
   1   3  13   25.05    2.16
  -1   3 -13   22.48    1.11
  -2  -3 -13   30.93    1.93
   2  -3  13   29.92    2.81
  -2   3 -13   29.87    1.51
   2   3  13   31.75    2.61
   3  -3  13   21.90    2.64
  -3  -3 -13   28.23    1.90
  -3   3 -13   26.30    1.61
   3   3  13   24.93    2.46
   4  -3  13   20.67    2.69
  -4  -3 -13   17.22    1.75
   4   3  13   21.16    2.47
  -4   3 -13   18.28    1.69
  -5  -3 -13   64.96    3.31
  -5  -3 -13   66.38    2.23
   5  -3  13   57.65    3.98
   5   3  13   58.21    3.80
  -5   3 -13   66.62    3.15
  -6  -3 -13    7.81    1.58
  -6  -3 -13    6.91    1.00
   6  -3  13    8.67    2.16
   6   3  13    8.14    1.96
  -6   3 -13    6.31    1.41
  -7  -3 -13    4.23    1.55
   7  -3  13    7.95    2.12
  -7  -3 -13    6.72    1.16
   7   3  13    5.26    1.94
  -7   3 -13    6.15    1.73
  -8  -3 -13    0.09    0.99
  -8  -3 -13    0.89    1.45
   8   3  13    2.45    1.77
  -8   3 -13    1.20    1.51
  -9  -3 -13    1.90    1.26
  -9  -3 -13   -0.11    1.54
   9   3  13    2.01    1.94
   9   3  13    1.46    1.74
  -9   3 -13    4.98    1.94
 -10  -3 -13    9.03    1.64
 -10  -3 -13   12.51    2.77
  10   3  13    6.82    2.27
 -10   3 -13    9.27    2.51
  10   3  13   10.29    2.66
 -11  -3 -13    0.21    1.30
  11   3  13   -1.21    1.84
  11   4 -13    0.47    1.88
 -10  -4  13    8.19    1.68
  10   4 -13   10.25    2.44
 -10   4  13    8.92    2.49
  -9  -4  13    3.43    1.47
   9   4 -13    1.84    1.81
  -9   4  13   -0.06    1.76
  -8  -4  13   10.86    1.68
  -8   4  13   13.26    2.57
  -7  -4  13    8.01    1.48
  -7  -4  13    7.64    1.87
  -7   4  13    4.33    1.89
  -6  -4  13    0.97    1.30
  -6  -4  13    3.30    1.09
  -6   4  13    5.13    1.81
   5  -4 -13   -2.93    0.89
  -5  -4  13   -0.09    0.75
  -5  -4  13   -0.85    1.11
  -5   4  13   -1.07    1.04
   4  -4 -13   13.91    1.94
  -4  -4  13   10.35    1.79
   3  -4 -13   58.60    3.20
  -3  -4  13   59.73    3.31
  -2  -4  13   38.56    2.76
   2  -4 -13   38.18    2.41
  -2   4  13   40.90    2.20
   2   4 -13   40.95    1.73
   1  -4 -13    0.76    0.87
  -1  -4  13    1.24    1.01
  -1   4  13   -0.47    0.78
   0  -4 -13    6.59    1.37
   0  -4 -13    3.75    1.00
   0  -4  13    6.55    1.51
   0   4  13    5.99    1.29
   1  -4  13   62.20    3.66
  -1  -4 -13   66.56    3.09
  -1  -4 -13   64.14    3.42
   1   4  13   64.30    3.42
  -2  -4 -13    3.96    1.02
   2  -4  13    3.63    1.58
   2   4  13    4.34    1.36
  -3  -4 -13    1.60    0.94
   3  -4  13   -0.67    1.38
   3   4  13    1.19    1.34
  -3   4 -13    1.90    0.81
   4  -4  13   -0.89    1.43
  -4  -4 -13    0.43    0.93
  -4   4 -13   -0.10    0.82
   4   4  13    0.23    1.24
   5  -4  13    0.20    1.57
  -5  -4 -13   -0.59    0.99
  -5   4 -13   -0.43    0.90
   5   4  13   -0.25    1.28
   6  -4  13   -0.89    1.56
  -6  -4 -13    0.72    1.24
  -6   4 -13    1.96    1.31
   6   4  13    0.61    1.69
  -7  -4 -13   39.78    3.49
   7   4  13   34.82    3.74
  -7   4 -13   41.28    3.34
  -8  -4 -13    0.44    1.54
  -8   4 -13   -0.11    1.50
   8   4  13    0.48    1.68
  -9  -4 -13    0.68    1.99
   9   4  13   -0.55    1.83
  -9   4 -13   -1.46    1.51
 -10  -4 -13   -1.43    2.00
 -10   4 -13    2.44    2.06
  10   4  13    0.34    1.99
  -9   5  13    7.45    2.53
  -8  -5  13   10.23    2.46
  -8   5  13   11.07    2.57
  -7  -5  13    2.19    1.65
  -7   5  13   -0.72    1.62
  -6  -5  13    4.26    1.79
  -6   5  13    5.35    1.95
   5  -5 -13    6.33    1.88
  -5  -5  13    6.55    1.85
  -5   5  13    6.93    1.92
   4  -5 -13   38.10    3.10
  -4  -5  13   29.18    3.06
   3  -5 -13   -0.30    1.01
  -3  -5  13    2.22    1.35
   2  -5 -13    1.43    1.00
  -2  -5  13    1.18    1.19
   2  -5 -13    1.27    1.12
   1  -5 -13   23.96    2.26
   1  -5 -13   24.39    2.25
  -1  -5  13   18.82    2.53
  -1   5  13   24.88    2.24
   0  -5  13  152.63    6.43
   0  -5 -13  146.88    5.75
   0  -5 -13  145.81    5.42
   0   5  13  147.71    5.81
   1  -5  13    1.87    1.35
  -1  -5 -13    1.46    1.18
  -1  -5 -13    0.84    0.99
   1   5  13    1.09    1.15
  -2  -5 -13    6.14    1.37
   2  -5  13    5.73    1.83
  -2  -5 -13    2.57    1.52
   2   5  13    6.84    1.80
   3  -5  13    1.68    1.55
  -3  -5 -13    0.61    0.99
   3   5  13    2.15    1.51
  -4  -5 -13    9.99    1.72
   4  -5  13   12.01    2.36
   4   5  13    6.47    1.95
  -5  -5 -13   -0.56    1.14
   5  -5  13   -0.33    1.44
   5   5  13   -0.27    1.39
  -6  -5 -13   12.26    2.09
   6   5  13   10.93    2.49
  -6   5 -13   11.84    2.01
  -7  -5 -13    2.84    1.71
   7   5  13    1.97    2.02
  -7   5 -13    3.62    1.65
  -8  -5 -13    0.15    1.62
  -8   5 -13    1.52    1.69
   8   5  13    1.14    2.02
  -9  -5 -13    1.95    2.30
   9   5  13    1.15    2.11
  -9   5 -13    1.08    1.79
  10   5  13    4.99    2.51
  -8  -6  13    4.14    2.12
  -8   6  13    8.73    2.56
  -7  -6  13    1.00    1.69
  -7   6  13    0.50    1.91
  -6  -6  13    9.29    2.42
  -6   6  13    6.67    2.17
  -5  -6  13    9.66    2.35
  -5   6  13    8.88    2.10
   4  -6 -13   14.48    2.32
  -4  -6  13   10.49    2.33
  -4   6  13   15.16    2.27
  -3  -6  13   19.62    2.81
   3  -6 -13   19.28    2.47
  -2  -6  13    0.35    1.43
   2  -6 -13   -1.37    1.08
  -1  -6  13    4.61    1.69
   1  -6 -13    0.33    1.14
   1  -6 -13    0.30    1.14
  -1   6  13   -0.49    1.16
   0  -6 -13    2.10    1.24
   0  -6 -13    3.35    1.42
   0  -6  13    2.37    1.72
   0   6  13    2.35    1.37
  -1  -6 -13    0.57    1.32
   1  -6  13    1.67    1.71
  -1  -6 -13    0.73    1.11
   1   6  13    0.90    1.37
  -2  -6 -13   27.44    3.07
  -2  -6 -13   22.53    2.29
   2  -6  13   22.28    3.05
   2   6  13   22.37    2.95
  -3  -6 -13    0.56    1.63
   3  -6  13    2.60    1.81
  -3  -6 -13    2.94    1.18
   3   6  13    1.51    1.69
   4  -6  13    6.01    2.00
  -4  -6 -13    5.97    1.61
   4   6  13    7.53    2.24
  -5  -6 -13    0.64    1.31
   5  -6  13    0.31    1.66
   5   6  13    1.62    1.92
  -6  -6 -13   24.04    2.85
   6   6  13   15.64    3.06
  -7  -6 -13    3.92    2.00
   7   6  13    7.03    2.66
   8   6  13    3.00    2.41
   9   6  13    5.38    2.66
  -8  -7  13    2.02    2.27
  -7  -7  13    4.02    2.27
  -7   7  13    5.20    2.48
  -6  -7  13    1.96    2.20
  -6   7  13    5.50    2.34
  -5  -7  13   23.19    3.48
  -5   7  13   20.70    3.05
  -4  -7  13   13.10    2.85
   4  -7 -13   13.47    2.45
  -4   7  13   11.73    2.43
   3  -7 -13    0.09    1.44
  -3  -7  13    2.14    1.92
   2  -7 -13   12.56    2.18
  -2  -7  13    9.81    2.63
   1  -7 -13    0.51    1.34
  -1  -7  13    0.66    1.80
   1  -7 -13    0.69    1.37
  -1   7  13   -1.33    1.26
   0  -7 -13    2.42    1.41
   0  -7  13    2.81    1.96
   0  -7 -13   -0.09    1.42
   0   7  13   -0.20    1.48
   1  -7  13    1.90    1.84
  -1  -7 -13    4.98    1.98
  -1  -7 -13    4.74    1.67
   1   7  13    2.12    1.77
  -2  -7 -13   12.49    2.08
   2  -7  13   18.33    3.00
  -2  -7 -13   14.52    2.70
   2   7  13   13.96    2.77
  -3  -7 -13    2.25    1.86
  -3  -7 -13    2.70    1.56
   3  -7  13    4.90    2.20
   3   7  13    6.21    2.17
  -4  -7 -13    2.72    1.69
   4  -7  13   -0.01    1.95
   4   7  13    4.15    2.24
  -5  -7 -13   18.79    2.65
   5   7  13   19.06    3.43
   6   7  13    0.51    2.28
   7   7  13   -2.05    2.12
   8   7  13    3.46    2.54
  -7  -8  13   -0.07    2.22
  -6  -8  13    1.17    2.24
  -5  -8  13   -3.44    1.87
  -5   8  13    0.54    2.03
  -4  -8  13    6.27    2.72
  -4   8  13    8.30    2.37
  -3  -8  13   11.78    3.09
   3  -8 -13    9.01    2.29
  -3   8  13    9.60    2.40
  -2  -8  13   18.60    3.38
   2  -8 -13    9.79    2.20
   1  -8 -13   -0.10    1.50
  -1  -8  13    1.35    2.11
   0  -8 -13    2.13    1.60
   0  -8  13   -0.62    2.11
   0  -8 -13   -1.60    1.61
   0   8  13    1.52    1.75
  -1  -8 -13    5.78    2.14
   1  -8  13    6.01    2.78
   1   8  13    3.87    2.14
   2  -8  13    6.16    2.52
  -2  -8 -13    5.45    2.28
   2   8  13    2.77    2.12
   3  -8  13   -0.84    1.95
   3   8  13    1.01    2.15
   4   8  13    3.70    2.49
   5   8  13    1.57    2.41
   6   8  13    1.20    2.28
   7   8  13    4.68    2.91
  -5  -9  13    2.07    2.51
  -4  -9  13    7.21    3.03
  -3  -9  13    0.91    2.64
  -2  -9  13    0.80    2.46
  -1  -9  13    3.61    2.77
   0  -9  13   22.97    4.22
   1  -9  13    2.12    2.58
   1   9  13   -0.12    2.20
   2  -9  13    3.31    2.70
   2   9  13   -0.44    2.20
   3  -9  13    3.93    2.82
   3   9  13    4.97    2.85
   4   9  13    6.06    2.82
 -12   0  14    8.05    2.36
  12   0 -14    8.16    1.30
 -11   0  14   -0.80    1.71
 -11   0  14   -0.30    1.79
  11   0 -14   -0.49    1.25
 -10   0  14    7.83    2.24
  10   0 -14    9.75    1.77
 -10   0  14    6.89    2.13
  -9   0  14    0.69    1.56
   9   0 -14    0.09    1.27
  -9   0  14    0.49    1.61
   8   0 -14  172.01    6.02
  -8   0  14  169.37    6.83
  -8   0  14  177.77    6.57
  -7   0  14    0.12    1.19
  -7   0  14    0.50    1.21
   7   0 -14   -0.40    1.11
  -6   0  14    1.34    1.10
   6   0 -14   -0.43    0.94
  -6   0  14    0.78    1.08
  -5   0  14    0.31    0.98
  -5   0  14    0.93    0.99
   5   0 -14   -0.70    0.86
  -4   0  14  215.29    6.86
   4   0 -14  220.39    6.64
  -4   0  14  223.83    6.75
   3   0 -14    0.55    0.68
   3   0 -14   -0.68    0.66
  -3   0  14   -0.45    0.69
  -2   0  14    8.03    1.02
   2   0 -14    9.36    1.02
   2   0 -14    8.00    0.93
  -2   0  14   10.23    1.13
   1   0 -14    0.21    0.45
  -1   0  14    0.79    0.69
   0   0 -14  222.18    6.21
   0   0 -14  227.61    6.36
   0   0  14  229.52    6.41
   0   0  14  230.11    7.17
  -1   0 -14   -0.05    0.47
   1   0  14   -0.37    0.80
  -1   0 -14    0.01    0.45
  -1   0 -14    0.23    0.40
   1   0  14    0.15    0.57
  -2   0 -14  245.81    6.95
  -2   0 -14  243.26    6.67
   2   0  14  239.42    8.03
  -2   0 -14  240.32    6.18
   2   0  14  235.48    6.81
  -3   0 -14    0.04    0.57
  -3   0 -14    0.53    0.48
   3   0  14   -2.48    0.86
   3   0  14   -0.08    0.65
  -3   0 -14    0.03    0.58
  -4   0 -14   63.72    2.89
   4   0  14   63.92    3.80
  -4   0 -14   68.08    2.65
   4   0  14   61.25    2.82
   5   0  14    0.64    0.98
  -5   0 -14   -0.24    0.76
   5   0  14   -0.02    1.30
  -5   0 -14   -0.22    0.84
   6   0  14   72.90    4.30
  -6   0 -14   69.56    3.18
  -6   0 -14   67.32    3.54
   6   0  14   71.09    3.48
   7   0  14    1.13    1.27
  -7   0 -14   -0.37    0.97
  -7   0 -14    0.73    1.17
   7   0  14    0.59    1.60
   8   0  14   20.80    2.98
  -8   0 -14   20.06    2.22
   8   0  14   17.37    2.30
  -8   0 -14   19.94    2.70
   9   0  14   -1.08    1.42
  -9   0 -14    0.85    1.70
  -9   0 -14    0.04    1.38
 -10   0 -14    5.28    2.13
  10   0  14    2.74    1.63
 -10   0 -14    3.73    1.40
 -10   0 -14    1.38    1.65
  11   0  14    0.78    1.61
 -11   0 -14    3.32    1.88
 -11   0 -14   -0.17    1.89
 -12   0 -14   14.21    2.64
  12   0  14   25.03    2.57
 -12  -1  14   -0.86    1.68
  12   1 -14    2.97    1.64
 -11  -1  14    2.69    1.94
  11   1 -14    4.24    1.67
 -11   1  14    1.50    1.90
  10  -1 -14    9.19    1.07
 -10  -1  14    6.70    2.07
  10   1 -14    6.98    1.84
 -10   1  14    9.08    2.37
  -9  -1  14    0.43    1.54
  -9  -1  14    0.77    1.63
   9  -1 -14    2.27    1.09
  -9   1  14    0.29    1.53
   9   1 -14    2.82    1.46
  -8  -1  14   21.93    2.49
   8  -1 -14   20.54    1.83
  -8  -1  14   23.90    2.68
   8   1 -14   22.96    2.41
  -8   1  14   15.32    2.39
  -7  -1  14    7.12    1.72
   7  -1 -14    4.30    1.21
  -7  -1  14    4.01    1.47
   7   1 -14    6.87    1.51
  -7   1  14    6.69    1.71
  -6  -1  14    4.40    1.40
  -6  -1  14    7.57    1.50
   6  -1 -14    6.77    1.21
  -6   1  14    5.68    1.60
   6   1 -14    3.94    1.31
   5  -1 -14   26.52    1.80
  -5  -1  14   27.36    1.73
  -5  -1  14   23.72    2.19
  -5  -1  14   29.31    2.27
  -5   1  14   25.65    2.33
   5   1 -14   25.86    2.15
  -4  -1  14   71.35    2.89
  -4  -1  14   73.96    3.10
   4  -1 -14   76.02    3.36
   4  -1 -14   76.12    2.84
  -4  -1  14   73.28    3.25
  -4   1  14   72.55    3.28
   4   1 -14   73.76    3.12
  -3  -1  14    1.82    0.72
  -3  -1  14   -0.52    0.73
  -3  -1  14   -0.03    0.64
   3  -1 -14    1.51    0.73
   3  -1 -14    0.10    0.73
   3   1 -14    1.25    0.76
   2  -1 -14   11.58    1.17
  -2  -1  14   11.79    1.27
  -2  -1  14   13.05    1.31
   2  -1 -14   12.52    1.06
   2   1 -14   12.45    1.00
  -1  -1  14   37.29    2.08
  -1  -1  14   33.36    1.82
   1  -1 -14   36.41    1.80
   1  -1 -14   34.55    1.54
   1   1 -14   35.44    1.65
   1   1 -14   35.97    1.44
  -1   1  14   35.06    1.89
   0  -1  14   67.32    3.03
   0  -1  14   65.58    2.57
   0  -1 -14   65.94    2.50
   0   1 -14   67.95    2.21
   0   1 -14   67.74    2.19
   0   1  14   65.79    2.88
   0   1 -14   74.35    2.42
   1  -1  14   22.81    2.08
   1  -1  14   24.80    1.53
  -1  -1 -14   26.72    1.23
  -1  -1 -14   25.05    1.51
  -1   1 -14   23.37    1.30
  -1   1 -14   24.97    1.21
   1   1  14   21.99    1.94
  -1   1 -14   23.53    1.23
  -2  -1 -14   24.41    1.64
   2  -1  14   27.63    1.60
  -2  -1 -14   25.26    1.33
   2  -1  14   33.15    2.34
  -2   1 -14   25.72    1.47
   2   1  14   27.57    2.29
  -2   1 -14   26.34    1.49
  -3  -1 -14   52.82    1.78
   3  -1  14   54.32    2.38
  -3  -1 -14   49.02    2.47
   3  -1  14   52.24    3.29
  -3  -1 -14   50.32    2.06
   3   1  14   51.54    2.39
  -3   1 -14   55.13    2.22
  -3   1 -14   54.85    2.40
   3   1  14   56.64    3.13
  -4  -1 -14    1.16    0.86
   4  -1  14    0.59    0.79
  -4  -1 -14    2.47    0.73
  -4  -1 -14    0.32    0.49
   4  -1  14    2.90    1.56
   4   1  14    2.06    0.96
  -4   1 -14    2.66    0.89
   4   1  14    1.53    1.29
  -4   1 -14    2.28    0.76
  -5  -1 -14   29.85    2.42
  -5  -1 -14   30.18    1.55
  -5  -1 -14   31.01    1.90
   5  -1  14   31.58    3.24
   5  -1  14   26.97    2.16
   5   1  14   29.10    2.98
  -5   1 -14   27.90    2.31
  -5   1 -14   28.65    2.05
   5   1  14   34.86    2.48
  -6  -1 -14    1.76    0.97
  -6  -1 -14    3.15    1.31
  -6  -1 -14    3.94    0.83
   6  -1  14    5.57    1.93
   6  -1  14    2.05    1.25
  -6   1 -14    1.99    1.05
   6   1  14    2.33    1.50
   6   1  14    2.69    1.27
  -6   1 -14    1.70    1.19
  -7  -1 -14    7.98    1.12
  -7  -1 -14    4.84    1.32
   7  -1  14    6.48    2.06
  -7  -1 -14    6.35    1.62
   7  -1  14    5.92    1.53
   7   1  14    6.17    1.63
  -7   1 -14    3.63    1.29
   7   1  14    8.74    2.10
  -7   1 -14    5.76    1.57
  -8  -1 -14    7.56    1.67
  -8  -1 -14    9.65    1.31
   8  -1  14    8.91    1.83
  -8  -1 -14   10.44    2.03
   8  -1  14   10.59    2.35
   8   1  14   10.07    2.32
  -8   1 -14    7.22    1.89
  -8   1 -14   10.89    1.86
   8   1  14   12.82    2.10
  -9  -1 -14   -1.08    1.24
  -9  -1 -14   -0.95    1.41
   9  -1  14   -0.09    1.32
   9   1  14   -0.11    1.78
   9   1  14   -0.26    1.50
  -9   1 -14   -0.63    1.30
  -9   1 -14   -0.60    1.46
 -10  -1 -14    2.11    1.58
  10  -1  14   -0.01    1.39
 -10  -1 -14    0.61    1.77
 -10   1 -14    0.00    1.59
 -10   1 -14    1.52    1.84
  10   1  14   -1.21    1.48
 -11  -1 -14   -0.60    1.67
  11  -1  14   -0.90    1.22
 -11   1 -14   -0.92    1.63
  11   1  14   -0.88    1.56
 -12  -2  14    3.24    1.88
  12   2 -14    0.86    1.74
 -11  -2  14    1.17    1.67
 -11   2  14    1.34    1.95
  11   2 -14    3.39    1.91
 -10  -2  14    4.10    1.80
  10   2 -14    1.88    1.66
 -10   2  14    1.25    1.85
  -9  -2  14   -0.09    1.41
   9   2 -14    0.65    1.53
  -9   2  14    3.71    1.88
  -8  -2  14   -0.30    1.39
  -8   2  14    1.61    1.67
   8   2 -14    3.03    1.53
  -7  -2  14    6.75    1.71
  -7   2  14    6.32    1.75
   7   2 -14    9.36    1.75
  -6  -2  14    2.85    1.37
  -6  -2  14    4.76    1.46
  -6   2  14    5.88    1.66
   6   2 -14    1.96    1.26
  -5  -2  14    1.60    1.07
  -5  -2  14    0.82    0.89
  -5  -2  14   -1.16    0.97
   5  -2 -14   -1.12    0.95
  -5   2  14    0.51    1.08
   5   2 -14    1.49    1.03
   4  -2 -14   12.17    1.65
  -4  -2  14   17.79    1.57
  -4  -2  14   16.14    1.66
  -4  -2  14   15.84    1.70
   4   2 -14   16.13    1.63
   3  -2 -14  223.42    6.88
  -3  -2  14  212.43    6.68
  -3  -2  14  221.50    6.91
  -3  -2  14  209.98    6.14
   2  -2 -14   10.68    1.23
  -2  -2  14   11.71    1.37
  -2  -2  14   12.31    0.80
  -2  -2  14   12.37    1.46
   2   2 -14   13.76    1.19
  -1  -2  14   15.33    1.64
   1  -2 -14   12.01    1.23
  -1  -2  14   16.24    1.41
   1   2 -14   14.33    0.99
  -1   2  14   16.48    1.44
   1   2 -14   12.88    0.67
   0  -2 -14    0.23    0.55
   0  -2  14    0.06    0.85
   0  -2  14   -0.26    0.67
   0   2  14   -1.12    0.68
   0   2 -14    0.00    0.42
   0   2 -14    0.41    0.32
   1  -2  14   64.03    2.53
   1  -2  14   64.24    3.38
  -1  -2 -14   62.25    2.65
  -1  -2 -14   61.70    1.84
  -1   2 -14   63.44    2.12
   1   2  14   61.23    3.00
  -2  -2 -14    3.68    0.57
   2  -2  14    4.17    0.91
   2  -2  14    2.32    1.29
  -2  -2 -14    2.50    0.78
  -2   2 -14    2.22    0.66
   2   2  14    1.54    1.00
   3  -2  14    8.67    1.87
  -3  -2 -14    5.31    0.73
   3  -2  14    5.16    1.00
  -3  -2 -14    5.42    1.02
  -3   2 -14    6.39    0.97
  -3   2 -14    9.68    1.07
   3   2  14    6.11    1.46
  -4  -2 -14    2.86    0.93
   4  -2  14    2.68    1.00
   4  -2  14   -0.77    1.40
  -4  -2 -14    0.46    0.61
   4   2  14   -0.29    0.87
  -4   2 -14   -0.69    0.70
  -4   2 -14   -0.41    0.66
   4   2  14    2.09    1.25
   5  -2  14    2.58    1.14
  -5  -2 -14    2.54    0.82
  -5  -2 -14    0.70    0.98
   5  -2  14    4.15    1.72
   5   2  14    3.10    1.56
  -5   2 -14    1.26    1.00
   5   2  14    1.51    1.09
   6  -2  14    0.72    1.08
  -6  -2 -14   -0.50    0.94
   6  -2  14    0.84    1.62
  -6  -2 -14    0.69    0.84
  -6   2 -14    0.97    1.14
   6   2  14    1.44    1.37
   6   2  14    0.15    1.12
   7  -2  14   47.88    4.09
   7  -2  14   39.74    2.63
  -7  -2 -14   50.34    2.60
  -7  -2 -14   47.72    3.26
   7   2  14   43.16    3.01
   7   2  14   48.37    4.10
  -7   2 -14   48.26    3.35
   8  -2  14    1.45    1.29
  -8  -2 -14   -1.39    1.37
  -8  -2 -14   -0.22    1.06
  -8   2 -14   -0.28    1.38
   8   2  14    1.55    1.53
   8   2  14   -1.91    1.49
  -9  -2 -14    0.90    1.73
  -9  -2 -14   -1.01    1.22
   9  -2  14    2.88    1.22
  -9   2 -14    1.29    1.71
   9   2  14    2.28    1.92
   9   2  14    1.05    1.72
 -10  -2 -14   -0.48    1.81
 -10  -2 -14   -0.64    1.39
 -10   2 -14   -0.23    1.69
  10   2  14   -0.22    1.60
 -11  -2 -14   10.67    2.06
  11   2  14    8.91    2.31
 -11  -3  14    0.03    1.50
  11   3 -14    2.70    1.82
 -10  -3  14    9.50    2.04
  10   3 -14    9.21    2.22
 -10   3  14    5.44    2.30
  -9  -3  14    2.27    1.56
  -9   3  14    0.38    1.51
   9   3 -14    0.60    1.68
  -8  -3  14   30.04    2.74
   8   3 -14   22.78    2.72
  -8   3  14   29.48    3.33
  -7  -3  14    1.34    1.31
  -7   3  14    0.79    1.56
   7   3 -14    2.68    1.53
  -6  -3  14    6.58    1.46
  -6  -3  14    7.90    1.55
   6   3 -14    5.89    1.55
  -6   3  14    5.15    1.72
  -5  -3  14   16.12    1.82
   5  -3 -14   11.81    1.87
  -5  -3  14   12.77    1.78
  -5   3  14   16.11    2.05
   5   3 -14   15.31    1.90
   4  -3 -14   69.09    3.44
  -4  -3  14   63.86    3.00
  -4  -3  14   72.12    3.41
   4   3 -14   72.56    3.18
  -3  -3  14    2.41    1.05
   3  -3 -14    3.99    1.14
  -3  -3  14    3.28    0.99
  -2  -3  14   44.66    2.74
  -2  -3  14   48.90    2.20
   2  -3 -14   50.97    2.66
  -2   3  14   52.71    2.33
  -1  -3  14    1.86    0.70
   1  -3 -14    0.13    0.72
  -1  -3  14    1.38    0.94
  -1   3  14   -0.13    0.68
   1   3 -14    0.52    0.45
   0  -3  14  152.23    4.49
   0  -3 -14  158.30    5.22
   0  -3  14  162.82    5.95
   0   3  14  160.12    5.55
   0   3 -14  161.17    4.31
  -1  -3 -14    1.88    0.81
   1  -3  14    0.48    0.53
   1  -3  14   -0.46    0.96
   1   3  14    1.07    0.89
  -1   3 -14    1.44    0.44
   2  -3  14   29.53    2.82
  -2  -3 -14   28.04    1.93
   2   3  14   26.47    2.43
  -2   3 -14   25.13    1.45
   3  -3  14    6.84    1.80
  -3  -3 -14    5.04    1.07
  -3   3 -14    5.03    0.93
   3   3  14    4.92    1.50
   4  -3  14    3.19    1.71
  -4  -3 -14   -0.07    0.77
  -4   3 -14    0.12    0.77
   4   3  14   -1.07    1.09
  -5  -3 -14    0.35    1.01
  -5  -3 -14    0.48    0.60
   5  -3  14    1.11    1.54
   5   3  14   -2.00    1.18
  -5   3 -14   -0.17    0.92
  -6  -3 -14    5.64    0.95
   6  -3  14    3.76    2.00
  -6  -3 -14    6.13    1.56
  -6   3 -14    4.33    1.43
   6   3  14    5.50    1.89
  -7  -3 -14   -1.24    0.86
   7  -3  14    1.37    1.80
  -7  -3 -14    0.23    1.33
   7   3  14    0.60    1.58
  -7   3 -14    2.14    1.36
  -8  -3 -14    6.74    1.90
  -8  -3 -14    4.29    1.19
   8   3  14    4.45    2.07
  -8   3 -14    5.59    1.84
  -9  -3 -14   -0.41    1.12
  -9  -3 -14   -0.03    1.68
   9   3  14    2.79    2.01
  -9   3 -14   -1.98    1.45
   9   3  14   -0.80    1.79
 -10  -3 -14   -2.01    1.68
 -10  -3 -14   -0.18    1.26
  10   3  14    0.70    1.99
  10   3  14    0.55    1.88
 -10   3 -14    0.33    1.86
  11   3  14   -1.90    1.71
  11   4 -14   -1.33    1.77
 -10  -4  14    2.16    1.46
  10   4 -14    0.68    1.92
 -10   4  14    3.79    2.15
  -9  -4  14    1.91    1.39
  -9   4  14   -0.64    1.66
   9   4 -14   -1.77    1.67
  -8  -4  14   77.27    3.51
  -8   4  14   77.14    4.93
  -7  -4  14   -0.31    1.36
  -7  -4  14    0.13    1.17
  -7   4  14   -2.61    1.30
  -6  -4  14    5.59    1.60
  -6  -4  14    2.01    1.07
  -6   4  14    6.46    1.88
  -5  -4  14    7.41    1.70
   5  -4 -14    7.62    1.73
  -5  -4  14    9.62    1.17
  -5   4  14    6.46    1.71
  -4  -4  14   82.56    4.10
   4  -4 -14   84.55    4.15
  -4  -4  14   82.71    2.58
  -3  -4  14    4.92    1.39
   3  -4 -14    4.54    1.26
  -2  -4  14   18.19    2.22
   2  -4 -14   20.17    1.98
  -2   4  14   18.95    1.71
   2   4 -14   19.43    1.30
  -1  -4  14    1.79    1.14
   1  -4 -14    0.34    0.87
   1   4 -14    1.54    0.58
  -1   4  14    2.29    0.95
   0  -4 -14   71.94    3.24
   0  -4  14   77.23    3.97
   0   4  14   72.86    3.50
   1  -4  14    0.01    1.16
  -1  -4 -14    0.87    0.82
   1   4  14   -1.03    0.91
   2  -4  14  136.65    5.94
  -2  -4 -14  131.23    4.84
   2   4  14  130.52    5.51
   3  -4  14    5.03    1.71
  -3  -4 -14    3.54    1.10
   3   4  14    2.38    1.37
  -3   4 -14    4.36    0.88
   4  -4  14   27.64    3.23
  -4  -4 -14   26.47    2.33
   4   4  14   32.35    3.20
  -4   4 -14   30.26    2.05
  -5  -4 -14    1.49    1.12
   5  -4  14    2.34    1.67
  -5   4 -14    1.95    1.10
   5   4  14    0.44    1.30
   6  -4  14   49.22    4.11
  -6  -4 -14   44.05    3.19
   6   4  14   46.60    4.21
  -6   4 -14   50.65    3.11
  -7  -4 -14   12.07    2.19
  -7   4 -14   10.15    1.99
   7   4  14    7.97    2.35
  -8  -4 -14    4.00    1.89
   8   4  14    8.29    2.34
  -8   4 -14    8.74    2.06
  -9  -4 -14    4.01    2.13
   9   4  14    5.25    2.28
  -9   4 -14    1.72    1.80
  10   4  14    5.28    2.53
 -10   4 -14    5.28    2.25
  -9   5  14    1.04    2.04
  -8  -5  14    2.24    1.98
  -8   5  14    2.19    1.86
  -7  -5  14    7.97    2.22
  -7   5  14    5.91    2.19
  -6  -5  14    1.61    1.54
  -6   5  14    1.74    1.60
   5  -5 -14   12.21    2.23
  -5  -5  14   12.04    2.19
  -5   5  14   12.66    2.24
   4  -5 -14    9.01    1.83
  -4  -5  14    7.91    1.92
   3  -5 -14    1.50    1.29
  -3  -5  14    3.65    1.58
   2  -5 -14    4.27    1.25
  -2  -5  14    4.99    1.69
  -1  -5  14    9.30    1.88
   1  -5 -14    9.26    1.56
  -1   5  14    9.43    1.59
   0  -5 -14   -0.21    1.04
   0  -5 -14   -0.33    0.83
   0  -5  14   -0.42    1.13
   0   5  14   -1.42    0.92
  -1  -5 -14    0.90    1.25
  -1  -5 -14    0.57    0.99
   1  -5  14   -0.28    1.37
   1   5  14    0.73    1.16
  -2  -5 -14   -1.08    0.77
   2  -5  14    0.97    1.49
   2   5  14    0.83    1.38
   3  -5  14   14.44    2.49
  -3  -5 -14   13.68    1.74
   3   5  14   18.45    2.62
   4  -5  14    0.31    1.54
  -4  -5 -14    1.47    1.20
   4   5  14    2.51    1.59
   5  -5  14   28.14    3.22
  -5  -5 -14   28.41    2.75
   5   5  14   30.33    3.52
   6  -5  14   -1.12    1.58
  -6  -5 -14    0.64    1.34
   6   5  14    0.43    1.78
  -7  -5 -14    8.09    2.10
   7   5  14   14.36    2.94
  -8  -5 -14    7.07    2.26
   8   5  14    6.04    2.46
  -9  -5 -14    1.83    2.18
   9   5  14   -0.58    1.93
  10   5  14   -0.16    2.08
  -8  -6  14    6.76    2.43
  -8   6  14   -0.91    1.80
  -7  -6  14    9.70    2.44
  -7   6  14   10.09    2.73
  -6  -6  14    3.89    2.07
  -6   6  14    2.83    1.97
  -5  -6  14    1.54    1.59
   5  -6 -14    0.28    1.43
  -5   6  14    2.92    1.70
  -4  -6  14   18.28    2.79
   4  -6 -14   19.72    2.55
  -4   6  14   15.28    2.43
  -3  -6  14   50.05    4.31
   3  -6 -14   49.25    3.53
  -2  -6  14   10.46    2.28
   2  -6 -14    8.83    1.77
   1  -6 -14    1.04    1.17
  -1  -6  14    0.90    1.61
   1  -6 -14    0.91    1.21
  -1   6  14    0.36    1.29
   0  -6  14   -2.32    1.40
   0  -6 -14    0.53    1.14
   0  -6 -14    0.67    1.23
   0   6  14    0.67    1.26
  -1  -6 -14   18.26    2.43
   1  -6  14   17.02    2.74
  -1  -6 -14   19.23    2.20
   1   6  14   21.85    2.66
   2  -6  14    7.57    2.15
  -2  -6 -14    8.32    1.94
  -2  -6 -14    5.86    1.52
   2   6  14    7.83    1.96
   3  -6  14   -0.84    1.58
  -3  -6 -14   -0.05    1.15
   3   6  14   -0.92    1.57
   4  -6  14    0.27    1.73
  -4  -6 -14    0.87    1.26
   4   6  14   -1.61    1.59
   5  -6  14    7.29    2.15
  -5  -6 -14   -0.15    1.30
   5   6  14    2.17    1.88
  -6  -6 -14    0.77    1.51
   6   6  14   -0.07    1.88
  -7  -6 -14   10.15    2.40
   7   6  14    8.35    2.79
  -8  -6 -14    0.63    2.41
   8   6  14    0.48    2.22
   9   6  14   -3.08    1.95
  -8  -7  14   14.29    3.24
  -7  -7  14    0.79    2.07
  -7   7  14   -0.14    2.15
  -6  -7  14   -0.32    1.87
  -6   7  14    0.29    1.90
  -5  -7  14    0.52    1.99
  -5   7  14   -0.93    1.68
   4  -7 -14   14.05    2.54
  -4  -7  14   14.53    2.98
  -4   7  14   13.02    2.49
  -3  -7  14    0.93    1.94
   3  -7 -14    5.34    1.82
  -2  -7  14   10.26    2.63
   2  -7 -14   15.31    2.32
   1  -7 -14    1.25    1.35
  -1  -7  14   -0.07    1.81
   1  -7 -14    1.59    1.44
  -1   7  14    0.39    1.36
   0  -7  14   43.92    4.52
   0  -7 -14   47.69    3.52
   0  -7 -14   49.60    3.49
   0   7  14   50.45    3.64
   1  -7  14    1.00    1.84
  -1  -7 -14   -2.70    1.28
  -1  -7 -14   -1.27    1.18
   1   7  14   -2.50    1.36
  -2  -7 -14    3.84    1.98
  -2  -7 -14   -0.59    1.20
   2  -7  14    6.90    2.49
   2   7  14    2.19    1.89
   3  -7  14   -2.11    1.67
  -3  -7 -14   -1.45    1.29
   3   7  14   -1.23    1.79
  -4  -7 -14   -0.18    1.38
   4  -7  14    2.00    2.18
   4   7  14    0.72    2.03
  -5  -7 -14    3.15    1.75
   5   7  14    4.56    2.43
   6   7  14    1.85    2.28
   7   7  14   -1.30    2.04
   8   7  14    5.44    2.83
  -7  -8  14   -0.20    2.38
  -6  -8  14    0.24    2.23
  -5  -8  14    3.19    2.43
  -5   8  14    7.34    2.57
  -4  -8  14   16.71    3.45
  -4   8  14   16.66    2.97
   3  -8 -14    6.44    2.12
  -3  -8  14    7.06    2.59
  -3   8  14    2.42    1.83
   2  -8 -14    7.98    2.18
  -2  -8  14   15.31    3.18
  -1  -8  14    1.17    2.29
   1  -8 -14   -0.75    1.47
   0  -8  14    8.03    2.76
   0  -8 -14    4.82    1.84
   0   8  14    7.96    2.21
   1  -8  14    1.54    2.17
  -1  -8 -14   -0.34    1.56
   1   8  14    1.28    1.91
   2  -8  14   26.20    3.84
   2   8  14   30.65    3.88
   3  -8  14    5.04    2.47
   3   8  14    2.91    2.33
   4  -8  14    6.55    2.53
   4   8  14    8.18    2.82
   5   8  14   -2.02    2.12
   6   8  14    8.81    3.02
  -5  -9  14    3.82    2.76
  -4  -9  14   -3.27    2.21
  -3  -9  14    0.80    2.62
  -2  -9  14    4.77    2.94
  -1  -9  14   -0.87    2.35
   0  -9  14   -1.53    2.27
   1  -9  14   -1.88    2.41
   1   9  14   -0.60    2.04
   2  -9  14    0.27    2.28
   2   9  14   -0.44    2.20
   3  -9  14    5.18    2.87
   3   9  14    0.22    2.29
   4   9  14    2.35    2.52
 -12   0  15   -1.71    1.70
 -11   0  15    1.03    1.80
 -11   0  15    0.36    1.94
  11   0 -15    0.78    1.31
 -10   0  15    1.37    1.82
  10   0 -15   -1.42    1.22
 -10   0  15    0.66    1.66
  -9   0  15    6.37    1.93
   9   0 -15    4.62    1.50
  -9   0  15    5.25    1.83
  -8   0  15    0.76    1.46
  -8   0  15    0.59    1.35
   8   0 -15    0.39    1.21
  -7   0  15    6.83    1.63
   7   0 -15    7.53    1.55
  -7   0  15   12.43    1.94
  -6   0  15    0.65    1.14
   6   0 -15    0.37    1.04
  -6   0  15   -0.90    0.95
  -5   0  15    9.56    1.51
  -5   0  15   11.02    1.62
   5   0 -15    8.08    1.35
  -4   0  15    0.52    0.79
  -4   0  15   -0.41    0.85
   4   0 -15   -0.60    0.81
  -3   0  15  246.87    7.05
   3   0 -15  228.64    6.89
  -3   0  15  240.99    7.09
   3   0 -15  241.22    7.10
  -2   0  15    0.12    0.61
  -2   0  15    0.52    0.68
   2   0 -15   -0.59    0.52
   2   0 -15   -0.01    0.58
  -1   0  15    4.13    0.80
  -1   0  15    3.42    0.88
   1   0 -15    2.88    0.63
   0   0 -15    1.99    0.53
   0   0  15    1.17    0.63
   0   0 -15    2.55    0.58
   0   0  15    1.88    0.89
   1   0  15   29.53    2.34
   1   0  15   25.82    1.59
  -1   0 -15   23.90    1.41
  -1   0 -15   25.44    1.19
  -1   0 -15   25.95    1.36
   2   0  15    1.08    1.07
  -2   0 -15   -0.86    0.46
  -2   0 -15   -0.18    0.41
  -2   0 -15    0.37    0.57
   2   0  15    0.24    0.67
   3   0  15    3.05    1.34
   3   0  15    5.60    1.02
  -3   0 -15    5.94    0.74
  -3   0 -15    3.36    0.82
  -3   0 -15    3.85    0.80
  -4   0 -15    0.37    0.72
  -4   0 -15   -0.85    0.52
   4   0  15   -1.16    1.08
   4   0  15    0.13    0.81
  -4   0 -15    0.71    0.80
   5   0  15    2.27    1.04
   5   0  15    2.69    1.50
  -5   0 -15    2.69    0.93
  -5   0 -15    3.65    1.18
   6   0  15   -0.67    1.04
  -6   0 -15    0.50    0.88
   6   0  15    0.25    1.41
  -6   0 -15   -0.85    0.95
  -7   0 -15   40.30    2.55
   7   0  15   49.58    4.21
   7   0  15   39.37    3.08
  -7   0 -15   37.28    3.26
  -8   0 -15   -0.95    1.17
   8   0  15    2.37    1.50
  -8   0 -15   -1.31    1.37
   8   0  15    0.38    1.63
   9   0  15    9.69    1.99
  -9   0 -15    9.66    1.92
   9   0  15   13.57    2.65
  -9   0 -15    4.85    2.04
 -10   0 -15   -0.17    1.20
 -10   0 -15   -0.36    1.55
 -10   0 -15    2.39    1.84
  10   0  15    0.13    1.53
 -11   0 -15   12.45    2.45
  11   0  15   11.61    2.20
 -12  -1  15    2.80    1.89
  12   1 -15   -1.01    1.51
 -11  -1  15   -0.04    1.67
 -11   1  15    0.00    1.82
  11   1 -15    1.87    1.58
 -10  -1  15   -0.79    1.57
  10   1 -15    0.83    1.42
 -10   1  15    2.71    1.91
   9  -1 -15    0.25    1.01
  -9  -1  15   -0.10    1.63
  -9  -1  15   -0.81    1.41
  -9   1  15   -2.56    1.33
   9   1 -15   -2.08    1.21
  -8  -1  15   13.15    2.25
   8  -1 -15   11.84    1.50
  -8  -1  15   14.50    2.21
   8   1 -15    8.97    1.82
  -8   1  15   11.57    2.12
  -7  -1  15    5.32    1.55
  -7  -1  15    3.71    1.48
   7  -1 -15    5.84    1.28
   7   1 -15    6.99    1.49
  -7   1  15    5.16    1.57
  -6  -1  15   98.39    4.27
   6  -1 -15   97.95    3.62
  -6  -1  15  100.21    4.25
   6   1 -15   90.05    4.10
  -6   1  15  102.63    4.67
   5  -1 -15    7.53    1.17
  -5  -1  15    5.21    1.35
  -5  -1  15    8.06    1.40
  -5   1  15    7.74    1.50
   5   1 -15    8.05    1.36
  -4  -1  15   13.44    1.62
   4  -1 -15   13.18    1.54
  -4  -1  15   14.65    1.38
   4  -1 -15   16.01    1.38
  -4  -1  15   12.06    1.46
  -4   1  15   10.73    1.46
   4   1 -15   12.98    1.51
  -4   1  15   13.43    1.52
  -3  -1  15    0.81    0.74
   3  -1 -15   -0.14    0.68
  -3  -1  15    1.04    0.64
  -3  -1  15    0.28    0.81
   3  -1 -15    0.74    0.72
   3   1 -15   -0.44    0.74
   2  -1 -15  220.64    6.50
  -2  -1  15  214.38    6.44
   2  -1 -15  218.50    6.06
  -2  -1  15  212.53    6.75
   2   1 -15  217.11    6.07
  -2   1  15  212.75    6.44
  -1  -1  15  103.26    3.67
  -1  -1  15   98.93    3.92
   1  -1 -15  106.06    3.61
   1  -1 -15  107.85    3.28
  -1   1  15  105.30    3.81
   1   1 -15  105.89    3.23
   1   1 -15  111.10    3.46
   0  -1  15   57.06    2.87
   0  -1 -15   58.64    2.38
   0  -1  15   61.17    2.45
   0   1  15   58.63    2.73
   0   1 -15   60.64    2.07
   0   1 -15   59.67    2.04
   1  -1  15    8.40    1.43
   1  -1  15   10.38    1.10
  -1  -1 -15    9.48    0.87
  -1  -1 -15    7.72    0.96
  -1   1 -15   10.05    0.98
  -1   1 -15   11.17    0.93
  -1   1 -15    9.37    0.80
   1   1  15   11.80    1.57
  -2  -1 -15  245.80    6.71
  -2  -1 -15  245.09    7.19
   2  -1  15  245.72    8.26
   2  -1  15  246.99    7.04
  -2   1 -15  243.28    6.97
   2   1  15  238.80    8.12
  -2   1 -15  244.06    6.36
   2   1  15  242.89    6.97
  -3  -1 -15   13.72    0.89
   3  -1  15   16.85    1.49
  -3  -1 -15   13.35    1.14
   3  -1  15   15.40    2.21
  -3  -1 -15   13.96    1.41
   3   1  15   15.74    1.50
   3   1  15   12.52    1.88
  -3   1 -15   15.04    1.38
  -3   1 -15   14.64    1.29
   4  -1  15   18.25    2.56
  -4  -1 -15   19.14    1.47
  -4  -1 -15   16.65    1.70
  -4  -1 -15   19.56    1.18
   4  -1  15   19.80    1.75
  -4   1 -15   20.78    1.61
  -4   1 -15   19.28    1.75
   4   1  15   23.80    1.93
   4   1  15   20.54    2.47
   5  -1  15    3.04    1.15
  -5  -1 -15    2.84    0.71
  -5  -1 -15    1.45    0.82
   5  -1  15    3.35    1.74
  -5  -1 -15    4.26    1.16
  -5   1 -15    4.14    1.02
  -5   1 -15    5.30    1.25
   5   1  15    1.88    1.12
   5   1  15    5.19    1.73
  -6  -1 -15   22.08    1.48
  -6  -1 -15   21.48    2.36
   6  -1  15   21.31    2.11
  -6  -1 -15   20.69    1.87
   6  -1  15   21.56    2.92
   6   1  15   23.29    2.30
  -6   1 -15   22.29    2.24
  -6   1 -15   26.43    2.11
   6   1  15   18.51    2.67
   7  -1  15   23.21    2.33
  -7  -1 -15   22.41    1.64
   7  -1  15   27.03    3.20
  -7  -1 -15   22.35    2.52
  -7  -1 -15   20.34    2.06
   7   1  15   22.31    2.96
   7   1  15   21.28    2.40
  -7   1 -15   24.70    2.63
  -7   1 -15   24.98    2.26
  -8  -1 -15   16.49    1.51
  -8  -1 -15   12.69    1.92
   8  -1  15   13.53    2.06
   8  -1  15   17.46    2.80
  -8  -1 -15   10.13    2.11
   8   1  15   11.89    2.07
  -8   1 -15   13.48    1.97
   8   1  15   19.21    2.91
  -8   1 -15   14.82    2.45
   9  -1  15    1.75    1.50
  -9  -1 -15    1.88    1.42
  -9  -1 -15    1.95    1.78
   9   1  15    2.23    1.93
  -9   1 -15    1.79    1.60
   9   1  15    1.02    1.54
  -9   1 -15    1.81    1.74
 -10  -1 -15    4.85    2.16
 -10  -1 -15    5.14    1.79
  10  -1  15    2.46    1.55
 -10   1 -15    3.14    1.78
  10   1  15    2.11    1.76
 -10   1 -15    8.62    2.41
  11  -1  15   -0.44    1.30
 -11  -1 -15   -0.32    1.62
 -11   1 -15   -2.54    1.56
  11   1  15    2.65    1.87
 -12  -2  15   15.51    2.48
  12   2 -15   19.63    2.63
 -11  -2  15   -0.50    1.63
  11   2 -15   -0.21    1.62
 -11   2  15   -0.68    1.88
 -10  -2  15   -1.70    1.43
  10   2 -15   -0.83    1.53
 -10   2  15   -2.64    1.46
  -9  -2  15    0.82    1.55
  -9   2  15   -0.51    1.43
   9   2 -15    0.03    1.44
  -8  -2  15  111.13    5.07
   8   2 -15  122.27    5.14
  -8   2  15  107.15    5.53
  -7  -2  15    1.49    1.32
  -7   2  15   -2.61    1.15
   7   2 -15   -0.39    1.19
  -6  -2  15   21.35    2.20
   6   2 -15   20.94    2.27
  -6   2  15   22.44    2.60
  -5  -2  15   -1.21    0.84
   5  -2 -15   -0.29    1.00
  -5  -2  15    1.61    0.97
  -5   2  15    0.79    1.08
   5   2 -15   -0.14    0.98
  -4  -2  15   66.35    2.89
   4  -2 -15   66.82    3.30
  -4  -2  15   73.56    3.17
  -4  -2  15   71.89    3.26
   4   2 -15   67.10    3.04
   3  -2 -15    0.65    0.85
  -3  -2  15   -0.23    0.76
  -3  -2  15    0.18    0.67
  -3  -2  15    0.10    0.92
   3   2 -15    0.86    0.77
  -2  -2  15   19.31    1.72
   2  -2 -15   26.68    1.92
  -2  -2  15   27.38    1.91
  -2  -2  15   24.12    1.20
  -2   2  15   24.04    1.57
  -1  -2  15    0.30    0.86
  -1  -2  15   -0.89    0.72
   1  -2 -15   -0.23    0.63
   1   2 -15    0.43    0.50
   1   2 -15    0.52    0.32
  -1   2  15   -1.33    0.59
   1   2 -15    0.14    0.58
   0  -2 -15   37.06    1.93
   0  -2  15   36.98    2.37
   0  -2  15   37.38    2.00
   0   2  15   37.01    2.20
   0   2 -15   37.52    1.37
   0   2 -15   35.94    1.53
   1  -2  15    0.51    0.77
  -1  -2 -15   -0.12    0.38
  -1  -2 -15    0.44    0.62
   1  -2  15    0.64    0.97
   1   2  15    1.01    0.93
  -1   2 -15    0.01    0.42
  -2  -2 -15  211.27    5.76
   2  -2  15  207.94    7.70
   2  -2  15  213.77    6.36
  -2  -2 -15  213.17    6.61
  -2   2 -15  219.75    6.20
  -2   2 -15  223.68    6.18
   2   2  15  211.15    7.43
  -3  -2 -15   -0.33    0.63
  -3  -2 -15    0.40    0.53
   3  -2  15    0.67    0.77
   3  -2  15    0.00    1.34
  -3   2 -15    0.19    0.61
   3   2  15    0.83    1.15
  -3   2 -15    0.59    0.66
   4  -2  15   10.41    2.21
  -4  -2 -15   11.54    1.47
   4  -2  15   14.13    1.51
  -4  -2 -15    9.87    1.04
  -4   2 -15   11.80    1.28
   4   2  15    9.67    1.44
   4   2  15    4.84    1.52
  -4   2 -15    9.02    1.28
   5  -2  15    3.27    1.20
   5  -2  15    1.96    1.77
  -5  -2 -15    1.71    1.08
  -5  -2 -15    1.72    0.80
  -5   2 -15    1.27    1.02
   5   2  15    2.99    1.22
   5   2  15    0.94    1.30
   6  -2  15   11.38    1.66
   6  -2  15   11.79    2.56
  -6  -2 -15   14.63    1.51
  -6  -2 -15   11.43    1.79
   6   2  15   14.97    1.91
  -6   2 -15    9.94    1.70
   6   2  15   13.89    2.38
  -7  -2 -15    9.57    1.90
  -7  -2 -15    5.77    1.30
   7  -2  15    6.66    1.58
   7  -2  15    7.58    2.06
   7   2  15    3.26    1.53
   7   2  15    7.30    2.09
  -7   2 -15    4.75    1.59
  -8  -2 -15    0.93    1.39
   8  -2  15   -1.30    1.14
  -8  -2 -15    2.72    1.26
   8   2  15   -2.50    1.20
  -8   2 -15    1.61    1.56
   8   2  15   -0.55    1.65
  -9  -2 -15    1.35    1.32
   9  -2  15    0.57    1.14
  -9  -2 -15    0.36    1.55
   9   2  15    1.49    1.84
  -9   2 -15    0.59    1.49
   9   2  15   -0.18    1.67
 -10  -2 -15    1.81    1.53
 -10  -2 -15    2.78    1.97
  10   2  15   -3.18    1.44
  10   2  15   -1.89    1.83
 -10   2 -15    3.81    2.01
 -11  -2 -15    0.13    1.56
  11   2  15   -0.71    1.72
 -11  -3  15    0.50    1.58
  11   3 -15    0.45    1.74
 -10  -3  15    2.67    1.73
  10   3 -15    0.13    1.55
 -10   3  15    0.51    1.83
  -9  -3  15    2.70    1.58
  -9   3  15   -0.63    1.59
   9   3 -15    0.36    1.69
  -8  -3  15    4.32    1.62
   8   3 -15    1.78    1.62
  -8   3  15    0.71    1.49
  -7  -3  15    3.67    1.49
  -7   3  15    5.34    1.84
   7   3 -15    8.93    1.84
  -6  -3  15   28.10    2.57
  -6  -3  15   29.07    2.51
  -6   3  15   33.68    3.19
   6   3 -15   30.70    2.68
  -5  -3  15    4.48    1.32
  -5  -3  15    5.03    1.34
   5  -3 -15    3.25    1.34
  -5   3  15    1.58    1.30
   5   3 -15    3.67    1.30
   4  -3 -15    1.96    1.16
  -4  -3  15    1.28    1.06
  -4  -3  15    0.28    0.98
   4   3 -15   -0.12    0.93
  -3  -3  15    1.05    0.96
   3  -3 -15   -1.17    0.78
  -3  -3  15   -0.48    0.80
  -2  -3  15   37.52    2.56
  -2  -3  15   41.85    2.15
   2  -3 -15   37.10    2.37
  -2   3  15   43.75    2.12
  -1  -3  15   62.76    2.56
   1  -3 -15   65.73    2.89
  -1  -3  15   65.30    3.26
  -1   3  15   62.25    2.86
   1   3 -15   65.34    2.24
   0  -3 -15    1.45    0.74
   0  -3  15    0.04    0.72
   0  -3  15   -0.05    0.94
   0   3  15    0.17    0.89
   0   3 -15    0.55    0.47
  -1  -3 -15   11.65    1.37
   1  -3  15   10.64    1.03
   1  -3  15    6.09    1.55
   1   3  15    8.81    1.52
  -1   3 -15   13.00    0.85
   2  -3  15   80.71    4.34
   2  -3  15   76.92    2.67
  -2  -3 -15   86.07    3.43
  -2   3 -15   84.83    2.86
   2   3  15   85.37    4.00
  -3  -3 -15   44.76    2.44
   3  -3  15   47.74    3.88
   3  -3  15   41.55    1.74
   3   3  15   39.08    2.87
  -3   3 -15   41.30    2.09
  -4  -3 -15   31.01    2.46
   4  -3  15   28.36    3.28
   4   3  15   37.04    3.29
  -4   3 -15   28.51    1.97
  -5  -3 -15   21.36    1.23
  -5  -3 -15   20.70    2.15
   5  -3  15   23.11    3.09
  -5   3 -15   18.93    1.96
   5   3  15   22.89    2.80
   6  -3  15    1.69    1.93
  -6  -3 -15    5.06    1.55
  -6  -3 -15    6.25    0.97
  -6   3 -15    4.85    1.44
   6   3  15    7.10    1.96
   7  -3  15   15.22    2.77
  -7  -3 -15   21.19    1.66
  -7  -3 -15   21.25    2.63
  -7   3 -15   14.72    2.21
   7   3  15   18.19    2.90
  -8  -3 -15    9.86    2.23
  -8  -3 -15   10.93    1.52
  -8   3 -15   11.23    2.13
   8   3  15   16.12    2.88
  -9  -3 -15    0.30    1.18
  -9  -3 -15    1.68    1.87
   9   3  15    2.04    1.90
  -9   3 -15    2.02    1.79
   9   3  15    0.82    1.76
 -10  -3 -15    7.03    1.51
 -10  -3 -15    4.04    2.29
  10   3  15    2.38    2.00
  10   3  15    3.94    2.26
 -10   3 -15    6.47    2.21
  11   3  15   -0.64    1.86
  11   4 -15    2.79    2.07
 -10  -4  15    0.44    1.33
  10   4 -15    3.56    2.01
 -10   4  15    3.01    1.93
  -9  -4  15    2.25    1.43
   9   4 -15    2.30    1.89
  -9   4  15    2.89    1.97
  -8  -4  15    6.83    1.61
  -8   4  15    7.40    2.16
  -7  -4  15    9.67    1.60
  -7  -4  15    7.29    1.83
  -7   4  15    9.20    2.29
  -6  -4  15    3.71    1.21
  -6  -4  15    5.95    1.63
  -6   4  15    7.86    1.99
   5  -4 -15    9.35    1.92
  -5  -4  15    8.48    1.75
  -5  -4  15    9.91    1.24
  -5   4  15   10.80    2.06
  -4  -4  15    6.79    1.58
  -4  -4  15    6.86    0.88
   4  -4 -15    6.25    1.49
  -3  -4  15  134.39    5.56
   3  -4 -15  128.59    5.17
   2  -4 -15    0.67    0.94
  -2  -4  15    0.90    1.07
  -2   4  15    1.04    0.88
   2   4 -15    0.32    0.59
   1  -4 -15    6.04    1.20
  -1  -4  15    5.21    1.42
  -1   4  15    5.57    1.23
   1   4 -15    6.37    0.80
   0  -4  15    2.59    1.25
   0  -4 -15    2.52    1.03
   0   4  15    1.06    1.04
  -1  -4 -15   15.82    1.78
   1  -4  15   20.70    2.42
   1   4  15   17.31    2.10
   2  -4  15    5.57    1.73
  -2  -4 -15    6.62    1.24
   2   4  15    2.12    1.34
  -3  -4 -15    1.86    1.05
   3  -4  15    3.32    1.77
   3   4  15    2.91    1.47
   4  -4  15   -1.68    1.45
  -4  -4 -15   -0.25    0.97
   4   4  15    2.80    1.57
  -4   4 -15   -0.98    0.75
   5  -4  15    1.17    1.83
  -5  -4 -15    1.02    1.17
   5   4  15    2.30    1.73
  -5   4 -15    3.45    1.19
  -6  -4 -15    1.54    1.28
   6  -4  15    0.04    1.81
   6   4  15   -0.84    1.58
  -6   4 -15    1.14    1.24
  -7  -4 -15   22.23    2.76
   7   4  15   16.30    2.91
  -7   4 -15   18.23    2.32
  -8  -4 -15    0.94    1.67
   8   4  15   -1.29    1.75
  -8   4 -15    0.26    1.53
  -9  -4 -15    1.14    1.94
  -9   4 -15    0.73    1.81
   9   4  15    3.07    2.03
  10   4  15    0.13    2.04
  -9   5  15   -0.13    1.91
  -8   5  15    1.63    2.00
  -7  -5  15   -2.36    1.47
  -7   5  15    2.24    1.95
  -6  -5  15   41.46    3.71
  -6   5  15   41.76    3.96
  -5  -5  15    1.22    1.36
   5  -5 -15    4.68    1.65
  -5   5  15    0.48    1.39
   4  -5 -15    9.89    1.86
  -4  -5  15   14.93    2.35
   3  -5 -15    1.31    1.15
  -3  -5  15    2.95    1.46
  -2  -5  15  111.40    5.34
   2  -5 -15  115.83    4.83
   1  -5 -15   14.48    1.89
  -1  -5  15   15.19    2.28
  -1   5  15   15.57    1.87
   0  -5  15   20.74    2.62
   0  -5 -15   18.01    2.01
   0   5  15   21.63    2.32
   1  -5  15   -0.41    1.45
  -1  -5 -15   -1.49    0.88
   1   5  15    1.15    1.22
  -2  -5 -15   66.91    3.40
   2  -5  15   58.86    4.16
   2   5  15   61.66    3.79
  -3  -5 -15   -1.07    0.82
   3  -5  15   -1.05    1.56
   3   5  15    0.92    1.39
  -4  -5 -15   12.97    1.89
   4  -5  15    9.13    2.34
   4   5  15   10.52    2.27
   5  -5  15    0.97    1.68
  -5  -5 -15    3.67    1.38
   5   5  15    2.82    1.91
   6  -5  15   17.13    2.88
  -6  -5 -15   16.55    2.30
   6   5  15   24.56    3.35
  -7  -5 -15    4.74    1.84
   7   5  15    2.31    2.14
  -8  -5 -15    6.24    2.25
   8   5  15    5.89    2.39
  -9  -5 -15   -1.75    2.09
   9   5  15    0.60    2.11
  10   5  15    5.96    2.49
  -8  -6  15   34.48    4.01
  -8   6  15   33.97    4.14
  -7  -6  15    1.45    1.91
  -7   6  15    1.64    1.97
  -6  -6  15    9.01    2.45
  -6   6  15   13.65    2.56
   5  -6 -15    1.70    1.66
  -5  -6  15    1.59    1.67
  -5   6  15    1.91    1.74
   4  -6 -15   15.57    2.43
  -4  -6  15   19.80    2.87
   3  -6 -15    2.49    1.51
  -3  -6  15    4.64    1.93
   2  -6 -15   14.91    2.13
  -2  -6  15   18.78    2.72
   1  -6 -15    1.40    1.27
  -1  -6  15    0.90    1.65
  -1   6  15    1.59    1.24
   0  -6 -15    4.63    1.35
   0  -6  15    0.65    1.71
   0   6  15    2.95    1.51
   1  -6  15    1.11    1.65
  -1  -6 -15   -1.38    0.98
   1   6  15    0.60    1.40
   2  -6  15   47.18    4.47
  -2  -6 -15   54.13    3.25
   2   6  15   53.15    3.90
  -3  -6 -15    0.30    1.17
   3  -6  15   -0.16    1.66
   3   6  15   -0.49    1.53
  -4  -6 -15    0.38    1.27
   4  -6  15    0.11    1.82
   4   6  15    0.09    1.65
   5  -6  15    2.41    1.84
  -5  -6 -15    2.72    1.49
   5   6  15    6.48    2.34
  -6  -6 -15    5.91    1.89
   6   6  15    7.16    2.54
  -7  -6 -15    8.68    2.39
   7   6  15   12.16    3.03
  -8  -6 -15    0.56    2.31
   8   6  15    3.73    2.37
   9   6  15    2.41    2.38
  -8  -7  15   -1.19    2.07
  -7  -7  15    2.78    2.14
  -7   7  15    4.18    2.37
  -6  -7  15    1.29    1.98
  -6   7  15    0.79    1.98
  -5  -7  15   -1.91    1.78
  -5   7  15    0.77    1.92
   4  -7 -15    5.79    1.99
  -4  -7  15    5.28    2.31
  -4   7  15    5.76    2.05
  -3  -7  15   -0.61    1.64
   3  -7 -15   -0.50    1.38
   2  -7 -15    0.65    1.38
  -2  -7  15    1.70    1.97
   1  -7 -15    7.88    1.78
  -1  -7  15    8.61    2.57
   0  -7 -15   12.09    2.10
   0  -7  15    9.15    2.58
   0   7  15   13.00    2.36
   1  -7  15    2.61    2.07
  -1  -7 -15    2.49    1.37
   1   7  15    2.57    1.77
   2  -7  15    4.34    2.28
  -2  -7 -15    4.13    1.63
   2   7  15    6.28    2.17
   3  -7  15   15.68    3.14
  -3  -7 -15   17.26    2.44
   3   7  15   17.18    3.13
  -4  -7 -15    9.34    2.13
   4  -7  15    9.11    2.66
   4   7  15    7.89    2.56
  -5  -7 -15    7.33    2.11
   5   7  15    6.91    2.55
   6   7  15    0.12    2.23
   7   7  15   -0.34    2.08
   8   7  15    7.19    2.99
  -7  -8  15    3.32    2.51
  -6  -8  15    3.81    2.34
  -5  -8  15    2.42    2.44
  -5   8  15    1.19    2.12
  -4  -8  15    2.58    2.41
  -4   8  15    2.75    2.05
   3  -8 -15   11.21    2.46
  -3  -8  15   12.21    3.15
  -3   8  15   14.40    2.70
   2  -8 -15   -0.73    1.49
  -2  -8  15    0.32    2.19
  -1  -8  15    2.65    2.30
   1  -8 -15    0.10    1.63
   0  -8  15    2.26    2.37
   0  -8 -15    2.85    1.75
   0   8  15    2.49    1.95
  -1  -8 -15    9.64    2.28
   1  -8  15    4.73    2.59
   1   8  15   11.85    2.69
   2  -8  15    7.44    2.60
  -2  -8 -15    7.63    2.11
   2   8  15    8.31    2.49
   3  -8  15   -0.02    2.17
   3   8  15    0.45    2.20
   4  -8  15   -0.56    2.17
   4   8  15   -1.15    2.00
   5   8  15    0.53    2.34
   6   8  15   -3.88    2.08
  -5  -9  15    0.57    2.54
  -4  -9  15   -1.43    2.40
  -3  -9  15   -0.87    2.34
  -2  -9  15   19.83    4.08
  -1  -9  15    0.55    2.50
   0  -9  15    2.10    2.53
   1  -9  15   -2.69    2.25
   1   9  15    1.64    2.13
   2  -9  15    1.87    2.55
   2   9  15    6.61    2.66
   3  -9  15   -0.73    2.37
   3   9  15    0.15    2.28
   4   9  15    3.13    2.73
 -12   0  16    4.91    2.17
  11   0 -16   -2.98    1.11
 -11   0  16    2.17    1.98
 -10   0  16   -1.49    1.61
  10   0 -16   -0.88    1.20
 -10   0  16    0.96    1.75
  -9   0  16    0.22    1.63
  -9   0  16   -1.52    1.49
   9   0 -16   -0.17    1.32
   8   0 -16   21.09    2.18
  -8   0  16   28.92    2.93
  -8   0  16   22.57    2.62
   7   0 -16    2.75    1.24
  -7   0  16   -0.99    1.15
  -7   0  16    1.50    1.24
  -6   0  16    1.76    1.24
  -6   0  16    2.60    1.38
   6   0 -16    2.62    1.13
   5   0 -16    0.26    0.97
  -5   0  16   -1.56    0.92
  -5   0  16   -0.35    0.95
  -4   0  16   10.66    1.48
   4   0 -16   11.77    1.41
   4   0 -16   10.17    1.39
  -4   0  16    9.49    1.35
  -3   0  16    0.50    0.63
   3   0 -16   -0.41    0.65
  -3   0  16   -0.96    0.76
   3   0 -16    0.37    0.76
   2   0 -16    1.24    0.64
  -2   0  16    1.18    0.73
  -2   0  16    0.04    0.74
   2   0 -16    1.36    0.72
   1   0 -16    0.09    0.49
  -1   0  16   -0.43    0.61
  -1   0  16   -0.42    0.64
   0   0  16  106.37    3.72
   0   0 -16  119.94    3.61
   0   0  16  117.31    4.35
   0   0 -16  114.56    3.65
  -1   0 -16    0.16    0.59
   1   0  16   -0.30    0.85
   1   0  16   -0.04    0.61
  -1   0 -16    0.27    0.44
  -1   0 -16   -0.62    0.48
  -2   0 -16  142.53    4.53
  -2   0 -16  142.90    4.32
   2   0  16  140.05    5.54
   2   0  16  141.21    4.55
  -2   0 -16  143.48    3.96
  -3   0 -16    0.49    0.60
  -3   0 -16   -0.11    0.49
  -3   0 -16    0.56    0.70
   3   0  16    0.52    1.26
   3   0  16    0.02    0.69
  -4   0 -16  185.87    5.66
  -4   0 -16  183.74    6.04
   4   0  16  179.21    7.27
   4   0  16  190.94    5.93
  -4   0 -16  180.88    5.14
  -5   0 -16    0.28    0.86
  -5   0 -16   -0.43    0.92
  -5   0 -16    0.21    0.66
   5   0  16   -0.24    0.96
   5   0  16    1.24    1.53
   6   0  16    9.75    2.24
  -6   0 -16    8.05    1.36
   6   0  16    8.94    1.64
  -6   0 -16    9.34    1.68
   7   0  16    1.98    1.78
   7   0  16    0.07    1.21
  -7   0 -16   -0.74    0.95
  -7   0 -16   -0.83    1.15
   8   0  16   31.56    2.93
  -8   0 -16   31.44    3.25
   8   0  16   28.94    3.50
  -8   0 -16   33.20    2.83
  -9   0 -16    0.65    1.43
   9   0  16    0.95    1.81
  -9   0 -16   -1.05    1.07
   9   0  16   -1.72    1.31
  -9   0 -16    0.50    1.49
 -10   0 -16   -0.39    1.25
 -10   0 -16   -0.70    1.65
  10   0  16    0.42    1.59
 -10   0 -16    2.42    1.84
  11   0  16   -0.43    1.61
 -11   0 -16   -2.54    1.64
 -12  -1  16    6.88    2.13
  12   1 -16    3.59    1.72
 -11  -1  16    4.19    2.00
  11   1 -16    8.72    1.90
 -11   1  16    6.21    2.24
 -10  -1  16   13.50    2.40
  10   1 -16   11.28    2.05
 -10   1  16    9.88    2.37
   9  -1 -16    0.18    0.93
  -9  -1  16    0.05    1.59
   9   1 -16    0.39    1.36
  -9   1  16   -0.11    1.49
  -8  -1  16    2.19    1.53
   8  -1 -16    0.69    1.03
  -8  -1  16    0.89    1.41
  -8   1  16    1.46    1.46
   8   1 -16    0.58    1.32
  -7  -1  16   10.06    1.90
  -7  -1  16   13.84    2.07
   7  -1 -16   12.64    1.54
  -7   1  16   13.57    2.15
   7   1 -16   15.76    2.00
   6  -1 -16  110.48    3.91
  -6  -1  16  112.89    4.55
  -6  -1  16  112.20    4.65
  -6   1  16   99.27    4.78
   6   1 -16  102.53    4.36
   5  -1 -16    0.91    0.89
  -5  -1  16   -0.14    1.07
  -5  -1  16    0.73    1.00
   5   1 -16    1.90    1.06
  -5   1  16    0.27    0.99
   4  -1 -16   10.43    1.49
  -4  -1  16   13.73    1.70
  -4  -1  16   14.62    1.39
  -4  -1  16   10.68    1.39
   4  -1 -16    9.71    1.22
   4   1 -16    9.23    1.36
  -3  -1  16    1.56    0.69
   3  -1 -16    2.63    0.83
   3  -1 -16    2.00    0.82
  -3  -1  16    0.43    0.70
  -3  -1  16    3.32    1.01
   3   1 -16    1.16    0.79
   3   1 -16    2.05    0.72
   2  -1 -16  216.47    6.16
   2  -1 -16  224.71    6.62
  -2  -1  16  216.04    6.57
  -2  -1  16  216.05    6.89
   2   1 -16  221.09    6.20
  -2   1  16  218.40    6.59
  -1  -1  16  179.55    5.53
   1  -1 -16  180.34    5.16
   1  -1 -16  172.35    5.49
  -1  -1  16  188.85    6.08
   1   1 -16  186.43    5.14
  -1   1  16  175.75    5.83
   0  -1  16   15.47    1.38
   0  -1  16   15.38    1.74
   0  -1 -16   14.58    1.21
   0   1 -16   14.32    1.18
   0   1 -16   13.65    0.98
   0   1 -16   13.31    0.98
   0   1  16   12.53    1.48
   1  -1  16    0.55    1.03
  -1  -1 -16    1.50    0.57
  -1  -1 -16    1.59    0.66
   1  -1  16    1.35    0.70
  -1   1 -16    0.79    0.51
  -1   1 -16    1.30    0.61
  -1   1 -16    1.95    0.53
   1   1  16    1.57    1.03
   2  -1  16   89.54    4.18
  -2  -1 -16   90.64    3.00
  -2  -1 -16   89.57    3.34
   2  -1  16   84.70    3.27
  -2   1 -16   92.68    3.15
  -2   1 -16   96.72    2.89
   2   1  16   91.21    4.12
   2   1  16   89.92    3.28
  -2   1 -16   91.76    3.18
   3  -1  16   50.20    3.44
   3  -1  16   47.37    2.43
  -3  -1 -16   49.83    2.11
  -3  -1 -16   53.08    2.49
   3   1  16   51.12    3.26
  -3   1 -16   51.33    2.32
  -3   1 -16   50.39    2.28
   3   1  16   52.98    2.51
   4  -1  16   61.38    3.81
   4  -1  16   58.77    2.72
  -4  -1 -16   55.16    2.01
  -4  -1 -16   54.88    2.76
  -4  -1 -16   57.42    2.43
  -4   1 -16   56.54    2.77
  -4   1 -16   55.73    2.50
   4   1  16   54.60    2.75
   4   1  16   58.17    3.58
  -5  -1 -16   10.14    1.28
  -5  -1 -16    9.02    0.95
  -5  -1 -16    9.58    1.60
   5  -1  16   10.38    2.16
   5  -1  16    9.37    1.54
   5   1  16    8.33    1.47
   5   1  16   10.99    2.18
  -5   1 -16   10.90    1.35
  -5   1 -16    7.76    1.36
   6  -1  16    9.71    2.36
  -6  -1 -16   11.00    1.75
  -6  -1 -16    8.28    1.02
   6  -1  16    9.10    1.61
  -6  -1 -16    7.76    1.34
   6   1  16    8.88    1.64
  -6   1 -16   10.46    1.75
   6   1  16    9.02    2.18
  -6   1 -16    8.73    1.40
  -7  -1 -16   36.51    1.94
   7  -1  16   35.77    2.88
  -7  -1 -16   39.82    2.58
  -7  -1 -16   31.60    2.99
   7  -1  16   43.82    4.00
   7   1  16   35.32    2.98
  -7   1 -16   39.97    3.33
   7   1  16   43.48    4.06
  -7   1 -16   33.87    2.67
  -8  -1 -16    2.30    1.39
   8  -1  16    2.16    1.84
  -8  -1 -16    2.14    0.98
  -8  -1 -16    4.41    1.68
   8  -1  16    4.08    1.58
   8   1  16    2.31    1.92
   8   1  16    2.38    1.63
  -8   1 -16    1.96    1.40
  -8   1 -16    5.92    1.78
  -9  -1 -16    5.39    2.09
   9  -1  16    6.20    1.78
  -9  -1 -16    3.28    1.57
  -9   1 -16    5.61    2.10
  -9   1 -16    4.01    1.68
   9   1  16    7.51    2.40
   9   1  16    8.94    2.10
  10  -1  16    0.82    1.44
 -10  -1 -16    0.27    1.75
 -10  -1 -16   -1.07    1.49
  10   1  16    2.17    1.71
 -10   1 -16    1.75    1.69
 -10   1 -16    0.10    1.78
  11  -1  16    0.56    1.33
 -11  -1 -16    0.72    1.68
 -11   1 -16   -0.02    1.43
 -11   1 -16    1.47    1.83
  11   1  16    0.62    1.70
 -12  -2  16    0.92    1.78
  12   2 -16    1.25    1.77
 -11  -2  16   -0.02    1.62
  11   2 -16   -0.30    1.59
 -11   2  16   -1.85    1.69
 -10  -2  16   -0.48    1.56
  10   2 -16   -1.32    1.47
 -10   2  16   -1.83    1.62
  -9  -2  16    2.70    1.62
  -9   2  16    0.98    1.68
   9   2 -16    0.49    1.51
  -8  -2  16    2.86    1.58
   8   2 -16    0.91    1.43
  -8   2  16    3.10    1.68
  -7  -2  16    5.58    1.61
   7   2 -16    4.55    1.60
  -7   2  16    2.77    1.70
  -6  -2  16    0.06    1.08
  -6   2  16    2.09    1.39
   6   2 -16    3.06    1.32
   5  -2 -16    8.93    1.71
  -5  -2  16   11.79    1.75
  -5  -2  16   13.29    1.57
   5   2 -16   13.17    1.68
  -5   2  16    9.77    1.77
   4  -2 -16   -0.41    0.90
  -4  -2  16    0.03    0.89
  -4  -2  16    3.17    1.10
   4   2 -16    0.20    0.86
   3  -2 -16  125.93    4.68
  -3  -2  16  133.20    4.72
  -3  -2  16  124.89    4.73
   3   2 -16  134.34    4.43
  -2  -2  16    0.59    0.90
   2  -2 -16    3.09    0.94
  -2  -2  16    0.96    0.84
  -2   2  16    3.72    0.87
  -1  -2  16    1.19    0.87
  -1  -2  16    1.43    1.01
   1  -2 -16   -0.16    0.66
  -1   2  16    1.09    0.76
   1   2 -16    0.64    0.52
   1   2 -16    1.63    0.68
   1   2 -16    1.66    0.39
   0  -2 -16    2.11    0.78
   0  -2  16    1.68    0.98
   0  -2  16    3.02    0.92
   0   2 -16    2.45    0.70
   0   2 -16    3.34    0.50
   0   2  16    2.46    1.00
   0   2 -16    2.31    0.59
   1  -2  16    1.05    1.09
   1  -2  16    1.96    0.89
  -1  -2 -16    1.91    0.49
  -1  -2 -16    1.06    0.70
  -1   2 -16    0.96    0.63
   1   2  16    0.99    0.97
  -1   2 -16    2.05    0.56
  -1   2 -16    1.87    0.50
  -2  -2 -16    0.41    0.74
  -2  -2 -16    2.29    0.56
   2  -2  16    3.01    0.92
   2  -2  16    0.98    1.31
   2   2  16    4.77    1.35
  -2   2 -16    2.71    0.78
  -2   2 -16    1.85    0.64
  -3  -2 -16   -0.45    0.54
  -3  -2 -16    0.38    0.74
   3  -2  16   -0.68    0.77
   3  -2  16   -0.02    1.39
  -3   2 -16    0.97    0.65
  -3   2 -16    1.52    0.73
   3   2  16    1.03    1.22
   4  -2  16    2.02    1.55
  -4  -2 -16    3.22    1.06
   4  -2  16    1.35    0.93
  -4  -2 -16    0.77    0.67
  -4   2 -16    2.07    0.84
  -4   2 -16    1.70    0.82
   4   2  16    0.62    1.21
  -5  -2 -16    0.46    1.04
   5  -2  16    1.91    1.81
   5  -2  16    2.11    1.14
  -5  -2 -16    0.52    0.74
  -5   2 -16    0.91    0.99
  -5   2 -16    1.09    0.87
   5   2  16   -0.43    1.36
   5   2  16    0.04    1.15
   6  -2  16    3.96    2.00
  -6  -2 -16    2.60    1.27
  -6  -2 -16    1.96    0.96
   6  -2  16    3.67    1.34
  -6   2 -16    0.49    1.16
   6   2  16   -0.69    1.45
   6   2  16    2.78    1.41
   7  -2  16   27.92    2.44
  -7  -2 -16   28.05    2.90
  -7  -2 -16   30.36    2.28
   7  -2  16   36.73    3.79
   7   2  16   29.68    3.50
   7   2  16   35.64    3.02
  -7   2 -16   26.13    2.80
   8  -2  16    2.38    1.93
  -8  -2 -16    1.19    1.58
  -8  -2 -16    2.40    1.31
   8  -2  16   -0.65    1.27
  -8   2 -16   -0.15    1.31
   8   2  16    3.78    1.67
   8   2  16    1.57    1.78
  -9  -2 -16   23.21    2.38
   9  -2  16   22.10    1.93
  -9  -2 -16   22.76    3.09
   9   2  16   22.52    3.35
  -9   2 -16   27.28    3.19
   9   2  16   23.16    2.82
 -10  -2 -16    0.27    1.89
 -10  -2 -16   -0.93    1.43
  10   2  16    0.43    2.03
 -10   2 -16   -0.44    1.85
  10   2  16    0.83    1.76
 -11  -2 -16   -1.34    1.45
  11   2  16   -1.68    1.72
 -11   2 -16   -1.32    1.79
 -11  -3  16    0.75    1.61
  11   3 -16   -0.76    1.73
 -10  -3  16    8.53    1.98
 -10   3  16    3.70    2.04
  10   3 -16    9.20    2.25
  -9  -3  16    0.19    1.54
   9   3 -16    1.34    1.73
  -9   3  16   -1.88    1.46
  -8  -3  16    1.07    1.38
  -8   3  16    1.82    1.69
   8   3 -16   -0.52    1.43
  -7  -3  16    6.45    1.71
  -7   3  16    5.07    1.96
   7   3 -16    4.60    1.67
  -6  -3  16  151.44    5.55
  -6  -3  16  148.26    5.84
  -6   3  16  149.66    6.37
   6   3 -16  151.12    5.79
  -5  -3  16    2.86    1.33
   5  -3 -16    5.63    1.60
  -5  -3  16    4.02    1.32
   5   3 -16    2.47    1.23
  -5   3  16    4.79    1.50
  -4  -3  16    0.45    0.99
  -4  -3  16    0.40    0.94
   4  -3 -16   -0.14    0.98
   4   3 -16    0.86    1.04
  -3  -3  16    0.89    0.96
  -3  -3  16    1.06    0.98
   3  -3 -16    0.83    0.96
  -2  -3  16  204.70    6.30
  -2  -3  16  213.35    7.24
   2  -3 -16  213.29    6.86
  -2   3  16  209.77    6.56
   1  -3 -16   71.35    3.18
  -1  -3  16   69.66    2.91
  -1  -3  16   73.49    3.62
  -1   3  16   72.68    3.23
   1   3 -16   76.38    2.52
   0  -3  16   14.54    1.97
   0  -3 -16   16.58    1.61
   0  -3  16   19.93    1.52
   0   3 -16   19.43    1.21
   0   3  16   20.72    1.96
  -1  -3 -16    3.03    0.93
   1  -3  16    3.92    1.36
   1  -3  16    2.84    0.86
   1   3  16    3.04    1.16
  -2  -3 -16  124.22    4.60
   2  -3  16  125.19    5.66
   2  -3  16  121.91    3.92
  -2   3 -16  125.13    3.91
   2   3  16  125.34    5.24
   3  -3  16   18.94    1.41
  -3  -3 -16   22.89    1.98
   3  -3  16   20.30    2.78
   3   3  16   20.14    2.46
  -3   3 -16   20.88    1.56
   4  -3  16   27.37    3.17
  -4  -3 -16   28.03    2.36
   4  -3  16   22.66    1.54
  -4   3 -16   25.03    1.95
   4   3  16   27.35    2.96
  -5  -3 -16    1.91    1.05
   5  -3  16    1.00    1.72
  -5  -3 -16    2.41    0.64
   5   3  16   -1.05    1.22
  -5   3 -16    1.55    1.06
  -6  -3 -16    7.54    1.66
  -6  -3 -16    9.57    1.08
   6  -3  16    9.08    2.32
  -6   3 -16    8.10    1.66
   6   3  16   10.08    2.39
  -7  -3 -16   16.97    2.40
   7  -3  16   20.13    2.97
  -7  -3 -16   19.59    1.62
  -7   3 -16   17.85    2.32
   7   3  16   20.47    3.05
  -8  -3 -16    2.02    1.14
  -8  -3 -16    4.06    1.89
  -8   3 -16    3.08    1.60
   8   3  16    5.71    2.22
  -9  -3 -16    4.50    2.15
  -9  -3 -16    3.35    1.26
   9   3  16    5.10    2.02
  -9   3 -16    6.06    2.06
   9   3  16    5.72    2.37
 -10  -3 -16   -1.54    1.72
 -10  -3 -16   -1.54    1.16
  10   3  16    1.86    2.16
 -10   3 -16    2.35    1.91
  10   3  16    0.60    1.88
  11   3  16   -2.57    1.72
  11   4 -16    0.02    1.88
 -10  -4  16   -0.65    1.35
  10   4 -16    0.43    1.93
 -10   4  16   -1.59    1.75
  -9  -4  16   -0.36    1.40
   9   4 -16   -0.78    1.72
  -9   4  16    0.26    1.69
  -8  -4  16   13.41    1.91
   8   4 -16   14.41    2.56
  -8   4  16   10.48    2.48
  -7  -4  16    1.56    1.27
  -7  -4  16    1.22    1.57
  -7   4  16   -0.12    1.42
  -6  -4  16   -0.53    1.08
  -6  -4  16    0.02    1.23
  -6   4  16    0.70    1.51
  -5  -4  16    0.35    0.96
   5  -4 -16    0.88    1.18
  -5  -4  16    0.98    1.27
  -5   4  16    0.41    1.21
  -4  -4  16    2.14    0.81
   4  -4 -16    2.66    1.37
  -4  -4  16    3.37    1.31
  -3  -4  16    2.74    1.27
   3  -4 -16    1.19    1.01
   2  -4 -16    0.16    0.97
  -2  -4  16    0.42    1.15
   2   4 -16    0.86    0.67
  -2   4  16    0.57    0.91
  -1  -4  16   -0.62    0.97
   1  -4 -16    1.19    0.98
  -1   4  16    1.62    0.98
   1   4 -16    0.80    0.62
   0  -4 -16   52.79    2.87
   0  -4  16   58.57    3.51
   0   4 -16   51.73    2.02
   0   4  16   48.62    2.90
   1  -4  16   -0.82    1.23
  -1  -4 -16   -0.56    0.76
   1   4  16   -0.45    1.01
  -2  -4 -16   54.84    2.91
   2  -4  16   44.89    3.89
   2   4  16   49.33    3.28
  -3  -4 -16    5.24    1.35
   3  -4  16    4.99    1.88
   3   4  16    7.12    1.74
  -4  -4 -16   86.12    3.95
   4  -4  16   79.41    5.08
   4   4  16   88.60    4.90
  -4   4 -16   93.26    3.62
   5  -4  16    4.35    2.10
  -5  -4 -16    7.93    1.62
  -5   4 -16    8.16    1.47
   5   4  16    4.13    1.95
   6  -4  16    0.98    1.92
  -6  -4 -16    2.87    1.39
   6   4  16    4.62    1.95
  -6   4 -16    6.22    1.52
  -7  -4 -16    6.61    1.97
  -7   4 -16    4.56    1.67
   7   4  16    4.54    2.13
  -8  -4 -16   15.12    2.66
  -8   4 -16   19.02    2.70
   8   4  16   17.71    3.15
  -9  -4 -16    2.07    1.92
  -9   4 -16    1.79    1.91
   9   4  16   -0.71    1.86
  10   4  16    3.55    2.34
  -9   5  16   -1.96    1.70
  -8   5  16    4.28    1.95
  -7  -5  16    4.83    1.98
  -7   5  16    7.16    2.32
  -6  -5  16    9.13    2.16
  -6   5  16   11.81    2.43
   5  -5 -16   -1.89    1.25
  -5  -5  16   -0.12    1.32
  -5   5  16   -0.02    1.41
  -4  -5  16   25.82    2.83
   4  -5 -16   29.64    2.98
  -3  -5  16    2.66    1.43
   3  -5 -16    1.66    1.19
   2  -5 -16   22.13    2.35
  -2  -5  16   24.57    2.81
   1  -5 -16   68.23    3.54
  -1  -5  16   67.87    4.05
  -1   5  16   64.86    3.39
   0  -5  16    4.00    1.62
   0  -5 -16    5.98    1.39
   0   5  16    4.41    1.40
   1  -5  16   10.81    2.23
  -1  -5 -16    9.72    1.64
   1   5  16    9.46    1.84
  -2  -5 -16    9.18    1.61
   2  -5  16    7.45    2.17
   2   5  16    6.99    1.82
   3  -5  16   35.99    3.82
  -3  -5 -16   36.33    2.87
   3   5  16   38.59    3.57
   4  -5  16   30.17    3.57
  -4  -5 -16   32.13    2.84
   4   5  16   29.72    3.37
   5  -5  16    8.96    2.44
  -5  -5 -16    5.37    1.56
   5   5  16    6.42    2.09
  -6  -5 -16    1.27    1.38
   6  -5  16    0.59    1.83
   6   5  16    0.23    1.82
  -7  -5 -16    9.49    2.18
   7   5  16   13.46    2.86
  -8  -5 -16    0.95    1.84
   8   5  16    2.52    2.17
  -9  -5 -16    0.01    2.16
   9   5  16    5.07    2.39
  10   5  16    0.04    2.25
  -8  -6  16    9.27    2.62
  -8   6  16    8.18    2.64
  -7  -6  16    5.27    2.26
  -7   6  16    3.42    2.21
  -6  -6  16   -1.42    1.59
  -6   6  16    4.87    2.15
   5  -6 -16    5.33    1.82
  -5  -6  16    1.93    1.68
  -5   6  16    3.69    1.96
   4  -6 -16   -0.13    1.42
  -4  -6  16    1.12    1.53
  -3  -6  16   32.14    3.56
   3  -6 -16   34.11    3.26
   2  -6 -16   -0.49    1.16
  -2  -6  16    0.59    1.48
   1  -6 -16   -0.22    1.21
  -1  -6  16    1.51    1.75
  -1   6  16    1.60    1.34
   0  -6  16    6.93    2.19
   0  -6 -16    4.07    1.50
   0   6  16    3.80    1.57
   1  -6  16    2.30    1.80
  -1  -6 -16    1.62    1.31
   1   6  16    0.41    1.41
  -2  -6 -16    5.73    1.59
   2  -6  16    7.08    2.24
   2   6  16    6.77    2.05
  -3  -6 -16   -0.08    1.19
   3  -6  16    4.42    2.09
   3   6  16   -0.38    1.58
   4  -6  16    8.97    2.41
  -4  -6 -16    6.10    1.69
   4   6  16    6.66    2.28
   5  -6  16   -0.26    1.84
  -5  -6 -16   -0.81    1.17
   5   6  16   -3.23    1.43
  -6  -6 -16    5.98    1.94
   6   6  16    1.51    2.14
  -7  -6 -16    3.42    2.05
   7   6  16    6.26    2.65
  -8  -6 -16   -0.99    2.11
   8   6  16    3.12    2.40
   9   6  16    1.14    2.29
  -8  -7  16    2.13    2.38
  -7  -7  16   -2.52    1.83
  -7   7  16    1.30    2.31
  -6  -7  16   38.75    4.32
  -6   7  16   48.83    4.66
  -5  -7  16    5.54    2.26
  -5   7  16    5.35    2.25
  -4  -7  16    1.94    1.81
   4  -7 -16    1.34    1.67
  -4   7  16   -0.05    1.59
   3  -7 -16    0.04    1.41
  -3  -7  16   -0.40    1.61
   2  -7 -16   42.28    3.66
  -2  -7  16   42.68    4.41
  -1  -7  16    6.87    2.36
   1  -7 -16    5.55    1.71
   0  -7  16   -0.66    1.81
   0  -7 -16   -0.87    1.24
   0   7  16   -1.11    1.38
  -1  -7 -16    3.57    1.56
   1  -7  16    2.41    2.16
   1   7  16    5.21    2.01
  -2  -7 -16   31.92    2.99
   2  -7  16   21.38    3.64
   2   7  16   34.18    3.74
   3  -7  16    0.76    2.12
  -3  -7 -16    1.98    1.51
   3   7  16    3.82    2.08
  -4  -7 -16    8.25    2.03
   4  -7  16    6.18    2.50
   4   7  16    8.16    2.64
  -5  -7 -16   -1.67    1.58
   5   7  16   -2.75    1.90
  -6  -7 -16   -0.83    1.85
   6   7  16   -2.84    2.01
   7   7  16    5.06    2.73
   8   7  16    3.05    2.71
  -7  -8  16   -1.33    2.29
  -6  -8  16    6.49    2.69
  -5  -8  16    1.68    2.26
  -5   8  16    4.28    2.39
  -4  -8  16   -1.86    1.88
   4  -8 -16    4.40    2.11
  -4   8  16    3.74    2.14
   3  -8 -16    7.36    2.30
  -3  -8  16    6.78    2.78
  -3   8  16    2.32    1.94
  -2  -8  16    3.83    2.43
   2  -8 -16    1.75    1.69
  -1  -8  16    3.98    2.56
   1  -8 -16   -0.62    1.56
   0  -8  16    7.70    2.85
   0  -8 -16    4.86    1.91
   0   8  16    4.35    2.17
  -1  -8 -16    0.93    1.67
   1  -8  16    1.17    2.26
   1   8  16   -0.10    1.74
  -2  -8 -16    0.99    1.67
   2  -8  16    0.71    2.19
   2   8  16    0.53    1.87
   3  -8  16    2.89    2.41
   3   8  16    0.82    2.07
   4  -8  16   12.54    3.16
   4   8  16    5.35    2.58
   5   8  16    0.56    2.32
   6   8  16    0.54    2.58
  -4  -9  16   11.65    3.46
  -3  -9  16    1.51    2.56
  -2  -9  16    1.43    2.59
  -1  -9  16    6.88    3.15
   0  -9  16    4.58    3.08
   1  -9  16    4.97    3.03
   1   9  16    2.12    2.25
   2  -9  16    0.12    2.56
   2   9  16    1.49    2.43
   3  -9  16    8.17    3.15
   3   9  16    8.20    2.90
   4   9  16    0.58    2.54
 -12   0  17    1.48    2.03
 -11   0  17    4.17    2.04
  11   0 -17    4.41    1.41
 -10   0  17    1.18    1.76
 -10   0  17   -0.11    1.73
  10   0 -17   -0.34    1.22
  -9   0  17   -1.58    1.43
  -9   0  17    2.43    1.72
   9   0 -17   -2.17    1.18
  -8   0  17    0.41    1.39
   8   0 -17   -1.77    1.09
  -8   0  17   -2.29    1.23
   7   0 -17    0.34    1.09
  -7   0  17   -0.22    1.17
  -7   0  17    0.08    1.29
  -6   0  17   -1.11    1.14
  -6   0  17    0.53    1.08
   6   0 -17    0.60    1.02
  -5   0  17   16.94    1.92
   5   0 -17   16.58    1.78
  -5   0  17   15.44    1.82
  -4   0  17    0.19    0.80
   4   0 -17    0.38    0.85
   4   0 -17    0.59    0.88
  -4   0  17    0.45    0.99
  -3   0  17    2.63    1.01
  -3   0  17    4.45    0.94
   3   0 -17    3.20    0.91
   3   0 -17    1.80    0.83
  -2   0  17    0.42    0.75
   2   0 -17    0.34    0.65
  -2   0  17   -0.08    0.72
   2   0 -17   -0.13    0.57
   1   0 -17    9.59    0.99
  -1   0  17   13.83    1.49
  -1   0  17   10.62    1.19
   0   0  17    1.57    0.71
   0   0  17    0.62    0.84
   0   0 -17    0.91    0.61
   0   0 -17    0.94    0.55
  -1   0 -17   54.51    2.24
   1   0  17   52.47    2.97
  -1   0 -17   51.66    2.12
   1   0  17   54.75    2.35
  -2   0 -17    0.45    0.64
  -2   0 -17   -0.50    0.44
  -2   0 -17   -0.57    0.52
   2   0  17   -1.56    0.64
   2   0  17   -1.05    0.99
  -3   0 -17    5.88    0.92
   3   0  17    1.09    1.27
  -3   0 -17    6.19    0.78
  -3   0 -17    3.98    0.91
   3   0  17    5.22    1.03
  -4   0 -17   -0.26    0.81
   4   0  17    1.80    1.37
  -4   0 -17   -0.12    0.67
  -4   0 -17   -0.64    0.56
   4   0  17   -0.20    0.88
  -5   0 -17   99.02    3.32
  -5   0 -17   96.29    3.66
  -5   0 -17   97.03    4.14
   5   0  17   88.13    5.05
   5   0  17   93.34    3.93
  -6   0 -17   -0.39    0.75
  -6   0 -17   -1.20    1.04
  -6   0 -17    0.25    0.92
   6   0  17   -0.06    1.17
   6   0  17    1.88    1.67
  -7   0 -17   20.32    1.82
  -7   0 -17   22.98    2.23
   7   0  17   27.63    3.37
  -7   0 -17   28.25    2.92
   7   0  17   23.38    2.47
  -8   0 -17    0.08    1.01
  -8   0 -17    2.10    1.31
  -8   0 -17    0.54    1.40
   8   0  17    0.67    1.84
   8   0  17   -0.16    1.43
  -9   0 -17   56.88    4.62
  -9   0 -17   56.18    3.64
   9   0  17   59.77    3.83
   9   0  17   60.48    4.42
  -9   0 -17   53.98    2.90
 -10   0 -17   -1.61    1.18
 -10   0 -17   -0.69    1.75
 -10   0 -17    1.31    1.62
  10   0  17    0.45    1.64
 -11   0 -17    1.12    1.74
  11   0  17    0.40    1.66
 -12  -1  17   -0.14    1.71
  12   1 -17    2.73    1.66
 -11  -1  17    5.46    2.06
  11   1 -17    6.46    1.83
 -11   1  17    5.98    2.26
 -10  -1  17    6.74    2.12
 -10   1  17    6.78    2.25
  10   1 -17    6.68    1.81
  -9  -1  17   -1.53    1.49
   9  -1 -17   -0.83    0.88
  -9   1  17   -2.54    1.35
   9   1 -17    0.80    1.50
   8  -1 -17   -0.02    0.97
  -8  -1  17   -0.60    1.44
  -8  -1  17   -0.51    1.43
   8   1 -17    0.13    1.33
  -8   1  17    4.05    1.73
   7  -1 -17   11.06    1.45
  -7  -1  17   11.83    1.93
  -7  -1  17   14.83    2.03
   7   1 -17    9.16    1.82
  -7   1  17   13.68    2.17
  -6  -1  17   72.13    3.56
   6  -1 -17   75.10    3.05
  -6  -1  17   70.50    3.63
   6   1 -17   75.02    3.56
  -6   1  17   70.40    3.90
  -5  -1  17   19.44    1.93
  -5  -1  17   20.81    2.16
   5  -1 -17   25.36    1.75
   5   1 -17   19.52    1.98
  -5   1  17   25.70    2.39
  -4  -1  17    7.88    1.43
  -4  -1  17    6.88    1.11
   4  -1 -17    9.91    1.48
  -4  -1  17    7.70    1.24
   4  -1 -17    9.15    1.21
   4   1 -17    8.55    1.38
  -3  -1  17    1.20    0.71
  -3  -1  17    1.51    0.80
  -3  -1  17    0.98    0.96
   3  -1 -17    1.69    0.87
   3  -1 -17    0.47    0.73
  -3   1  17    1.07    0.70
   3   1 -17    0.61    0.87
   3   1 -17    1.35    0.67
  -2  -1  17   96.23    3.78
   2  -1 -17   95.44    3.23
   2  -1 -17   98.18    3.60
  -2  -1  17   91.35    3.60
   2   1 -17   98.36    3.19
  -2   1  17   99.81    3.51
   1  -1 -17   84.47    3.13
   1  -1 -17   79.08    2.78
  -1  -1  17   81.22    3.22
  -1  -1  17   80.32    3.52
   1   1 -17   82.75    2.74
   1   1 -17   81.88    2.94
  -1   1  17   86.62    3.40
   0  -1 -17   24.84    1.55
   0  -1  17   21.52    1.65
   0  -1  17   23.66    2.09
   0   1  17   20.92    1.91
   0   1 -17   22.13    1.24
   0   1 -17   20.93    1.19
   0   1 -17   22.44    1.43
   1  -1  17   -0.58    0.63
   1  -1  17    0.52    0.97
  -1  -1 -17    0.02    0.50
  -1  -1 -17    0.45    0.56
   1   1  17   -0.14    0.63
  -1   1 -17    0.25    0.49
  -1   1 -17   -0.44    0.46
  -1   1 -17    0.08    0.59
   1   1  17   -0.58    0.92
  -2  -1 -17    9.79    1.25
   2  -1  17   12.63    1.87
  -2  -1 -17   11.22    1.04
   2  -1  17   11.39    1.28
   2   1  17   10.15    1.22
  -2   1 -17   10.52    0.96
  -2   1 -17   10.05    1.09
  -2   1 -17   12.02    1.16
   2   1  17   11.61    1.78
   3  -1  17   62.24    2.84
  -3  -1 -17   64.96    2.52
  -3  -1 -17   65.84    2.98
   3  -1  17   67.36    3.86
  -3   1 -17   67.19    2.42
  -3   1 -17   65.62    2.78
   3   1  17   68.22    2.87
  -3   1 -17   61.19    2.59
  -4  -1 -17   12.69    0.97
  -4  -1 -17   10.41    1.20
   4  -1  17   10.21    1.47
  -4  -1 -17   13.16    1.59
   4  -1  17   12.85    2.36
   4   1  17    9.86    1.42
  -4   1 -17    9.45    1.23
   4   1  17   11.38    2.08
  -4   1 -17   10.08    1.38
  -5  -1 -17    2.87    0.72
  -5  -1 -17    1.49    1.04
   5  -1  17    2.27    1.80
   5  -1  17    2.76    1.22
  -5  -1 -17    3.06    0.98
  -5   1 -17    0.78    1.05
   5   1  17    4.23    1.79
  -5   1 -17    2.99    0.97
   5   1  17    6.98    1.41
   6  -1  17    9.43    2.28
  -6  -1 -17    7.05    1.29
   6  -1  17    5.48    1.48
  -6  -1 -17    6.11    0.97
  -6  -1 -17    3.92    1.37
  -6   1 -17    5.53    1.55
  -6   1 -17    5.89    1.32
   6   1  17    7.53    2.09
   6   1  17    5.72    1.49
  -7  -1 -17   11.66    2.00
  -7  -1 -17    7.92    1.13
   7  -1  17   13.06    2.05
  -7  -1 -17    7.48    1.47
   7  -1  17   14.38    2.62
   7   1  17    8.28    2.30
   7   1  17    6.55    1.78
  -7   1 -17   10.91    2.03
  -7   1 -17   11.35    1.72
   8  -1  17    0.04    1.42
  -8  -1 -17   -0.05    1.39
   8  -1  17    2.10    1.80
  -8  -1 -17   -0.88    1.18
  -8   1 -17   -0.92    1.22
  -8   1 -17   -0.39    1.45
   8   1  17    1.84    1.55
   8   1  17   -1.40    1.66
  -9  -1 -17    2.77    1.84
  -9  -1 -17    4.82    1.68
   9  -1  17    3.45    1.66
   9   1  17    4.44    1.90
   9   1  17    6.57    2.31
  -9   1 -17    8.66    1.99
  -9   1 -17    6.31    2.05
 -10  -1 -17    8.27    2.35
 -10  -1 -17    4.49    1.77
  10  -1  17    4.18    1.62
  10   1  17    2.94    1.81
 -10   1 -17    6.37    2.38
 -10   1 -17    1.46    1.68
 -11  -1 -17   -0.35    1.57
  11  -1  17    0.49    1.40
  11   1  17    1.73    1.78
 -11   1 -17    0.08    1.75
 -11   1 -17    0.45    1.44
 -12  -2  17   -0.39    1.69
  12   2 -17    0.57    1.67
 -11  -2  17   -0.42    1.64
 -11   2  17    0.00    1.91
  11   2 -17   -1.69    1.54
 -10  -2  17   10.51    2.24
 -10   2  17    9.20    2.48
  10   2 -17   12.64    2.33
  -9  -2  17   -0.88    1.43
  -9   2  17   -0.18    1.55
   9   2 -17    1.38    1.64
  -8  -2  17    5.69    1.75
   8   2 -17    2.86    1.66
  -8   2  17    4.83    1.93
  -7  -2  17   -0.41    1.28
  -7   2  17    2.03    1.50
   7   2 -17    1.26    1.34
  -6  -2  17   22.11    2.27
   6   2 -17   17.69    2.18
  -6   2  17   22.94    2.58
   5  -2 -17   -0.10    1.15
  -5  -2  17   -1.02    1.08
  -5  -2  17   -0.47    0.85
   5   2 -17    0.57    1.12
  -5   2  17    2.72    1.23
  -4  -2  17  108.98    4.35
  -4  -2  17  103.78    4.16
   4  -2 -17  104.59    4.43
   4   2 -17  108.05    4.11
   3  -2 -17    4.78    1.17
  -3  -2  17    3.65    1.05
  -3  -2  17    3.88    1.19
   3   2 -17    3.66    1.00
  -2  -2  17    4.81    1.13
  -2  -2  17    3.19    1.06
   2  -2 -17    1.93    0.88
  -2   2  17    4.36    1.00
  -1  -2  17    0.42    0.85
   1  -2 -17    0.93    0.76
  -1  -2  17    1.87    0.91
   1   2 -17    2.29    0.47
  -1   2  17    1.75    0.88
   1   2 -17    2.10    0.77
   0  -2  17  410.59   12.57
   0  -2  17  419.48   11.39
   0  -2 -17  411.36   11.64
   0   2  17  403.88   12.25
   0   2 -17  407.95   11.07
   0   2 -17  418.29   10.85
   0   2 -17  432.93   10.41
  -1  -2 -17    3.64    0.95
  -1  -2 -17    4.58    0.62
   1  -2  17    5.58    1.06
   1  -2  17    4.73    1.39
  -1   2 -17    3.73    0.80
  -1   2 -17    4.86    0.73
  -1   2 -17    4.34    0.65
   1   2  17    6.18    1.31
  -2  -2 -17   19.78    1.69
   2  -2  17   21.15    1.72
  -2  -2 -17   18.54    1.15
   2  -2  17   27.83    2.76
  -2   2 -17   22.47    1.49
  -2   2 -17   19.98    1.37
   2   2  17   23.18    2.33
  -3  -2 -17    8.71    0.91
  -3  -2 -17    5.87    1.18
   3  -2  17    7.63    1.26
   3  -2  17    8.69    2.04
   3   2  17    8.42    1.68
  -3   2 -17    9.83    1.15
  -3   2 -17    7.54    1.10
   4  -2  17  195.74    8.10
  -4  -2 -17  194.20    5.68
  -4  -2 -17  194.49    6.60
   4  -2  17  196.25    6.20
  -4   2 -17  190.71    6.03
   4   2  17  196.84    7.66
  -4   2 -17  201.03    6.31
   5  -2  17    2.22    1.70
  -5  -2 -17    0.32    0.78
   5  -2  17    3.45    1.21
  -5  -2 -17    1.78    1.17
   5   2  17    0.96    1.24
  -5   2 -17    1.17    1.00
  -5   2 -17    1.69    1.00
   5   2  17   -0.70    1.28
  -6  -2 -17    5.47    1.43
  -6  -2 -17    3.92    1.04
   6  -2  17    4.79    1.43
   6  -2  17   -0.60    1.66
   6   2  17    4.43    1.50
   6   2  17    2.55    1.82
  -6   2 -17    4.13    1.32
   7  -2  17    1.77    1.84
   7  -2  17    2.28    1.45
  -7  -2 -17    2.86    1.15
  -7  -2 -17    3.00    1.52
  -7   2 -17    1.78    1.42
   7   2  17    1.94    1.70
   7   2  17    2.20    1.54
   8  -2  17   43.51    4.08
  -8  -2 -17   43.74    2.73
  -8  -2 -17   36.48    3.57
   8  -2  17   36.65    2.71
   8   2  17   34.91    3.94
  -8   2 -17   38.87    3.51
   8   2  17   39.00    3.40
  -9  -2 -17    2.73    1.46
   9  -2  17    0.89    1.15
  -9  -2 -17    1.41    1.66
  -9   2 -17    0.43    1.79
   9   2  17    0.81    1.77
   9   2  17    3.81    2.12
 -10  -2 -17   -0.38    1.86
 -10  -2 -17    1.33    1.47
  10   2  17    2.76    2.32
  10   2  17    3.10    1.88
 -10   2 -17    1.08    2.01
 -11  -2 -17    1.19    1.57
 -11   2 -17    1.98    2.01
  11   2  17   -3.28    1.64
 -11  -3  17    8.01    1.99
  11   3 -17    6.53    2.13
 -10  -3  17    6.44    1.92
  10   3 -17    7.33    2.15
 -10   3  17    9.60    2.55
  -9  -3  17   -1.54    1.48
  -9   3  17   -3.07    1.49
   9   3 -17   -3.22    1.45
  -8  -3  17    3.27    1.61
  -8   3  17    4.87    1.91
   8   3 -17    7.55    2.04
  -7  -3  17   11.67    1.98
   7   3 -17   11.00    2.05
  -7   3  17    9.07    2.17
  -6  -3  17   15.12    1.99
  -6  -3  17   15.28    1.97
  -6   3  17   13.37    2.28
   6   3 -17   14.52    2.13
  -5  -3  17    3.72    1.28
   5  -3 -17    2.36    1.32
  -5  -3  17    2.45    1.16
   5   3 -17    3.86    1.31
  -5   3  17    4.52    1.44
  -4  -3  17    0.68    1.01
  -4  -3  17    0.62    1.01
   4  -3 -17    0.05    1.09
   4   3 -17    1.96    1.11
  -3  -3  17    4.39    1.28
   3  -3 -17    4.14    1.23
  -3  -3  17    2.74    1.13
   2  -3 -17   22.38    2.00
  -2  -3  17   19.20    2.06
  -2  -3  17   22.23    1.84
  -2   3  17   21.71    1.78
   1  -3 -17  113.89    4.39
  -1  -3  17  122.09    4.91
  -1  -3  17  120.00    4.15
  -1   3  17  120.17    4.50
   1   3 -17  117.13    3.59
   0  -3  17    0.62    1.13
   0  -3  17   -0.83    0.82
   0  -3 -17    1.60    0.81
   0   3 -17    1.49    0.59
   0   3  17    2.06    1.04
  -1  -3 -17    4.39    1.04
   1  -3  17    4.70    1.58
   1  -3  17    4.47    1.01
   1   3  17    4.49    1.36
   2  -3  17    1.05    0.89
   2  -3  17    3.73    1.56
  -2  -3 -17    2.73    0.93
   2   3  17    2.14    1.29
  -2   3 -17   -0.02    0.56
   3  -3  17   50.06    4.14
   3  -3  17   47.43    2.25
  -3  -3 -17   47.99    2.63
   3   3  17   42.21    3.14
  -3   3 -17   46.62    2.23
   4  -3  17    7.12    1.13
   4  -3  17   11.02    2.45
  -4  -3 -17    7.91    1.43
  -4   3 -17    8.16    1.28
   4   3  17    8.61    2.03
   5  -3  17    4.00    2.04
   5  -3  17    3.73    0.91
  -5  -3 -17   -1.48    0.92
  -5  -3 -17    2.24    0.65
   5   3  17    2.56    1.70
  -5   3 -17    1.46    1.03
  -6  -3 -17    2.80    0.86
   6  -3  17    2.54    1.83
  -6  -3 -17    2.48    1.39
   6   3  17    0.42    1.51
  -6   3 -17   -0.60    1.07
   7  -3  17   10.55    2.48
  -7  -3 -17   13.21    2.24
  -7  -3 -17    8.85    1.22
   7   3  17    6.12    2.19
  -7   3 -17   10.92    1.99
  -8  -3 -17    1.73    1.11
  -8  -3 -17    1.96    1.61
   8   3  17    0.52    1.99
  -8   3 -17    0.84    1.54
  -9  -3 -17    3.65    2.02
  -9  -3 -17    4.66    1.34
  -9   3 -17    6.39    2.03
   9   3  17    2.10    2.00
   9   3  17    4.14    2.22
  10   3  17    2.97    2.07
  10   3  17    4.43    2.27
 -10   3 -17    6.70    2.33
  11   3  17    4.73    2.13
  11   4 -17    1.19    1.97
 -10  -4  17    1.71    1.45
  10   4 -17    1.77    1.97
 -10   4  17    1.06    1.93
  -9  -4  17    1.29    1.42
   9   4 -17   -1.55    1.68
  -9   4  17   -1.93    1.73
  -8  -4  17    5.40    1.57
   8   4 -17    1.77    1.80
  -8   4  17    3.30    1.99
  -7  -4  17    1.10    1.31
  -7  -4  17    2.91    1.62
  -7   4  17    0.67    1.67
  -6  -4  17   -0.90    1.25
  -6  -4  17   -1.20    1.10
  -6   4  17    1.98    1.48
   5  -4 -17   12.31    2.12
  -5  -4  17   13.63    2.08
  -5  -4  17   10.24    1.41
  -5   4  17   11.14    2.12
   4  -4 -17    8.78    1.67
  -4  -4  17   11.96    1.89
  -4  -4  17    9.65    1.16
  -3  -4  17    1.51    1.31
  -3  -4  17    1.77    0.62
   3  -4 -17    1.98    1.15
   2  -4 -17    1.98    1.14
  -2  -4  17    5.15    1.51
   1  -4 -17    7.91    1.37
  -1  -4  17    5.38    1.52
   1   4 -17    9.84    1.02
  -1   4  17    9.53    1.47
   0  -4  17    0.33    1.27
   0  -4 -17    0.72    0.99
   0   4 -17    1.69    0.63
   0   4  17    1.94    1.15
   1  -4  17   21.29    2.63
  -1  -4 -17   20.72    2.05
   1   4  17   23.81    2.38
   2  -4  17   16.04    2.58
  -2  -4 -17   20.77    2.00
   2   4  17   18.77    2.37
  -3  -4 -17    3.89    1.19
   3  -4  17    2.78    1.68
   3   4  17    6.77    1.78
  -4  -4 -17   28.75    2.53
   4  -4  17   26.69    3.54
   4   4  17   28.00    3.22
   5  -4  17   31.92    3.80
  -5  -4 -17   30.67    2.80
  -5   4 -17   34.07    2.56
   5   4  17   33.75    3.59
   6  -4  17    6.12    2.27
  -6  -4 -17    4.54    1.53
   6   4  17   11.32    2.51
  -6   4 -17    2.85    1.39
   7  -4  17    1.89    2.13
  -7  -4 -17    2.00    1.59
   7   4  17    3.20    2.07
  -7   4 -17    4.33    1.67
  -8  -4 -17    0.05    1.68
   8   4  17    1.28    2.02
  -8   4 -17    0.29    1.54
  -9  -4 -17   21.85    3.35
   9   4  17   24.41    3.67
  -9   4 -17   27.41    3.39
  10   4  17   -2.31    1.91
  -9   5  17   -1.39    1.93
  -8   5  17    0.31    1.93
  -7  -5  17    5.42    2.06
  -7   5  17   -0.73    1.65
  -6  -5  17   56.21    3.97
  -6   5  17   66.56    4.53
  -5  -5  17   20.96    2.80
   5  -5 -17   18.80    2.56
  -5   5  17   16.92    2.64
   4  -5 -17    3.28    1.56
  -4  -5  17    5.96    1.70
  -3  -5  17   -0.07    1.22
   3  -5 -17   -0.74    1.03
  -2  -5  17   22.53    2.74
   2  -5 -17   23.49    2.40
   1  -5 -17   10.68    1.77
  -1  -5  17   11.85    2.15
  -1   5  17   13.27    1.83
   0  -5  17   10.48    2.19
   0  -5 -17    8.50    1.53
   0   5  17   11.39    1.82
  -1  -5 -17    0.90    1.07
   1  -5  17    3.15    1.74
   1   5  17    0.91    1.24
   2  -5  17   11.65    2.43
  -2  -5 -17    8.79    1.63
   2   5  17    9.17    1.93
   3  -5  17   13.59    2.78
  -3  -5 -17   16.54    2.07
   3   5  17   18.34    2.68
  -4  -5 -17    5.88    1.54
   4  -5  17    3.24    1.99
   4   5  17    2.76    1.75
   5  -5  17    0.38    1.89
  -5  -5 -17    0.20    1.29
   5   5  17    0.58    1.80
  -6  -5 -17    4.23    1.62
   6  -5  17    9.59    2.58
   6   5  17    5.79    2.33
  -7  -5 -17    0.23    1.62
   7   5  17    3.94    2.28
  -8  -5 -17    0.66    1.77
   8   5  17    1.61    2.17
   9   5  17    2.62    2.31
  -8  -6  17    2.48    2.09
  -8   6  17    7.55    2.64
  -7  -6  17    0.55    1.96
  -7   6  17    2.02    2.13
  -6  -6  17    9.08    2.40
  -6   6  17    9.28    2.54
  -5  -6  17    1.13    1.71
   5  -6 -17    0.82    1.49
  -5   6  17    1.26    1.61
   4  -6 -17   29.81    3.18
  -4  -6  17   38.44    3.84
  -3  -6  17    8.96    2.25
   3  -6 -17    7.12    1.78
   2  -6 -17    4.85    1.54
  -2  -6  17    6.14    2.02
  -1  -6  17    0.95    1.68
   1  -6 -17    1.82    1.35
  -1   6  17    2.34    1.33
   0  -6  17   61.40    4.55
   0  -6 -17   64.91    3.80
   0   6  17   69.70    3.92
  -1  -6 -17    5.35    1.48
   1  -6  17    4.43    2.14
   1   6  17    6.01    1.81
  -2  -6 -17   -0.33    1.01
   2  -6  17   -0.43    1.78
   2   6  17    0.31    1.37
   3  -6  17    3.64    2.10
  -3  -6 -17    6.36    1.66
   3   6  17    6.16    2.16
  -4  -6 -17   50.05    3.39
   4  -6  17   50.09    4.89
   4   6  17   54.15    4.81
  -5  -6 -17    0.86    1.45
   5  -6  17   -3.18    1.79
   5   6  17    2.92    2.19
  -6  -6 -17    2.25    1.68
   6   6  17    7.97    2.65
  -7  -6 -17    1.98    1.94
   7   6  17    0.46    2.22
   8   6  17    8.74    2.99
   9   6  17    0.43    2.44
  -8  -7  17    0.41    2.27
  -7  -7  17    4.88    2.39
  -6  -7  17    1.33    2.06
  -6   7  17    1.19    1.98
  -5  -7  17   -0.40    1.90
  -5   7  17    1.64    2.01
   4  -7 -17    3.61    1.89
  -4  -7  17    1.31    2.02
  -4   7  17    4.70    2.08
  -3  -7  17   -0.65    1.88
   3  -7 -17    0.02    1.48
   2  -7 -17   -0.27    1.32
  -2  -7  17    1.45    1.91
  -1  -7  17   42.87    4.43
   1  -7 -17   44.60    3.73
   0  -7  17    3.23    2.24
   0  -7 -17    3.93    1.65
   0   7  17    5.90    1.87
   1  -7  17    3.39    2.38
  -1  -7 -17    4.20    1.70
   1   7  17    4.90    1.92
   2  -7  17    4.02    2.43
  -2  -7 -17    3.24    1.61
   2   7  17    4.14    2.04
   3  -7  17   12.43    3.05
  -3  -7 -17   13.73    2.29
   3   7  17    7.40    2.35
   4  -7  17    0.19    1.97
  -4  -7 -17    3.97    1.77
   4   7  17    3.15    2.27
  -5  -7 -17    3.31    1.90
   5  -7  17   -1.39    1.74
   5   7  17   -1.09    2.04
  -6  -7 -17   -0.23    2.03
   6   7  17    0.58    2.26
   7   7  17    9.08    3.10
  -6  -8  17   -2.39    2.05
  -5  -8  17    4.14    2.53
  -5   8  17    4.26    2.51
   4  -8 -17    5.80    2.31
  -4  -8  17    3.88    2.32
  -4   8  17    3.86    2.28
   3  -8 -17    1.43    1.77
  -3  -8  17    5.68    2.61
  -3   8  17    4.78    2.23
  -2  -8  17    4.85    2.48
   2  -8 -17    0.89    1.75
  -1  -8  17   12.24    3.15
   1  -8 -17    6.66    2.07
   0  -8 -17    2.30    1.77
   0  -8  17   -0.89    2.19
  -1  -8 -17    1.78    1.71
   1  -8  17    1.43    2.30
   1   8  17    0.23    1.88
  -2  -8 -17    8.41    2.26
   2  -8  17    8.03    2.95
   2   8  17   13.39    2.84
  -3  -8 -17   -2.01    1.64
   3  -8  17    0.13    2.25
   3   8  17   -0.51    2.00
   4  -8  17   16.72    3.30
   4   8  17   13.11    3.24
   5   8  17    2.17    2.44
   6   8  17   -0.11    2.31
  -4  -9  17   -2.08    2.36
  -3  -9  17    2.44    2.58
  -2  -9  17    1.82    2.67
  -1  -9  17    0.25    2.52
   0  -9  17   -3.41    2.37
   1  -9  17   -1.40    2.50
   2  -9  17    2.75    2.85
   2   9  17   -0.23    2.17
   3  -9  17    6.52    3.17
   3   9  17   -0.97    2.19
 -12   0  18    3.66    2.08
 -11   0  18    0.86    1.89
  11   0 -18   -1.09    1.18
  10   0 -18   21.49    2.17
 -10   0  18   22.35    3.04
 -10   0  18   23.69    3.05
  -9   0  18    3.89    1.87
  -9   0  18    0.66    1.62
   9   0 -18   -0.20    1.27
  -8   0  18    0.59    1.49
   8   0 -18    2.36    1.34
  -8   0  18    3.09    1.63
  -7   0  18    1.92    1.46
  -7   0  18    2.10    1.50
   7   0 -18    1.47    1.21
  -6   0  18   47.85    3.05
  -6   0  18   49.18    3.13
   6   0 -18   47.60    2.70
  -5   0  18    1.11    1.17
  -5   0  18   -1.37    0.93
   5   0 -18    1.12    1.03
  -4   0  18  203.32    6.52
   4   0 -18  197.60    6.48
  -4   0  18  195.89    6.54
   4   0 -18  208.04    6.35
   3   0 -18   -1.41    0.71
  -3   0  18    0.07    0.85
  -3   0  18   -0.02    0.69
   3   0 -18    0.87    0.83
  -2   0  18    5.97    1.09
   2   0 -18    4.26    0.93
  -2   0  18    5.48    1.04
   2   0 -18    5.82    0.96
  -1   0  18   -0.37    0.73
  -1   0  18    0.72    0.72
   1   0 -18   -0.13    0.54
   0   0  18  245.59    8.21
   0   0  18  265.40    7.45
   0   0 -18  261.76    7.22
   0   0 -18  259.04    7.34
   1   0  18    0.25    1.05
  -1   0 -18    1.05    0.64
   1   0  18    1.14    0.76
  -1   0 -18    0.12    0.54
   2   0  18   23.34    2.43
  -2   0 -18   26.27    1.34
   2   0  18   27.27    1.80
  -2   0 -18   28.81    1.74
  -2   0 -18   25.47    1.62
  -3   0 -18    0.05    0.68
  -3   0 -18    0.47    0.70
   3   0  18   -0.74    1.24
  -3   0 -18    0.40    0.55
   3   0  18    0.25    0.81
  -4   0 -18  175.40    5.80
  -4   0 -18  164.97    4.82
  -4   0 -18  166.66    5.33
   4   0  18  171.26    7.02
   4   0  18  165.93    5.65
  -5   0 -18   -0.60    0.65
   5   0  18    1.60    1.06
   5   0  18   -0.57    1.38
  -5   0 -18   -0.43    0.83
  -5   0 -18    1.43    1.08
   6   0  18    0.97    1.67
   6   0  18    6.11    1.48
  -6   0 -18    0.44    1.24
  -6   0 -18    0.77    0.82
  -6   0 -18    2.59    1.15
  -7   0 -18   -1.11    1.13
  -7   0 -18    0.22    1.05
  -7   0 -18    0.59    0.88
   7   0  18   -0.52    1.27
   7   0  18   -0.95    1.67
  -8   0 -18   12.63    1.99
   8   0  18   10.49    2.07
   8   0  18   12.65    2.78
  -8   0 -18   12.74    2.33
  -8   0 -18   11.12    1.54
   9   0  18   -0.66    1.76
  -9   0 -18   -1.60    1.40
   9   0  18   -0.60    1.42
  -9   0 -18    0.19    1.59
  -9   0 -18   -0.90    1.09
 -10   0 -18    1.96    1.97
 -10   0 -18   -1.02    1.50
  10   0  18    1.36    1.69
  11   0  18    1.25    1.69
 -11   0 -18   -0.67    1.67
 -12  -1  18   -3.28    1.61
  12   1 -18   -0.71    1.47
 -11  -1  18   13.18    2.56
  11   1 -18   15.96    2.27
 -11   1  18   15.08    2.81
 -10  -1  18   -0.04    1.67
 -10   1  18    2.33    1.91
  10   1 -18    1.08    1.48
  -9  -1  18    8.01    2.03
   9  -1 -18    1.42    0.92
   9   1 -18    2.02    1.56
  -9   1  18   -0.28    1.58
   8  -1 -18   -0.14    0.98
  -8  -1  18    1.60    1.53
   8   1 -18    2.47    1.51
  -8   1  18    1.26    1.57
   7  -1 -18    7.11    1.26
  -7  -1  18    4.01    1.59
  -7  -1  18    9.64    1.83
  -7   1  18    6.37    1.71
   7   1 -18    9.72    1.82
  -6  -1  18    6.04    1.48
   6  -1 -18    4.19    1.15
  -6  -1  18    3.95    1.48
  -6   1  18    6.78    1.71
   6   1 -18    1.85    1.25
   5  -1 -18    0.79    0.92
  -5  -1  18   -0.04    0.96
  -5  -1  18    0.43    1.14
   5   1 -18    0.70    1.02
  -5   1  18    0.65    1.04
   4  -1 -18   42.85    2.64
  -4  -1  18   46.98    2.32
  -4  -1  18   50.21    2.84
  -4  -1  18   43.95    2.43
   4  -1 -18   45.88    2.25
   4   1 -18   44.61    2.55
  -3  -1  18    7.31    1.35
  -3  -1  18    8.17    1.26
   3  -1 -18    7.75    1.11
  -3  -1  18    7.21    1.02
   3  -1 -18    6.65    1.16
   3   1 -18    6.98    0.99
  -3   1  18    8.83    1.09
  -3   1  18   10.02    1.33
   3   1 -18    8.32    1.24
   2  -1 -18    6.27    1.07
   2  -1 -18    5.81    0.94
  -2  -1  18    5.11    1.12
  -2  -1  18    4.45    1.12
   2   1 -18    5.44    0.84
  -2   1  18    5.15    1.01
   1  -1 -18   24.60    1.59
   1  -1 -18   24.85    1.47
  -1  -1  18   28.09    1.95
  -1  -1  18   22.45    2.00
   1   1 -18   25.32    1.56
   1   1 -18   24.32    1.34
  -1   1  18   20.73    1.89
   0  -1  18    9.01    1.19
   0  -1 -18    9.05    1.06
   0  -1  18    8.89    1.46
   0   1 -18   10.18    1.08
   0   1 -18    9.57    0.90
   0   1  18   10.36    1.49
  -1  -1 -18   14.07    1.14
  -1  -1 -18   13.84    1.33
   1  -1  18   14.56    1.90
   1  -1  18   13.41    1.36
   1   1  18   15.39    1.84
  -1   1 -18   14.55    1.17
  -1   1 -18   14.52    1.27
  -1   1 -18   14.17    1.06
   1   1  18   12.83    1.31
   2  -1  18   22.49    1.84
   2  -1  18   23.64    2.49
  -2  -1 -18   25.13    1.87
  -2  -1 -18   21.92    1.42
  -2   1 -18   24.10    1.53
  -2   1 -18   24.33    1.54
   2   1  18   22.73    1.74
   2   1  18   24.27    2.43
  -2   1 -18   23.55    1.34
   3  -1  18    4.82    1.68
  -3  -1 -18    1.53    0.86
   3  -1  18    1.52    0.95
  -3  -1 -18    1.97    0.75
  -3   1 -18    3.23    0.74
  -3   1 -18    2.52    0.85
   3   1  18    3.47    1.48
  -3   1 -18    4.42    0.93
   3   1  18    3.01    0.97
  -4  -1 -18    0.31    0.71
  -4  -1 -18   -0.65    0.49
   4  -1  18   -0.37    0.87
   4  -1  18    1.92    1.54
  -4  -1 -18    1.36    0.87
   4   1  18    0.72    0.98
  -4   1 -18    1.13    0.82
   4   1  18    3.18    1.58
  -4   1 -18    0.62    0.85
  -5  -1 -18    7.43    0.92
   5  -1  18    6.67    1.44
  -5  -1 -18    8.35    1.24
  -5  -1 -18    4.06    1.30
   5  -1  18    9.55    2.29
   5   1  18    8.37    1.58
   5   1  18    7.91    2.08
  -5   1 -18    5.12    1.15
  -5   1 -18    5.61    1.31
  -6  -1 -18   32.05    2.82
   6  -1  18   33.27    2.72
  -6  -1 -18   34.82    1.77
  -6  -1 -18   35.22    2.25
   6  -1  18   23.46    3.20
   6   1  18   28.34    3.38
  -6   1 -18   34.15    2.86
  -6   1 -18   28.69    2.39
   6   1  18   33.27    2.80
   7  -1  18    0.26    1.36
  -7  -1 -18    0.32    1.38
   7  -1  18    1.77    1.76
  -7  -1 -18    1.33    0.87
  -7  -1 -18    2.37    1.23
   7   1  18    0.34    1.80
  -7   1 -18    0.85    1.23
   7   1  18    1.12    1.42
  -7   1 -18    1.55    1.20
  -8  -1 -18    2.10    1.33
   8  -1  18   -0.67    1.72
  -8  -1 -18   -2.19    1.23
   8  -1  18    0.50    1.46
  -8   1 -18   -1.14    1.16
   8   1  18   -2.98    1.54
   8   1  18    2.98    1.66
  -8   1 -18    0.40    1.37
  -9  -1 -18    0.95    1.44
   9  -1  18    1.38    1.62
  -9  -1 -18    1.07    1.60
  -9   1 -18    4.66    1.97
   9   1  18    1.43    2.01
  -9   1 -18    1.43    1.60
   9   1  18    4.21    1.82
 -10  -1 -18   11.45    2.20
  10  -1  18   15.58    2.21
 -10  -1 -18   12.40    2.68
 -10   1 -18   13.95    2.82
 -10   1 -18   10.34    1.82
 -10   1 -18    9.70    2.24
  10   1  18   13.88    2.39
  11  -1  18    5.75    1.57
 -11  -1 -18    7.76    2.09
  11   1  18    8.38    2.13
 -11   1 -18    5.30    2.17
 -11  -2  18    6.51    2.04
  11   2 -18    7.52    2.05
 -10  -2  18   -1.69    1.56
  10   2 -18    0.48    1.63
 -10   2  18   -2.82    1.54
  -9  -2  18    9.65    2.16
  -9   2  18   10.89    2.37
   9   2 -18   10.02    2.15
  -8  -2  18   -0.46    1.44
   8   2 -18    1.46    1.55
  -8   2  18    0.09    1.56
  -7  -2  18    8.87    1.84
  -7   2  18    7.86    2.04
   7   2 -18    7.12    1.70
  -6  -2  18    0.23    1.21
  -6   2  18    1.54    1.46
   6   2 -18    0.58    1.21
  -5  -2  18   18.63    1.81
  -5  -2  18   15.50    1.94
   5  -2 -18   16.80    2.11
   5   2 -18   12.79    1.81
  -5   2  18   16.11    2.11
  -4  -2  18    4.75    1.31
   4  -2 -18    4.09    1.24
  -4  -2  18    4.63    1.20
   4   2 -18    3.71    1.17
  -3  -2  18   27.00    2.19
   3  -2 -18   24.01    2.08
  -3  -2  18   23.82    2.13
   3   2 -18   23.02    1.86
  -2  -2  18    0.69    0.84
   2  -2 -18   -0.01    0.77
  -2  -2  18   -0.31    0.89
  -2   2  18    0.35    0.78
  -1  -2  18  116.10    4.66
  -1  -2  18  108.26    4.10
   1  -2 -18  112.82    4.14
  -1   2  18  111.18    4.26
   1   2 -18  114.29    3.81
   0  -2  18    4.23    1.05
   0  -2 -18    3.84    1.01
   0  -2  18    5.33    1.35
   0   2  18    3.71    1.19
   0   2 -18    4.83    0.62
   0   2 -18    5.23    0.78
   0   2 -18    4.88    0.92
  -1  -2 -18  144.51    4.07
   1  -2  18  143.43    5.90
   1  -2  18  140.90    4.82
  -1  -2 -18  145.80    4.99
  -1   2 -18  147.54    4.57
   1   2  18  143.80    5.58
  -1   2 -18  145.80    4.20
  -1   2 -18  148.20    4.33
   2  -2  18   21.45    1.78
  -2  -2 -18   18.99    1.70
  -2  -2 -18   18.16    1.18
   2  -2  18   28.81    2.89
   2   2  18   19.34    2.19
  -2   2 -18   20.08    1.33
  -2   2 -18   20.05    1.56
  -2   2 -18   19.77    1.41
   3  -2  18   -0.18    0.87
  -3  -2 -18   -0.44    0.74
   3  -2  18   -0.36    1.31
  -3  -2 -18    0.05    0.57
   3   2  18    0.03    1.09
  -3   2 -18    0.87    0.77
  -3   2 -18    0.22    0.67
   4  -2  18   16.85    2.64
  -4  -2 -18   12.31    1.67
  -4  -2 -18   13.91    1.26
   4  -2  18   15.62    1.69
  -4   2 -18   13.38    1.50
  -4   2 -18   15.72    1.59
   4   2  18   12.58    2.23
  -5  -2 -18  128.67    5.16
   5  -2  18  127.47    4.71
   5  -2  18  119.06    6.32
  -5  -2 -18  124.42    4.17
  -5   2 -18  119.48    4.48
   5   2  18  117.41    5.93
   5   2  18  129.00    4.97
  -5   2 -18  126.66    4.82
   6  -2  18    0.27    1.85
  -6  -2 -18   -1.04    1.04
  -6  -2 -18    0.23    0.92
   6  -2  18    3.13    1.34
   6   2  18    0.01    1.23
  -6   2 -18   -0.65    0.97
  -6   2 -18    2.68    1.25
   6   2  18    0.92    1.71
  -7  -2 -18    2.74    1.42
  -7  -2 -18    1.99    1.12
   7  -2  18    4.82    2.16
   7  -2  18    2.29    1.42
  -7   2 -18    1.24    1.22
   7   2  18    3.69    2.01
   7   2  18    2.47    1.63
  -7   2 -18    0.94    1.28
   8  -2  18   -0.11    1.89
   8  -2  18   -0.11    1.29
  -8  -2 -18   -1.04    1.33
  -8  -2 -18   -1.34    1.10
   8   2  18    1.50    1.87
  -8   2 -18    0.79    1.50
   8   2  18   -1.21    1.41
  -9  -2 -18   42.93    4.16
   9  -2  18   46.15    2.54
  -9  -2 -18   43.62    2.84
  -9   2 -18   48.77    4.16
   9   2  18   50.11    3.97
  -9   2 -18   45.46    3.64
   9   2  18   39.28    4.23
 -10  -2 -18    1.19    1.45
 -10  -2 -18    0.83    1.96
 -10   2 -18   -0.34    1.71
 -10   2 -18   -0.73    1.75
  10   2  18    1.45    2.22
  10   2  18   -0.45    1.66
 -11  -2 -18    0.92    1.51
 -11   2 -18    0.43    1.90
  11   2  18   -1.30    1.65
 -11  -3  18    2.88    1.76
  11   3 -18    5.65    2.09
 -10  -3  18   -0.03    1.56
 -10   3  18   -0.08    1.83
  10   3 -18    0.98    1.76
  -9  -3  18    1.65    1.58
   9   3 -18   -1.76    1.62
  -9   3  18   -2.60    1.63
  -8  -3  18    6.27    1.79
  -8   3  18    2.33    1.84
   8   3 -18    8.31    2.14
  -7  -3  18   -1.19    1.32
   7   3 -18   -1.88    1.19
  -7   3  18   -0.80    1.49
  -6  -3  18   12.86    1.96
  -6  -3  18   18.44    2.17
  -6   3  18   14.72    2.32
   6   3 -18   12.72    2.07
  -5  -3  18    4.25    1.34
   5  -3 -18    5.00    1.57
  -5  -3  18    3.44    1.25
  -5   3  18    4.06    1.43
   5   3 -18    2.53    1.29
  -4  -3  18   43.42    2.81
  -4  -3  18   44.78    2.70
   4  -3 -18   43.35    2.83
   4   3 -18   42.58    2.58
  -3  -3  18    1.43    1.07
  -3  -3  18   -0.16    0.96
   3  -3 -18    1.63    1.07
  -2  -3  18    1.60    1.05
  -2  -3  18    1.29    1.07
   2  -3 -18    1.79    0.93
  -2   3  18    1.38    0.91
   1  -3 -18   13.64    1.61
  -1  -3  18    9.15    1.39
  -1  -3  18    8.02    1.54
  -1   3  18   11.82    1.55
   1   3 -18   13.64    1.15
   0  -3  18   31.01    2.84
   0  -3  18   30.23    2.07
   0  -3 -18   25.83    2.12
   0   3  18   31.18    2.48
   0   3 -18   31.38    1.57
  -1  -3 -18   10.97    1.48
   1  -3  18   13.77    1.48
   1  -3  18   18.23    2.35
  -1   3 -18   14.93    1.17
   1   3  18   13.93    1.94
  -2  -3 -18    7.08    1.28
   2  -3  18    6.47    1.85
   2  -3  18    6.01    1.16
   2   3  18    5.24    1.59
  -2   3 -18    8.85    0.94
  -3  -3 -18    9.26    1.42
   3  -3  18   10.08    1.37
   3  -3  18   11.25    2.41
  -3   3 -18    9.03    1.14
   3   3  18   10.90    1.98
  -4  -3 -18    3.33    1.12
   4  -3  18   -0.02    1.69
   4  -3  18    3.56    1.07
   4   3  18    1.54    1.53
  -4   3 -18    3.72    1.04
   5  -3  18    9.23    2.48
  -5  -3 -18    9.12    1.64
  -5  -3 -18    7.05    0.82
   5  -3  18    5.72    1.11
   5   3  18    7.21    2.07
  -5   3 -18    8.19    1.39
  -6  -3 -18   47.00    3.16
   6  -3  18   53.78    4.83
  -6  -3 -18   49.37    2.09
  -6   3 -18   47.96    3.01
   6   3  18   51.66    4.48
   7  -3  18    2.48    2.13
  -7  -3 -18    0.59    1.44
  -7  -3 -18    1.38    0.99
   7   3  18    2.86    2.00
  -7   3 -18    2.96    1.45
  -8  -3 -18   -2.09    1.49
  -8  -3 -18    0.43    0.99
   8   3  18    0.20    1.91
  -8   3 -18   -0.86    1.40
  -9  -3 -18   -2.73    1.01
  -9  -3 -18    0.79    1.78
   9   3  18   -0.20    1.98
  -9   3 -18   -0.51    1.59
   9   3  18    2.98    1.90
  10   3  18   10.78    2.78
  10   3  18    7.60    2.35
  11   4 -18    1.01    2.03
 -10  -4  18   10.56    1.79
  10   4 -18   12.26    2.57
  -9  -4  18   -0.64    1.41
  -9   4  18    1.20    1.97
   9   4 -18    3.01    1.98
  -8  -4  18    2.50    1.48
  -8   4  18    1.02    1.72
   8   4 -18    1.79    1.98
  -7  -4  18    1.59    1.38
  -7   4  18    3.07    1.74
  -6  -4  18   27.72    2.26
  -6  -4  18   30.87    2.98
  -6   4  18   26.46    3.15
  -5  -4  18    0.98    1.27
  -5  -4  18    1.56    1.11
   5  -4 -18    0.85    1.32
  -5   4  18    0.18    1.39
  -4  -4  18   85.12    4.24
   4  -4 -18   79.19    4.08
  -4  -4  18   77.25    3.05
  -3  -4  18    6.00    1.60
  -3  -4  18    6.60    0.88
   3  -4 -18    4.44    1.45
   2  -4 -18   -0.53    0.87
  -2  -4  18    0.51    1.18
   1  -4 -18    1.21    0.92
  -1  -4  18    0.28    1.14
  -1   4  18   -2.26    0.76
   1   4 -18    0.45    0.63
   0  -4  18   99.58    4.89
   0  -4 -18  100.53    4.18
   0   4  18  101.08    4.44
   0   4 -18   97.03    3.21
  -1  -4 -18   12.62    1.66
   1  -4  18   10.60    2.16
   1   4  18   15.15    2.03
  -2  -4 -18    4.02    1.17
   2  -4  18    4.95    1.89
   2   4  18    3.83    1.51
   3  -4  18    2.93    1.81
  -3  -4 -18    1.46    1.10
   3   4  18   -0.44    1.41
   4  -4  18   47.88    4.67
  -4  -4 -18   54.86    3.20
   4   4  18   55.67    4.01
  -5  -4 -18    2.25    1.20
   5  -4  18   -2.50    1.61
   5   4  18    0.70    1.65
  -6  -4 -18   -0.04    1.18
   6  -4  18   -0.89    1.83
   6   4  18   -1.82    1.58
  -6   4 -18   -1.29    1.09
   7  -4  18    5.47    2.26
  -7  -4 -18    4.04    1.73
  -7   4 -18    5.70    1.73
   7   4  18    3.07    2.12
  -8  -4 -18    2.39    1.82
   8   4  18    1.15    2.08
  -8   4 -18    7.09    1.91
  -9  -4 -18    3.78    2.23
  -9   4 -18    5.47    2.17
   9   4  18    4.76    2.41
  10   4  18    1.64    2.25
  -9   5  18    1.10    2.00
  -8   5  18   -0.80    1.87
  -7  -5  18    6.08    2.12
  -7   5  18    6.55    2.34
  -6  -5  18    0.94    1.57
  -6   5  18    0.34    1.66
  -5  -5  18   -0.07    1.45
   5  -5 -18   -1.71    1.14
  -5   5  18    0.77    1.41
   4  -5 -18    5.98    1.70
  -4  -5  18    3.49    1.60
   3  -5 -18    1.51    1.25
  -3  -5  18    3.34    1.50
  -2  -5  18    8.80    1.96
   2  -5 -18    7.47    1.65
  -1  -5  18   40.76    3.71
   1  -5 -18   38.34    2.74
  -1   5  18   38.63    2.66
   0  -5 -18   -0.96    0.87
   0  -5  18    1.01    1.52
   0   5  18   -1.73    0.97
   1  -5  18   13.78    2.64
  -1  -5 -18   15.16    1.96
   1   5  18   13.81    2.12
   2  -5  18   18.74    2.95
  -2  -5 -18   19.16    2.16
   2   5  18   14.66    2.39
  -3  -5 -18    1.31    1.20
   3  -5  18   -0.60    1.75
   3   5  18    1.33    1.64
  -4  -5 -18    0.74    1.24
   4  -5  18   -1.96    1.73
   4   5  18    3.32    1.90
  -5  -5 -18    3.42    1.53
   5  -5  18   -0.95    1.73
   5   5  18    2.68    1.92
  -6  -5 -18    4.02    1.73
   6  -5  18    4.80    2.37
   6   5  18    2.15    2.03
  -7  -5 -18   -0.99    1.44
   7   5  18    0.58    1.91
  -8  -5 -18   -1.95    1.59
   8   5  18    0.41    2.10
   9   5  18   -0.26    2.11
  -8   6  18   -0.54    2.05
  -7  -6  18    4.28    2.08
  -7   6  18   -0.18    1.92
  -6  -6  18    0.99    1.75
  -6   6  18   -3.51    1.56
  -5  -6  18    8.09    2.34
   5  -6 -18   16.47    2.71
  -5   6  18   13.02    2.56
  -4  -6  18    7.34    2.20
   4  -6 -18    6.79    1.90
   3  -6 -18    3.14    1.71
  -3  -6  18    1.80    1.65
  -2  -6  18   -2.13    1.48
   2  -6 -18    4.06    1.55
  -1  -6  18   23.60    3.27
   1  -6 -18   21.61    2.59
  -1   6  18   25.08    2.62
   0  -6  18    9.11    2.36
   0  -6 -18    9.90    1.82
   0   6  18    6.30    1.75
   1  -6  18   34.50    4.02
  -1  -6 -18   43.48    3.05
   1   6  18   44.07    3.77
  -2  -6 -18   32.15    2.91
   2  -6  18   33.14    3.90
   2   6  18   29.72    3.39
   3  -6  18   -1.33    1.88
  -3  -6 -18    6.05    1.61
   3   6  18    2.08    1.86
   4  -6  18   20.16    3.36
  -4  -6 -18   18.77    2.46
   4   6  18   22.14    3.30
   5  -6  18   31.47    4.02
  -5  -6 -18   29.66    3.11
   5   6  18   32.15    4.03
  -6  -6 -18   -2.10    1.43
   6   6  18    1.08    2.00
  -7  -6 -18   -0.65    1.79
   7   6  18   -1.66    2.06
   8   6  18    0.77    2.41
  -8  -7  18    4.12    2.55
  -7  -7  18    0.57    2.14
  -6  -7  18    2.64    2.24
  -6   7  18    3.09    2.24
  -5  -7  18    3.95    2.28
  -5   7  18    3.15    2.13
  -4  -7  18    6.65    2.45
   4  -7 -18    9.28    2.34
  -4   7  18    5.67    2.32
   3  -7 -18    1.03    1.52
  -3  -7  18   -1.80    1.75
   2  -7 -18    0.49    1.54
  -2  -7  18    1.18    1.99
  -1  -7  18   -0.47    1.86
   1  -7 -18   -0.61    1.37
   0  -7  18   12.64    2.90
   0  -7 -18   13.09    2.35
   0   7  18   11.03    2.36
  -1  -7 -18    0.62    1.43
   1  -7  18    2.44    2.13
   1   7  18   -0.63    1.62
  -2  -7 -18    2.28    1.53
   2  -7  18    3.21    2.39
   2   7  18    2.08    1.88
  -3  -7 -18    0.83    1.55
   3  -7  18   -0.73    1.97
   3   7  18    0.79    1.88
   4  -7  18    3.07    2.38
  -4  -7 -18    4.04    1.87
   4   7  18    5.53    2.34
  -5  -7 -18   -0.94    1.66
   5  -7  18    2.52    2.40
   5   7  18    1.50    2.13
  -6  -7 -18   22.50    3.27
   6   7  18   27.53    4.18
   7   7  18   -1.66    2.23
  -6  -8  18    6.35    2.88
  -5  -8  18    6.33    2.72
   4  -8 -18   12.46    2.76
  -4  -8  18   11.32    3.02
  -4   8  18   12.12    2.84
   3  -8 -18    6.69    2.25
  -3  -8  18   -0.11    2.31
  -2  -8  18    6.46    2.87
   2  -8 -18    4.57    2.00
  -1  -8  18   -0.05    2.29
   1  -8 -18    0.86    1.74
   0  -8  18    5.23    2.59
   0  -8 -18   11.88    2.38
   1  -8  18    5.20    2.86
  -1  -8 -18    5.32    2.03
   1   8  18    3.82    2.29
   2  -8  18    0.67    2.31
  -2  -8 -18    0.71    1.60
   2   8  18   -1.93    1.73
   3  -8  18   -0.96    2.15
  -3  -8 -18   -0.15    1.75
   3   8  18   -1.25    1.97
   4  -8  18    2.48    2.48
   4   8  18    3.07    2.54
   5   8  18    1.56    2.46
   6   8  18    2.13    2.52
  -4  -9  18    2.55    2.73
  -3  -9  18    5.69    2.88
  -2  -9  18    2.25    2.78
  -1  -9  18   17.25    3.87
   0  -9  18    2.33    2.91
   1  -9  18   -0.20    2.77
   2  -9  18   -2.27    2.49
   2   9  18    0.09    2.26
   3  -9  18    0.11    2.57
   3   9  18   -1.39    2.36
 -12   0  19   -1.41    1.81
  11   0 -19    5.26    1.35
 -11   0  19    5.01    2.24
  10   0 -19   -2.66    1.15
 -10   0  19    2.43    1.88
  -9   0  19   23.47    2.91
  -9   0  19   28.45    3.13
   9   0 -19   23.90    2.33
  -8   0  19   -1.12    1.44
   8   0 -19   -1.03    1.16
  -8   0  19   -0.40    1.52
  -7   0  19   13.89    2.13
  -7   0  19   12.82    2.10
   7   0 -19   11.02    1.66
  -6   0  19   -1.27    1.04
   6   0 -19   -1.03    1.03
  -6   0  19    1.16    1.27
  -5   0  19   54.29    3.02
   5   0 -19   43.01    2.59
  -5   0  19   48.35    2.94
   4   0 -19   -0.30    0.91
  -4   0  19    1.14    0.90
  -4   0  19    0.08    1.03
   4   0 -19    0.38    0.90
   3   0 -19    1.46    0.84
   3   0 -19    2.74    0.93
  -3   0  19    2.05    0.87
  -3   0  19    1.45    0.96
   2   0 -19    0.39    0.64
  -2   0  19   -0.98    0.68
  -2   0  19   -0.01    0.85
   2   0 -19    0.35    0.73
  -1   0  19  118.01    4.45
  -1   0  19  117.56    4.09
   1   0 -19  118.58    3.92
   0   0  19    2.21    0.82
   0   0 -19    2.02    0.68
   0   0 -19    2.21    0.64
   0   0  19    2.35    1.04
  -1   0 -19  108.32    3.69
   1   0  19  105.43    3.81
  -1   0 -19  108.69    3.61
   1   0  19  115.52    4.77
   2   0  19   -0.83    1.12
  -2   0 -19    0.62    0.66
  -2   0 -19   -0.16    0.62
  -2   0 -19   -0.30    0.50
   2   0  19    0.18    0.75
  -3   0 -19   13.35    1.31
   3   0  19   13.79    2.19
  -3   0 -19   11.69    1.40
   3   0  19   12.64    1.50
  -3   0 -19   10.90    1.01
   4   0  19    3.10    1.62
  -4   0 -19   -0.06    0.78
  -4   0 -19    0.42    0.82
   4   0  19   -0.51    0.92
  -4   0 -19   -0.57    0.58
   5   0  19   49.29    4.23
  -5   0 -19   49.13    2.25
  -5   0 -19   44.51    2.85
  -5   0 -19   47.08    2.54
   5   0  19   49.27    2.84
   6   0  19    0.21    1.14
  -6   0 -19    0.40    0.84
  -6   0 -19   -0.27    1.00
  -6   0 -19   -0.90    0.97
   6   0  19   -1.46    1.46
  -7   0 -19    4.23    1.41
   7   0  19    4.44    2.18
   7   0  19    4.43    1.56
  -7   0 -19    4.36    1.67
  -7   0 -19    3.50    1.11
  -8   0 -19   -0.24    1.01
  -8   0 -19   -0.53    1.30
   8   0  19    1.22    1.92
   8   0  19    0.78    1.48
  -8   0 -19   -1.51    1.43
   9   0  19   12.28    2.28
  -9   0 -19   17.73    1.86
  -9   0 -19   11.81    2.45
  -9   0 -19   14.36    2.24
   9   0  19   11.18    2.70
 -10   0 -19   -0.28    1.81
  10   0  19   -2.77    1.51
 -10   0 -19   -1.42    1.56
  11   0  19    4.47    1.86
 -11   0 -19    4.59    1.93
 -12  -1  19   -0.11    1.76
  12   1 -19    0.59    1.51
 -11  -1  19    1.16    1.73
 -11   1  19    1.53    2.08
  11   1 -19    6.76    1.87
 -10  -1  19    4.48    1.98
 -10   1  19    4.64    2.10
  10   1 -19    3.96    1.67
  -9  -1  19    8.31    2.18
   9  -1 -19    8.77    1.10
   9   1 -19    9.66    2.01
  -9   1  19   10.26    2.29
  -8  -1  19   12.27    2.21
   8  -1 -19   22.06    1.73
  -8   1  19   22.42    2.79
   8   1 -19   16.87    2.23
  -7  -1  19    1.76    1.48
   7  -1 -19    0.25    0.96
   7   1 -19    0.32    1.22
  -7   1  19    1.46    1.43
   6  -1 -19   -0.07    0.95
  -6  -1  19    2.44    1.35
  -6  -1  19   -0.10    1.06
  -6   1  19   -1.59    1.12
   6   1 -19    0.88    1.19
  -5  -1  19   28.09    2.29
  -5  -1  19   25.31    2.43
   5  -1 -19   31.40    1.96
   5  -1 -19   33.00    2.67
  -5   1  19   29.88    2.57
   5   1 -19   26.45    2.32
  -4  -1  19   81.12    3.72
   4  -1 -19   79.42    3.64
  -4  -1  19   77.37    3.25
   4  -1 -19   83.90    3.14
  -4  -1  19   73.86    3.25
   4   1 -19   79.81    3.47
  -3  -1  19    2.36    0.82
   3  -1 -19    1.20    0.83
  -3  -1  19   -0.05    0.95
  -3  -1  19    0.68    0.81
   3  -1 -19    3.30    0.93
   3   1 -19    0.86    0.88
   3   1 -19    0.08    0.69
  -3   1  19    0.23    0.77
  -2  -1  19   40.41    2.40
  -2  -1  19   42.36    2.44
   2  -1 -19   43.12    2.03
   2  -1 -19   43.12    2.28
   2   1 -19   43.11    1.93
  -2   1  19   42.74    2.35
  -2   1  19   42.77    2.24
   1  -1 -19    4.24    0.93
  -1  -1  19    2.76    1.09
  -1  -1  19    3.50    1.02
   1  -1 -19    3.90    0.80
   1   1 -19    5.61    0.81
  -1   1  19    4.98    1.00
  -1   1  19    3.92    1.11
   1   1 -19    4.76    0.92
   0  -1  19    9.72    1.58
   0  -1 -19   11.18    1.22
   0  -1  19    8.94    1.27
   0   1 -19   10.88    1.13
   0   1  19   11.99    1.31
   0   1  19   10.00    1.55
   0   1 -19    9.17    0.92
   1  -1  19  107.03    3.82
   1  -1  19  109.11    4.71
  -1  -1 -19  110.06    3.49
  -1  -1 -19   99.67    3.77
   1   1  19  105.33    4.60
   1   1  19  108.29    3.79
  -1   1 -19  110.14    3.57
  -1   1 -19  111.00    3.33
  -1   1 -19  107.28    3.65
  -2  -1 -19   31.41    2.02
   2  -1  19   34.66    3.04
  -2  -1 -19   31.88    1.69
   2  -1  19   33.38    2.00
  -2   1 -19   32.57    1.81
   2   1  19   35.78    2.02
   2   1  19   27.53    2.77
  -2   1 -19   32.47    1.80
  -2   1 -19   33.22    1.57
   3  -1  19   29.05    2.96
  -3  -1 -19   28.55    1.68
   3  -1  19   26.57    2.08
  -3  -1 -19   27.56    2.11
  -3   1 -19   25.51    1.50
  -3   1 -19   26.78    1.80
  -3   1 -19   30.41    1.82
   3   1  19   30.68    2.19
   3   1  19   32.53    3.08
   4  -1  19    3.30    1.71
   4  -1  19    2.25    1.10
  -4  -1 -19    0.28    0.92
  -4  -1 -19    1.43    0.79
   4   1  19    0.53    1.01
  -4   1 -19    1.22    0.88
  -4   1 -19    1.13    0.83
  -4   1 -19    0.62    0.66
   4   1  19    1.54    1.52
  -5  -1 -19   11.21    1.64
   5  -1  19    6.73    1.44
  -5  -1 -19    5.48    1.16
  -5  -1 -19    6.56    0.86
   5  -1  19    5.45    2.00
  -5   1 -19    7.09    1.29
   5   1  19    4.18    1.90
  -5   1 -19    6.39    1.43
   5   1  19    7.75    1.50
  -6  -1 -19   74.15    3.88
   6  -1  19   69.30    4.72
  -6  -1 -19   70.11    3.27
  -6  -1 -19   70.55    2.66
   6  -1  19   75.48    3.78
   6   1  19   76.85    4.87
  -6   1 -19   80.29    3.58
  -6   1 -19   73.00    3.84
   6   1  19   75.16    3.79
   7  -1  19   21.40    3.19
  -7  -1 -19   23.97    1.60
  -7  -1 -19   25.80    2.78
   7  -1  19   16.79    2.24
  -7  -1 -19   20.30    2.11
  -7   1 -19   20.58    2.22
   7   1  19   24.85    3.33
  -7   1 -19   14.33    2.22
   7   1  19   17.24    2.38
  -8  -1 -19    2.06    1.33
   8  -1  19    3.60    2.12
  -8  -1 -19    3.82    1.75
   8  -1  19    2.46    1.64
   8   1  19    2.77    1.68
   8   1  19    4.19    2.23
  -8   1 -19    6.30    1.71
  -8   1 -19    2.93    1.67
  -9  -1 -19   -0.14    1.61
  -9  -1 -19    3.05    1.55
   9  -1  19    1.28    1.60
  -9   1 -19    3.29    1.96
   9   1  19    4.74    2.26
  -9   1 -19    4.53    1.76
   9   1  19    0.53    1.64
  -9   1 -19    2.65    1.32
 -10  -1 -19   10.22    2.48
  10  -1  19    8.66    1.96
 -10  -1 -19   11.11    2.12
  10   1  19    6.83    2.47
 -10   1 -19    5.51    2.32
 -10   1 -19    8.45    2.17
 -10   1 -19    5.63    1.60
  10   1  19    8.60    2.13
  11  -1  19   12.02    1.79
 -11  -1 -19   11.69    2.24
 -11   1 -19    9.33    2.33
  11   1  19   14.07    2.48
 -11  -2  19   -0.99    1.59
  11   2 -19   -1.27    1.59
 -10  -2  19    6.98    2.06
  10   2 -19    9.65    2.15
 -10   2  19    9.85    2.48
  -9  -2  19   -0.42    1.55
   9   2 -19    1.17    1.59
  -9   2  19    5.13    1.84
  -8  -2  19    2.94    1.70
  -8   2  19    5.54    1.87
   8   2 -19    3.05    1.73
  -7  -2  19    1.46    1.45
  -7   2  19    0.82    1.53
   7   2 -19   -0.01    1.38
  -6  -2  19    2.83    1.38
  -6   2  19    3.58    1.58
   6   2 -19    4.62    1.47
   5  -2 -19    2.30    1.37
  -5  -2  19    1.22    1.26
  -5  -2  19    2.68    1.04
  -5   2  19    0.15    1.07
   5   2 -19    0.84    1.18
  -4  -2  19   50.71    2.87
   4  -2 -19   57.02    3.11
  -4  -2  19   58.98    3.20
   4   2 -19   56.60    2.93
  -3  -2  19    1.73    0.96
   3  -2 -19    1.69    1.04
  -3  -2  19    0.37    1.08
   3   2 -19    1.88    0.93
   2  -2 -19   40.79    2.29
  -2  -2  19   37.02    2.40
  -2  -2  19   33.65    2.39
  -2   2  19   35.83    2.13
   1  -2 -19    1.11    0.75
  -1  -2  19    1.43    1.07
  -1  -2  19    1.72    1.00
  -1   2  19   -0.52    0.82
   1   2 -19   -0.17    0.66
   0  -2 -19   12.73    0.87
   0  -2  19   11.32    1.46
   0  -2 -19   10.97    1.37
   0  -2  19   13.08    1.87
   0   2  19   10.72    1.59
   0   2 -19   10.79    1.04
   0   2 -19   14.16    0.97
   0   2 -19   10.43    1.23
  -1  -2 -19    1.22    0.77
   1  -2  19    1.60    1.31
  -1  -2 -19    1.33    0.57
   1  -2  19   -0.47    0.83
   1   2  19    0.11    0.99
  -1   2 -19    0.76    0.60
  -1   2 -19    0.17    0.55
  -1   2 -19    0.34    0.68
   2  -2  19   50.54    3.43
  -2  -2 -19   51.45    2.67
  -2  -2 -19   51.61    2.01
   2  -2  19   47.34    2.57
  -2   2 -19   51.89    2.37
  -2   2 -19   56.12    2.15
   2   2  19   58.29    3.34
  -2   2 -19   56.55    2.29
  -3  -2 -19    1.66    0.90
   3  -2  19    3.51    1.75
   3  -2  19    1.22    1.02
  -3  -2 -19    0.16    0.59
   3   2  19    0.41    1.35
  -3   2 -19   -0.52    0.63
  -3   2 -19    0.10    0.69
  -4  -2 -19   36.57    2.40
   4  -2  19   37.96    2.36
  -4  -2 -19   42.28    1.94
   4  -2  19   42.07    4.06
   4   2  19   42.02    3.64
  -4   2 -19   37.27    2.28
  -4   2 -19   35.64    2.19
   5  -2  19    0.50    1.12
  -5  -2 -19    1.08    1.04
  -5  -2 -19    0.69    0.80
   5  -2  19   -0.23    1.75
   5   2  19   -1.33    1.46
   5   2  19   -0.81    1.12
  -5   2 -19   -0.92    0.87
  -5   2 -19    1.10    0.98
   6  -2  19    8.98    1.72
  -6  -2 -19   10.56    1.41
  -6  -2 -19    9.75    1.86
   6  -2  19    8.41    2.43
   6   2  19    9.68    2.40
  -6   2 -19    8.36    1.60
   6   2  19   12.66    1.96
  -6   2 -19    9.18    1.71
  -7  -2 -19   -0.11    1.04
   7  -2  19    2.99    1.42
  -7  -2 -19    1.83    1.40
   7  -2  19    0.95    1.95
   7   2  19   -1.40    1.30
  -7   2 -19   -0.58    1.10
   7   2  19    0.37    1.79
  -7   2 -19    3.06    1.37
   8  -2  19    4.04    2.18
   8  -2  19    0.41    1.33
  -8  -2 -19    3.62    1.78
  -8  -2 -19    2.20    1.29
  -8   2 -19    3.54    1.74
   8   2  19    4.71    1.87
  -8   2 -19    5.39    1.63
   8   2  19    1.10    1.97
   9  -2  19    2.44    1.35
  -9  -2 -19    1.64    1.34
  -9  -2 -19    5.02    2.06
   9   2  19    2.86    1.81
  -9   2 -19    1.72    1.81
   9   2  19   -1.70    1.81
  -9   2 -19    2.08    1.76
 -10  -2 -19    2.25    1.49
 -10  -2 -19    0.68    1.84
  10   2  19    1.38    1.78
  10   2  19   -1.59    2.00
 -10   2 -19   -1.96    1.60
 -10   2 -19    1.15    2.05
 -11  -2 -19   -0.81    1.48
  11   2  19   -4.96    1.54
 -11   2 -19   -0.82    1.84
 -11  -3  19    8.18    1.98
  11   3 -19    8.01    2.24
 -10  -3  19    5.48    1.88
 -10   3  19    4.17    2.21
  10   3 -19    0.75    1.79
  -9  -3  19   13.16    2.23
   9   3 -19   19.07    2.75
  -9   3  19   14.79    2.89
  -8  -3  19    4.98    1.79
   8   3 -19   10.35    2.27
  -8   3  19    7.91    2.33
  -7  -3  19    1.82    1.52
  -7   3  19   -0.97    1.45
   7   3 -19    3.33    1.65
  -6  -3  19    2.01    1.38
  -6  -3  19    0.79    1.21
   6   3 -19   -0.53    1.29
  -6   3  19   -0.02    1.34
   5  -3 -19   31.50    2.96
  -5  -3  19   32.91    2.61
  -5  -3  19   32.55    2.74
   5   3 -19   33.25    2.71
  -5   3  19   30.38    2.91
   4  -3 -19   29.95    2.66
  -4  -3  19   31.81    2.71
  -4  -3  19   31.86    2.51
   4   3 -19   32.60    2.55
   3  -3 -19    3.10    1.09
  -3  -3  19    0.83    1.07
  -3  -3  19    2.47    1.20
   2  -3 -19   30.67    2.17
  -2  -3  19   30.82    2.31
  -2  -3  19   29.03    2.55
  -2   3  19   30.63    2.04
   2   3 -19   31.49    2.16
  -1  -3  19    2.78    1.18
   1  -3 -19    2.68    1.02
  -1  -3  19    2.24    1.10
  -1   3  19    3.46    1.09
   1   3 -19    1.92    0.69
   0  -3  19    6.09    1.62
   0  -3 -19    3.96    1.07
   0  -3  19    3.69    1.11
   0   3  19    3.74    1.24
   0   3 -19    5.07    0.80
   1  -3  19   55.91    3.66
  -1  -3 -19   61.85    2.99
   1  -3  19   64.28    2.84
  -1   3 -19   63.62    2.36
   1   3  19   51.53    3.27
   2  -3  19   12.43    2.22
   2  -3  19   11.04    1.42
  -2  -3 -19   10.54    1.54
   2   3  19   13.89    2.08
   3  -3  19   33.34    3.68
   3  -3  19   30.55    2.14
  -3  -3 -19   28.56    2.33
   3   3  19   23.37    2.76
  -3   3 -19   28.96    1.81
   4  -3  19    4.27    2.06
   4  -3  19    4.31    1.20
  -4  -3 -19    4.82    1.35
   4   3  19    7.60    2.03
  -4   3 -19    3.83    1.06
   5  -3  19    9.61    2.58
  -5  -3 -19   10.89    0.88
   5  -3  19   10.67    1.40
  -5  -3 -19    9.53    1.76
  -5   3 -19    8.49    1.48
   5   3  19   11.46    2.29
  -6  -3 -19   32.07    1.65
   6  -3  19   28.72    3.73
  -6  -3 -19   27.24    2.76
   6   3  19   31.63    3.71
  -6   3 -19   28.97    2.62
  -7  -3 -19   13.36    2.23
  -7  -3 -19   17.62    1.49
   7  -3  19   17.65    3.16
  -7   3 -19   12.48    2.09
   7   3  19   13.80    2.84
  -8  -3 -19    3.09    1.86
  -8  -3 -19   -0.27    0.99
  -8   3 -19    2.09    1.66
   8   3  19   -0.47    1.85
  -9  -3 -19   -0.60    1.71
  -9  -3 -19    0.57    1.10
  -9   3 -19   -1.35    1.61
   9   3  19    0.56    1.97
   9   3  19    0.39    1.88
  10   3  19    3.46    2.27
  10   3  19    0.25    1.96
  11   4 -19    4.68    2.28
 -10  -4  19    2.14    1.46
  10   4 -19   -0.68    1.82
  -9  -4  19   16.33    2.12
   9   4 -19   18.41    2.90
  -9   4  19   12.00    2.69
  -8  -4  19    3.59    1.54
  -8   4  19    0.82    1.77
   8   4 -19   -2.07    1.68
  -7  -4  19    6.35    1.66
  -7   4  19    6.68    2.15
  -6  -4  19    1.08    1.29
  -6  -4  19    0.84    1.37
  -6   4  19   -1.09    1.37
  -5  -4  19   22.17    1.95
   5  -4 -19   19.75    2.54
  -5  -4  19   19.75    2.48
  -5   4  19   21.76    2.67
  -4  -4  19    3.75    1.11
  -4  -4  19    3.73    1.49
   4  -4 -19    1.07    1.21
  -3  -4  19    4.16    1.49
  -3  -4  19    5.42    0.98
   3  -4 -19    5.66    1.55
  -2  -4  19    8.14    1.70
   2  -4 -19   11.46    1.76
   1  -4 -19   48.61    2.89
  -1  -4  19   38.61    3.39
   1   4 -19   47.39    2.09
  -1   4  19   45.64    2.74
   0  -4  19   19.33    2.48
   0  -4 -19   20.31    2.05
   0   4 -19   19.20    1.41
   0   4  19   20.66    2.26
   1  -4  19   55.98    4.40
  -1  -4 -19   53.71    2.98
   1   4  19   49.69    3.25
  -1   4 -19   52.32    2.19
  -2  -4 -19   23.00    2.14
   2  -4  19   21.45    3.00
   2   4  19   27.61    2.84
   3  -4  19    9.04    2.34
  -3  -4 -19    5.72    1.36
   3   4  19    5.01    1.75
  -4  -4 -19   11.93    1.81
   4  -4  19    9.02    2.54
   4   4  19   12.26    2.42
  -5  -4 -19   26.76    2.61
   5  -4  19   24.67    3.60
   5   4  19   25.55    3.30
  -6  -4 -19    0.43    1.28
   6  -4  19   -0.45    1.91
   6   4  19   -0.38    1.63
   7  -4  19    7.34    2.41
  -7  -4 -19    5.42    1.86
  -7   4 -19    3.57    1.58
   7   4  19    3.06    2.17
  -8  -4 -19   -0.63    1.65
  -8   4 -19    0.49    1.63
   8   4  19    1.03    2.07
  -9  -4 -19    9.09    2.50
   9   4  19    9.87    2.79
  -9   4 -19    4.01    2.13
  10   4  19    0.56    2.33
  -9   5  19    2.57    2.22
  -8   5  19   17.66    3.23
  -7  -5  19    5.41    2.11
  -7   5  19    7.03    2.28
  -6  -5  19   -0.57    1.48
  -6   5  19    0.20    1.69
  -5  -5  19   -0.86    1.34
   5  -5 -19    2.77    1.56
  -5   5  19    1.98    1.58
   4  -5 -19   37.27    3.38
  -4  -5  19   40.63    3.58
  -3  -5  19    5.22    1.78
   3  -5 -19    4.15    1.44
   2  -5 -19    4.80    1.45
  -2  -5  19    5.98    1.94
  -1  -5  19   -0.34    1.41
   1  -5 -19    2.81    1.27
  -1   5  19   -0.09    1.16
   0  -5 -19   17.90    2.10
   0  -5  19   16.16    2.58
   0   5  19   16.36    2.22
  -1  -5 -19   40.32    2.85
   1  -5  19   32.27    3.61
   1   5  19   40.39    3.45
  -2  -5 -19   18.01    2.16
   2  -5  19   16.21    2.91
   2   5  19   13.79    2.29
   3  -5  19    7.29    2.40
  -3  -5 -19    3.91    1.44
   3   5  19    6.72    2.05
  -4  -5 -19    5.55    1.44
   4  -5  19   -0.96    1.87
   4   5  19    2.71    1.82
   5  -5  19    5.12    2.33
  -5  -5 -19    6.18    1.72
   5   5  19    1.05    1.98
  -6  -5 -19   37.16    3.41
   6  -5  19   47.01    4.59
   6   5  19   37.81    4.33
  -7  -5 -19    7.53    2.17
   7   5  19    6.13    2.47
  -8  -5 -19   -1.97    1.62
   8   5  19    2.82    2.33
   9   5  19    5.33    2.56
  -7  -6  19    2.68    2.16
  -7   6  19    2.11    2.14
  -6  -6  19    1.97    1.85
  -6   6  19    0.92    1.83
   5  -6 -19    1.39    1.75
  -5  -6  19   -0.24    1.62
  -5   6  19    3.71    1.85
  -4  -6  19    6.10    2.10
   4  -6 -19    4.57    1.85
  -3  -6  19    0.96    1.68
   3  -6 -19   -0.01    1.38
  -2  -6  19    6.55    2.03
   2  -6 -19    1.64    1.42
   1  -6 -19    0.17    1.21
  -1  -6  19    0.54    1.72
   0  -6 -19   -0.46    1.15
   0  -6  19    2.15    1.88
   0   6  19    1.20    1.47
   1  -6  19   -1.27    1.85
  -1  -6 -19    2.28    1.40
   1   6  19    2.53    1.59
   2  -6  19    8.50    2.58
  -2  -6 -19    6.28    1.65
   2   6  19    7.43    2.15
   3  -6  19    1.81    1.97
  -3  -6 -19   -0.06    1.23
   3   6  19    0.24    1.65
   4  -6  19    3.80    2.39
  -4  -6 -19    2.17    1.51
   4   6  19   -0.54    1.76
   5  -6  19    2.19    2.20
  -5  -6 -19    1.96    1.53
   5   6  19    3.25    2.20
  -6  -6 -19   -1.46    1.48
   6   6  19   -0.06    2.07
  -7  -6 -19    3.98    2.06
   7   6  19    4.92    2.56
   8   6  19    5.55    2.71
  -7  -7  19    1.10    2.06
  -6  -7  19    9.85    2.77
  -6   7  19    4.53    2.41
  -5  -7  19   -0.22    1.87
   5  -7 -19    6.81    2.38
  -5   7  19    2.54    2.07
   4  -7 -19    4.94    2.03
  -4  -7  19    3.26    2.11
  -4   7  19    3.07    2.03
  -3  -7  19    2.69    2.16
   3  -7 -19    4.38    1.89
  -2  -7  19    8.02    2.52
   2  -7 -19   12.63    2.33
   1  -7 -19    1.44    1.44
  -1  -7  19   -0.34    1.78
   0  -7  19    0.46    2.02
   0  -7 -19    0.10    1.42
   0   7  19   -0.83    1.48
  -1  -7 -19   19.66    2.66
   1  -7  19   14.82    3.38
   1   7  19   18.80    2.83
  -2  -7 -19    3.45    1.63
   2  -7  19    3.96    2.63
   2   7  19    4.56    2.10
   3  -7  19    4.36    2.55
  -3  -7 -19    3.15    1.70
   3   7  19    1.92    2.06
  -4  -7 -19    5.72    1.98
   4  -7  19    2.06    2.41
   4   7  19    2.33    2.30
  -5  -7 -19   10.22    2.40
   5  -7  19    9.38    2.95
   5   7  19   11.61    3.17
  -6  -7 -19    3.64    2.24
   6   7  19   -5.32    1.80
   7   7  19    6.36    2.96
  -6  -8  19    2.77    2.44
  -5  -8  19   12.49    3.18
  -4  -8  19    7.78    2.76
   4  -8 -19   -0.34    1.84
  -4   8  19    1.31    2.11
  -3  -8  19    0.88    2.26
   3  -8 -19    5.51    2.16
   2  -8 -19    2.57    1.93
  -2  -8  19    2.92    2.43
  -1  -8  19    6.10    2.80
   1  -8 -19    7.61    2.15
   0  -8  19    9.44    3.05
   0  -8 -19    9.88    2.31
  -1  -8 -19    5.29    1.97
   1  -8  19    3.46    2.59
   1   8  19    8.22    2.57
  -2  -8 -19   11.22    2.41
   2  -8  19   17.73    3.64
   2   8  19    8.70    2.63
  -3  -8 -19    0.14    1.79
   3  -8  19   -2.27    2.20
   3   8  19   -2.30    1.92
   4  -8  19   -1.73    2.22
   4   8  19    8.63    3.03
   5   8  19    6.52    2.91
  -3  -9  19    5.44    2.85
  -2  -9  19    0.26    2.53
  -1  -9  19    2.57    2.88
   0  -9  19    1.52    2.91
   1  -9  19    0.97    2.84
   2  -9  19    7.17    3.19
   2   9  19    8.58    3.10
   3  -9  19   -0.53    2.80
   3   9  19    2.74    2.56
 -12   0  20    3.55    2.14
 -11   0  20   -0.46    1.90
  11   0 -20   -1.50    1.11
 -10   0  20    3.33    2.09
  10   0 -20    0.31    1.26
  -9   0  20   -0.09    1.59
  -9   0  20   -0.95    1.64
   9   0 -20    0.35    1.27
   8   0 -20   19.05    2.09
  -8   0  20   16.06    2.36
  -8   0  20   17.98    2.57
  -7   0  20    0.15    1.35
  -7   0  20    0.19    1.46
   7   0 -20   -0.78    1.17
  -6   0  20    6.70    1.70
  -6   0  20    5.03    1.61
   6   0 -20    7.14    1.52
  -5   0  20    0.18    1.05
   5   0 -20   -0.84    0.95
  -5   0  20   -1.62    1.03
   4   0 -20    4.94    1.15
  -4   0  20    6.47    1.40
  -4   0  20    2.37    1.05
   4   0 -20    4.53    1.17
  -3   0  20    0.34    1.00
  -3   0  20   -0.09    0.76
   3   0 -20    0.11    0.84
   3   0 -20    1.01    0.86
   2   0 -20  110.79    3.85
  -2   0  20  103.89    4.00
  -2   0  20  109.43    4.20
   2   0 -20  111.96    3.89
   1   0 -20   -0.43    0.60
  -1   0  20   -0.32    0.74
  -1   0  20    0.31    0.85
   0   0  20   10.77    1.27
   0   0  20    9.17    1.51
   0   0 -20    9.48    1.10
   0   0 -20    8.06    1.02
  -1   0 -20    1.73    0.72
  -1   0 -20    0.60    0.63
   1   0  20    0.58    1.05
   1   0  20    0.86    0.84
  -2   0 -20  116.71    4.22
  -2   0 -20  124.37    3.64
   2   0  20  124.17    5.40
   2   0  20  126.90    4.37
  -2   0 -20  119.55    4.06
  -3   0 -20   -1.24    0.69
  -3   0 -20   -0.60    0.60
  -3   0 -20   -1.02    0.53
   3   0  20   -0.29    0.89
   3   0  20   -0.37    1.20
  -4   0 -20   15.87    1.29
  -4   0 -20   17.21    1.63
   4   0  20   19.01    2.71
  -4   0 -20   14.81    1.71
   4   0  20   18.70    1.92
  -5   0 -20    0.80    0.93
  -5   0 -20    0.04    1.02
   5   0  20    0.05    1.70
  -5   0 -20    0.49    0.74
   5   0  20    0.05    1.06
  -6   0 -20    4.00    1.45
   6   0  20    8.06    2.47
   6   0  20    6.41    1.63
  -6   0 -20    6.10    1.37
  -6   0 -20    5.68    1.09
  -7   0 -20   -0.57    1.15
   7   0  20    1.34    1.92
  -7   0 -20   -0.10    1.23
   7   0  20    2.34    1.51
  -7   0 -20   -1.44    0.88
  -8   0 -20   33.35    2.88
  -8   0 -20   36.90    3.53
  -8   0 -20   35.93    2.35
   8   0  20   34.15    3.15
   8   0  20   28.09    3.69
  -9   0 -20    0.40    1.14
  -9   0 -20    0.15    1.42
  -9   0 -20   -1.61    1.35
   9   0  20    0.35    1.90
   9   0  20    0.70    1.63
 -10   0 -20    1.10    1.60
 -10   0 -20   -0.04    1.93
  10   0  20    1.65    1.75
 -11   0 -20    2.86    1.90
  11   0  20    0.43    1.65
 -11  -1  20    3.96    2.03
 -11   1  20   -0.26    1.99
  11   1 -20    5.05    1.79
 -10  -1  20    2.12    1.86
 -10   1  20    1.19    1.85
  10   1 -20   -0.95    1.45
  -9  -1  20   33.12    3.29
   9  -1 -20   32.08    1.57
  -9   1  20   37.88    3.60
   9   1 -20   34.80    3.09
   8  -1 -20   15.47    1.50
  -8  -1  20   16.28    2.45
   8   1 -20   15.20    2.16
  -8   1  20   16.99    2.53
   7  -1 -20    3.70    1.10
  -7  -1  20    3.71    1.60
   7   1 -20    1.21    1.44
  -7   1  20    2.92    1.59
  -6  -1  20    4.94    1.60
  -6  -1  20    5.68    1.47
   6  -1 -20    3.66    1.14
  -6   1  20    3.12    1.46
   6   1 -20    2.81    1.41
  -5  -1  20   74.22    3.48
  -5  -1  20   69.90    3.65
   5  -1 -20   82.49    3.89
   5  -1 -20   73.94    3.02
  -5   1  20   65.54    3.58
   5   1 -20   70.77    3.43
   4  -1 -20   21.25    1.73
   4  -1 -20   22.27    2.15
  -4  -1  20   20.68    1.84
  -4  -1  20   21.92    2.10
  -4  -1  20   21.86    1.88
   4   1 -20   22.98    2.05
   3  -1 -20   15.64    1.46
  -3  -1  20   13.24    1.58
   3  -1 -20   15.21    1.65
  -3  -1  20   12.93    1.69
  -3   1  20   16.24    1.50
   3   1 -20   14.80    1.63
   3   1 -20   15.53    1.38
  -2  -1  20   17.07    1.75
   2  -1 -20   19.67    1.52
  -2  -1  20   20.88    1.92
   2  -1 -20   18.40    1.65
   2   1 -20   20.45    1.46
  -2   1  20   20.78    1.75
  -2   1  20   20.80    1.80
   1  -1 -20   12.80    1.19
  -1  -1  20    8.12    1.47
   1  -1 -20   11.13    1.23
  -1  -1  20    9.87    1.36
  -1   1  20   18.09    1.80
   1   1 -20   10.12    1.02
   1   1 -20   10.10    1.18
  -1   1  20    9.16    1.26
   0  -1 -20   13.43    1.32
   0  -1  20   13.26    1.49
   0  -1  20   14.26    1.84
   0   1 -20   14.59    1.30
   0   1  20   16.12    1.49
   0   1  20   12.36    1.65
   0   1 -20   12.66    1.10
  -1  -1 -20  106.47    3.53
   1  -1  20  111.96    4.83
  -1  -1 -20  106.83    3.96
   1  -1  20  105.52    3.88
   1   1  20  110.49    3.90
  -1   1 -20  109.81    3.64
  -1   1 -20  107.50    3.71
  -1   1 -20  112.44    3.42
   1   1  20  106.07    4.69
  -2  -1 -20    1.81    0.87
   2  -1  20    4.05    1.08
   2  -1  20    5.14    1.56
  -2  -1 -20    1.89    0.72
  -2   1 -20    3.51    0.86
  -2   1 -20    1.94    0.75
  -2   1 -20    2.71    0.70
   2   1  20    2.49    1.29
   2   1  20    2.42    0.93
   3  -1  20   61.05    2.92
   3  -1  20   75.38    4.19
  -3  -1 -20   67.42    3.06
  -3  -1 -20   62.09    2.57
  -3   1 -20   64.08    2.74
   3   1  20   61.84    3.79
  -3   1 -20   61.58    2.45
  -3   1 -20   64.58    2.82
   3   1  20   56.97    2.87
   4  -1  20    9.87    2.17
  -4  -1 -20    8.72    1.42
  -4  -1 -20   11.38    1.33
   4  -1  20   10.15    1.57
  -4   1 -20   13.51    1.53
  -4   1 -20   10.54    1.38
  -4   1 -20   10.52    1.16
   4   1  20   14.10    1.71
   4   1  20   10.97    2.28
   5  -1  20    2.24    1.25
   5  -1  20   -1.13    1.57
  -5  -1 -20    2.45    0.99
  -5  -1 -20    1.13    1.03
  -5   1 -20    1.50    1.02
  -5   1 -20    2.64    0.90
   5   1  20    1.10    1.68
   5   1  20    4.02    1.32
  -5   1 -20    2.91    1.09
  -6  -1 -20   42.92    2.54
  -6  -1 -20   44.35    1.97
  -6  -1 -20   36.60    3.10
   6  -1  20   32.90    3.69
   6  -1  20   44.76    2.95
   6   1  20   43.80    3.01
  -6   1 -20   41.69    2.32
  -6   1 -20   42.50    2.94
  -6   1 -20   37.11    2.63
   6   1  20   43.86    4.16
  -7  -1 -20   16.41    1.99
   7  -1  20   15.28    2.25
  -7  -1 -20   16.14    2.38
   7  -1  20   11.53    2.63
  -7   1 -20   14.09    1.98
   7   1  20   14.06    2.24
  -7   1 -20   16.73    1.74
   7   1  20   18.68    3.08
  -7   1 -20   14.89    2.29
  -8  -1 -20    1.10    1.48
   8  -1  20    2.03    2.01
   8  -1  20    1.85    1.55
  -8  -1 -20    1.18    1.38
   8   1  20    1.11    1.58
  -8   1 -20    0.64    1.34
  -8   1 -20    1.44    1.19
   8   1  20    2.74    2.11
  -8   1 -20    2.80    1.69
  -9  -1 -20    1.22    1.48
   9  -1  20   -1.43    1.40
   9  -1  20    1.48    2.17
  -9  -1 -20    1.43    1.81
  -9   1 -20    2.01    1.70
  -9   1 -20    0.89    1.59
  -9   1 -20    1.45    1.27
   9   1  20   -1.07    1.86
   9   1  20   -0.45    1.61
 -10  -1 -20   -2.14    1.42
  10  -1  20    0.86    1.56
 -10  -1 -20    4.91    2.21
  10   1  20   -0.36    2.06
 -10   1 -20    1.65    2.01
  10   1  20    0.44    1.75
 -10   1 -20    1.44    1.42
 -10   1 -20   -1.01    1.59
 -11  -1 -20   13.00    2.31
  11  -1  20   15.06    1.86
 -11   1 -20   12.70    2.46
  11   1  20   19.10    2.71
 -11  -2  20   -0.09    1.71
  11   2 -20    0.17    1.71
 -10  -2  20   -2.52    1.44
 -10   2  20    0.36    1.86
  10   2 -20    2.56    1.74
  -9  -2  20   12.93    2.33
  -9   2  20   12.64    2.56
   9   2 -20   12.58    2.30
  -8  -2  20   -0.34    1.49
  -8   2  20    0.20    1.52
   8   2 -20    1.28    1.62
  -7  -2  20    7.37    1.81
   7   2 -20    8.16    1.92
  -7   2  20    6.86    1.96
  -6  -2  20    2.06    1.40
  -6   2  20    0.22    1.26
   6   2 -20    0.75    1.25
  -5  -2  20   13.25    1.90
  -5  -2  20   15.85    1.81
   5  -2 -20   11.07    1.95
   5   2 -20   12.13    1.77
  -5   2  20   15.54    2.09
  -4  -2  20   -0.20    0.91
  -4  -2  20   -0.23    1.09
   4  -2 -20   -0.04    0.95
   4   2 -20    0.39    1.01
  -3  -2  20   73.99    3.53
   3  -2 -20   68.28    3.32
  -3  -2  20   74.33    3.45
   3   2 -20   74.61    3.17
  -2  -2  20    8.17    1.40
   2  -2 -20    7.66    1.28
  -2  -2  20    5.07    1.26
  -2   2  20    5.49    1.18
   1  -2 -20    6.65    1.18
  -1  -2  20    8.73    1.34
  -1  -2  20    5.84    1.39
  -1   2  20    7.39    1.36
   1   2 -20    6.28    1.07
   0  -2  20    7.31    1.32
   0  -2 -20    6.88    1.14
   0  -2 -20    7.71    0.75
   0  -2  20    6.00    1.53
   0   2 -20    7.85    0.94
   0   2  20    8.54    1.57
   0   2 -20    8.27    0.83
   0   2 -20    8.22    1.13
   1  -2  20    1.21    0.97
   1  -2  20   -0.98    1.19
  -1  -2 -20    1.39    0.78
  -1  -2 -20   -0.09    0.55
  -1   2 -20    0.58    0.53
  -1   2 -20   -0.07    0.53
   1   2  20   -0.88    1.01
  -1   2 -20   -1.36    0.66
   2  -2  20    3.88    1.13
   2  -2  20    3.52    1.57
  -2  -2 -20    5.18    1.07
  -2   2 -20    5.80    0.90
  -2   2 -20    4.57    0.99
  -2   2 -20    6.64    0.93
   2   2  20    4.43    1.49
   3  -2  20   75.14    3.33
   3  -2  20   71.57    4.41
  -3  -2 -20   74.07    2.68
  -3  -2 -20   74.93    3.45
   3   2  20   72.16    4.28
  -3   2 -20   74.36    3.02
  -3   2 -20   74.77    2.77
  -3   2 -20   82.01    3.17
  -4  -2 -20    1.65    0.80
   4  -2  20    0.98    1.65
   4  -2  20    1.12    1.06
  -4  -2 -20    2.76    1.09
   4   2  20    1.47    1.55
  -4   2 -20    2.24    0.98
  -4   2 -20    0.79    0.92
  -5  -2 -20   11.83    1.77
  -5  -2 -20   14.26    1.42
   5  -2  20   12.66    2.67
   5  -2  20   12.10    1.73
   5   2  20   11.49    2.45
  -5   2 -20    9.14    1.52
  -5   2 -20   13.50    1.67
   5   2  20   14.79    1.94
   6  -2  20   -0.03    1.24
  -6  -2 -20    0.73    0.98
   6  -2  20    0.10    1.85
  -6  -2 -20    1.42    1.28
   6   2  20   -1.99    1.54
   6   2  20    2.06    1.46
  -6   2 -20    0.48    1.11
  -6   2 -20    0.53    1.06
  -7  -2 -20   31.01    3.16
   7  -2  20   26.27    3.60
   7  -2  20   30.27    2.65
  -7  -2 -20   33.19    2.28
  -7   2 -20   27.24    2.76
   7   2  20   30.61    3.02
   7   2  20   26.42    3.62
  -7   2 -20   27.65    2.65
  -8  -2 -20    0.98    1.24
   8  -2  20   -0.53    1.30
  -8  -2 -20    0.54    1.55
   8  -2  20    1.63    2.06
  -8   2 -20   -0.41    1.47
  -8   2 -20    0.20    1.49
   8   2  20    1.13    1.97
   8   2  20    1.46    1.74
  -9  -2 -20    1.24    1.78
   9  -2  20   -0.59    1.26
  -9  -2 -20    1.10    1.42
   9   2  20    1.03    2.10
  -9   2 -20    1.17    1.56
   9   2  20   -0.28    1.74
  -9   2 -20   -0.22    1.65
 -10  -2 -20    0.87    1.54
  10   2  20   -3.12    1.93
  10   2  20    3.95    1.97
 -10   2 -20    0.34    1.77
 -10   2 -20   -1.31    1.28
 -11  -2 -20   12.20    1.99
 -11   2 -20    8.15    2.35
  11   2  20    9.39    2.40
 -11  -3  20   -2.82    1.49
  11   3 -20   -0.85    1.80
 -10  -3  20   -0.48    1.52
 -10   3  20   -0.48    1.83
  10   3 -20    0.21    1.79
  -9  -3  20   10.97    2.14
  -9   3  20   11.61    2.61
   9   3 -20   12.90    2.46
  -8  -3  20   13.54    2.20
   8   3 -20   12.85    2.43
  -8   3  20   11.00    2.48
  -7  -3  20    7.38    1.77
   7   3 -20    4.79    1.79
  -7   3  20    7.15    2.06
  -6  -3  20    7.22    1.74
  -6  -3  20    6.51    1.66
   6   3 -20    5.83    1.65
  -6   3  20    5.54    1.88
  -5  -3  20   33.03    2.77
  -5  -3  20   33.75    2.72
   5  -3 -20   38.30    3.25
   5   3 -20   34.95    2.83
  -5   3  20   42.09    3.46
  -4  -3  20   54.85    3.03
   4  -3 -20   46.07    3.03
  -4  -3  20   50.94    3.07
   4   3 -20   40.77    2.65
   3  -3 -20   19.30    2.07
  -3  -3  20   21.19    2.07
  -3  -3  20   22.49    2.29
   2  -3 -20    5.50    1.28
  -2  -3  20    7.99    1.48
  -2  -3  20    6.87    1.54
   2   3 -20    7.01    1.21
  -2   3  20    8.20    1.36
   1  -3 -20    4.07    1.11
  -1  -3  20    6.16    1.58
  -1  -3  20    4.72    1.30
  -1   3  20    5.46    1.28
   1   3 -20    2.67    0.77
   0  -3  20    2.32    1.10
   0  -3  20    2.05    1.39
   0  -3 -20    1.53    0.91
   0   3  20   -0.15    0.99
   0   3 -20    2.24    0.71
   1  -3  20   53.51    2.71
  -1  -3 -20   48.77    2.71
   1  -3  20   47.49    3.88
  -1   3 -20   50.46    2.10
   1   3  20   49.16    3.16
  -2  -3 -20   12.50    1.67
   2  -3  20   10.12    1.49
   2  -3  20    8.26    2.10
   2   3  20    7.61    1.71
  -2   3 -20    9.45    1.07
   3  -3  20   44.86    4.23
  -3  -3 -20   48.80    2.78
   3  -3  20   47.58    2.62
  -3   3 -20   48.51    2.32
   3   3  20   50.50    3.58
   4  -3  20   13.69    1.59
  -4  -3 -20   15.80    1.93
   4  -3  20   13.18    2.78
  -4   3 -20   14.45    1.60
   4   3  20   14.14    2.38
  -5  -3 -20    5.59    1.53
   5  -3  20    4.49    2.32
   5  -3  20    2.22    1.14
  -5   3 -20    3.14    1.25
   5   3  20    7.72    2.16
  -6  -3 -20   41.94    3.50
   6  -3  20   46.72    2.08
   6  -3  20   46.45    4.70
  -6  -3 -20   49.04    1.99
  -6   3 -20   48.54    3.07
   6   3  20   46.11    4.48
  -7  -3 -20    2.58    1.57
   7  -3  20   -0.17    1.88
  -7  -3 -20    1.89    0.93
  -7   3 -20    1.85    1.48
   7   3  20    1.20    1.91
  -8  -3 -20    4.58    1.81
  -8  -3 -20    6.47    1.21
   8   3  20    4.26    2.27
  -8   3 -20    7.81    2.14
  -9  -3 -20    1.14    1.82
   9   3  20   -1.80    1.68
   9   3  20    0.12    2.07
  -9   3 -20    0.13    1.80
  10   3  20    1.55    2.05
  10   3  20    1.69    2.33
 -10  -4  20    1.27    1.38
  10   4 -20    0.69    1.91
  -9  -4  20    2.63    1.61
  -9   4  20   -1.70    1.84
   9   4 -20    4.59    2.22
  -8  -4  20    8.06    1.79
   8   4 -20   12.32    2.49
  -8   4  20   12.82    2.67
  -7  -4  20    4.44    1.54
  -7   4  20    5.57    2.02
   7   4 -20    4.85    1.90
  -6  -4  20    4.09    1.75
  -6  -4  20    4.72    1.48
  -6   4  20    2.32    1.73
   5  -4 -20    2.47    1.44
  -5  -4  20    4.84    1.37
  -5  -4  20    0.83    1.28
  -5   4  20    2.79    1.60
  -4  -4  20    1.00    1.11
  -4  -4  20   -0.65    1.16
   4  -4 -20    0.96    1.32
   3  -4 -20    5.50    1.38
  -3  -4  20    2.81    1.34
  -3  -4  20    2.29    0.99
   2  -4 -20   42.42    2.89
  -2  -4  20   42.51    1.78
  -2  -4  20   45.31    3.18
   1  -4 -20    6.94    1.40
  -1  -4  20    8.50    1.88
  -1   4  20    9.55    1.65
   1   4 -20    9.12    1.12
   0  -4  20    9.40    2.00
   0  -4 -20    2.86    1.11
   0   4 -20    5.20    0.91
   0   4  20    8.81    1.66
  -1  -4 -20    1.34    0.96
   1  -4  20    1.25    1.61
   1   4  20    1.01    1.30
  -1   4 -20    1.70    0.75
   2  -4  20   47.82    4.30
  -2  -4 -20   37.68    2.75
   2   4  20   47.01    3.25
  -3  -4 -20   -0.11    1.02
   3  -4  20    0.09    1.88
   3   4  20    1.35    1.42
  -4  -4 -20    2.16    1.22
   4  -4  20    3.12    2.14
   4   4  20    2.10    1.60
   5  -4  20    0.59    1.97
  -5  -4 -20    1.43    1.26
   5   4  20   -0.01    1.73
   6  -4  20    5.36    2.44
  -6  -4 -20    4.36    1.63
   6   4  20    2.02    1.98
  -7  -4 -20    3.52    1.64
   7  -4  20    1.08    2.16
   7   4  20    1.48    2.07
  -8  -4 -20   14.70    2.67
   8   4  20   18.12    3.40
  -9  -4 -20    0.44    1.86
   9   4  20    0.84    2.21
  10   4  20   -1.91    1.80
  -8   5  20    6.63    2.54
  -7  -5  20    3.67    2.03
  -7   5  20   -0.96    1.78
  -6  -5  20    0.67    1.54
  -6   5  20    1.34    1.74
   5  -5 -20   21.50    2.82
  -5  -5  20   21.15    2.87
  -5   5  20   22.83    2.90
   4  -5 -20    0.85    1.47
  -4  -5  20    1.29    1.45
  -3  -5  20    7.88    2.10
   3  -5 -20    6.70    1.75
  -2  -5  20    7.65    1.96
   2  -5 -20   10.32    1.86
  -1  -5  20   13.56    2.42
   1  -5 -20   11.30    1.84
   1   5 -20   10.55    1.26
  -1   5  20   12.18    1.87
   0  -5 -20    5.85    1.55
   0  -5  20    6.30    1.99
   0   5  20    7.65    1.75
   1  -5  20   49.95    4.36
  -1  -5 -20   46.23    2.97
   1   5  20   35.82    3.35
  -2  -5 -20    1.61    1.24
   2  -5  20    2.03    1.99
   2   5  20   -2.10    1.19
  -3  -5 -20   17.80    2.22
   3  -5  20   17.93    3.24
   3   5  20   16.62    2.68
  -4  -5 -20   -0.21    1.20
   4  -5  20   -3.05    1.69
   4   5  20    0.77    1.72
  -5  -5 -20    4.70    1.69
   5  -5  20    2.67    2.24
   5   5  20    6.49    2.28
  -6  -5 -20    0.94    1.57
   6  -5  20    2.01    2.23
   6   5  20    4.70    2.37
  -7  -5 -20    6.15    1.93
   7   5  20   14.00    3.10
  -8  -5 -20    1.50    1.98
   8   5  20   -0.44    2.12
   9   5  20    3.46    2.52
  -7  -6  20    4.63    2.25
  -7   6  20   -2.01    1.94
  -6  -6  20   -0.58    1.68
  -6   6  20    0.24    1.93
  -5  -6  20    2.72    1.94
   5  -6 -20    1.37    1.67
  -5   6  20    3.97    1.91
   4  -6 -20    6.81    1.98
  -4  -6  20    5.02    2.02
  -3  -6  20    6.35    2.03
   3  -6 -20    7.88    2.01
  -2  -6  20   17.28    2.92
   2  -6 -20   17.80    2.44
   1  -6 -20   -1.70    1.09
  -1  -6  20    1.69    1.91
   0  -6  20   10.43    2.70
   0  -6 -20    9.22    1.87
   0   6  20   12.14    2.15
   1  -6  20    0.15    1.87
  -1  -6 -20    0.00    1.24
   1   6  20   -0.52    1.47
   2  -6  20    8.06    2.71
  -2  -6 -20    9.68    1.94
   2   6  20    8.56    2.29
  -3  -6 -20   17.42    2.39
   3  -6  20   21.36    3.62
   3   6  20   21.52    3.14
   4  -6  20    3.12    2.39
  -4  -6 -20    3.93    1.63
   4   6  20    3.09    2.02
   5  -6  20   -0.77    2.05
  -5  -6 -20   -1.26    1.30
   5   6  20    2.72    2.24
  -6  -6 -20   -0.55    1.60
   6  -6  20   -0.91    2.11
   6   6  20    1.07    2.24
  -7  -6 -20   12.58    2.73
   7   6  20   14.60    3.28
   8   6  20    3.11    2.56
  -7  -7  20    4.82    2.53
  -6  -7  20    3.24    2.18
  -6   7  20    3.65    2.41
   5  -7 -20    2.86    2.13
  -5  -7  20    0.61    1.95
  -5   7  20    1.13    2.09
   4  -7 -20   23.66    3.25
  -4  -7  20   18.28    3.23
  -4   7  20   21.42    3.26
   3  -7 -20    9.42    2.28
  -3  -7  20   10.04    2.66
  -2  -7  20   -1.59    1.84
   2  -7 -20    1.85    1.61
   1  -7 -20    1.23    1.59
  -1  -7  20    2.21    2.11
   0  -7  20    0.72    2.07
   0  -7 -20   -0.03    1.43
   0   7  20    0.09    1.68
   1  -7  20   10.87    3.15
  -1  -7 -20   10.97    2.20
   1   7  20    8.10    2.30
   2  -7  20    7.65    2.89
  -2  -7 -20    1.94    1.60
   2   7  20    4.75    2.14
  -3  -7 -20    3.87    1.75
   3  -7  20    4.93    2.69
   3   7  20    6.52    2.41
  -4  -7 -20    1.49    1.63
   4  -7  20    0.25    2.23
   4   7  20    1.78    2.04
   5  -7  20   -0.81    2.39
  -5  -7 -20    2.53    2.01
   5   7  20    2.13    2.40
   6   7  20    2.93    2.54
   7   7  20    1.35    2.50
  -6  -8  20   -1.55    1.84
  -5  -8  20    2.08    2.34
  -4  -8  20    2.94    2.32
   4  -8 -20    3.81    2.31
  -4   8  20    1.86    2.29
   3  -8 -20   -0.63    1.72
  -3  -8  20   -1.16    2.00
   2  -8 -20    2.76    2.04
  -2  -8  20    6.74    2.82
   1  -8 -20    5.19    2.08
  -1  -8  20    2.55    2.67
   0  -8 -20    3.47    1.92
   0  -8  20    3.41    2.59
   1  -8  20    3.04    2.69
  -1  -8 -20    0.59    1.71
   1   8  20    1.10    2.13
   2  -8  20   -0.44    2.33
  -2  -8 -20    1.34    1.87
   2   8  20    1.24    2.02
   3  -8  20    1.89    2.48
  -3  -8 -20    3.26    1.97
   3   8  20    1.94    2.27
   4  -8  20    1.29    2.73
   4   8  20    0.18    2.27
   5   8  20    1.22    2.43
  -3  -9  20    4.59    2.81
  -2  -9  20    0.03    2.64
  -1  -9  20    2.77    2.98
   0  -9  20    0.73    2.84
   1  -9  20   17.21    4.21
   2  -9  20    3.69    3.07
   2   9  20   -0.65    2.33
  11   0 -21    9.22    1.35
 -11   0  21    6.86    2.40
 -10   0  21    0.16    1.84
  10   0 -21   -0.50    1.21
   9   0 -21    2.19    1.38
  -9   0  21    0.83    1.69
   8   0 -21   -0.40    1.23
  -8   0  21   -0.20    1.41
  -8   0  21    2.17    1.68
  -7   0  21  121.81    5.42
   7   0 -21  120.44    4.80
  -7   0  21  124.53    5.44
   6   0 -21    0.37    1.14
  -6   0  21    0.91    1.35
  -6   0  21   -0.06    1.24
  -5   0  21   -0.10    1.22
  -5   0  21   -0.11    1.08
   5   0 -21    0.57    1.07
  -4   0  21   -1.26    0.96
   4   0 -21   -0.03    0.89
   4   0 -21    0.65    0.99
  -4   0  21    1.13    0.92
  -3   0  21  270.50    8.14
   3   0 -21  256.12    7.76
   3   0 -21  256.64    7.92
  -3   0  21  267.01    8.07
  -2   0  21   -0.37    0.79
  -2   0  21   -0.90    0.83
   2   0 -21    0.15    0.69
   2   0 -21    1.15    0.86
   1   0 -21   19.97    1.54
  -1   0  21   20.86    1.78
  -1   0  21   17.26    1.90
   0   0  21   -1.30    0.73
   0   0 -21    0.24    0.61
   0   0  21    0.00    0.93
   0   0 -21   -0.10    0.63
  -1   0 -21   94.57    3.32
   1   0  21   93.97    4.34
  -1   0 -21   94.88    3.46
   1   0  21   92.94    3.60
   2   0  21    0.54    0.82
  -2   0 -21    0.62    0.70
  -2   0 -21    0.71    0.75
   2   0  21   -1.51    1.04
   3   0  21   86.58    4.76
  -3   0 -21   78.19    3.17
  -3   0 -21   81.82    2.83
   3   0  21   84.11    3.53
  -3   0 -21   83.38    3.46
  -4   0 -21   -0.48    0.80
   4   0  21   -1.75    1.31
  -4   0 -21   -0.39    0.85
   4   0  21   -1.19    0.99
  -4   0 -21   -0.48    0.63
  -5   0 -21   65.80    3.16
   5   0  21   70.00    3.51
  -5   0 -21   75.72    2.79
   5   0  21   61.44    4.58
  -5   0 -21   71.57    3.58
   6   0  21   -1.64    1.21
  -6   0 -21    0.08    1.18
   6   0  21   -0.32    1.81
  -6   0 -21   -0.60    0.81
  -6   0 -21    1.18    1.03
   7   0  21   49.73    3.68
  -7   0 -21   52.30    3.11
  -7   0 -21   44.72    2.41
   7   0  21   53.07    4.88
  -7   0 -21   52.16    3.56
   8   0  21    1.15    1.62
  -8   0 -21   -0.05    1.55
  -8   0 -21   -0.33    1.32
  -8   0 -21   -0.05    1.01
   8   0  21    0.97    1.92
  -9   0 -21    0.11    1.22
  -9   0 -21    4.87    1.69
   9   0  21    4.46    1.93
  -9   0 -21    4.44    2.00
   9   0  21    4.98    2.40
 -10   0 -21    1.27    1.97
 -10   0 -21    0.30    1.56
  10   0  21   -2.58    1.56
  11   0  21    2.78    1.82
 -11   0 -21    1.16    1.78
 -11  -1  21   -2.66    1.53
  11   1 -21   -0.07    1.53
 -10  -1  21    3.61    2.01
  10   1 -21   -0.51    1.52
 -10   1  21    1.59    2.07
  -9  -1  21   18.35    2.75
   9   1 -21   17.95    2.38
  -9   1  21   25.52    3.13
  -8  -1  21    6.69    1.93
   8  -1 -21    6.20    1.15
   8   1 -21    5.53    1.81
  -8   1  21    4.29    1.81
  -7  -1  21   -0.79    1.39
   7  -1 -21    2.56    1.08
   7   1 -21   -0.87    1.31
  -7   1  21    0.94    1.49
   6  -1 -21   14.98    1.57
  -6  -1  21   15.63    2.22
   6   1 -21   12.06    1.91
  -6   1  21   12.49    2.08
   5  -1 -21    6.36    1.21
  -5  -1  21    4.55    1.40
   5  -1 -21    4.43    1.46
  -5  -1  21    5.57    1.59
  -5   1  21    5.14    1.44
   5   1 -21    7.57    1.49
   4  -1 -21   13.11    1.48
   4  -1 -21   16.88    1.91
  -4  -1  21   18.24    1.97
  -4  -1  21   12.76    1.56
  -4  -1  21   17.19    1.72
   4   1 -21   15.90    1.79
   3  -1 -21   21.33    1.68
  -3  -1  21   22.17    2.09
  -3  -1  21   20.70    1.94
   3  -1 -21   19.76    1.90
   3   1 -21   18.41    1.80
   3   1 -21   23.32    1.62
  -2  -1  21    1.96    1.01
   2  -1 -21    1.19    0.80
  -2  -1  21   -0.37    0.90
   2  -1 -21    0.52    0.78
  -2   1  21   -0.83    0.89
   2   1 -21    2.04    0.74
  -2   1  21    1.30    0.95
  -1  -1  21   -0.56    0.85
   1  -1 -21    0.96    0.70
  -1  -1  21   -0.25    0.89
   1  -1 -21    0.39    0.73
  -1   1  21    1.54    0.97
   1   1 -21   -0.34    0.56
   1   1 -21    0.29    0.71
  -1   1  21    1.62    0.84
   0  -1  21    3.67    1.22
   0  -1  21   -0.90    0.84
   0  -1 -21   -0.67    0.63
   0   1 -21   -0.25    0.55
   0   1 -21    0.45    0.72
   0   1  21    0.00    0.93
   0   1  21    1.12    0.82
  -1  -1 -21    6.55    1.07
   1  -1  21    5.96    1.52
   1  -1  21    7.64    1.24
  -1  -1 -21    5.65    0.90
   1   1  21    5.87    1.45
   1   1  21    4.10    1.06
  -1   1 -21    5.84    0.99
  -1   1 -21    5.86    0.89
  -1   1 -21    4.95    0.81
   2  -1  21    1.63    1.38
  -2  -1 -21    0.63    0.67
   2  -1  21    1.79    0.93
  -2  -1 -21    0.70    0.82
  -2   1 -21    2.13    0.82
   2   1  21    1.54    1.25
   2   1  21    0.99    0.89
  -2   1 -21    1.18    0.74
  -2   1 -21    2.37    0.68
   3  -1  21   -0.84    1.20
  -3  -1 -21   -0.43    0.76
   3  -1  21   -0.21    0.90
  -3  -1 -21    0.78    0.72
   3   1  21    0.19    1.30
  -3   1 -21    0.82    0.77
  -3   1 -21    0.76    0.81
  -3   1 -21    0.00    0.64
   3   1  21    0.55    0.98
   4  -1  21   30.96    3.40
   4  -1  21   29.69    2.39
  -4  -1 -21   32.41    2.52
  -4  -1 -21   31.44    1.93
  -4   1 -21   30.22    2.14
   4   1  21   30.81    3.37
  -4   1 -21   27.39    2.11
   4   1  21   32.72    2.48
  -4   1 -21   28.63    1.77
   5  -1  21    1.89    1.75
  -5  -1 -21    0.66    0.92
  -5  -1 -21    0.10    1.06
   5  -1  21    1.62    1.28
  -5   1 -21    0.95    1.02
  -5   1 -21    1.84    1.10
  -5   1 -21    0.43    0.81
   5   1  21    1.43    1.24
   5   1  21   -1.42    1.39
   6  -1  21   24.08    3.30
  -6  -1 -21   25.28    2.14
  -6  -1 -21   30.32    2.76
   6  -1  21   24.70    2.52
  -6   1 -21   25.00    2.50
  -6   1 -21   25.65    2.29
  -6   1 -21   21.52    1.84
   6   1  21   23.57    3.32
   6   1  21   26.52    2.61
   7  -1  21    1.43    1.54
  -7  -1 -21   -0.95    1.25
   7  -1  21   -0.40    1.66
  -7  -1 -21    0.17    1.17
  -7   1 -21    0.43    0.97
   7   1  21   -0.04    1.44
  -7   1 -21    0.83    1.23
  -7   1 -21    0.45    1.36
   7   1  21    1.97    2.04
  -8  -1 -21    7.98    1.71
   8  -1  21    4.93    1.81
   8  -1  21    8.13    2.48
  -8  -1 -21    6.95    2.00
  -8   1 -21    7.76    1.51
  -8   1 -21    7.91    2.05
  -8   1 -21    6.68    1.82
   8   1  21    6.71    2.00
   8   1  21    7.07    2.43
  -9  -1 -21    7.68    2.39
   9  -1  21    7.15    2.60
  -9  -1 -21    6.64    1.81
   9  -1  21    8.14    1.98
  -9   1 -21    5.48    2.13
   9   1  21    8.15    2.65
  -9   1 -21    7.20    1.90
  -9   1 -21    8.69    1.66
   9   1  21    8.30    2.12
 -10  -1 -21   -0.16    1.55
  10  -1  21    0.82    1.54
 -10   1 -21    2.78    2.04
  10   1  21   -0.08    1.64
  10   1  21   -0.39    2.15
 -10   1 -21   -0.80    1.59
 -10   1 -21    1.51    1.40
 -11  -1 -21    2.76    1.80
  11  -1  21    0.80    1.32
  11   1  21    1.04    1.82
 -11   1 -21   -0.02    1.70
 -11  -2  21   -0.58    1.61
  11   2 -21   -1.01    1.59
 -10  -2  21    1.13    1.70
 -10   2  21    0.65    1.96
  10   2 -21    1.80    1.76
  -9  -2  21    1.59    1.79
  -9   2  21    1.36    1.72
   9   2 -21    2.10    1.68
  -8  -2  21    6.89    1.94
   8   2 -21    4.98    1.87
  -8   2  21   10.50    2.31
  -7  -2  21    2.32    1.55
   7   2 -21    2.20    1.54
  -7   2  21    1.20    1.51
  -6  -2  21   16.79    2.20
   6   2 -21   18.75    2.27
  -6   2  21   16.28    2.35
  -5  -2  21    1.20    1.09
   5  -2 -21    0.42    1.26
  -5  -2  21    1.90    1.38
   5   2 -21    0.11    1.16
  -5   2  21   -1.30    1.08
   4  -2 -21    1.07    1.05
  -4  -2  21    0.80    1.22
  -4  -2  21    0.45    0.97
   4   2 -21    0.30    0.98
  -3  -2  21    0.78    1.02
  -3  -2  21    2.15    1.21
   3  -2 -21    2.53    1.09
   3   2 -21    1.86    0.96
  -2  -2  21   84.27    3.81
   2  -2 -21   84.47    3.72
  -2  -2  21   87.31    3.97
  -2   2  21   96.13    3.78
   1  -2 -21    8.99    1.30
  -1  -2  21    9.29    1.43
  -1  -2  21   10.19    1.69
  -1   2  21    9.91    1.54
   1   2 -21    8.89    1.26
   0  -2  21    2.17    1.05
   0  -2 -21    1.05    0.60
   0  -2  21    0.36    1.16
   0  -2 -21    0.37    0.74
   0   2  21   -0.41    0.98
   0   2 -21    0.28    0.75
   0   2 -21    0.83    0.65
   1  -2  21    5.82    1.61
  -1  -2 -21    3.29    0.71
  -1  -2 -21    4.29    1.02
   1  -2  21    3.57    1.13
  -1   2 -21    4.31    0.97
  -1   2 -21    3.18    0.73
  -1   2 -21    2.73    0.73
   1   2  21    5.32    1.49
   2  -2  21   91.07    3.70
  -2  -2 -21   92.22    3.76
   2  -2  21   93.59    4.78
   2   2  21   78.78    4.30
  -2   2 -21   88.50    3.45
  -2   2 -21   91.43    3.28
  -2   2 -21   91.37    3.11
  -3  -2 -21    0.49    0.67
   3  -2  21   -1.23    1.35
  -3  -2 -21    0.04    0.84
   3  -2  21   -0.17    0.99
  -3   2 -21    0.28    0.70
   3   2  21    1.75    1.39
  -3   2 -21   -0.78    0.78
  -3   2 -21    0.50    0.79
  -4  -2 -21    0.69    0.74
   4  -2  21    1.41    1.16
   4  -2  21    1.81    1.70
  -4  -2 -21    0.56    0.97
  -4   2 -21    0.95    0.75
  -4   2 -21    0.43    0.90
  -4   2 -21    1.35    0.90
   4   2  21    0.99    1.53
   5  -2  21    1.76    1.78
   5  -2  21    0.33    1.14
  -5  -2 -21    0.79    1.03
  -5  -2 -21   -0.31    0.79
   5   2  21   -3.32    1.19
   5   2  21   -1.53    1.07
  -5   2 -21    0.24    0.98
  -5   2 -21   -0.20    0.94
  -6  -2 -21    2.10    1.32
  -6  -2 -21    1.95    1.01
   6  -2  21    2.57    1.41
   6  -2  21   -0.36    1.85
   6   2  21   -0.57    1.36
  -6   2 -21    4.00    1.35
  -6   2 -21    3.03    1.29
   6   2  21    2.69    2.02
  -7  -2 -21    0.19    1.36
   7  -2  21    0.26    1.34
  -7  -2 -21   -0.63    1.03
   7  -2  21    2.32    2.09
  -7   2 -21   -0.53    1.21
   7   2  21   -2.88    1.29
  -7   2 -21    1.04    1.40
   7   2  21    0.27    1.73
   8  -2  21   25.06    3.59
  -8  -2 -21   20.08    2.15
   8  -2  21   22.32    2.28
  -8  -2 -21   21.68    2.86
   8   2  21   25.28    3.62
  -8   2 -21   23.56    2.66
   8   2  21   21.82    2.92
  -8   2 -21   27.75    3.10
  -9  -2 -21   -0.45    1.35
  -9  -2 -21   -0.84    1.61
   9  -2  21    1.32    1.35
  -9   2 -21   -0.57    1.19
   9   2  21    3.34    1.95
  -9   2 -21    1.01    1.65
  -9   2 -21    2.80    1.84
   9   2  21   -1.17    1.87
 -10  -2 -21    1.06    1.51
  10   2  21    0.46    1.83
 -10   2 -21    0.60    1.78
 -10   2 -21    3.35    1.53
  10   2  21    1.70    2.30
 -11  -3  21   -0.33    1.62
  11   3 -21   -0.47    1.76
 -10  -3  21    2.16    1.69
 -10   3  21    1.17    2.07
  10   3 -21   -0.28    1.73
  -9  -3  21   20.27    2.58
   9   3 -21   23.21    2.95
  -9   3  21   25.49    3.45
  -8  -3  21    3.86    1.76
  -8   3  21    7.61    2.28
   8   3 -21    1.72    1.83
  -7  -3  21   -0.54    1.37
   7   3 -21    0.72    1.62
  -7   3  21    1.47    1.68
  -6  -3  21    1.43    1.43
   6   3 -21    2.25    1.44
  -6   3  21   -0.31    1.34
  -5  -3  21    6.57    1.52
  -5  -3  21    7.76    1.67
   5  -3 -21    7.31    1.81
   5   3 -21    7.35    1.64
  -5   3  21    9.57    1.96
  -4  -3  21    2.80    1.30
   4  -3 -21    3.30    1.46
  -4  -3  21    2.22    1.27
   4   3 -21    3.71    1.31
  -3  -3  21    6.35    1.50
   3  -3 -21    5.03    1.40
  -3  -3  21    2.29    1.38
   2  -3 -21    2.60    1.15
  -2  -3  21    5.17    1.48
  -2  -3  21    5.09    1.39
   2   3 -21    4.61    1.13
  -2   3  21    4.54    1.17
   1  -3 -21    1.52    0.94
  -1  -3  21    0.83    1.19
  -1  -3  21   -0.13    1.09
  -1   3  21    0.05    0.98
   0  -3  21    2.81    1.17
   0  -3 -21    2.14    1.03
   0  -3  21    0.86    1.31
   0   3  21    2.02    1.21
   0   3 -21    2.55    0.76
   1  -3  21   26.10    2.19
  -1  -3 -21   22.68    2.11
   1  -3  21   23.35    2.76
  -1   3 -21   23.80    1.48
   1   3  21   25.17    2.56
   2  -3  21   -1.31    1.03
   2  -3  21    0.95    1.54
  -2  -3 -21   -0.91    0.78
  -2   3 -21    0.58    0.67
   2   3  21   -0.88    1.19
   3  -3  21    1.44    1.21
  -3  -3 -21    1.74    0.98
   3  -3  21    1.23    1.79
   3   3  21    0.64    1.28
  -4  -3 -21    9.30    1.60
   4  -3  21    9.10    1.52
   4  -3  21    5.21    2.36
  -4   3 -21   11.23    1.45
   4   3  21    4.73    1.97
   5  -3  21    1.83    1.88
  -5  -3 -21    2.73    1.35
   5  -3  21    3.87    1.26
   5   3  21    4.89    2.05
  -5   3 -21    3.68    1.28
   6  -3  21    0.74    0.96
  -6  -3 -21    1.79    0.80
  -6  -3 -21    0.78    1.25
   6  -3  21    1.27    2.05
   6   3  21   -0.86    1.80
  -6   3 -21    1.73    1.24
  -7  -3 -21   -1.55    1.18
   7  -3  21   -1.01    1.93
  -7  -3 -21   -1.04    0.79
  -7   3 -21    0.80    1.37
   7   3  21   -1.65    1.81
  -8  -3 -21    1.04    1.64
  -8  -3 -21   -0.48    0.94
   8  -3  21   -2.95    1.91
   8   3  21   -1.39    1.95
  -8   3 -21    0.66    1.64
  -9  -3 -21    5.12    2.08
  -9   3 -21    7.98    2.37
   9   3  21    6.92    2.30
   9   3  21    6.85    2.69
  10   3  21   -0.56    1.92
  10   3  21    2.44    2.27
 -10  -4  21    0.61    1.36
  10   4 -21    0.67    1.91
  -9  -4  21    1.93    1.52
   9   4 -21    1.89    1.98
  -9   4  21    0.27    2.05
  -8  -4  21   -1.66    1.30
   8   4 -21   -0.32    1.82
  -8   4  21   -0.65    1.62
  -7  -4  21   58.45    3.25
  -7   4  21   56.36    4.69
   7   4 -21   52.28    4.12
  -6  -4  21    0.59    1.48
  -6  -4  21   -0.28    1.27
  -6   4  21    1.00    1.64
   5  -4 -21    0.84    1.48
  -5  -4  21    2.27    1.48
  -5  -4  21   -1.75    1.11
  -5   4  21    1.94    1.54
  -4  -4  21    8.21    1.43
  -4  -4  21    7.38    1.83
   4  -4 -21   10.16    1.96
   3  -4 -21  127.26    5.32
  -3  -4  21  132.90    5.71
  -3  -4  21  117.13    4.21
  -2  -4  21   19.44    2.44
   2  -4 -21   19.14    2.17
  -2  -4  21   22.18    1.48
   1  -4 -21   11.62    1.70
  -1  -4  21   11.99    2.09
  -1   4  21   12.25    1.85
   1   4 -21   12.43    1.28
   0  -4  21    3.18    1.62
   0  -4 -21    3.35    1.27
   0   4 -21    3.15    0.84
   0   4  21    1.36    1.22
   1  -4  21   33.51    3.55
  -1  -4 -21   41.43    2.65
  -1   4 -21   44.75    2.07
   1   4  21   39.94    3.36
  -2  -4 -21   -0.01    1.01
   2  -4  21    2.02    1.85
  -2   4 -21    0.51    0.76
   2   4  21    1.57    1.32
   3  -4  21   57.48    5.12
  -3  -4 -21   70.91    3.60
   3   4  21   68.67    4.24
   4  -4  21    1.04    2.28
  -4  -4 -21    5.30    1.50
   4   4  21    3.94    1.83
   5  -4  21   28.10    3.93
  -5  -4 -21   24.04    2.53
   5   4  21   22.28    3.19
  -6  -4 -21    1.81    1.46
   6  -4  21    0.55    2.10
   6   4  21    3.81    2.19
   7  -4  21   25.98    3.91
  -7  -4 -21   26.55    3.07
   7   4  21   28.88    3.95
  -8  -4 -21    1.81    1.88
   8   4  21   -1.81    1.95
   9   4  21    5.44    2.62
  10   5 -21    2.07    2.30
  -8   5  21    1.75    2.19
  -7  -5  21    4.16    1.98
  -7   5  21    2.19    1.94
  -6  -5  21   12.49    2.46
  -6   5  21   13.66    2.74
  -5  -5  21    1.62    1.66
   5  -5 -21    0.79    1.52
  -5   5  21   -1.74    1.40
   4  -5 -21   14.06    2.29
  -4  -5  21   16.39    2.44
  -3  -5  21   12.60    2.37
   3  -5 -21   13.11    2.10
  -2  -5  21   -1.14    1.43
   2  -5 -21   -0.77    1.19
   1  -5 -21   -0.45    1.01
  -1  -5  21    0.74    1.46
   1   5 -21    0.43    0.80
  -1   5  21   -1.08    1.14
   0  -5 -21    6.50    1.61
   0  -5  21    2.09    1.66
   0   5  21    3.92    1.59
   0   5 -21    4.46    0.97
  -1  -5 -21   -1.31    1.04
   1  -5  21   -0.26    1.54
   1   5  21    0.47    1.23
  -2  -5 -21    2.57    1.32
   2  -5  21   -0.16    1.84
   2   5  21    0.17    1.48
  -3  -5 -21   -1.32    0.98
   3  -5  21    0.48    2.03
   3   5  21    0.83    1.68
   4  -5  21   10.33    2.76
  -4  -5 -21   11.56    1.95
   4   5  21    7.35    2.30
   5  -5  21    2.37    2.28
  -5  -5 -21   -0.40    1.27
   5   5  21    1.02    2.05
  -6  -5 -21   17.59    2.62
   6  -5  21   12.36    2.93
   6   5  21   16.48    3.16
  -7  -5 -21    2.75    1.86
   7   5  21    1.82    2.21
  -8  -5 -21    6.86    2.42
   8   5  21    5.30    2.65
   9   5  21    3.68    2.60
  -7  -6  21    4.40    2.25
  -7   6  21    6.08    2.56
  -6  -6  21    1.61    1.88
  -6   6  21    4.50    2.34
   5  -6 -21    1.74    1.68
  -5  -6  21    2.28    1.74
  -5   6  21    3.23    1.95
   4  -6 -21    1.16    1.69
  -4  -6  21   -0.74    1.57
   3  -6 -21    8.68    2.12
  -3  -6  21    9.68    2.39
   2  -6 -21   22.36    2.82
  -2  -6  21   23.59    3.28
  -1  -6  21   15.00    2.80
   1  -6 -21   11.46    2.16
   0  -6  21    0.49    1.80
   0  -6 -21    0.11    1.22
   0   6  21    0.33    1.51
  -1  -6 -21    4.07    1.52
   1  -6  21    2.54    2.10
   1   6  21    3.99    1.84
  -2  -6 -21   18.38    2.35
   2  -6  21    6.78    2.64
   2   6  21   12.03    2.51
   3  -6  21    8.45    2.75
  -3  -6 -21    7.02    1.72
   3   6  21    2.62    1.98
  -4  -6 -21    0.10    1.44
   4  -6  21    1.37    2.27
   4   6  21    0.31    1.83
   5  -6  21   -1.15    2.09
  -5  -6 -21    0.59    1.50
   5   6  21    0.16    2.08
  -6  -6 -21    2.15    1.76
   6  -6  21    1.28    2.45
   6   6  21    0.19    2.27
  -7  -6 -21    1.74    2.01
   7   6  21   -3.01    1.97
   8   6  21    4.11    2.67
  -7  -7  21    0.91    2.02
  -6  -7  21   -0.93    1.95
  -5  -7  21    5.39    2.33
   5  -7 -21    0.93    2.02
  -5   7  21    1.34    2.15
  -4  -7  21   -2.70    1.64
   4  -7 -21    1.13    1.80
  -4   7  21    1.02    1.96
  -3  -7  21    0.04    1.97
   3  -7 -21    3.12    1.89
   2  -7 -21    3.04    1.76
  -2  -7  21   -1.28    1.75
  -1  -7  21    2.60    2.25
   1  -7 -21    1.27    1.58
   0  -7  21    4.48    2.57
   0  -7 -21    0.55    1.58
   1  -7  21   13.49    3.34
  -1  -7 -21   13.35    2.42
   1   7  21   15.46    2.81
  -2  -7 -21    1.06    1.52
   2  -7  21   -0.66    2.28
   2   7  21    3.79    2.07
  -3  -7 -21    1.89    1.70
   3  -7  21   -1.11    2.29
   3   7  21    3.33    2.07
   4  -7  21    1.48    2.39
  -4  -7 -21   -0.19    1.56
   4   7  21   -0.91    2.04
  -5  -7 -21    0.69    1.84
   5  -7  21    0.99    2.68
   5   7  21    4.04    2.54
   6   7  21    0.06    2.32
   7   7  21    3.94    2.76
  -6  -8  21   -0.03    2.13
  -5  -8  21    6.07    2.69
  -4  -8  21    7.62    2.79
   3  -8 -21   11.84    2.72
  -3  -8  21   12.15    3.27
  -2  -8  21   11.29    3.18
   2  -8 -21   11.34    2.65
  -1  -8  21    6.25    2.90
   1  -8 -21    6.21    2.20
   0  -8 -21    2.84    1.92
   0  -8  21    1.49    2.44
   1  -8  21   10.53    3.27
  -1  -8 -21    8.88    2.35
   1   8  21    7.21    2.46
  -2  -8 -21    1.00    1.79
   2  -8  21    0.96    2.50
   2   8  21    4.46    2.39
  -3  -8 -21   17.01    3.02
   3  -8  21   20.57    4.00
   3   8  21   26.32    3.80
   4  -8  21    6.23    3.12
   4   8  21    2.09    2.55
   5   8  21    3.64    2.82
  -2  -9  21    2.92    2.79
  -1  -9  21    3.52    3.04
   0  -9  21   -1.28    2.78
   1  -9  21   -0.61    2.74
   2  -9  21   -0.41    2.94
 -11   0  22    0.30    2.04
 -10   0  22    2.71    2.08
  10   0 -22    1.64    1.32
  -9   0  22    0.22    1.77
   9   0 -22   -0.11    1.24
  -8   0  22   -1.02    1.63
   8   0 -22   -0.02    1.32
  -8   0  22    1.44    1.59
   7   0 -22    0.50    1.25
  -7   0  22   -0.44    1.33
  -7   0  22    1.37    1.72
   6   0 -22   11.36    1.78
  -6   0  22   10.01    1.84
  -6   0  22   12.45    2.10
  -5   0  22    0.73    1.29
  -5   0  22    1.61    1.14
   5   0 -22    2.32    1.19
   4   0 -22    4.17    1.19
  -4   0  22    6.05    1.44
   4   0 -22    4.80    1.27
  -4   0  22    5.50    1.20
  -3   0  22   -0.11    0.97
   3   0 -22   -0.17    0.84
   3   0 -22    0.79    0.94
  -3   0  22   -0.67    0.83
   2   0 -22  176.36    5.70
  -2   0  22  184.87    6.01
  -2   0  22  175.93    6.18
   2   0 -22  180.67    5.68
  -1   0  22    0.38    0.98
   1   0 -22    0.16    0.65
  -1   0  22   -0.58    0.86
   0   0 -22   24.95    1.64
   0   0  22   23.96    2.28
   0   0  22   22.79    1.88
   0   0 -22   25.50    1.70
   1   0  22   -0.36    0.82
  -1   0 -22    1.24    0.74
   1   0  22    0.78    1.22
  -1   0 -22    1.45    0.71
   2   0  22   36.76    3.29
   2   0  22   31.87    2.13
  -2   0 -22   35.01    2.01
  -2   0 -22   36.53    2.10
   3   0  22    1.43    1.45
  -3   0 -22    0.25    0.83
   3   0  22    0.30    0.95
  -3   0 -22   -0.15    0.61
  -3   0 -22   -0.12    0.79
  -4   0 -22    1.08    1.00
   4   0  22    1.41    1.69
   4   0  22    1.55    1.14
  -4   0 -22    1.13    0.91
  -4   0 -22   -0.06    0.70
  -5   0 -22   -0.19    0.75
  -5   0 -22    0.60    0.98
   5   0  22   -0.79    1.17
   5   0  22   -0.76    1.54
  -5   0 -22   -1.44    0.87
   6   0  22    1.32    1.44
  -6   0 -22    0.75    1.17
  -6   0 -22    1.42    0.89
  -6   0 -22    1.27    1.14
   6   0  22    2.43    2.09
  -7   0 -22    1.09    1.28
  -7   0 -22    0.75    0.95
  -7   0 -22    0.43    1.16
   7   0  22    2.35    2.02
   7   0  22   -0.13    1.37
  -8   0 -22   13.36    2.11
  -8   0 -22   13.66    2.47
  -8   0 -22   14.45    1.63
   8   0  22   14.84    3.02
   8   0  22   11.35    2.22
   9   0  22   -3.03    1.50
  -9   0 -22    0.56    1.77
  -9   0 -22   -1.08    1.37
   9   0  22   -1.17    1.81
 -10   0 -22    0.37    1.71
  10   0  22   -1.42    1.61
 -11  -1  22    1.60    1.88
  11   1 -22    4.72    1.73
 -10  -1  22    4.54    2.00
  10   1 -22    3.56    1.71
 -10   1  22    7.26    2.31
  -9  -1  22    7.52    2.10
   9   1 -22    4.45    1.77
  -9   1  22    2.70    1.86
   8  -1 -22    1.04    0.94
  -8  -1  22    4.44    1.71
  -8   1  22    1.13    1.61
   8   1 -22   -1.21    1.34
   7  -1 -22    0.81    1.01
  -7  -1  22   -0.12    1.35
  -7   1  22    1.52    1.54
   7   1 -22    0.68    1.41
  -6  -1  22    8.97    1.88
   6  -1 -22    8.32    1.32
  -6   1  22    7.04    1.74
   6   1 -22    7.53    1.66
  -5  -1  22   30.76    2.75
   5  -1 -22   32.43    2.84
   5  -1 -22   29.49    2.03
   5   1 -22   29.23    2.53
  -5   1  22   36.03    2.89
  -4  -1  22    9.91    1.48
   4  -1 -22   11.97    1.45
   4  -1 -22    9.43    1.63
  -4  -1  22   11.66    1.76
  -4  -1  22    9.93    1.47
   4   1 -22    9.83    1.56
  -3  -1  22   -1.00    0.96
   3  -1 -22    0.06    0.85
   3  -1 -22   -0.35    0.73
  -3  -1  22   -0.11    0.90
   3   1 -22    1.24    0.82
   3   1 -22    0.76    0.95
  -2  -1  22   10.69    1.56
  -2  -1  22    7.78    1.47
   2  -1 -22   10.64    1.39
   2  -1 -22   14.12    1.38
  -2   1  22    9.19    1.43
   2   1 -22   10.90    1.20
   1  -1 -22   87.12    3.10
  -1  -1  22   76.47    3.81
  -1  -1  22   79.23    3.52
   1  -1 -22   79.98    3.33
   1   1 -22   87.94    3.04
  -1   1  22   78.40    3.64
  -1   1  22   79.97    3.34
   1   1 -22   80.64    3.19
   0  -1 -22   20.80    1.75
   0  -1  22   19.24    2.15
   0  -1  22   22.70    1.93
   0   1 -22   18.92    1.60
   0   1  22   18.87    2.12
   0   1  22   24.23    1.91
   0   1 -22   20.64    1.47
  -1  -1 -22   -0.01    0.74
   1  -1  22    2.96    1.39
  -1  -1 -22    0.54    0.69
   1  -1  22   -0.52    0.83
   1   1  22    0.90    1.09
  -1   1 -22    0.09    0.76
  -1   1 -22    0.95    0.63
  -1   1 -22    1.08    0.66
   1   1  22   -1.08    0.81
  -2  -1 -22    0.68    0.83
   2  -1  22    0.63    0.94
   2  -1  22   -1.62    1.06
  -2  -1 -22    0.43    0.72
   2   1  22   -0.01    0.88
  -2   1 -22    0.30    0.76
  -2   1 -22   -0.02    0.61
   2   1  22    0.51    1.30
  -2   1 -22    0.55    0.69
  -3  -1 -22   57.80    2.91
  -3  -1 -22   61.14    2.60
   3  -1  22   56.29    2.92
   3  -1  22   64.05    4.07
   3   1  22   58.92    2.96
  -3   1 -22   59.09    2.70
  -3   1 -22   57.59    2.81
  -3   1 -22   53.70    2.34
   3   1  22   63.40    3.93
  -4  -1 -22   22.67    2.18
   4  -1  22   21.63    3.01
  -4  -1 -22   17.39    1.66
   4  -1  22   20.79    2.08
   4   1  22   27.56    2.33
   4   1  22   18.46    2.80
  -4   1 -22   18.91    1.86
  -4   1 -22   29.49    2.17
  -4   1 -22   21.87    1.62
  -5  -1 -22   17.65    1.78
  -5  -1 -22   21.54    2.25
   5  -1  22   16.27    2.05
   5  -1  22   15.47    2.74
  -5   1 -22   18.43    1.62
   5   1  22   20.51    2.27
  -5   1 -22   18.32    2.04
   5   1  22   19.10    3.02
  -5   1 -22   18.72    1.91
  -6  -1 -22    0.54    1.03
   6  -1  22    3.27    1.95
  -6  -1 -22    1.19    1.35
   6  -1  22    1.42    1.47
  -6   1 -22    1.97    1.24
   6   1  22    0.19    1.92
   6   1  22    1.21    1.39
  -6   1 -22    2.37    1.17
  -6   1 -22    0.40    0.95
  -7  -1 -22    9.14    1.96
   7  -1  22   10.95    2.01
  -7  -1 -22   13.44    1.79
   7  -1  22   17.59    3.09
  -7   1 -22   12.53    1.94
  -7   1 -22   12.33    2.15
  -7   1 -22    8.03    1.42
   7   1  22   15.12    2.99
   7   1  22   10.87    2.11
   8  -1  22    8.33    2.62
   8  -1  22    6.42    1.91
  -8  -1 -22    2.11    1.66
  -8  -1 -22    7.22    1.65
  -8   1 -22    4.42    1.67
   8   1  22    5.47    2.02
  -8   1 -22    5.33    1.45
   8   1  22    7.06    2.53
  -8   1 -22    7.59    2.09
   9  -1  22   13.31    2.30
  -9  -1 -22   18.10    3.02
   9  -1  22   20.36    3.36
  -9  -1 -22   12.09    2.13
  -9   1 -22   14.42    1.92
  -9   1 -22   12.27    2.62
  -9   1 -22   12.49    2.28
   9   1  22   14.65    2.55
   9   1  22   14.85    3.06
 -10  -1 -22   -0.47    1.46
  10  -1  22    1.61    1.59
 -10   1 -22   -2.03    1.50
 -10   1 -22   -0.92    1.29
  10   1  22    2.13    1.92
  10   1  22    3.33    2.42
 -11  -2  22   18.68    2.67
  11   2 -22   20.32    2.71
 -10  -2  22    3.13    1.84
 -10   2  22    1.38    1.86
  10   2 -22    0.13    1.61
  -9  -2  22   -1.01    1.57
  -9   2  22    1.39    1.83
   9   2 -22    0.19    1.65
  -8  -2  22   -0.65    1.52
   8   2 -22   -0.26    1.50
  -8   2  22    2.64    1.73
  -7  -2  22  171.25    6.57
  -7   2  22  176.91    7.35
  -6  -2  22    0.34    1.28
  -6   2  22    1.49    1.37
   6   2 -22    0.74    1.27
  -5  -2  22    0.01    1.35
  -5  -2  22    0.41    1.10
   5  -2 -22    0.13    1.24
   5   2 -22    0.19    1.16
  -5   2  22    0.90    1.18
   4  -2 -22    7.54    1.57
  -4  -2  22    5.24    1.32
  -4  -2  22    7.96    1.64
   4   2 -22    4.12    1.30
  -3  -2  22  106.38    4.43
   3  -2 -22  112.72    4.47
  -3  -2  22  104.61    4.52
   3   2 -22  113.41    4.22
   2  -2 -22    4.95    1.14
  -2  -2  22    3.45    1.27
  -2  -2  22    5.02    1.38
  -2   2  22    5.91    1.30
  -1  -2  22    2.39    1.16
   1  -2 -22   -0.83    0.75
  -1  -2  22    1.31    1.09
  -1   2  22    3.27    1.18
   1   2 -22   -0.06    0.80
   0  -2  22   -0.08    1.17
   0  -2  22   -0.63    0.98
   0  -2 -22    0.42    0.59
   0  -2 -22    0.21    0.84
   0   2 -22    0.67    0.63
   0   2 -22   -0.93    0.65
   0   2  22   -1.26    0.97
   1  -2  22   73.92    3.32
  -1  -2 -22   74.02    2.51
   1  -2  22   77.00    4.24
  -1  -2 -22   65.22    3.13
   1   2  22   67.94    3.84
  -1   2 -22   72.74    2.66
  -1   2 -22   72.24    2.99
  -1   2 -22   68.90    2.66
  -2  -2 -22    1.01    0.91
   2  -2  22    0.70    1.48
   2  -2  22    1.19    1.04
   2   2  22   -2.22    1.10
  -2   2 -22   -0.01    0.62
  -2   2 -22    0.36    0.80
  -2   2 -22   -0.10    0.64
  -3  -2 -22   34.73    2.44
   3  -2  22   34.45    2.57
   3  -2  22   38.19    3.77
  -3  -2 -22   34.77    1.79
  -3   2 -22   36.67    1.93
  -3   2 -22   34.18    2.24
   3   2  22   39.77    3.62
  -3   2 -22   34.84    2.05
   4  -2  22    3.29    1.86
  -4  -2 -22    1.50    1.12
   4  -2  22    1.61    1.27
  -4  -2 -22    3.95    0.90
  -4   2 -22    2.05    0.86
   4   2  22    3.10    1.67
  -4   2 -22    1.62    1.00
  -4   2 -22    0.78    0.95
  -5  -2 -22    1.87    0.94
   5  -2  22    3.86    2.07
   5  -2  22    1.03    1.23
  -5  -2 -22    3.95    1.39
  -5   2 -22    1.22    1.17
  -5   2 -22    2.32    1.17
   5   2  22    1.07    1.65
  -5   2 -22    3.47    1.02
   5   2  22    4.00    1.47
   6  -2  22    1.33    2.08
  -6  -2 -22    1.01    1.26
  -6  -2 -22   -0.75    0.90
   6  -2  22   -1.03    1.26
  -6   2 -22    0.41    1.18
   6   2  22   -0.52    1.39
   6   2  22    0.89    1.89
  -6   2 -22   -0.43    1.03
  -7  -2 -22    5.93    1.78
  -7  -2 -22    2.32    1.24
   7  -2  22    6.63    2.49
   7  -2  22    4.13    1.54
   7   2  22    7.26    2.55
  -7   2 -22    5.56    1.74
  -7   2 -22    5.95    1.62
   7   2  22    6.89    1.91
   8  -2  22    1.14    1.47
   8  -2  22   -1.28    1.91
  -8  -2 -22   -1.33    1.17
  -8  -2 -22    5.39    2.01
  -8   2 -22    3.02    1.64
  -8   2 -22   -0.20    1.50
   8   2  22    0.77    1.99
   8   2  22    0.32    1.75
  -8   2 -22   -0.34    1.14
  -9  -2 -22   -1.32    1.28
  -9  -2 -22   -0.10    1.70
   9  -2  22   -0.83    1.25
  -9   2 -22    2.70    1.43
  -9   2 -22   -2.34    1.49
   9   2  22    1.30    2.17
   9   2  22    0.25    1.77
  -9   2 -22   -0.47    1.71
 -10  -2 -22    2.43    1.58
  10   2  22    3.00    1.92
 -10   2 -22   -0.64    1.67
  10   2  22   -0.04    2.17
 -11  -3  22   -0.26    1.58
  11   3 -22    2.87    2.01
 -10  -3  22    3.09    1.75
 -10   3  22    1.52    2.14
  10   3 -22    1.31    1.87
  -9  -3  22    2.12    1.69
   9   3 -22    2.33    1.71
  -9   3  22   -1.08    1.87
  -8  -3  22   -1.58    1.46
   8   3 -22   -0.31    1.60
  -8   3  22    1.39    1.80
  -7  -3  22   -1.73    1.25
  -7   3  22    0.48    1.67
   7   3 -22    1.25    1.65
  -6  -3  22    8.43    1.87
  -6   3  22   17.64    2.55
   6   3 -22   16.70    2.22
   5  -3 -22   20.36    2.53
  -5  -3  22   23.12    2.44
  -5  -3  22   23.91    2.47
   5   3 -22   21.10    2.33
  -5   3  22   22.76    2.65
   4  -3 -22    9.08    1.73
  -4  -3  22   10.32    1.82
  -4  -3  22    8.78    1.74
   4   3 -22    6.91    1.60
  -3  -3  22    1.04    1.20
   3  -3 -22    2.69    1.24
  -3  -3  22    0.03    1.25
   2  -3 -22    0.50    1.04
  -2  -3  22    0.72    1.23
  -2  -3  22    2.53    1.28
  -1  -3  22   23.24    2.20
   1  -3 -22   23.41    2.18
  -1  -3  22   23.91    2.57
  -1   3  22   23.57    2.30
   1   3 -22   25.14    2.01
   0  -3  22   28.45    2.28
   0  -3  22   26.63    2.96
   0  -3 -22   26.63    2.31
   0   3  22   26.47    2.56
   0   3 -22   28.64    1.68
   1  -3  22    9.65    2.04
  -1  -3 -22    6.53    1.34
   1  -3  22    6.79    1.48
  -1   3 -22    7.20    1.01
   1   3  22    7.72    1.74
   2  -3  22    1.07    1.17
   2  -3  22    1.25    1.71
  -2  -3 -22    0.66    0.92
  -2   3 -22    0.76    0.72
   2   3  22    1.38    1.44
  -3  -3 -22   32.77    2.65
   3  -3  22   33.92    2.48
   3  -3  22   32.36    3.79
   3   3  22   28.86    3.16
  -3   3 -22   33.82    1.93
  -4  -3 -22   26.51    2.48
   4  -3  22   34.87    4.09
   4  -3  22   29.50    2.31
   4   3  22   30.27    3.49
  -4   3 -22   30.83    2.16
   5  -3  22    7.67    2.66
  -5  -3 -22   10.85    1.88
   5  -3  22   10.71    1.58
  -5   3 -22    9.96    1.57
   5   3  22    3.24    1.95
  -6  -3 -22   12.18    2.15
   6  -3  22   12.17    2.95
   6  -3  22   13.05    1.43
  -6   3 -22   12.48    1.90
   6   3  22   12.11    2.78
  -7  -3 -22    7.73    2.09
   7  -3  22    4.93    2.48
  -7  -3 -22    4.20    0.95
   7   3  22    7.64    2.62
  -7   3 -22    4.01    1.66
   8  -3  22   11.07    2.85
  -8  -3 -22   12.77    2.52
  -8   3 -22   12.19    2.41
   8   3  22   14.19    3.07
  -9  -3 -22   11.80    2.72
   9   3  22   14.18    3.30
   9   3  22   15.92    2.87
  -9   3 -22   14.97    2.68
  10   3  22   -0.13    1.91
  10   3  22   -0.65    2.08
 -10  -4  22    0.62    1.37
  10   4 -22    0.66    2.00
  -9  -4  22    3.86    1.61
   9   4 -22    4.30    2.15
  -9   4  22    8.57    2.69
  -8  -4  22    0.49    1.49
  -8   4  22    2.98    2.12
   8   4 -22    1.81    1.95
  -7  -4  22    9.26    1.82
  -7   4  22    1.05    1.78
   7   4 -22    5.81    2.07
  -6  -4  22    6.44    1.64
   6  -4 -22    2.45    1.79
  -6  -4  22    3.02    1.62
  -6   4  22    4.76    1.99
  -5  -4  22    6.70    1.77
   5  -4 -22    3.40    1.68
  -5  -4  22    4.95    1.51
  -4  -4  22    2.96    1.53
   4  -4 -22    0.02    1.26
  -4  -4  22    0.55    1.19
  -3  -4  22   23.53    2.62
  -3  -4  22   20.14    1.80
   3  -4 -22   19.11    2.27
  -2  -4  22   61.88    3.82
   2  -4 -22   64.70    3.57
  -2  -4  22   66.44    2.64
  -1  -4  22   11.20    2.03
   1  -4 -22   12.55    1.76
  -1   4  22    9.35    1.76
   1   4 -22   11.37    1.28
   0  -4  22    8.77    2.02
   0  -4 -22    9.66    1.63
   0   4  22    8.37    1.73
   0   4 -22    6.28    1.05
   1  -4  22   -1.57    1.45
  -1  -4 -22   -0.91    0.87
  -1   4 -22    0.41    0.72
   1   4  22   -2.37    1.07
  -2  -4 -22   25.51    2.41
   2  -4  22   25.75    3.30
   2   4  22   24.69    2.91
  -2   4 -22   22.26    1.68
  -3  -4 -22    3.51    1.20
   3  -4  22   -1.40    1.85
   3   4  22    2.54    1.73
   4  -4  22    1.79    2.02
  -4  -4 -22   -0.59    1.13
   4   4  22   -0.69    1.56
  -5  -4 -22    1.57    1.25
   5  -4  22    3.16    2.47
   5   4  22    0.53    1.84
   6  -4  22   -1.17    2.05
  -6  -4 -22    3.58    1.53
   6   4  22    1.33    2.07
  -7  -4 -22    2.31    1.71
   7  -4  22    3.18    2.44
   7   4  22    0.52    2.11
  -8  -4 -22    9.20    2.39
   8   4  22    6.04    2.68
   9   4  22   -0.41    2.17
  -8   5  22   -0.93    1.92
  -7   5  22   -0.84    1.94
  -6  -5  22    3.85    1.82
  -6   5  22    3.84    2.01
  -5  -5  22   11.18    2.33
   5  -5 -22   10.53    2.25
  -5   5  22    9.41    2.35
  -4  -5  22    0.36    1.45
   4  -5 -22    1.85    1.52
   3  -5 -22    0.17    1.34
  -3  -5  22    1.22    1.47
  -2  -5  22    9.83    2.24
   2  -5 -22    8.63    1.78
  -1  -5  22   44.79    4.00
   1  -5 -22   48.96    3.30
   1   5 -22   49.39    2.41
  -1   5  22   52.91    3.29
   0  -5 -22    1.99    1.21
   0  -5  22    0.39    1.51
   0   5  22    1.95    1.38
   0   5 -22    1.52    0.86
   1  -5  22    3.53    2.09
  -1  -5 -22    6.08    1.62
   1   5  22    3.29    1.63
  -1   5 -22    5.20    1.06
   2  -5  22   -3.22    1.37
  -2  -5 -22    3.21    1.33
   2   5  22   -0.31    1.54
  -2   5 -22    0.07    0.85
   3  -5  22   22.96    3.60
  -3  -5 -22   25.99    2.64
   3   5  22   22.95    3.20
   4  -5  22   -1.34    1.89
  -4  -5 -22   -0.07    1.19
   4   5  22    3.30    2.04
  -5  -5 -22   17.10    2.43
   5  -5  22   17.49    3.41
   5   5  22   18.35    3.14
   6  -5  22    1.61    2.35
  -6  -5 -22    2.91    1.62
   6   5  22    0.86    2.18
  -7  -5 -22    7.80    2.24
   7   5  22    3.99    2.50
   8   5  22    0.61    2.36
   9   5  22    6.06    2.83
  -7  -6  22   31.95    4.03
  -7   6  22   35.76    4.43
  -6  -6  22    1.01    1.86
  -6   6  22   -0.15    2.00
  -5  -6  22    1.95    1.91
   5  -6 -22    4.44    2.06
  -5   6  22    4.51    2.25
  -4  -6  22    6.80    2.25
   4  -6 -22    7.45    2.17
   3  -6 -22   29.30    3.27
  -3  -6  22   21.74    3.13
  -2  -6  22    7.60    2.36
   2  -6 -22    6.67    1.97
   1  -6 -22    2.52    1.65
  -1  -6  22    3.68    2.03
   0  -6  22    1.25    1.93
   0  -6 -22   -0.22    1.23
   0   6  22   -1.13    1.38
   1  -6  22    7.44    2.54
  -1  -6 -22    9.47    1.99
   1   6  22    9.57    2.18
   2  -6  22    2.53    2.40
  -2  -6 -22    1.54    1.45
   2   6  22    1.61    1.74
  -3  -6 -22   20.71    2.61
   3  -6  22   17.74    3.63
   3   6  22   26.36    3.41
  -4  -6 -22   11.78    2.21
   4  -6  22    1.38    2.41
   4   6  22    7.28    2.46
   5  -6  22    0.81    2.41
  -5  -6 -22   -1.71    1.39
   5   6  22   -1.37    1.87
  -6  -6 -22    0.89    1.68
   6  -6  22   -3.04    2.04
   6   6  22   -2.03    2.05
   7   6  22    2.53    2.39
   8   6  22    1.17    2.41
  -7  -7  22    0.08    2.15
  -6  -7  22   12.15    2.92
  -5  -7  22    3.69    2.28
   5  -7 -22    1.61    1.99
  -5   7  22    2.53    2.15
  -4  -7  22    0.92    2.01
   4  -7 -22    0.78    1.83
   3  -7 -22    0.56    1.70
  -3  -7  22    4.23    2.29
  -2  -7  22   -0.17    2.02
   2  -7 -22    0.65    1.46
   1  -7 -22    0.39    1.58
  -1  -7  22    3.22    2.40
   0  -7 -22    2.98    1.82
   0  -7  22    2.66    2.41
  -1  -7 -22    9.82    2.13
   1  -7  22    4.16    2.67
   1   7  22    7.06    2.38
  -2  -7 -22    0.71    1.52
   2  -7  22    0.89    2.47
   2   7  22    2.90    2.05
  -3  -7 -22    4.18    1.86
   3  -7  22   12.54    3.44
   3   7  22    8.11    2.55
  -4  -7 -22    7.76    2.22
   4  -7  22    5.58    2.97
   4   7  22    8.44    2.75
   5  -7  22    3.51    2.83
  -5  -7 -22    4.54    2.10
   5   7  22    1.88    2.35
   6   7  22    4.18    2.70
  -5  -8  22    2.96    2.34
  -4  -8  22   -1.02    2.04
   3  -8 -22    7.33    2.52
  -3  -8  22   11.21    3.22
  -2  -8  22    6.62    2.98
   2  -8 -22    4.76    2.15
   1  -8 -22    7.43    2.32
  -1  -8  22    3.56    2.74
   0  -8  22    2.65    2.60
   0  -8 -22    1.96    1.83
   1  -8  22   -2.15    2.21
  -1  -8 -22   -1.97    1.58
   1   8  22    0.16    2.09
  -2  -8 -22    4.31    2.06
   2  -8  22    0.70    2.60
   2   8  22    2.00    2.29
   3  -8  22    0.91    2.54
   3   8  22    2.40    2.42
   4  -8  22   -0.96    2.69
   4   8  22   -1.17    2.30
  -1  -9  22    5.42    3.30
   0  -9  22   -0.87    2.76
   1  -9  22   -3.31    2.51
 -11   0  23    8.61    2.46
  10   0 -23    0.55    1.22
 -10   0  23    0.26    1.83
   9   0 -23    7.80    1.66
  -9   0  23   12.46    2.42
  -8   0  23    0.72    1.59
   8   0 -23    0.26    1.24
   7   0 -23   64.75    3.40
  -7   0  23   70.46    4.13
  -7   0  23   65.49    3.97
  -6   0  23    1.46    1.39
   6   0 -23    1.40    1.19
  -6   0  23    0.41    1.44
  -5   0  23   10.04    1.70
  -5   0  23    9.47    1.79
   5   0 -23    8.00    1.60
   4   0 -23   -1.01    0.95
  -4   0  23   -0.11    1.16
  -4   0  23    0.30    0.91
   4   0 -23    0.12    0.97
  -3   0  23    5.28    1.23
   3   0 -23    6.16    1.24
   3   0 -23    6.80    1.22
  -3   0  23    6.28    1.41
  -2   0  23   -0.97    0.86
   2   0 -23   -0.18    0.79
  -2   0  23   -0.55    0.87
   2   0 -23    0.35    0.83
  -1   0  23   45.15    2.81
  -1   0  23   47.82    2.61
   1   0 -23   48.27    2.35
   0   0  23    1.88    1.29
   0   0 -23    0.90    0.76
   0   0 -23    0.78    0.69
   0   0  23    0.30    0.81
   1   0  23    1.32    0.94
  -1   0 -23    1.12    0.80
   1   0  23    1.15    1.27
  -1   0 -23    2.61    0.84
  -2   0 -23   -0.79    0.70
   2   0  23   -0.46    0.92
  -2   0 -23    0.26    0.80
   2   0  23   -0.58    1.25
  -3   0 -23    4.63    1.04
   3   0  23    1.44    1.06
  -3   0 -23    4.27    1.07
   3   0  23    5.70    1.81
   4   0  23   -0.55    1.02
   4   0  23   -1.05    1.44
  -4   0 -23    0.41    0.72
  -4   0 -23    0.51    0.85
  -4   0 -23    0.00    0.93
  -5   0 -23   53.80    2.81
  -5   0 -23   57.96    2.48
   5   0  23   57.72    3.42
  -5   0 -23   58.53    3.29
   5   0  23   54.98    4.83
  -6   0 -23    0.62    0.88
   6   0  23   -0.32    1.74
  -6   0 -23    0.68    1.17
   6   0  23   -1.68    1.22
  -6   0 -23    1.01    1.24
   7   0  23    3.11    1.73
  -7   0 -23   10.46    2.06
   7   0  23   11.26    2.64
  -7   0 -23    9.82    1.41
  -7   0 -23    9.89    1.79
  -8   0 -23   -1.16    1.02
  -8   0 -23    2.75    1.56
   8   0  23    0.77    2.02
  -8   0 -23   -1.37    1.46
   8   0  23   -1.18    1.46
  -9   0 -23    1.57    1.91
  -9   0 -23    2.98    1.74
   9   0  23   -0.37    1.68
   9   0  23    6.11    2.37
  10   0  23   -2.34    1.55
 -10   0 -23    0.04    1.59
 -11  -1  23    6.92    2.20
  11   1 -23    7.42    1.83
 -10  -1  23   -0.71    1.72
  10   1 -23    5.01    1.73
  -9  -1  23    5.57    2.02
  -9   1  23    4.76    2.10
   9   1 -23    4.73    1.76
  -8  -1  23    3.27    1.73
   8  -1 -23   -0.81    0.82
   8   1 -23    2.19    1.56
  -8   1  23    0.31    1.57
   7  -1 -23    2.81    1.05
  -7  -1  23   -1.87    1.44
  -7   1  23    2.93    1.66
   7   1 -23    0.07    1.39
   6  -1 -23   12.41    1.46
  -6  -1  23   11.55    2.10
  -6   1  23   11.46    2.05
   6   1 -23   11.13    1.89
   5  -1 -23   86.42    3.44
   5  -1 -23   88.44    4.27
  -5  -1  23   90.73    4.35
   5   1 -23   85.39    4.00
  -5   1  23   90.38    4.29
   4  -1 -23    1.31    1.11
   4  -1 -23   -0.29    0.89
  -4  -1  23    2.00    1.22
  -4  -1  23    1.14    1.03
   4   1 -23    0.14    1.08
  -3  -1  23    7.66    1.40
   3  -1 -23    6.96    1.36
   3  -1 -23    6.74    1.21
  -3  -1  23    8.93    1.58
   3   1 -23    5.55    1.31
   3   1 -23    7.52    1.21
  -2  -1  23    3.26    1.23
   2  -1 -23    5.02    1.03
   2  -1 -23    3.62    1.06
  -2  -1  23    3.79    1.25
   2   1 -23    3.60    0.88
  -2   1  23    5.12    1.25
   1  -1 -23   94.60    3.73
  -1  -1  23   93.34    3.85
   1  -1 -23   94.07    3.42
  -1  -1  23   86.18    4.19
  -1   1  23   93.34    4.08
   1   1 -23   94.09    3.54
  -1   1  23   97.19    3.73
   1   1 -23   99.26    3.42
   0  -1  23   70.13    3.73
   0  -1  23   75.13    3.28
   0  -1 -23   73.82    3.17
   0   1  23   78.14    3.25
   0   1  23   71.87    3.67
   0   1 -23   75.34    3.03
   0   1 -23   73.06    2.83
  -1  -1 -23    2.03    0.79
   1  -1  23    1.17    1.19
   1  -1  23    1.21    1.01
  -1  -1 -23    0.58    0.76
  -1   1 -23    1.21    0.72
   1   1  23    1.36    1.17
  -1   1 -23    0.19    0.77
   1   1  23    0.11    0.89
   2  -1  23   -0.45    0.87
  -2  -1 -23    2.74    0.82
  -2  -1 -23    2.49    0.96
   2  -1  23    3.45    1.61
  -2   1 -23    3.52    0.93
  -2   1 -23    1.09    0.71
   2   1  23    2.79    1.53
   2   1  23    3.07    1.13
  -2   1 -23    3.52    0.99
   3  -1  23   79.40    3.63
  -3  -1 -23   88.16    3.30
   3  -1  23   80.59    4.68
  -3  -1 -23   80.91    3.68
  -3   1 -23   88.25    3.42
   3   1  23   84.53    3.68
   3   1  23   83.39    4.68
  -3   1 -23   85.40    3.04
  -3   1 -23   78.69    3.42
   4  -1  23   32.96    3.58
  -4  -1 -23   29.52    2.47
   4  -1  23   33.85    2.64
  -4  -1 -23   36.55    2.11
   4   1  23   37.47    3.75
  -4   1 -23   30.23    1.86
   4   1  23   38.56    2.82
  -4   1 -23   36.65    2.40
  -4   1 -23   36.95    2.25
   5  -1  23   13.91    2.00
  -5  -1 -23   12.39    1.55
   5  -1  23   12.56    2.75
  -5  -1 -23   12.93    1.88
  -5   1 -23   15.74    1.54
  -5   1 -23   14.70    1.87
   5   1  23   12.63    1.94
   5   1  23   13.55    2.81
  -5   1 -23   15.61    1.84
  -6  -1 -23    3.34    1.52
  -6  -1 -23    3.65    1.28
   6  -1  23    2.64    2.14
   6  -1  23    5.13    1.65
  -6   1 -23   -0.49    1.04
  -6   1 -23    1.69    1.05
   6   1  23    4.90    2.16
  -6   1 -23    1.97    1.21
   6   1  23    1.46    1.45
  -7  -1 -23    2.14    1.29
  -7  -1 -23    0.81    1.39
   7  -1  23   -0.52    1.38
   7  -1  23    2.61    2.03
  -7   1 -23    5.49    1.64
   7   1  23    3.78    1.67
  -7   1 -23    1.60    1.38
   7   1  23    2.98    2.23
  -7   1 -23    3.24    1.17
  -8  -1 -23   19.33    2.80
   8  -1  23   17.54    2.50
  -8  -1 -23   22.21    2.42
   8  -1  23   19.08    3.27
  -8   1 -23   21.59    2.82
  -8   1 -23   20.53    2.06
   8   1  23   22.00    2.78
  -8   1 -23   22.13    2.56
   8   1  23   22.09    3.67
  -9  -1 -23    1.04    1.85
   9  -1  23    0.25    2.14
  -9  -1 -23    6.74    1.82
   9  -1  23    5.69    1.90
  -9   1 -23    2.26    1.64
   9   1  23    5.15    2.44
  -9   1 -23    3.52    1.42
   9   1  23    4.35    2.00
  -9   1 -23    5.69    2.11
 -10  -1 -23    2.54    1.66
  10  -1  23    0.69    1.52
 -10   1 -23    0.08    1.42
  10   1  23    1.98    2.42
 -10   1 -23    0.87    1.70
  10   1  23    1.58    1.87
 -11  -2  23    1.26    1.82
  11   2 -23   -0.04    1.67
 -10  -2  23    1.08    1.76
  10   2 -23    5.10    2.00
 -10   2  23    3.17    2.19
  -9  -2  23   -1.19    1.57
   9   2 -23   -1.17    1.55
  -9   2  23    2.53    2.00
  -8  -2  23    1.27    1.60
  -8   2  23    1.33    1.75
   8   2 -23    2.04    1.74
  -7  -2  23    4.87    1.73
  -7   2  23    4.19    1.87
   7   2 -23    2.58    1.66
  -6  -2  23    2.90    1.58
   6   2 -23    4.58    1.61
  -6   2  23    2.77    1.62
   5  -2 -23    2.45    1.37
  -5  -2  23    5.19    1.62
  -5   2  23    3.03    1.45
   5   2 -23    3.31    1.38
  -4  -2  23   20.41    2.30
  -4  -2  23   25.81    2.30
   4  -2 -23   24.25    2.43
   4   2 -23   20.81    2.15
   3  -2 -23    4.79    1.31
  -3  -2  23    4.15    1.33
  -3  -2  23    3.50    1.36
   3   2 -23    4.33    1.18
  -2  -2  23  120.25    5.18
  -2  -2  23  127.39    4.92
   2  -2 -23  130.65    4.83
  -2   2  23  127.32    4.83
  -1  -2  23    1.21    1.13
  -1  -2  23    1.12    1.06
   1  -2 -23   -0.10    0.85
   1   2 -23    1.81    0.93
  -1   2  23   -0.16    1.02
   0  -2  23   24.49    2.63
   0  -2 -23   21.62    1.95
   0  -2  23   23.21    2.14
   0  -2 -23   23.25    1.34
   0   2 -23   27.86    1.99
   0   2  23   24.97    2.43
   1  -2  23    1.40    1.11
   1  -2  23    0.31    1.24
  -1  -2 -23    0.34    0.67
  -1  -2 -23    0.70    0.88
   1   2  23   -0.23    1.08
  -1   2 -23   -0.48    0.66
  -1   2 -23    0.20    0.77
  -2  -2 -23    4.56    1.16
   2  -2  23    3.13    1.18
   2  -2  23    4.29    1.69
  -2   2 -23    2.06    0.80
   2   2  23    1.71    1.48
  -2   2 -23    1.90    0.80
  -2   2 -23    4.60    1.12
  -3  -2 -23    0.26    0.71
  -3  -2 -23    0.24    0.96
   3  -2  23   -0.40    1.14
   3  -2  23   -0.71    1.52
  -3   2 -23    0.41    0.71
   3   2  23   -1.32    1.27
  -3   2 -23   -0.29    0.83
  -3   2 -23   -1.11    0.72
  -4  -2 -23    0.58    1.06
   4  -2  23    5.47    2.06
   4  -2  23    1.22    1.31
  -4  -2 -23    0.70    0.80
  -4   2 -23    3.39    0.97
   4   2  23    4.14    1.84
  -4   2 -23    3.50    1.21
  -4   2 -23    1.96    0.97
  -5  -2 -23   -0.23    1.15
   5  -2  23   -0.29    1.27
   5  -2  23    0.55    1.81
  -5  -2 -23   -0.05    0.88
   5   2  23    0.45    1.67
  -5   2 -23    1.03    0.88
  -5   2 -23   -1.37    0.91
  -5   2 -23    0.63    1.08
   6  -2  23   -1.16    1.91
  -6  -2 -23   -0.20    1.16
  -6  -2 -23    0.44    0.96
   6  -2  23    0.02    1.36
  -6   2 -23   -0.80    0.89
   6   2  23   -1.07    1.37
  -6   2 -23   -0.08    1.15
  -6   2 -23    0.72    1.27
   6   2  23   -1.35    1.56
  -7  -2 -23   -1.69    1.00
  -7  -2 -23   -1.37    1.26
   7  -2  23   -1.79    1.90
   7  -2  23    1.64    1.52
  -7   2 -23   -1.14    1.29
   7   2  23    1.95    2.10
   7   2  23    1.35    1.61
  -7   2 -23    0.49    1.37
  -7   2 -23    1.68    1.12
  -8  -2 -23    4.30    1.43
   8  -2  23    5.88    1.74
   8  -2  23    4.92    2.42
  -8  -2 -23    4.99    2.02
  -8   2 -23    2.26    1.30
   8   2  23    4.08    1.92
   8   2  23    4.02    2.36
  -8   2 -23    5.35    1.81
  -8   2 -23    1.00    1.64
  -9  -2 -23    0.96    1.36
   9  -2  23    0.16    1.27
  -9  -2 -23   -1.58    1.66
   9   2  23    0.70    2.25
  -9   2 -23   -0.69    1.62
   9   2  23    0.31    1.70
  -9   2 -23   -1.13    1.24
  -9   2 -23    0.34    1.52
 -10  -2 -23    6.11    1.73
  10   2  23   10.86    2.47
 -10   2 -23    5.39    2.04
  10   2  23    9.61    2.95
 -10  -3  23    0.51    1.61
  10   3 -23    5.74    2.14
  -9  -3  23   -1.46    1.47
   9   3 -23    4.67    1.99
  -9   3  23    4.94    2.25
  -8  -3  23   -1.19    1.46
  -8   3  23   -2.63    1.44
   8   3 -23    2.62    1.88
  -7  -3  23    1.44    1.64
   7   3 -23    0.11    1.61
  -7   3  23    2.11    1.81
   6  -3 -23    4.75    1.76
  -6  -3  23   11.42    2.05
  -6   3  23    8.92    2.10
   6   3 -23    5.71    1.77
  -5  -3  23   80.45    4.03
   5  -3 -23   80.84    4.29
  -5  -3  23   85.18    4.13
   5   3 -23   77.36    3.95
  -4  -3  23    2.75    1.32
   4  -3 -23   -0.41    1.23
  -4  -3  23   -0.53    1.27
   4   3 -23   -0.33    1.10
  -3  -3  23   -0.17    1.26
   3  -3 -23    0.30    1.02
  -3  -3  23   -1.37    1.02
  -2  -3  23    2.51    1.41
  -2  -3  23    6.22    1.55
   2  -3 -23    3.75    1.26
  -1  -3  23  133.57    5.74
   1  -3 -23  122.66    4.97
  -1  -3  23  134.50    4.98
   1   3 -23  117.62    4.54
  -1   3  23  134.29    5.23
   0  -3  23   34.86    3.27
   0  -3  23   40.19    2.56
   0  -3 -23   34.39    2.42
   0   3 -23   32.05    1.87
   0   3  23   33.22    2.88
   1  -3  23    7.70    1.52
   1  -3  23    9.30    1.96
  -1  -3 -23    7.62    1.48
   1   3  23    4.27    1.60
  -1   3 -23    7.27    1.02
   2  -3  23    1.98    1.71
   2  -3  23    0.00    1.16
  -2  -3 -23    0.40    0.93
   2   3  23    0.10    1.43
  -2   3 -23    0.79    0.74
  -3  -3 -23   73.10    3.68
   3  -3  23   68.86    3.40
   3  -3  23   70.89    4.83
  -3   3 -23   68.44    2.80
   3   3  23   76.39    4.60
   4  -3  23    1.15    1.30
  -4  -3 -23    4.59    1.43
   4  -3  23    9.25    2.54
   4   3  23    4.34    1.95
  -4   3 -23    5.95    1.12
   5  -3  23   11.07    2.83
   5  -3  23    9.78    1.59
  -5  -3 -23    8.59    1.73
  -5   3 -23    9.69    1.57
   5   3  23    8.21    2.43
   6  -3  23    1.79    1.11
   6  -3  23    3.27    2.28
  -6  -3 -23    2.68    1.45
   6   3  23    4.74    2.36
  -6   3 -23    0.80    1.34
   7  -3  23    3.41    2.32
  -7  -3 -23    8.03    2.06
   7   3  23    1.06    2.15
  -7   3 -23    3.98    1.66
   8  -3  23   13.70    3.00
  -8  -3 -23    8.69    2.25
  -8   3 -23   10.48    2.21
   8   3  23    7.35    2.76
  -9   3 -23    5.21    2.22
  -9   3 -23    0.71    1.30
   9   3  23    1.07    2.26
   9   3  23    5.03    2.31
  10   3  23    1.36    2.05
  10   3  23   -1.58    2.13
 -10  -4  23    2.03    1.45
  10   4 -23   -0.30    1.93
  -9  -4  23    1.96    1.55
   9   4 -23    4.14    2.13
  -9   4  23    8.46    2.64
  -8  -4  23   -0.34    1.42
   8   4 -23   -0.91    1.80
  -8   4  23    1.81    2.09
  -7  -4  23   30.80    2.66
  -7   4  23   27.49    3.54
   7   4 -23   29.63    3.28
  -6  -4  23   -1.24    1.30
  -6  -4  23    1.20    1.60
   6  -4 -23    2.39    1.58
  -6   4  23    0.12    1.58
  -5  -4  23    2.06    1.42
  -5  -4  23    2.81    1.52
   5  -4 -23    3.46    1.58
   4  -4 -23   -0.21    1.32
  -4  -4  23    0.22    1.31
  -4  -4  23    0.04    1.30
  -3  -4  23    0.65    1.13
   3  -4 -23    0.73    1.18
  -3  -4  23   -0.15    1.30
  -2  -4  23    4.00    1.10
  -2  -4  23    6.34    1.72
   2  -4 -23    3.66    1.30
  -1  -4  23   12.35    2.22
   1  -4 -23   11.59    1.83
  -1  -4  23   10.93    1.14
  -1   4  23   14.24    2.03
   0  -4  23    4.47    1.76
   0  -4 -23    1.61    1.17
   0   4  23    2.03    1.34
   0   4 -23    3.61    0.96
  -1  -4 -23    0.43    1.03
   1  -4  23    4.35    1.90
  -1   4 -23    1.41    0.80
   1   4  23   -0.68    1.23
  -2  -4 -23    3.23    1.35
   2  -4  23    4.09    1.97
   2   4  23    0.96    1.58
  -2   4 -23    2.02    0.89
   3  -4  23    4.07    2.32
  -3  -4 -23    1.24    1.18
   3   4  23   -1.55    1.46
  -3   4 -23    1.64    0.89
   4  -4  23    2.76    2.28
  -4  -4 -23    0.43    1.25
   4   4  23   -1.11    1.57
   5  -4  23   16.36    3.62
  -5  -4 -23   22.98    2.67
   5   4  23   19.22    3.14
  -6  -4 -23   -0.12    1.25
   6  -4  23    0.00    2.16
   6   4  23   -0.30    1.81
   7  -4  23    3.46    2.63
  -7  -4 -23    8.97    2.15
   7   4  23    0.58    2.09
  -8  -4 -23    1.96    1.89
   8   4  23    4.43    2.49
   9   4  23    2.34    2.39
  -8   5  23   -0.76    2.03
  -7   5  23   -0.31    1.94
   6  -5 -23    4.22    1.99
  -6  -5  23    7.87    2.29
  -6   5  23    8.89    2.41
   5  -5 -23   24.05    3.01
  -5  -5  23   23.11    3.03
  -5   5  23   32.14    3.55
   4  -5 -23   -0.57    1.28
  -4  -5  23   -0.54    1.40
   3  -5 -23    9.95    2.06
  -3  -5  23    8.46    2.19
  -2  -5  23   -1.64    1.41
   2  -5 -23   -0.64    1.10
   1  -5 -23   15.63    2.22
  -1  -5  23   15.40    2.53
   1   5 -23   13.71    1.48
   0  -5  23   22.92    3.24
   0  -5 -23   31.04    2.92
   0   5 -23   32.97    1.99
   0   5  23   31.32    3.08
   1  -5  23    4.71    2.13
  -1  -5 -23    4.27    1.49
  -1   5 -23    8.43    1.23
   1   5  23    5.59    1.81
   2  -5  23    0.77    2.12
  -2  -5 -23    1.04    1.23
   2   5  23   -0.91    1.50
  -2   5 -23    2.64    0.98
   3  -5  23   19.79    3.59
  -3  -5 -23   18.01    2.38
  -3   5 -23   18.98    1.75
   3   5  23   18.45    2.97
   4  -5  23   21.28    3.66
  -4  -5 -23   22.08    2.62
   4   5  23   25.22    3.45
   5  -5  23    6.29    2.75
  -5  -5 -23    8.59    1.97
   5   5  23   11.42    2.79
  -6  -5 -23    4.40    1.82
   6  -5  23    7.65    2.85
   6   5  23    8.90    2.78
  -7  -5 -23   -0.94    1.75
   7  -5  23   -1.11    1.94
   7   5  23    2.25    2.40
   8   5  23   12.88    3.36
  -7  -6  23    9.00    2.80
  -7   6  23   10.69    2.95
  -6  -6  23    3.06    2.03
  -6   6  23    1.42    2.12
   5  -6 -23   11.96    2.39
  -5  -6  23    3.16    2.02
  -5   6  23   12.70    2.77
   4  -6 -23    5.23    2.02
  -4  -6  23    4.08    2.06
   3  -6 -23    4.59    1.90
  -3  -6  23    6.55    2.20
  -2  -6  23   23.91    3.35
   2  -6 -23   26.98    3.06
   1  -6 -23    3.82    1.66
  -1  -6  23    4.28    2.06
   0  -6  23    9.13    2.58
   0  -6 -23    6.13    1.88
   0   6  23    5.96    1.86
   1  -6  23    0.52    2.03
  -1  -6 -23   -0.18    1.14
   1   6  23    0.97    1.65
   2  -6  23    0.31    2.27
  -2  -6 -23    2.06    1.48
   2   6  23    3.90    1.91
   3  -6  23   -0.29    2.24
  -3  -6 -23   -1.01    1.26
   3   6  23   -2.42    1.55
   4  -6  23   -2.85    2.08
  -4  -6 -23    1.14    1.56
   4   6  23   -0.32    1.87
  -5  -6 -23    1.04    1.57
   5  -6  23   -1.65    2.18
   5   6  23   -0.52    1.78
  -6  -6 -23    1.33    1.82
   6  -6  23    0.07    2.25
   6   6  23   -0.59    2.15
   7   6  23    5.65    2.67
  -7  -7  23   -1.32    2.05
  -6  -7  23    1.76    2.13
   5  -7 -23   16.58    3.05
  -5  -7  23   23.10    3.57
  -5   7  23   24.73    3.61
   4  -7 -23    0.73    1.70
  -4  -7  23    3.27    2.20
  -3  -7  23   -0.48    1.94
   3  -7 -23   -1.66    1.59
   2  -7 -23    5.82    2.04
  -2  -7  23    7.33    2.55
  -1  -7  23   39.36    4.65
   1  -7 -23   48.60    4.12
   0  -7 -23    1.07    1.52
   0  -7  23   -0.19    2.26
  -1  -7 -23    0.92    1.59
   1  -7  23    5.92    2.68
   1   7  23   -0.05    1.71
  -2  -7 -23    2.27    1.63
   2  -7  23    0.24    2.44
   2   7  23    2.38    2.07
   3  -7  23    7.20    3.11
   3   7  23   11.99    2.93
   4  -7  23   -0.54    2.45
  -4  -7 -23   -0.04    1.74
   4   7  23   -0.44    2.09
   5  -7  23    3.61    2.67
   5   7  23    2.82    2.52
   6   7  23   12.09    3.30
  -5  -8  23    3.96    2.44
  -4  -8  23   -0.09    2.15
  -3  -8  23   -2.97    2.05
   2  -8 -23    3.94    2.17
  -2  -8  23    2.37    2.52
   1  -8 -23    0.61    1.82
  -1  -8  23    0.18    2.37
   0  -8 -23    0.26    1.84
   0  -8  23    1.74    2.56
   1  -8  23    1.70    2.64
  -1  -8 -23    3.44    2.13
   2  -8  23   -2.81    2.41
   2   8  23   -0.27    2.11
   3  -8  23   -3.37    2.25
   3   8  23    1.51    2.32
   4  -8  23    3.95    3.11
   4   8  23    0.60    2.32
 -11   0  24   -0.29    2.01
 -10   0  24    1.26    1.97
  10   0 -24    0.97    1.24
  -9   0  24    0.84    1.68
   9   0 -24    0.57    1.28
   8   0 -24    2.50    1.39
  -8   0  24   -1.82    1.62
   7   0 -24   -1.27    1.19
  -7   0  24   -0.89    1.49
  -6   0  24    0.99    1.30
  -6   0  24    0.22    1.44
   6   0 -24    1.05    1.37
  -5   0  24    0.87    1.30
  -5   0  24    0.48    1.21
   5   0 -24   -1.41    0.99
   4   0 -24   50.18    2.83
  -4   0  24   43.53    2.95
   4   0 -24   47.60    2.71
  -3   0  24   -0.64    1.04
   3   0 -24   -0.22    0.87
   3   0 -24   -0.47    0.92
  -3   0  24   -1.13    0.92
  -2   0  24   57.36    2.99
   2   0 -24   51.22    2.55
   2   0 -24   50.21    2.52
  -2   0  24   49.24    2.86
  -1   0  24   -0.06    0.92
  -1   0  24    1.33    1.06
   1   0 -24   -0.43    0.66
   0   0  24   27.06    2.18
   0   0 -24   29.35    1.91
   0   0  24   33.67    2.79
   0   0 -24   30.49    1.90
  -1   0 -24    0.06    0.73
  -1   0 -24   -0.04    0.70
   1   0  24    2.47    0.99
   1   0  24    0.77    1.20
  -2   0 -24   14.89    1.54
   2   0  24   14.20    2.25
  -2   0 -24   15.65    1.56
   2   0  24   19.58    1.89
   3   0  24    1.06    1.08
  -3   0 -24    0.39    0.84
  -3   0 -24    0.66    0.83
   3   0  24    1.11    1.54
   4   0  24   29.39    2.55
   4   0  24   27.51    3.33
  -4   0 -24   27.66    1.69
  -4   0 -24   28.45    2.21
  -4   0 -24   24.92    2.28
  -5   0 -24    0.88    0.85
   5   0  24    1.35    1.89
  -5   0 -24   -1.46    1.01
   5   0  24   -1.57    1.07
  -5   0 -24    0.80    1.04
   6   0  24   13.98    2.81
  -6   0 -24    6.70    1.53
  -6   0 -24    8.97    1.28
   6   0  24   10.08    2.01
  -6   0 -24    8.71    1.80
  -7   0 -24   -0.94    1.17
  -7   0 -24   -1.20    1.32
   7   0  24   -1.69    1.48
   7   0  24   -0.35    1.74
  -7   0 -24    0.80    0.98
  -8   0 -24    2.01    1.20
  -8   0 -24    3.65    1.60
   8   0  24    2.31    2.15
   8   0  24    3.76    1.83
  -8   0 -24    0.93    1.60
   9   0  24   -4.56    1.72
  -9   0 -24    0.30    1.75
   9   0  24   -1.65    1.62
  -9   0 -24    0.36    1.59
 -10   0 -24   27.75    3.00
  10   0  24   27.59    3.06
 -11  -1  24    5.99    2.15
  11   1 -24    5.87    1.74
 -10  -1  24    3.43    2.05
  10   1 -24    3.02    1.63
  -9  -1  24    4.85    2.03
   9   1 -24    7.24    1.87
  -9   1  24    8.32    2.25
  -8  -1  24    3.01    1.77
   8  -1 -24    2.90    0.84
   8   1 -24    1.02    1.51
  -8   1  24    1.75    1.77
   7  -1 -24    0.48    0.95
  -7  -1  24   -2.27    1.43
  -7   1  24    3.06    1.70
   7   1 -24   -0.67    1.33
   6  -1 -24    9.94    1.41
  -6  -1  24   12.87    2.14
   6   1 -24   13.93    2.06
  -6   1  24    9.49    2.02
   5  -1 -24   76.46    3.96
  -5  -1  24   71.31    4.01
   5  -1 -24   73.36    3.12
  -5   1  24   76.36    3.94
   5   1 -24   75.73    3.76
   4  -1 -24    6.00    1.45
   4  -1 -24    5.51    1.19
  -4  -1  24    3.60    1.46
  -4  -1  24    1.50    1.11
   4   1 -24    3.89    1.32
  -3  -1  24    2.35    1.24
  -3  -1  24    1.64    1.25
   3  -1 -24    2.39    1.00
   3  -1 -24    1.94    1.07
   3   1 -24    0.37    1.01
  -2  -1  24    3.63    1.21
   2  -1 -24    0.15    0.86
  -2  -1  24    0.31    1.04
   2  -1 -24    2.44    0.99
   2   1 -24   -1.21    0.69
  -2   1  24    0.42    1.00
   1  -1 -24   56.95    2.56
   1  -1 -24   54.87    2.74
  -1  -1  24   58.01    3.12
  -1  -1  24   64.12    3.45
  -1   1  24   57.79    3.16
  -1   1  24   60.06    2.89
   1   1 -24   60.39    2.54
   0  -1  24   72.88    3.92
   0  -1  24   85.68    3.55
   0  -1 -24   80.82    3.42
   0   1  24   79.14    3.46
   0   1 -24   85.17    3.13
   0   1 -24   79.52    3.27
   0   1  24   87.45    4.12
  -1  -1 -24   49.19    2.24
   1  -1  24   51.60    3.38
  -1  -1 -24   50.64    2.62
   1  -1  24   44.25    2.63
  -1   1 -24   47.93    2.29
   1   1  24   51.07    3.26
   1   1  24   53.88    2.71
  -1   1 -24   49.21    2.49
  -2  -1 -24    0.02    0.71
   2  -1  24    0.61    0.94
   2  -1  24   -1.19    1.14
  -2  -1 -24    0.30    0.83
  -2   1 -24   -0.37    0.69
   2   1  24    0.25    1.01
   2   1  24    1.24    1.39
  -2   1 -24    0.81    0.69
  -2   1 -24    0.37    0.85
   3  -1  24   17.25    2.78
  -3  -1 -24   20.92    2.05
   3  -1  24   24.15    2.19
  -3  -1 -24   22.61    1.78
   3   1  24   23.60    2.20
  -3   1 -24   24.12    1.94
  -3   1 -24   19.96    1.85
  -3   1 -24   22.00    1.61
   3   1  24   21.01    2.83
   4  -1  24   18.53    2.12
   4  -1  24   18.47    2.92
  -4  -1 -24   18.24    1.72
  -4  -1 -24   13.41    1.80
   4   1  24   15.34    2.68
  -4   1 -24   18.41    1.90
  -4   1 -24   21.21    1.96
  -4   1 -24   17.92    1.55
   4   1  24   22.15    2.24
   5  -1  24    2.84    1.94
  -5  -1 -24    0.33    1.14
   5  -1  24   -0.06    1.26
  -5  -1 -24    1.42    1.08
   5   1  24    0.79    1.77
  -5   1 -24    0.05    1.05
   5   1  24    3.14    1.43
  -5   1 -24    1.18    0.84
  -5   1 -24    1.48    1.03
  -6  -1 -24    5.80    1.44
   6  -1  24    6.99    1.84
   6  -1  24    8.80    2.57
  -6  -1 -24    9.04    1.81
   6   1  24    5.41    2.40
  -6   1 -24    3.40    1.46
  -6   1 -24    7.39    1.33
   6   1  24    6.38    1.79
  -6   1 -24    6.40    1.55
   7  -1  24    1.18    1.98
  -7  -1 -24   -0.89    1.23
   7  -1  24    0.36    1.58
  -7  -1 -24   -0.85    1.18
   7   1  24   -0.76    1.42
   7   1  24    2.71    2.09
  -7   1 -24    1.45    1.32
  -7   1 -24    2.28    1.13
  -7   1 -24   -1.96    1.22
   8  -1  24    9.74    2.12
  -8  -1 -24    7.92    1.81
  -8  -1 -24   11.66    2.36
   8  -1  24   11.93    2.91
  -8   1 -24    9.26    1.59
  -8   1 -24   16.03    2.27
  -8   1 -24    9.58    2.20
   8   1  24    9.51    2.29
   8   1  24   17.87    3.39
   9  -1  24   -0.47    1.59
  -9  -1 -24    3.07    1.59
   9  -1  24    0.51    2.22
  -9  -1 -24    0.15    1.90
   9   1  24    5.60    2.53
  -9   1 -24    0.96    1.29
  -9   1 -24    1.18    1.79
   9   1  24    1.70    1.92
  -9   1 -24    0.62    1.59
 -10  -1 -24    2.12    1.68
  10  -1  24    0.50    1.50
  10   1  24   -1.34    2.15
 -10   1 -24   -0.95    1.63
  10   1  24   -0.05    1.87
 -11  -2  24    0.40    1.75
  11   2 -24    2.21    1.85
 -10  -2  24   -0.61    1.62
  10   2 -24    0.27    1.74
 -10   2  24   -2.30    1.91
  -9  -2  24   27.72    3.02
   9   2 -24   25.48    2.99
  -9   2  24   26.68    3.46
  -8  -2  24   -0.42    1.56
   8   2 -24    0.01    1.58
  -8   2  24   -0.67    1.60
  -7  -2  24   -0.38    1.42
   7   2 -24    1.99    1.60
  -7   2  24   -0.32    1.61
  -6  -2  24   -0.20    1.32
  -6   2  24   -1.82    1.29
   6   2 -24    0.33    1.36
  -5  -2  24   40.98    3.23
   5  -2 -24   34.34    3.13
  -5   2  24   44.76    3.46
   5   2 -24   37.79    3.00
  -4  -2  24    0.00    1.10
   4  -2 -24    0.78    1.21
  -4  -2  24    1.48    1.35
   4   2 -24   -2.20    0.99
  -3  -2  24   29.83    2.58
   3  -2 -24   31.05    2.60
  -3  -2  24   27.83    2.55
   3   2 -24   27.53    2.27
   2  -2 -24    1.97    1.07
  -2  -2  24   -0.03    1.12
  -2  -2  24    2.56    1.31
  -2   2  24    2.17    1.13
  -1  -2  24   58.51    3.10
   1  -2 -24   56.13    3.02
  -1  -2  24   60.16    3.46
  -1   2  24   64.71    3.33
   1   2 -24   58.23    2.82
   0  -2  24    0.52    1.10
   0  -2 -24    1.51    0.70
   0  -2 -24    0.45    0.91
   0  -2  24    1.61    1.28
   0   2  24    1.69    1.18
   0   2 -24   -0.62    0.79
  -1  -2 -24   89.24    3.87
  -1  -2 -24   93.02    3.02
   1  -2  24   85.80    4.76
   1  -2  24   94.40    3.96
   1   2  24   83.11    4.43
  -1   2 -24   93.00    3.66
  -1   2 -24   86.61    3.19
   2  -2  24    0.17    1.08
  -2  -2 -24    0.19    0.87
   2  -2  24    0.51    1.34
  -2   2 -24   -0.59    0.69
  -2   2 -24    0.56    0.73
   2   2  24    0.58    1.31
  -2   2 -24   -0.08    0.85
  -3  -2 -24    0.23    0.74
   3  -2  24    2.59    1.89
  -3  -2 -24    0.24    0.91
   3  -2  24   -0.21    1.20
  -3   2 -24   -0.93    0.88
  -3   2 -24    0.53    0.79
   3   2  24    2.29    1.65
  -3   2 -24    1.68    0.90
   4  -2  24   -1.60    1.08
   4  -2  24   -0.92    1.57
  -4  -2 -24   -0.59    0.92
  -4  -2 -24   -1.39    0.73
  -4   2 -24    0.56    0.83
  -4   2 -24    0.27    0.91
  -4   2 -24    0.86    1.00
   4   2  24   -0.84    1.57
  -5  -2 -24   84.50    3.28
   5  -2  24   80.81    3.98
  -5  -2 -24   85.15    4.30
   5  -2  24   81.37    5.40
   5   2  24   79.14    5.16
  -5   2 -24   84.02    3.84
  -5   2 -24   82.17    3.36
  -5   2 -24   82.29    3.80
   6  -2  24   -1.32    1.92
  -6  -2 -24   -0.13    1.03
  -6  -2 -24    0.58    1.31
   6  -2  24    0.59    1.39
  -6   2 -24    2.40    1.32
  -6   2 -24    2.93    1.38
   6   2  24    0.61    1.56
  -6   2 -24   -0.30    0.93
   6   2  24    1.71    1.94
   7  -2  24   17.48    3.28
   7  -2  24   11.80    2.07
  -7  -2 -24    9.12    1.61
  -7  -2 -24   10.58    2.18
  -7   2 -24    9.62    1.93
  -7   2 -24   11.69    2.15
  -7   2 -24   10.02    1.56
   7   2  24   14.56    2.40
   7   2  24   14.25    2.99
   8  -2  24   -0.51    1.50
   8  -2  24    1.01    2.06
  -8  -2 -24    1.05    1.26
  -8  -2 -24    0.99    1.66
  -8   2 -24   -0.58    1.10
  -8   2 -24   -0.73    1.53
  -8   2 -24    1.52    1.58
   8   2  24    1.00    1.70
   8   2  24   -0.38    2.00
   9  -2  24    8.98    1.57
  -9  -2 -24    9.81    1.82
  -9  -2 -24    7.29    2.32
  -9   2 -24    8.39    2.12
  -9   2 -24   12.64    1.95
   9   2  24    5.05    2.55
   9   2  24    6.93    2.26
  -9   2 -24    7.62    2.35
 -10  -2 -24    3.88    1.62
 -10   2 -24    0.50    1.75
  10   2  24   -2.59    1.87
  10   2  24    0.04    1.81
 -10  -3  24    5.59    1.91
  10   3 -24    2.85    2.07
  -9  -3  24    3.84    1.85
   9   3 -24    5.80    2.10
  -9   3  24    5.86    2.40
  -8  -3  24   -1.46    1.49
  -8   3  24    3.32    2.08
   8   3 -24    3.08    1.96
  -7  -3  24    1.12    1.55
   7   3 -24   -1.48    1.41
  -7   3  24    2.09    1.88
  -6  -3  24    4.91    1.72
   6  -3 -24    2.93    1.83
   6   3 -24    3.23    1.71
  -6   3  24    4.64    1.90
  -5  -3  24   22.26    2.39
   5  -3 -24   21.08    2.62
  -5  -3  24   17.92    2.32
   5   3 -24   19.37    2.26
   4  -3 -24    2.26    1.30
  -4  -3  24    1.76    1.39
  -4  -3  24    5.36    1.60
   4   3 -24    1.43    1.33
  -3  -3  24    1.66    1.35
   3  -3 -24   -0.17    1.05
  -3  -3  24   -0.25    1.12
   3   3 -24    1.89    1.16
  -2  -3  24   -0.70    1.12
  -2  -3  24   -0.81    1.13
   2  -3 -24    1.40    1.05
  -1  -3  24   27.23    2.85
  -1  -3  24   25.80    2.37
   1  -3 -24   23.85    2.26
  -1   3  24   25.71    2.47
   1   3 -24   27.33    2.20
   0  -3  24   88.36    4.70
   0  -3 -24   83.78    3.89
   0  -3  24   88.86    3.89
   0   3  24   82.90    4.25
   1  -3  24   14.23    2.45
  -1  -3 -24   18.58    2.02
   1  -3  24   18.43    2.05
   1   3  24   19.32    2.45
  -1   3 -24   14.96    1.42
   2  -3  24    4.65    1.94
  -2  -3 -24    4.12    1.31
   2  -3  24    6.63    1.54
   2   3  24    3.03    1.67
  -2   3 -24    4.81    1.00
   3  -3  24    2.61    1.37
  -3  -3 -24    2.56    1.26
   3  -3  24   -0.70    1.84
   3   3  24    1.63    1.72
  -3   3 -24    3.02    0.93
  -4  -3 -24   31.34    2.81
   4  -3  24   35.60    2.63
   4  -3  24   33.93    4.18
  -4   3 -24   36.33    2.09
   4   3  24   31.46    3.66
   5  -3  24    2.17    2.33
  -5  -3 -24    4.55    1.53
   5  -3  24    4.83    1.51
  -5   3 -24    3.00    1.07
   5   3  24    3.95    2.19
  -6  -3 -24    6.29    1.78
   6  -3  24    9.15    1.41
   6  -3  24    9.59    2.89
  -6   3 -24   10.21    1.52
   6   3  24   12.68    2.89
   7  -3  24    2.30    2.39
  -7  -3 -24    2.16    1.70
  -7   3 -24    0.96    1.52
   7   3  24   -0.04    1.95
  -7   3 -24   -0.55    1.05
  -8  -3 -24   11.97    2.51
   8  -3  24   12.49    3.16
  -8   3 -24   15.41    1.92
  -8   3 -24   14.16    2.43
   8   3  24   12.24    3.15
   9   3  24    1.60    2.37
  -9   3 -24    0.62    1.33
   9   3  24    4.30    2.14
 -10  -4  24   -0.15    1.42
  10   4 -24    1.62    2.12
  -9  -4  24   -1.43    1.40
  -9   4  24    3.26    2.30
   9   4 -24    2.24    2.11
  -8  -4  24    4.81    1.64
  -8   4  24    5.38    2.27
   8   4 -24   -0.36    1.82
  -7  -4  24    9.30    1.93
  -7   4  24    8.64    2.44
   7   4 -24   10.02    2.31
   6  -4 -24    1.79    1.79
  -6  -4  24    1.74    1.62
  -6  -4  24   -0.06    1.42
   6   4 -24   -1.56    1.44
  -6   4  24   -0.05    1.69
  -5  -4  24    5.60    1.66
   5  -4 -24    7.55    1.94
  -5  -4  24    7.03    1.84
   4  -4 -24   22.48    2.69
  -4  -4  24   15.63    1.95
  -4  -4  24   21.87    2.66
  -3  -4  24    1.25    1.40
   3  -4 -24   -1.06    1.06
  -3  -4  24   -1.48    1.10
   2  -4 -24   22.04    2.47
  -2  -4  24   21.84    1.85
  -2  -4  24   30.86    3.13
  -1  -4  24   -1.27    1.28
  -1  -4  24   -0.54    0.90
   1  -4 -24    0.33    1.04
  -1   4  24    2.31    1.32
   0  -4 -24   19.42    2.30
   0  -4  24   18.97    2.68
   0   4  24   21.20    2.56
   0   4 -24   21.24    1.69
   1  -4  24   -1.17    1.63
  -1  -4 -24   -0.02    1.01
   1   4  24   -0.66    1.33
  -1   4 -24    0.34    0.78
   2  -4  24    6.64    2.43
  -2  -4 -24    4.11    1.41
   2   4  24    6.70    1.98
  -2   4 -24    7.01    1.15
   3  -4  24   -2.47    1.83
  -3  -4 -24    0.12    1.07
  -3   4 -24    0.84    0.88
   3   4  24   -0.41    1.45
  -4  -4 -24    9.87    1.85
   4  -4  24   12.88    3.00
   4   4  24   14.78    2.74
  -4   4 -24   12.72    1.50
  -5  -4 -24    3.40    1.55
   5  -4  24    1.84    2.39
   5   4  24    2.47    2.12
   6  -4  24    8.64    2.83
  -6  -4 -24    6.29    1.83
   6   4  24    6.85    2.58
   7  -4  24   -1.45    2.30
  -7  -4 -24   -0.91    1.43
   7   4  24    2.10    2.38
  -8  -4 -24    2.02    1.71
   8   4  24    2.42    2.44
   9   4  24    5.10    2.64
  -8   5  24   -1.21    1.98
  -7   5  24   -0.26    1.86
  -6  -5  24    2.95    1.90
   6  -5 -24    6.95    2.29
  -6   5  24    7.77    2.42
   5  -5 -24   49.45    4.25
  -5  -5  24   50.13    4.28
  -5   5  24   49.56    4.41
  -4  -5  24    2.22    1.61
   4  -5 -24    1.81    1.64
   3  -5 -24    9.51    2.05
  -3  -5  24   10.53    2.36
  -2  -5  24   -1.86    1.45
   2  -5 -24    0.21    1.32
   1  -5 -24   32.16    3.08
  -1  -5  24   32.68    3.64
   0  -5 -24   11.53    1.98
   0  -5  24   10.69    2.55
   0   5 -24    9.59    1.34
   0   5  24   13.86    2.21
  -1  -5 -24   18.64    2.37
   1  -5  24   20.77    3.18
   1   5  24   17.03    2.56
  -1   5 -24   22.83    1.81
  -2  -5 -24    2.91    1.43
   2  -5  24    0.20    1.98
   2   5  24    5.20    1.95
  -2   5 -24    3.51    1.07
   3  -5  24   18.10    3.41
  -3  -5 -24   12.37    2.12
  -3   5 -24   14.13    1.56
   3   5  24   17.29    2.85
   4  -5  24    1.52    2.31
  -4  -5 -24    0.32    1.34
   4   5  24    0.75    1.62
  -4   5 -24    3.26    1.14
  -5  -5 -24   -0.30    1.33
   5  -5  24    2.43    2.41
   5   5  24   -0.90    1.89
   6  -5  24    0.18    2.26
  -6  -5 -24   -1.16    1.45
   6   5  24   -0.92    1.95
  -7  -5 -24    0.24    1.73
   7  -5  24    0.88    2.35
   7   5  24    0.38    2.32
   8   5  24    2.73    2.62
  -6  -6  24   -1.13    1.76
  -6   6  24    3.75    2.21
  -5  -6  24    6.29    2.28
   5  -6 -24    8.55    2.33
  -5   6  24    6.93    2.51
  -4  -6  24   -0.87    1.56
   4  -6 -24    0.86    1.70
   3  -6 -24   16.63    2.68
  -3  -6  24   20.67    3.09
   2  -6 -24    4.08    1.82
  -2  -6  24    3.44    2.12
  -1  -6  24    8.36    2.46
   1  -6 -24    7.61    1.95
   0  -6 -24    3.23    1.65
   0  -6  24    3.65    2.37
   0   6  24    4.48    1.88
   1  -6  24   32.01    4.29
  -1  -6 -24   30.37    3.10
   1   6  24   36.04    3.67
  -2  -6 -24   -0.74    1.23
   2  -6  24    0.33    2.11
   2   6  24   -0.75    1.51
  -3  -6 -24   -1.54    1.32
   3  -6  24   -0.27    2.20
   3   6  24    0.87    1.97
   4  -6  24    5.46    2.85
  -4  -6 -24   -1.50    1.32
   4   6  24   -0.49    1.94
  -5  -6 -24   32.58    3.36
   5  -6  24   23.10    4.04
   5   6  24   25.54    3.84
   6  -6  24    0.49    2.42
  -6  -6 -24    3.89    2.10
   6   6  24   -1.43    2.16
   7   6  24    3.17    2.67
  -7  -7  24   -2.32    2.06
  -6  -7  24    6.32    2.51
  -5  -7  24    0.36    2.07
   5  -7 -24   -1.63    1.82
  -5   7  24   -0.50    1.90
   4  -7 -24    1.36    1.99
  -4  -7  24    2.88    2.20
  -3  -7  24    0.78    2.02
   3  -7 -24    5.31    2.13
  -2  -7  24   -0.93    1.95
   2  -7 -24    4.10    1.93
   1  -7 -24   -2.40    1.45
  -1  -7  24   -1.18    1.89
   0  -7  24   17.83    3.79
   0  -7 -24   17.63    2.74
  -1  -7 -24   -0.24    1.52
   1  -7  24    2.85    2.59
   1   7  24    0.23    1.81
   2  -7  24    1.33    2.66
  -2  -7 -24    0.78    1.59
   2   7  24    5.36    2.30
  -3  -7 -24    2.83    1.80
   3  -7  24    1.63    2.52
   3   7  24   -3.26    1.65
   4  -7  24   10.54    3.41
  -4  -7 -24   10.01    2.42
   4   7  24    9.91    2.86
   5  -7  24    0.31    2.49
   5   7  24    0.65    2.35
   6   7  24    5.99    2.87
  -5  -8  24    3.83    2.65
  -4  -8  24    5.18    2.74
  -3  -8  24    0.25    2.36
  -2  -8  24    5.71    2.92
  -1  -8  24    3.32    2.73
   0  -8  24   12.20    3.41
   1  -8  24   -1.17    2.52
   2  -8  24    0.91    2.77
   2   8  24   -0.95    2.04
   3  -8  24   -1.43    2.83
   3   8  24   -2.16    2.02
   4  -8  24    6.00    3.27
   4   8  24    4.67    2.57
 -11   0  25    1.37    2.13
  10   0 -25   -1.13    1.08
 -10   0  25   -1.59    1.87
  -9   0  25   25.07    3.17
   9   0 -25   29.22    2.39
  -8   0  25    0.94    1.78
   8   0 -25   -1.16    1.22
   7   0 -25    2.86    1.41
  -7   0  25    3.34    1.88
   6   0 -25    0.63    1.26
  -6   0  25    0.08    1.49
  -6   0  25   -1.18    1.23
  -5   0  25   45.54    3.06
   5   0 -25   49.69    2.86
  -5   0  25   45.48    3.43
  -4   0  25   -0.56    1.15
   4   0 -25   -0.14    1.06
   4   0 -25   -2.08    0.92
  -3   0  25   38.60    2.53
   3   0 -25   48.09    2.59
  -3   0  25   42.07    2.81
   3   0 -25   44.79    2.56
  -2   0  25   -0.38    0.96
   2   0 -25    0.26    0.92
  -2   0  25    1.73    1.08
   2   0 -25    0.45    0.89
  -1   0  25    6.98    1.49
   1   0 -25    6.57    1.11
  -1   0  25    6.82    1.38
   0   0 -25    0.85    0.79
   0   0  25   -0.46    1.01
   0   0  25    0.00    0.88
   0   0 -25   -0.44    0.67
  -1   0 -25  139.03    4.56
  -1   0 -25  125.09    4.57
   1   0  25  133.19    4.85
   1   0  25  128.62    5.56
   2   0  25   -1.13    1.18
   2   0  25    0.76    1.01
  -2   0 -25   -0.98    0.74
  -2   0 -25   -0.93    0.78
   3   0  25   19.48    2.07
  -3   0 -25   17.18    1.85
  -3   0 -25   16.96    1.68
   3   0  25   13.40    2.42
   4   0  25   -0.96    1.64
   4   0  25   -1.76    1.03
  -4   0 -25   -0.04    0.88
  -4   0 -25    0.16    0.91
  -5   0 -25   39.63    3.12
  -5   0 -25   38.49    2.62
   5   0  25   43.49    4.53
   5   0  25   44.96    3.09
  -5   0 -25   46.10    2.23
  -6   0 -25   -0.76    1.08
  -6   0 -25    0.12    0.93
   6   0  25   -0.39    1.71
   6   0  25   -1.45    1.42
  -6   0 -25   -0.86    1.14
   7   0  25   -0.23    1.55
  -7   0 -25    0.66    1.41
  -7   0 -25   -0.39    1.03
  -7   0 -25    0.00    1.23
   7   0  25    0.57    1.82
   8   0  25    1.75    2.05
   8   0  25    1.19    1.63
  -8   0 -25   -0.59    1.27
  -8   0 -25    2.50    1.72
   9   0  25    5.16    2.04
  -9   0 -25    4.08    1.72
   9   0  25    6.85    2.52
  -9   0 -25    7.03    2.24
  10   0  25   -0.47    1.74
 -10   0 -25    1.21    1.72
 -11  -1  25    0.82    1.91
  11   1 -25    2.21    1.57
 -10  -1  25    2.01    2.00
  10   1 -25    0.23    1.49
  -9  -1  25   -0.04    1.74
   9   1 -25   -0.30    1.54
  -8  -1  25    0.40    1.51
  -8   1  25   -1.64    1.52
   8   1 -25    0.26    1.54
   7  -1 -25    2.44    0.99
  -7  -1  25    5.29    1.90
  -7   1  25    4.06    1.83
   7   1 -25    2.24    1.55
  -6  -1  25    2.45    1.65
   6  -1 -25    1.62    1.09
  -6   1  25    4.50    1.76
   6   1 -25    2.08    1.56
   5  -1 -25    6.62    1.67
  -5  -1  25    2.54    1.58
   5  -1 -25    2.95    1.09
   5   1 -25    3.95    1.51
  -5   1  25    3.64    1.44
   4  -1 -25    6.74    1.51
  -4  -1  25    9.49    1.50
   4  -1 -25   10.75    1.45
  -4  -1  25    4.45    1.47
   4   1 -25    7.36    1.47
   3  -1 -25   40.73    2.61
  -3  -1  25   47.68    3.05
  -3  -1  25   41.74    2.68
   3  -1 -25   44.54    2.36
   3   1 -25   41.04    2.53
  -2  -1  25    6.48    1.47
   2  -1 -25    5.05    1.13
  -2  -1  25    3.99    1.38
   2  -1 -25    5.88    1.26
  -2   1  25    5.98    1.42
  -1  -1  25    4.99    1.44
   1  -1 -25    4.57    1.12
  -1  -1  25    4.98    1.38
   1  -1 -25    5.24    1.04
  -1   1  25    2.91    1.25
   1   1 -25    6.41    1.05
  -1   1  25    5.86    1.28
   0  -1  25   41.92    2.95
   0  -1 -25   45.13    2.51
   0  -1  25   45.28    2.74
   0   1  25   48.86    2.65
   0   1 -25   44.31    2.22
   0   1 -25   48.89    2.47
   0   1  25   45.53    3.02
   1  -1  25   33.36    2.35
   1  -1  25   42.67    3.50
  -1  -1 -25   34.18    2.15
  -1   1 -25   34.02    2.08
   1   1  25   34.95    2.34
   1   1  25   35.49    3.20
  -1   1 -25   36.75    2.08
   2  -1  25   24.99    2.97
   2  -1  25   24.98    2.18
  -2  -1 -25   22.58    1.75
  -2  -1 -25   26.94    2.21
   2   1  25   26.54    2.26
  -2   1 -25   20.00    1.55
  -2   1 -25   24.99    1.78
   2   1  25   25.17    2.88
  -2   1 -25   24.61    1.99
  -3  -1 -25    4.71    1.02
   3  -1  25    2.87    1.23
   3  -1  25    4.88    1.97
  -3  -1 -25    6.50    1.38
   3   1  25    8.90    1.58
  -3   1 -25    3.66    0.92
  -3   1 -25    3.35    1.12
   3   1  25    3.17    1.79
  -3   1 -25    5.55    1.16
   4  -1  25   12.09    1.87
   4  -1  25   15.49    2.81
  -4  -1 -25   10.19    1.45
  -4  -1 -25    9.28    1.70
   4   1  25   11.38    1.83
   4   1  25   14.00    2.62
  -4   1 -25   13.99    1.67
  -4   1 -25   12.02    1.34
  -4   1 -25   14.54    1.78
   5  -1  25   -1.47    1.82
  -5  -1 -25    2.67    1.30
   5  -1  25    2.46    1.48
  -5  -1 -25    2.52    1.11
  -5   1 -25    3.44    1.18
   5   1  25    3.26    1.45
  -5   1 -25    1.58    0.96
   5   1  25    4.07    2.20
  -5   1 -25    0.90    1.17
   6  -1  25   18.33    3.34
   6  -1  25   16.74    2.32
  -6  -1 -25   13.81    2.13
  -6  -1 -25   16.63    1.89
  -6   1 -25   19.49    2.19
  -6   1 -25   19.80    1.79
   6   1  25   16.77    3.27
  -6   1 -25   15.84    2.19
   6   1  25   19.52    2.47
  -7  -1 -25    6.76    1.99
  -7  -1 -25    7.96    1.66
   7  -1  25    9.53    2.09
   7  -1  25    7.83    2.67
   7   1  25    5.66    2.63
  -7   1 -25    5.94    1.72
   7   1  25    6.76    2.05
  -7   1 -25    7.84    1.93
  -7   1 -25    3.48    1.23
   8  -1  25    3.16    1.82
  -8  -1 -25   -0.77    1.28
  -8  -1 -25   -1.25    1.40
   8  -1  25   -1.77    1.94
   8   1  25    2.37    2.19
  -8   1 -25    2.98    1.72
  -8   1 -25   -1.43    1.37
  -8   1 -25    0.44    1.18
   8   1  25    1.08    1.74
  -9  -1 -25    3.11    2.03
  -9  -1 -25    2.66    1.65
   9  -1  25    1.95    1.67
   9  -1  25   -0.55    2.03
  -9   1 -25    3.82    2.03
  -9   1 -25   -0.73    1.53
   9   1  25    4.14    2.02
  -9   1 -25    2.21    1.40
   9   1  25    2.71    2.34
  10  -1  25    0.47    1.51
 -10  -1 -25    0.38    1.61
 -10   1 -25    2.24    1.93
  10   1  25    2.23    2.25
  10   1  25   -1.47    1.79
 -11  -2  25    0.39    1.77
  11   2 -25    0.68    1.79
 -10  -2  25    8.26    2.17
  10   2 -25    6.96    2.13
 -10   2  25    7.01    2.55
  -9  -2  25    3.55    1.84
   9   2 -25    1.46    1.77
  -9   2  25    4.34    2.13
  -8  -2  25    4.85    1.88
   8   2 -25    8.23    2.11
  -8   2  25    7.04    2.20
  -7  -2  25    1.85    1.62
   7   2 -25    0.86    1.57
  -7   2  25    2.99    1.77
  -6  -2  25    5.47    1.77
  -6   2  25    0.85    1.57
   6   2 -25    4.30    1.64
  -5  -2  25    1.38    1.49
   5  -2 -25   -0.54    1.20
   5   2 -25    2.18    1.34
  -5   2  25    2.50    1.44
  -4  -2  25   38.13    2.74
   4  -2 -25   35.97    3.05
  -4  -2  25   47.79    3.10
   4   2 -25   38.54    2.63
  -3  -2  25   -0.06    1.23
  -3  -2  25   -1.11    0.95
   3  -2 -25    1.68    1.12
   3   2 -25   -1.22    0.91
  -2  -2  25    4.46    1.50
  -2  -2  25    5.16    1.50
   2  -2 -25    1.68    1.03
  -2   2  25    1.93    1.17
  -1  -2  25    1.41    1.16
  -1  -2  25   -0.46    1.02
   1  -2 -25   -0.57    0.89
   1   2 -25    0.26    0.87
  -1   2  25    2.84    1.27
   0  -2  25   46.32    2.81
   0  -2 -25   46.40    1.89
   0  -2 -25   40.67    2.53
   0  -2  25   46.09    3.31
   0   2  25   45.30    3.05
   0   2 -25   45.14    2.47
   1  -2  25    1.62    1.21
  -1  -2 -25    0.44    0.73
   1  -2  25    0.38    1.34
  -1  -2 -25    1.02    0.99
   1   2  25    0.34    1.28
  -1   2 -25    0.27    0.91
  -1   2 -25   -0.83    0.67
   2  -2  25   44.56    2.78
  -2  -2 -25   41.75    2.75
   2  -2  25   45.60    3.99
  -2   2 -25   41.29    2.42
  -2   2 -25   42.23    2.17
   2   2  25   45.45    3.84
  -3  -2 -25    0.54    0.77
   3  -2  25    0.32    1.25
   3  -2  25    1.84    1.84
  -3  -2 -25   -0.29    1.01
  -3   2 -25    2.17    0.89
  -3   2 -25    0.17    0.85
   3   2  25   -0.52    1.59
  -3   2 -25    0.81    0.99
  -4  -2 -25   11.83    1.81
   4  -2  25   11.76    2.64
  -4  -2 -25   14.17    1.45
   4  -2  25   12.40    1.92
  -4   2 -25   13.13    1.44
  -4   2 -25   12.85    1.67
  -4   2 -25   12.73    1.67
   4   2  25   14.39    2.84
   5  -2  25    3.24    2.25
  -5  -2 -25    4.17    1.43
  -5  -2 -25    2.13    1.04
   5  -2  25    3.97    1.60
  -5   2 -25    4.53    1.41
  -5   2 -25    5.11    1.18
  -5   2 -25    3.21    1.25
   5   2  25    6.00    2.19
  -6  -2 -25   42.03    2.40
  -6  -2 -25   36.74    3.45
   6  -2  25   43.83    4.71
   6  -2  25   42.22    3.20
   6   2  25   39.14    3.42
   6   2  25   44.43    4.73
  -6   2 -25   40.05    2.43
  -6   2 -25   42.16    2.96
  -6   2 -25   41.16    3.12
   7  -2  25   -1.60    1.43
   7  -2  25   -2.04    1.81
  -7  -2 -25   -0.13    1.47
  -7  -2 -25   -1.02    1.14
   7   2  25    3.79    2.34
  -7   2 -25   -0.15    1.33
  -7   2 -25    0.31    1.09
  -7   2 -25   -0.63    1.36
   7   2  25    2.07    1.70
   8  -2  25    2.71    2.29
  -8  -2 -25    0.13    1.55
  -8  -2 -25    5.13    1.53
   8  -2  25    1.69    1.60
   8   2  25    2.23    1.80
  -8   2 -25    0.40    1.20
  -8   2 -25    3.56    1.78
   8   2  25    1.15    2.19
  -8   2 -25    1.86    1.56
  -9  -2 -25   -0.22    1.40
   9  -2  25   -0.63    1.22
   9   2  25   -0.15    2.13
   9   2  25   -0.69    1.82
  -9   2 -25   -1.41    1.48
  -9   2 -25   -1.83    1.68
  -9   2 -25    0.84    1.37
 -10  -2 -25   23.21    2.22
  10   2  25   22.72    3.12
  10   2  25   27.36    4.07
 -10   2 -25   20.05    2.88
 -10  -3  25    2.32    1.73
  10   3 -25    0.62    1.88
  -9  -3  25    0.14    1.61
  -9   3  25   -0.77    1.88
   9   3 -25    1.36    1.85
  -8  -3  25    0.21    1.60
   8   3 -25   -0.77    1.64
  -8   3  25   -0.91    1.91
  -7  -3  25    7.20    1.92
  -7   3  25   11.54    2.51
   7   3 -25    8.42    2.14
  -6  -3  25    1.10    1.54
   6  -3 -25    1.31    1.61
   6   3 -25    2.66    1.63
  -6   3  25    0.77    1.55
  -5  -3  25   16.91    2.29
  -5  -3  25   20.52    2.46
   5  -3 -25   18.84    2.58
   5   3 -25   20.89    2.40
  -4  -3  25    5.48    1.69
   4  -3 -25    6.21    1.65
  -4  -3  25    7.97    1.80
   4   3 -25    9.05    1.72
  -3  -3  25   50.52    3.32
   3  -3 -25   52.45    3.28
  -3  -3  25   50.09    3.30
   3   3 -25   50.91    2.91
  -2  -3  25    4.19    1.48
   2  -3 -25   -0.99    1.03
  -2  -3  25    1.28    1.39
  -1  -3  25    9.13    1.72
  -1  -3  25    3.84    1.65
   1  -3 -25    8.64    1.55
  -1   3  25    6.89    1.67
   1   3 -25    6.88    1.36
   0  -3 -25    3.45    1.22
   0  -3  25    4.90    1.74
   0  -3  25    3.27    1.47
   0   3 -25    1.09    0.82
   0   3  25    2.71    1.45
   0   3 -25    1.44    1.00
   1  -3  25   65.82    3.41
  -1  -3 -25   64.66    3.45
   1  -3  25   65.18    4.21
  -1   3 -25   56.18    2.58
   1   3  25   55.01    3.71
   2  -3  25    3.42    1.43
  -2  -3 -25    2.95    1.25
   2  -3  25    4.48    1.83
  -2   3 -25    1.59    0.86
   2   3  25    4.09    1.68
   3  -3  25   -1.45    1.24
  -3  -3 -25    0.88    1.20
   3  -3  25   -0.60    1.62
  -3   3 -25    1.57    0.87
   3   3  25    0.67    1.58
   4  -3  25    8.52    2.60
  -4  -3 -25    4.83    1.50
   4  -3  25    6.83    1.62
  -4   3 -25    5.04    1.14
   4   3  25    3.63    2.05
   5  -3  25    0.29    1.31
  -5  -3 -25    2.85    1.53
   5  -3  25    6.32    2.46
  -5   3 -25    1.84    1.04
   5   3  25    4.25    2.13
  -6  -3 -25   12.84    2.17
   6  -3  25   13.39    3.24
   6  -3  25   10.27    1.46
   6   3  25   10.56    2.90
  -6   3 -25    9.25    1.45
  -7  -3 -25   10.54    2.26
   7  -3  25    7.97    2.75
  -7   3 -25    8.20    1.48
   7   3  25    8.77    2.70
   8  -3  25    2.40    2.36
  -8  -3 -25   -0.32    1.46
   8   3  25   -0.97    2.00
  -8   3 -25    0.87    1.26
   9   3  25   -1.86    2.05
   9   3  25    3.45    2.21
 -10  -4  25    1.15    1.37
  10   4 -25   -3.06    1.85
  -9  -4  25   14.97    2.03
   9   4 -25   15.84    2.86
  -8  -4  25   -0.37    1.49
   8   4 -25    1.13    1.95
  -8   4  25    1.79    2.25
  -7  -4  25    5.20    1.71
   7   4 -25    2.14    1.84
  -7   4  25    4.37    2.22
  -6  -4  25    1.73    1.56
  -6  -4  25    2.59    1.71
   6  -4 -25    2.67    1.81
   6   4 -25    1.68    1.59
  -6   4  25    0.36    1.74
   5  -4 -25   17.12    2.58
  -5  -4  25   20.23    2.23
  -5  -4  25   15.77    2.38
  -4  -4  25    0.58    1.43
  -4  -4  25   -0.95    1.25
   4  -4 -25   -0.16    1.38
  -3  -4  25   35.29    2.44
  -3  -4  25   36.35    3.42
   3  -4 -25   32.94    3.02
  -2  -4  25    4.80    1.30
  -2  -4  25    4.09    1.72
   2  -4 -25    4.84    1.54
  -1  -4  25    3.45    1.10
  -1  -4  25    2.00    1.48
   1  -4 -25    1.64    1.18
  -1   4  25    2.44    1.40
   0  -4 -25    0.83    1.22
   0  -4  25    3.31    1.79
   0   4 -25    2.78    0.98
   0   4  25    0.95    1.42
  -1  -4 -25   58.28    3.50
   1  -4  25   59.46    4.92
  -1   4 -25   57.72    2.60
   1   4  25   53.24    3.73
   2  -4  25    5.23    2.35
  -2  -4 -25    1.50    1.29
   2   4  25    2.26    1.67
  -2   4 -25    2.97    0.99
  -3  -4 -25    4.55    1.43
   3  -4  25    7.88    2.68
  -3   4 -25    5.81    1.18
   3   4  25    7.41    2.20
   4  -4  25    0.97    2.24
  -4  -4 -25    5.85    1.61
   4   4  25    5.29    2.18
  -4   4 -25    2.81    1.05
   5  -4  25   29.78    4.34
  -5  -4 -25   28.53    2.99
  -5   4 -25   29.82    2.24
   5   4  25   28.02    3.86
  -6  -4 -25   -0.43    1.33
   6  -4  25    0.73    2.38
  -6   4 -25   -0.34    1.06
   6   4  25    1.76    2.15
  -7  -4 -25    0.99    1.43
   7  -4  25   -2.18    2.28
  -7   4 -25   -1.44    1.08
   7   4  25    3.02    2.35
  -8   4 -25    1.81    1.31
   8   4  25    0.93    2.21
   9   4  25    3.44    2.63
   9   5 -25   -0.02    2.24
  -7   5  25    3.33    2.17
   6  -5 -25    3.60    2.00
  -6  -5  25    0.95    1.73
  -6   5  25    0.36    1.88
   5  -5 -25    5.07    1.90
  -5  -5  25    2.41    1.85
  -5   5  25    5.27    2.13
   4  -5 -25    2.54    1.65
  -4  -5  25    1.30    1.60
  -3  -5  25    2.64    1.85
   3  -5 -25    1.87    1.62
  -2  -5  25    1.87    1.72
   2  -5 -25    2.08    1.46
  -1  -5  25   -1.27    1.47
   1  -5 -25   -0.27    1.20
   0  -5  25   37.09    3.92
   0  -5 -25   30.47    2.94
   0   5  25   36.41    3.32
   0   5 -25   30.60    2.19
   1  -5  25   -2.47    1.54
  -1  -5 -25    1.29    1.27
  -1   5 -25    1.97    1.00
   1   5  25    0.17    1.48
   2  -5  25   17.93    3.45
  -2  -5 -25   16.19    2.24
   2   5  25   15.10    2.69
  -2   5 -25   16.84    1.68
   3  -5  25   13.31    3.33
  -3  -5 -25   11.13    1.97
   3   5  25    7.70    2.28
  -3   5 -25   15.41    1.66
   4  -5  25    7.10    2.85
  -4  -5 -25    6.77    1.80
   4   5  25    6.73    2.46
  -4   5 -25    8.83    1.43
  -5  -5 -25   -0.26    1.39
   5  -5  25   -1.01    2.15
  -5   5 -25   -0.20    1.01
   5   5  25    2.02    2.18
  -6  -5 -25    6.30    1.98
   6  -5  25   10.79    3.13
  -6   5 -25   12.00    1.70
   6   5  25    5.58    2.75
  -7  -5 -25    1.34    1.84
   7  -5  25    3.59    2.71
   7   5  25    1.35    2.41
  -7   5 -25    3.23    1.40
   8   5  25    1.38    2.48
  -6  -6  25    1.17    1.99
  -6   6  25    0.82    2.13
  -5  -6  25    4.72    2.18
   5  -6 -25    2.27    2.00
  -5   6  25    1.26    2.01
   4  -6 -25   13.56    2.63
  -4  -6  25   16.47    2.85
   3  -6 -25    4.60    1.94
  -3  -6  25    0.24    1.75
   2  -6 -25   -1.58    1.39
  -2  -6  25    1.09    1.93
  -1  -6  25   -1.23    1.84
   1  -6 -25   -0.52    1.25
   0  -6 -25   19.36    2.69
   0  -6  25   19.13    3.53
   0   6  25   20.98    2.80
  -1  -6 -25   -0.71    1.32
   1  -6  25    1.49    2.09
   1   6  25   -0.09    1.67
  -2  -6 -25   10.34    2.06
   2  -6  25    9.19    3.13
   2   6  25   11.13    2.57
  -3  -6 -25    5.07    1.76
   3  -6  25    6.50    3.03
   3   6  25    3.25    2.13
  -4  -6 -25    5.92    1.85
   4  -6  25    0.58    2.51
   4   6  25    4.16    2.18
   5  -6  25    6.93    3.12
  -5  -6 -25   10.22    2.27
   5   6  25    8.71    2.86
   6  -6  25    9.60    3.16
   6   6  25   11.90    3.14
  -6   6 -25   10.97    1.86
   7   6  25    0.44    2.48
  -6  -7  25   -0.84    1.93
  -5  -7  25   10.38    2.81
  -4  -7  25    3.66    2.37
   4  -7 -25    0.37    1.80
   3  -7 -25    8.06    2.43
  -3  -7  25   16.15    3.20
   2  -7 -25   -1.06    1.62
  -2  -7  25    1.03    2.15
   1  -7 -25    2.89    1.87
  -1  -7  25    1.90    2.21
   0  -7 -25   -0.62    1.60
   0  -7  25    0.96    2.33
  -1  -7 -25   19.03    2.84
   1  -7  25   12.65    3.45
   1   7  25   15.44    2.81
  -2  -7 -25   -0.85    1.54
   2  -7  25    0.42    2.48
   2   7  25    1.60    1.90
  -3  -7 -25    0.33    1.70
   3  -7  25   -0.65    2.67
   3   7  25    1.70    2.25
   4  -7  25   -2.69    2.38
   4   7  25   -0.30    2.05
   5  -7  25    0.51    2.79
   5   7  25    0.26    2.31
  -4  -8  25    0.81    2.29
  -3  -8  25   10.43    3.09
  -2  -8  25    1.09    2.56
  -1  -8  25    1.43    2.52
   0  -8  25    0.29    2.58
   1  -8  25    9.46    3.30
   2  -8  25    3.06    2.97
   2   8  25    2.11    2.25
   3  -8  25    2.59    2.94
   3   8  25   -1.20    2.25
 -11   0  26    1.13    2.10
  10   0 -26   17.00    1.63
 -10   0  26   14.73    2.79
  -9   0  26   -2.01    1.70
   9   0 -26    0.84    1.29
   8   0 -26   11.57    1.84
  -8   0  26   17.32    2.78
  -7   0  26    0.88    1.77
   7   0 -26    2.27    1.40
   6   0 -26   16.24    2.10
  -6   0  26   18.87    2.57
   5   0 -26   -0.79    1.11
  -5   0  26    0.53    1.36
  -5   0  26    1.24    1.25
   4   0 -26    9.99    1.69
   4   0 -26    9.15    1.64
  -4   0  26   12.27    1.93
  -3   0  26   -0.65    1.11
   3   0 -26    1.16    1.05
  -3   0  26    0.35    1.08
   3   0 -26    1.25    0.99
   2   0 -26   25.48    2.03
  -2   0  26   25.19    2.36
   2   0 -26   22.87    2.01
  -2   0  26   22.23    2.23
  -1   0  26    0.26    1.04
   1   0 -26    0.18    0.78
  -1   0  26    1.50    1.14
   0   0 -26   46.12    2.46
   0   0  26   41.19    2.70
   0   0  26   45.70    3.00
   1   0  26    3.03    1.36
   1   0  26   -1.14    0.91
  -1   0 -26    2.25    0.89
  -1   0 -26    1.35    0.92
  -2   0 -26   38.50    2.27
  -2   0 -26   35.49    2.16
   2   0  26   34.80    2.44
   2   0  26   36.88    3.51
  -3   0 -26   -0.28    0.88
  -3   0 -26    0.01    0.91
   3   0  26   -0.12    1.05
   3   0  26    1.56    1.59
   4   0  26    3.40    2.07
  -4   0 -26    5.27    1.38
   4   0  26    7.48    1.65
  -4   0 -26    6.35    1.32
   5   0  26   -1.41    1.74
  -5   0 -26   -0.73    1.11
   5   0  26   -2.09    1.17
  -5   0 -26   -1.48    0.98
  -6   0 -26   40.32    2.79
  -6   0 -26   36.83    2.16
   6   0  26   39.90    3.41
   6   0  26   38.51    4.39
  -6   0 -26   36.17    3.17
  -7   0 -26   -0.23    1.24
   7   0  26    0.46    1.62
  -7   0 -26   -0.98    1.38
   7   0  26    1.77    1.96
  -8   0 -26   16.34    2.24
   8   0  26   14.12    2.53
  -8   0 -26    4.94    2.04
   8   0  26   13.51    2.98
  -9   0 -26    0.16    1.76
   9   0  26    1.84    2.25
   9   0  26    0.09    1.70
  -9   0 -26    0.03    1.53
 -10   0 -26    8.60    2.11
  10   0  26   10.23    2.36
 -11  -1  26    4.88    2.18
  11   1 -26    1.36    1.54
 -10  -1  26    3.15    2.21
  10   1 -26    4.28    1.72
  -9  -1  26    4.07    1.94
   9   1 -26    3.97    1.78
  -8  -1  26    6.40    1.94
   8   1 -26    2.77    1.68
  -8   1  26    5.51    2.22
  -7  -1  26   14.28    2.46
   7  -1 -26   15.03    1.39
  -7   1  26   11.38    2.34
   7   1 -26    9.13    2.02
   6  -1 -26    4.73    1.20
  -6  -1  26   -0.55    1.54
  -6   1  26    6.54    1.91
   6   1 -26    6.59    1.82
  -5  -1  26    3.59    1.62
   5  -1 -26    5.18    1.70
   5  -1 -26    2.04    1.06
  -5   1  26    2.22    1.42
   5   1 -26    1.14    1.37
   4  -1 -26    2.91    1.13
  -4  -1  26    4.67    1.55
   4  -1 -26    4.43    1.42
   4   1 -26    3.36    1.36
  -3  -1  26   73.98    3.80
   3  -1 -26   88.51    3.84
   3  -1 -26   81.53    3.33
  -3  -1  26   84.84    4.08
   3   1 -26   81.97    3.66
  -2  -1  26    7.71    1.62
   2  -1 -26   10.28    1.50
   2  -1 -26    7.07    1.26
  -2  -1  26    5.76    1.49
  -2   1  26    7.55    1.52
   2   1 -26    8.82    1.41
   1  -1 -26    1.84    0.99
   1  -1 -26    1.73    0.93
  -1  -1  26   -0.67    1.11
  -1  -1  26    0.53    1.05
   1   1 -26    1.05    0.78
  -1   1  26    0.17    1.08
   0  -1 -26    0.14    0.80
   0  -1 -26    0.91    0.89
   0  -1  26    0.58    1.01
   0  -1  26    1.19    1.28
   0   1 -26   -0.42    0.83
   0   1 -26    0.12    0.72
   0   1  26    1.35    1.23
   0   1  26   -0.71    0.96
  -1  -1 -26   38.67    2.37
   1  -1  26   35.79    2.43
   1  -1  26   30.41    3.07
   1   1  26   27.97    2.92
  -1   1 -26   33.25    2.06
  -1   1 -26   34.53    2.19
   1   1  26   35.73    2.60
  -2  -1 -26   54.77    3.02
  -2  -1 -26   59.44    2.68
   2  -1  26   62.48    3.14
   2  -1  26   60.40    4.00
   2   1  26   59.69    3.16
   2   1  26   58.26    3.89
  -2   1 -26   59.61    2.76
  -2   1 -26   54.38    2.88
   3  -1  26   -0.49    1.44
   3  -1  26    3.12    1.26
  -3  -1 -26    1.72    1.11
  -3  -1 -26    1.66    0.89
  -3   1 -26    2.95    1.08
  -3   1 -26    0.50    0.82
  -3   1 -26    4.47    1.16
   3   1  26    3.24    1.31
   3   1  26    4.09    1.96
   4  -1  26   -1.47    1.60
  -4  -1 -26    0.73    1.15
   4  -1  26    0.41    1.26
  -4  -1 -26    0.23    0.99
   4   1  26   -0.11    1.75
   4   1  26    0.66    1.28
  -4   1 -26    0.45    0.84
  -4   1 -26    2.38    1.15
  -4   1 -26   -0.14    0.98
  -5  -1 -26    1.09    1.02
  -5  -1 -26    2.20    1.25
   5  -1  26   -0.07    1.40
   5  -1  26    0.94    1.94
  -5   1 -26    2.01    1.22
   5   1  26   -1.11    1.75
  -5   1 -26    1.37    1.19
  -5   1 -26    0.63    0.89
   5   1  26    1.58    1.46
   6  -1  26   23.19    2.69
   6  -1  26   26.66    3.85
  -6  -1 -26   19.72    2.49
  -6  -1 -26   18.77    2.08
   6   1  26   25.33    2.85
  -6   1 -26   20.05    2.37
  -6   1 -26   24.98    2.41
  -6   1 -26   17.74    1.79
   6   1  26   21.19    3.60
   7  -1  26   14.72    2.35
   7  -1  26   12.12    3.00
  -7  -1 -26   15.31    2.02
  -7  -1 -26   13.38    2.40
  -7   1 -26   13.15    2.29
  -7   1 -26   13.10    2.03
   7   1  26   18.11    2.63
  -7   1 -26   14.86    1.74
   7   1  26   16.67    3.39
  -8  -1 -26    6.04    1.68
   8  -1  26    8.21    2.78
  -8  -1 -26    4.50    1.86
   8  -1  26    3.59    1.88
  -8   1 -26    1.72    1.79
  -8   1 -26    4.37    1.42
   8   1  26    1.62    2.26
   8   1  26    8.51    2.23
  -8   1 -26    6.40    1.81
   9  -1  26   -0.45    1.56
  -9  -1 -26   -0.62    1.48
   9  -1  26    1.33    2.26
  -9   1 -26   -0.34    1.49
  -9   1 -26    0.30    1.41
   9   1  26    1.75    1.86
  -9   1 -26   -0.47    1.71
   9   1  26   -0.30    2.07
 -10  -1 -26    2.14    1.70
  10  -1  26    2.02    1.66
  10   1  26   -2.80    1.67
  10   1  26    2.33    2.15
 -10   1 -26    2.85    1.88
 -10  -2  26    0.67    1.68
  10   2 -26    2.98    1.92
  -9  -2  26    4.43    2.00
  -9   2  26    6.96    2.50
   9   2 -26    6.17    2.07
  -8  -2  26    2.08    1.71
   8   2 -26   -0.45    1.59
  -8   2  26   -1.15    1.74
  -7  -2  26    0.11    1.51
   7   2 -26    2.00    1.63
  -7   2  26    0.04    1.72
  -6  -2  26    2.86    1.68
  -6   2  26    4.22    1.78
   6   2 -26    1.44    1.59
   5  -2 -26   11.40    2.06
  -5  -2  26   14.22    2.22
   5   2 -26    9.53    1.83
  -5   2  26   11.57    2.01
  -4  -2  26   -2.28    1.23
   4  -2 -26    1.35    1.25
  -4  -2  26    1.68    1.25
   4   2 -26    0.10    1.12
  -3  -2  26   18.45    2.24
  -3  -2  26   20.13    2.32
   3  -2 -26   24.79    2.38
   3   2 -26   19.85    2.06
  -2  -2  26   -1.04    1.18
   2  -2 -26    1.33    1.07
  -2  -2  26    0.82    1.19
  -2   2  26    2.51    1.19
  -1  -2  26   23.34    2.59
   1  -2 -26   24.17    2.22
  -1  -2  26   27.40    2.46
  -1   2  26   28.69    2.65
   1   2 -26   22.66    2.09
   0  -2 -26   -0.10    0.66
   0  -2  26   -1.04    1.12
   0  -2 -26    0.48    0.96
   0  -2  26    0.77    1.14
   0   2 -26    0.68    0.91
   0   2  26   -0.58    1.15
   1  -2  26   20.91    2.16
  -1  -2 -26   19.21    2.03
  -1  -2 -26   22.47    1.47
   1  -2  26   18.55    2.61
  -1   2 -26   15.23    1.76
   1   2  26   16.79    2.44
  -1   2 -26   20.17    1.61
   2  -2  26    4.09    1.83
  -2  -2 -26    1.93    1.07
   2  -2  26    7.52    1.61
  -2   2 -26    3.09    0.93
   2   2  26    3.31    1.67
  -2   2 -26    5.16    1.26
   3  -2  26   38.67    4.03
  -3  -2 -26   31.69    2.72
   3  -2  26   34.74    2.83
   3   2  26   33.98    3.62
  -3   2 -26   44.27    2.41
  -3   2 -26   41.13    2.49
  -3   2 -26   36.48    2.09
   4  -2  26    0.40    1.89
  -4  -2 -26    0.03    0.86
  -4  -2 -26   -0.95    1.04
   4  -2  26   -0.40    1.33
  -4   2 -26    0.41    1.00
   4   2  26   -1.65    1.65
  -4   2 -26    0.77    0.85
  -4   2 -26    0.69    1.03
  -5  -2 -26   15.02    2.16
   5  -2  26   18.53    2.28
  -5  -2 -26   10.74    1.44
   5  -2  26   13.93    3.06
  -5   2 -26   13.33    1.87
  -5   2 -26   15.87    1.95
   5   2  26   19.24    3.15
  -5   2 -26   14.35    1.63
  -6  -2 -26    0.44    1.00
   6  -2  26   -0.45    1.82
   6  -2  26   -0.36    1.47
  -6  -2 -26    0.41    1.39
  -6   2 -26    1.91    1.44
  -6   2 -26    1.31    1.03
   6   2  26   -1.70    1.89
   6   2  26    0.55    1.52
  -6   2 -26    0.30    1.26
  -7  -2 -26    6.72    1.46
   7  -2  26    9.82    1.99
  -7  -2 -26    6.14    1.99
   7  -2  26   10.76    2.90
  -7   2 -26   10.02    2.01
  -7   2 -26    9.33    1.64
   7   2  26   11.50    2.28
   7   2  26   11.89    3.14
  -7   2 -26   10.69    2.08
  -8  -2 -26   -0.46    1.67
   8  -2  26    2.79    2.48
  -8  -2 -26    0.81    1.27
   8  -2  26    1.62    1.50
  -8   2 -26    1.41    1.34
   8   2  26    2.32    1.93
   8   2  26   -0.03    2.20
  -8   2 -26   -0.21    1.48
  -8   2 -26    2.06    1.71
   9  -2  26    0.72    2.28
  -9  -2 -26   -0.40    1.36
  -9   2 -26   -0.22    1.67
   9   2  26    2.66    2.53
   9   2  26   -0.83    1.84
  -9   2 -26    1.06    1.39
 -10  -3  26    2.94    1.77
  10   3 -26    1.54    1.98
  -9  -3  26    6.54    1.91
   9   3 -26    2.78    2.01
  -9   3  26    5.62    2.40
  -8  -3  26    5.59    1.93
   8   3 -26    5.03    2.06
  -8   3  26    1.65    2.13
  -7  -3  26    1.83    1.66
   7   3 -26    1.49    1.68
  -7   3  26    0.01    1.67
   6  -3 -26   -2.42    1.44
  -6  -3  26    0.20    1.40
   6   3 -26   -0.20    1.52
  -6   3  26    1.20    1.57
   5  -3 -26    3.91    1.59
  -5  -3  26    3.07    1.47
  -5  -3  26   -0.50    1.41
   5   3 -26    0.33    1.35
  -4  -3  26    7.38    1.81
   4  -3 -26    4.64    1.61
  -4  -3  26    5.72    1.76
   4   3 -26    6.09    1.62
  -3  -3  26   30.21    2.80
  -3  -3  26   25.76    2.76
   3  -3 -26   26.32    2.71
   3   3 -26   27.46    2.42
  -2  -3  26    9.39    1.78
  -2  -3  26    8.11    1.84
   2  -3 -26    8.40    1.63
   1  -3 -26    7.97    1.56
  -1  -3  26    6.98    1.93
  -1  -3  26   13.13    1.97
   1   3 -26    9.24    1.53
  -1   3  26    8.61    1.83
   0  -3  26    6.13    1.59
   0  -3  26    4.24    1.69
   0  -3 -26    3.67    1.32
   0   3  26    1.42    1.39
   0   3 -26    5.32    1.29
  -1  -3 -26    1.16    1.09
   1  -3  26    1.69    1.39
   1  -3  26    0.44    1.63
  -1   3 -26    3.75    1.01
   1   3  26    0.04    1.35
   2  -3  26   61.83    3.34
  -2  -3 -26   55.13    3.34
   2  -3  26   55.34    4.82
  -2   3 -26   59.39    2.63
   2   3  26   56.95    4.04
   3  -3  26    7.06    2.50
   3  -3  26    9.29    1.81
  -3  -3 -26   14.08    2.03
  -3   3 -26   11.53    1.37
   3   3  26    9.52    2.38
  -4  -3 -26   -0.20    1.22
   4  -3  26    0.08    1.41
   4  -3  26   -3.56    1.79
  -4   3 -26    1.13    0.90
   4   3  26    1.44    1.74
   5  -3  26    2.71    1.46
  -5  -3 -26    1.17    1.27
   5  -3  26   -0.34    2.16
   5   3  26    3.94    2.17
  -5   3 -26    4.17    1.18
  -6  -3 -26   18.54    2.60
   6  -3  26   10.51    3.20
   6  -3  26   24.61    1.90
   6   3  26   23.72    3.70
  -6   3 -26   18.39    1.91
  -7  -3 -26    7.06    2.06
   7  -3  26    4.04    2.74
  -7   3 -26    5.05    1.37
   7   3  26    7.49    2.86
   8  -3  26    2.70    2.40
  -8  -3 -26    1.50    1.77
   8   3  26    2.21    2.48
  -8   3 -26    2.18    1.37
   9   3  26   -1.26    2.17
   9   3  26    0.82    2.04
  -9  -4  26   -0.03    1.49
   9   4 -26    0.13    1.97
  -8  -4  26    7.61    1.80
  -8   4  26    8.21    2.72
   8   4 -26   10.25    2.49
  -7  -4  26    2.58    1.66
   7   4 -26    0.03    1.70
  -7   4  26    0.63    1.90
  -6  -4  26    6.05    1.73
   6  -4 -26    6.26    2.14
  -6   4  26    8.19    2.23
   6   4 -26    5.16    1.86
  -5  -4  26    1.23    1.48
   5  -4 -26   -0.38    1.40
  -5  -4  26   -1.78    1.38
  -4  -4  26   15.83    2.01
   4  -4 -26   13.47    2.26
  -4  -4  26   16.37    2.46
  -3  -4  26   -0.10    1.42
  -3  -4  26   -0.52    1.25
   3  -4 -26   -1.52    1.11
  -2  -4  26    9.78    2.12
  -2  -4  26    3.59    1.31
   2  -4 -26    7.31    1.70
  -1  -4  26    1.94    1.15
   1  -4 -26   -0.35    1.16
  -1  -4  26   -0.37    1.42
  -1   4  26   -0.29    1.32
   0  -4  26   21.27    2.96
   0  -4 -26   23.36    2.51
   0  -4  26   23.11    1.59
   0   4  26   20.16    2.60
   0   4 -26   23.68    1.86
   1  -4  26   -0.19    1.79
  -1  -4 -26   -0.33    1.20
   1   4  26   -1.17    1.31
  -1   4 -26    2.61    0.99
  -2  -4 -26   19.86    2.37
   2  -4  26   22.56    3.51
   2   4  26   26.07    3.21
  -2   4 -26   23.34    1.83
  -3  -4 -26   10.14    1.94
   3  -4  26   10.32    2.97
   3   4  26   13.37    2.63
  -3   4 -26   14.16    1.54
  -4  -4 -26    0.47    1.20
   4  -4  26    3.32    2.54
  -4   4 -26    2.73    1.06
   4   4  26    0.28    1.82
  -5  -4 -26    7.56    1.86
   5  -4  26    6.78    2.80
  -5   4 -26    6.91    1.35
   5   4  26    6.64    2.45
  -6  -4 -26   12.50    2.37
   6  -4  26   17.79    3.72
  -6   4 -26   10.63    1.62
   6   4  26   18.93    3.51
   7  -4  26    2.53    2.57
  -7  -4 -26   -0.66    1.49
  -7   4 -26    0.46    1.15
   7   4  26    5.77    2.82
  -8   4 -26    7.26    1.60
   8   4  26    3.10    2.58
   9   5 -26    3.12    2.36
  -7   5  26    9.78    2.70
   6  -5 -26    5.42    2.09
  -6  -5  26    6.48    2.18
  -6   5  26    2.07    2.02
  -5  -5  26    0.91    1.69
   5  -5 -26    1.43    1.61
  -5   5  26   -1.62    1.65
   4  -5 -26    0.42    1.54
  -4  -5  26   -0.60    1.40
  -3  -5  26   33.06    3.56
   3  -5 -26   29.23    3.21
   2  -5 -26    3.60    1.57
  -2  -5  26    6.70    2.08
  -1  -5  26    0.37    1.62
   1  -5 -26    4.00    1.61
   0  -5 -26   -0.55    1.12
   0  -5  26    1.83    1.98
   0   5 -26    2.03    1.03
   0   5  26    2.49    1.68
   1  -5  26   24.16    3.57
  -1  -5 -26   26.67    2.84
  -1   5 -26   24.85    1.99
   1   5  26   27.63    3.16
  -2  -5 -26   12.79    2.14
   2  -5  26   16.68    3.37
  -2   5 -26   13.35    1.54
   2   5  26   10.85    2.49
  -3  -5 -26    1.45    1.39
   3  -5  26   -0.68    2.09
   3   5  26   -0.32    1.73
  -3   5 -26   -0.19    0.99
   4  -5  26    0.49    2.48
  -4  -5 -26    2.85    1.60
   4   5  26   -1.44    1.64
  -4   5 -26    0.34    1.04
  -5  -5 -26    0.92    1.55
   5  -5  26   -1.01    2.24
   5   5  26   -0.92    2.08
  -5   5 -26   -0.99    0.98
   6  -5  26    2.15    2.50
  -6  -5 -26    7.82    2.10
  -6   5 -26    4.61    1.41
   6   5  26   10.85    2.98
   7  -5  26    9.61    3.10
   7   5  26    6.06    2.92
  -7   5 -26    7.33    1.67
   8   5  26    3.69    2.75
  -6  -6  26    1.16    2.14
  -6   6  26    2.54    2.19
   5  -6 -26    1.26    1.71
  -5  -6  26    1.51    1.91
  -5   6  26    2.21    1.87
   4  -6 -26    0.37    1.63
  -4  -6  26   -1.16    1.74
  -3  -6  26    8.07    2.46
   3  -6 -26   10.10    2.34
   2  -6 -26    1.35    1.73
  -2  -6  26    4.35    2.15
   1  -6 -26    5.23    1.87
  -1  -6  26    1.39    2.08
   0  -6 -26   -0.09    1.27
   0  -6  26    3.32    2.22
   0   6 -26    0.10    1.05
  -1  -6 -26    3.73    1.65
   1  -6  26    4.17    2.56
   1   6  26    4.61    1.97
  -2  -6 -26   11.59    2.15
   2  -6  26    9.71    2.99
   2   6  26    9.82    2.50
   3  -6  26    9.53    3.03
  -3  -6 -26    7.26    2.05
   3   6  26    9.24    2.58
   4  -6  26    1.74    2.56
  -4  -6 -26   -1.21    1.46
   4   6  26    1.71    2.10
  -5  -6 -26    0.24    1.69
   5  -6  26    3.07    2.84
   5   6  26    5.45    2.54
  -5   6 -26    1.50    1.35
   6  -6  26    1.28    2.58
   6   6  26   -1.61    2.17
  -6   6 -26    2.51    1.41
   7   6  26   -0.55    2.19
  -6  -7  26    0.61    2.22
  -5  -7  26    9.14    2.80
   4  -7 -26   -0.95    1.77
  -4  -7  26   -4.21    1.68
  -3  -7  26    1.27    1.96
   3  -7 -26   -2.12    1.71
   2  -7 -26    5.06    2.18
  -2  -7  26    3.14    2.20
  -1  -7  26    7.65    2.74
   1  -7 -26    8.42    2.37
   0  -7 -26    2.38    1.92
   0  -7  26    4.99    2.85
   1  -7  26   -0.04    2.59
  -1  -7 -26    0.49    1.65
   1   7  26    3.80    2.16
  -2  -7 -26   15.88    2.63
   2  -7  26   13.69    3.62
   2   7  26   15.77    3.03
   3  -7  26   11.10    3.62
  -3  -7 -26    7.36    2.18
   3   7  26    5.86    2.49
   4  -7  26   -0.52    2.73
   4   7  26    0.12    2.22
   5  -7  26    0.55    2.77
   5   7  26    1.04    2.46
  -4  -8  26    9.65    3.01
  -3  -8  26   -1.59    2.26
  -2  -8  26    0.17    2.39
  -1  -8  26   -0.11    2.39
   0  -8  26   -0.52    2.45
   1  -8  26    0.49    2.80
   2  -8  26    0.91    2.89
   2   8  26    6.20    2.65
   3  -8  26    6.42    3.43
   3   8  26    6.29    2.74
 -11   0  27    4.05    2.33
 -10   0  27    1.30    2.10
  -9   0  27    0.64    1.81
   9   0 -27    0.88    1.31
   8   0 -27   -0.72    1.31
  -8   0  27    1.59    1.83
   7   0 -27   23.61    2.34
  -7   0  27   20.78    3.00
   6   0 -27   -1.77    1.17
  -6   0  27    1.34    1.66
   5   0 -27    0.69    1.29
  -5   0  27    0.88    1.52
   4   0 -27   -1.43    1.03
  -4   0  27    1.14    1.39
   4   0 -27   -0.93    1.03
   3   0 -27    9.01    1.50
  -3   0  27    5.98    1.60
  -3   0  27    8.90    1.57
   3   0 -27    6.33    1.41
   2   0 -27    0.65    1.01
  -2   0  27   -0.09    1.12
   2   0 -27    0.39    0.88
  -2   0  27    1.44    1.08
  -1   0  27   64.18    3.58
   1   0 -27   67.47    3.04
  -1   0  27   68.57    3.37
   0   0 -27    1.18    0.85
   0   0  27    1.27    1.08
   0   0  27    1.43    1.18
  -1   0 -27    1.68    0.89
  -1   0 -27    3.30    1.03
   1   0  27    2.58    1.42
   1   0  27    3.38    1.18
  -2   0 -27   -0.23    0.85
   2   0  27   -0.33    1.00
  -2   0 -27    0.30    0.85
   2   0  27    1.14    1.47
  -3   0 -27   48.99    2.67
   3   0  27   52.30    4.48
  -3   0 -27   43.08    2.70
   3   0  27   51.69    3.07
  -4   0 -27   -0.84    0.96
   4   0  27    1.40    1.74
  -4   0 -27    1.62    1.15
   4   0  27   -0.79    1.19
  -5   0 -27    8.79    1.61
   5   0  27   10.33    2.65
   5   0  27   16.59    2.24
  -5   0 -27   11.57    1.89
  -6   0 -27   -0.95    1.20
   6   0  27   -1.00    1.44
   6   0  27    1.85    2.17
  -6   0 -27   -0.42    1.18
   7   0  27   16.28    2.52
  -7   0 -27   18.46    2.59
   7   0  27   11.91    2.78
  -7   0 -27   18.13    2.34
  -8   0 -27    0.70    1.52
  -8   0 -27    2.00    1.70
   8   0  27   -0.03    1.96
   8   0  27   -0.30    1.66
   9   0  27    0.11    1.73
  -9   0 -27    2.08    1.78
   9   0  27    4.09    2.39
  10   0  27   -2.21    2.16
  10   0  27   -2.54    1.67
 -10   0 -27   -0.47    1.61
 -10  -1  27    0.37    1.98
  10   1 -27    3.25    1.62
  -9  -1  27    5.22    2.06
   9   1 -27    3.19    1.71
  -8  -1  27   25.63    3.07
   8   1 -27   25.54    2.75
  -7  -1  27   12.17    2.35
   7  -1 -27   11.04    1.20
   7   1 -27    8.35    1.98
  -7   1  27    6.69    2.21
  -6  -1  27    3.94    1.90
   6  -1 -27    6.32    1.21
   6   1 -27    6.92    1.79
  -6   1  27    5.68    1.84
  -5  -1  27    4.01    1.73
   5  -1 -27    0.45    1.39
   5  -1 -27    2.36    1.11
  -5   1  27    2.84    1.52
   5   1 -27    1.17    1.40
  -4  -1  27   39.98    3.14
   4  -1 -27   37.27    2.29
   4  -1 -27   33.22    2.85
   4   1 -27   38.16    2.63
   3  -1 -27   27.00    2.08
  -3  -1  27   31.97    2.78
   3  -1 -27   29.76    2.52
  -3  -1  27   32.10    2.75
   3   1 -27   26.55    2.36
  -2  -1  27   13.92    2.00
  -2  -1  27    8.43    1.71
   2  -1 -27   14.49    1.56
   2  -1 -27   10.46    1.55
   2   1 -27   10.84    1.59
  -2   1  27   11.55    1.78
  -1  -1  27    3.83    1.35
   1  -1 -27    6.47    1.20
  -1  -1  27    6.82    1.54
   1  -1 -27    5.41    1.21
  -1   1  27    6.53    1.53
   0  -1  27    3.39    1.52
   0  -1 -27    5.99    1.24
   0  -1  27    6.72    1.44
   0  -1 -27    5.65    1.11
   0   1  27    8.89    1.77
   0   1  27    3.02    1.24
   0   1 -27    7.21    1.14
   0   1 -27    6.07    1.24
   1  -1  27    3.51    1.31
  -1  -1 -27    1.43    0.95
   1  -1  27    3.52    1.66
   1   1  27    3.28    1.66
  -1   1 -27    2.45    1.01
  -1   1 -27    2.48    0.88
   1   1  27    2.52    1.23
   2  -1  27   67.61    4.43
  -2  -1 -27   68.99    3.34
  -2  -1 -27   69.65    2.93
   2  -1  27   74.96    3.62
  -2   1 -27   70.74    3.07
  -2   1 -27   70.88    3.22
   2   1  27   68.59    3.43
   2   1  27   67.45    4.31
   3  -1  27    1.71    1.28
   3  -1  27   -0.44    1.43
  -3  -1 -27    0.51    1.05
  -3  -1 -27    1.30    0.90
  -3   1 -27    1.00    0.96
   3   1  27   -0.35    1.23
  -3   1 -27    1.94    1.04
   3   1  27    1.49    1.78
  -3   1 -27    1.60    0.86
  -4  -1 -27    8.48    1.36
   4  -1  27    7.19    2.44
  -4  -1 -27   10.48    1.71
   4  -1  27    8.22    1.76
  -4   1 -27    7.77    1.48
  -4   1 -27    5.73    1.43
   4   1  27    8.11    2.48
   4   1  27   12.81    2.02
  -4   1 -27    7.99    1.27
  -5  -1 -27   -0.25    1.09
   5  -1  27    0.54    1.98
  -5  -1 -27    1.40    1.21
   5  -1  27    3.13    1.55
  -5   1 -27   -0.63    1.10
  -5   1 -27   -0.08    0.88
   5   1  27    2.90    1.63
  -5   1 -27    1.17    1.22
   5   1  27   -1.28    1.76
  -6  -1 -27    1.92    1.23
   6  -1  27    5.05    1.79
  -6  -1 -27    4.70    1.71
   6  -1  27   -0.44    2.03
  -6   1 -27    5.53    1.49
   6   1  27    9.79    2.11
   6   1  27    3.70    2.33
  -6   1 -27    7.99    1.77
  -6   1 -27    7.95    1.41
  -7  -1 -27   12.15    1.87
   7  -1  27   11.72    3.00
  -7  -1 -27    8.53    2.11
   7  -1  27    9.01    2.13
  -7   1 -27   10.23    1.91
  -7   1 -27    9.35    1.57
  -7   1 -27   11.52    2.15
   7   1  27   12.01    2.40
   7   1  27   13.81    3.29
  -8  -1 -27    0.94    1.46
  -8  -1 -27    4.15    1.99
   8  -1  27    2.98    1.80
   8  -1  27    2.33    2.32
   8   1  27    2.42    2.37
  -8   1 -27    3.52    1.69
  -8   1 -27    5.47    1.97
   8   1  27    3.85    2.00
  -8   1 -27    1.65    1.27
   9  -1  27    2.56    2.28
  -9  -1 -27    3.52    1.70
   9  -1  27   -1.84    1.55
   9   1  27    4.43    2.13
   9   1  27   -0.25    2.21
  -9   1 -27    4.27    1.82
 -10  -2  27    1.60    1.83
  10   2 -27    1.49    1.83
  -9  -2  27   -1.49    1.58
  -9   2  27    0.34    2.00
   9   2 -27   -0.40    1.58
  -8  -2  27    4.47    1.86
  -8   2  27    2.42    2.04
   8   2 -27    5.10    2.06
  -7  -2  27    0.05    1.57
   7   2 -27    2.51    1.74
  -7   2  27    2.14    1.75
  -6  -2  27   -1.13    1.51
   6   2 -27    1.15    1.56
  -6   2  27    1.22    1.66
   5  -2 -27   -0.24    1.32
  -5  -2  27   -3.84    1.28
  -5   2  27   -0.36    1.34
   5   2 -27    1.95    1.38
  -4  -2  27    1.03    1.29
   4  -2 -27    4.16    1.52
  -4  -2  27   -0.42    1.39
   4   2 -27   -0.30    1.22
  -3  -2  27   -1.01    1.21
   3  -2 -27   -1.37    1.05
  -3  -2  27    0.74    1.22
   3   2 -27    0.33    1.00
  -2  -2  27    5.37    1.62
  -2  -2  27    7.96    1.73
   2  -2 -27    5.06    1.35
  -2   2  27    5.03    1.38
  -1  -2  27    0.56    1.21
  -1  -2  27    2.33    1.42
   1  -2 -27    2.74    1.10
  -1   2  27    1.51    1.24
   1   2 -27    0.95    1.00
   0  -2  27    1.52    1.30
   0  -2 -27   -0.43    0.68
   0  -2 -27   -0.26    0.87
   0  -2  27   -1.83    1.16
   0   2  27   -0.60    1.24
   0   2 -27    0.19    1.00
  -1  -2 -27    3.62    1.25
   1  -2  27    3.30    1.46
   1  -2  27    1.53    1.50
  -1  -2 -27    0.37    0.76
   1   2  27    2.83    1.52
  -1   2 -27    1.54    1.00
   2  -2  27    1.72    1.32
   2  -2  27    3.97    1.77
  -2  -2 -27    3.72    1.25
  -2   2 -27    4.56    1.21
  -2   2 -27    4.09    1.01
   2   2  27    0.70    1.44
   3  -2  27    5.55    2.14
  -3  -2 -27    2.12    1.28
   3  -2  27    3.48    1.50
  -3   2 -27    3.13    1.01
   3   2  27    1.69    1.72
  -3   2 -27    3.80    1.26
   4  -2  27   67.44    3.67
  -4  -2 -27   63.81    2.72
   4  -2  27   70.82    5.12
  -4  -2 -27   60.70    3.54
  -4   2 -27   62.30    3.35
   4   2  27   64.09    5.33
  -4   2 -27   60.43    3.13
  -4   2 -27   61.91    2.83
   5  -2  27    0.23    2.06
  -5  -2 -27    0.75    1.07
   5  -2  27    1.23    1.56
  -5  -2 -27    0.11    1.16
  -5   2 -27    1.37    1.25
  -5   2 -27   -0.45    1.14
   5   2  27   -1.05    1.65
  -5   2 -27    0.29    0.92
   6  -2  27   -3.44    1.87
  -6  -2 -27   -0.65    1.05
  -6  -2 -27   -1.56    1.16
   6  -2  27    2.29    1.64
  -6   2 -27    1.63    1.35
  -6   2 -27   -0.34    1.30
   6   2  27   -1.62    2.08
  -6   2 -27    0.67    1.03
   6   2  27    3.45    1.75
   7  -2  27   -3.18    1.78
   7  -2  27    0.53    1.60
  -7  -2 -27   -1.07    1.10
  -7  -2 -27    0.49    1.50
   7   2  27    0.67    2.28
  -7   2 -27   -0.97    1.32
  -7   2 -27    1.05    1.20
   7   2  27    1.47    1.68
  -7   2 -27   -0.63    1.28
  -8  -2 -27   23.40    3.19
   8  -2  27   22.23    2.36
  -8  -2 -27   24.99    2.19
   8  -2  27   24.95    3.94
  -8   2 -27   28.82    3.01
  -8   2 -27   22.97    2.97
  -8   2 -27   20.89    2.19
   8   2  27   25.05    3.20
   8   2  27   33.95    4.48
  -9  -2 -27    0.43    1.36
   9  -2  27   -0.83    2.22
  -9   2 -27    0.05    1.63
   9   2  27    0.53    2.31
   9   2  27    1.23    2.03
 -10  -3  27   -0.14    1.62
  10   3 -27   -1.99    1.86
  -9  -3  27    2.85    1.81
   9   3 -27    0.67    1.90
  -9   3  27    0.61    2.17
  -8  -3  27    5.61    1.91
  -8   3  27    6.38    2.41
   8   3 -27    5.01    2.03
  -7  -3  27   16.84    2.39
   7   3 -27    6.20    2.07
  -7   3  27   11.41    2.62
   6  -3 -27    8.43    2.27
  -6  -3  27    7.91    1.92
   6   3 -27   12.53    2.20
  -6   3  27    9.00    2.26
  -5  -3  27    3.95    1.71
   5  -3 -27    7.31    1.89
  -5  -3  27    6.02    1.74
   5   3 -27    1.77    1.57
   4  -3 -27   19.82    2.51
  -4  -3  27   18.53    2.43
  -4  -3  27   18.13    2.35
   4   3 -27   16.02    2.14
  -3  -3  27   41.36    3.39
  -3  -3  27   43.06    3.30
   3  -3 -27   39.02    3.16
   3   3 -27   32.02    2.68
   2  -3 -27    8.32    1.72
  -2  -3  27    6.70    1.75
  -2  -3  27    5.83    1.66
   1  -3 -27    0.17    0.95
  -1  -3  27    0.01    1.37
  -1  -3  27    1.44    1.43
   1   3 -27    0.38    1.12
  -1   3  27    1.75    1.40
   0  -3 -27    5.70    1.44
   0  -3  27    5.58    1.65
   0  -3  27    8.79    2.13
   0   3 -27    5.99    1.38
   0   3  27    4.87    1.61
   1  -3  27    8.85    1.81
   1  -3  27    5.99    2.04
  -1  -3 -27    9.00    1.70
   1   3  27    7.78    1.98
  -1   3 -27    8.57    1.56
  -1   3 -27    8.83    1.28
   2  -3  27   43.35    4.27
  -2  -3 -27   52.61    3.27
   2  -3  27   54.76    3.22
  -2   3 -27   45.26    2.35
   2   3  27   49.17    4.20
  -3  -3 -27    2.20    1.27
   3  -3  27    0.02    1.79
   3  -3  27    3.46    1.57
  -3   3 -27    2.04    0.94
   3   3  27    3.84    1.90
   4  -3  27    7.60    1.78
  -4  -3 -27    5.27    1.58
   4  -3  27    4.44    2.58
   4   3  27    5.23    2.29
  -4   3 -27    4.33    1.15
  -5  -3 -27    1.80    1.56
   5  -3  27    0.81    1.40
   5  -3  27   -1.71    2.05
   5   3  27    2.44    2.09
  -5   3 -27    2.38    1.03
  -6  -3 -27    2.32    1.52
   6  -3  27    0.99    1.22
   6  -3  27    1.68    2.38
   6   3  27    0.59    2.16
  -6   3 -27    2.11    1.19
  -7  -3 -27   11.16    2.33
   7  -3  27   12.60    3.09
   7   3  27    9.31    2.94
  -7   3 -27   12.00    1.70
  -8  -3 -27    2.81    1.88
   8  -3  27    5.07    2.78
   8   3  27   -1.99    2.15
  -8   3 -27    3.30    1.44
   9   3  27    2.89    2.58
   9   3  27    2.91    2.13
  -9  -4  27    0.66    1.49
   9   4 -27   -2.64    1.81
  -8  -4  27   -1.13    1.49
   8   4 -27   -0.65    1.88
  -8   4  27    1.18    2.26
  -7  -4  27   13.07    2.05
  -7   4  27   11.64    2.79
   7   4 -27   11.48    2.49
   6  -4 -27   -0.20    1.70
  -6  -4  27   -0.75    1.49
   6   4 -27   -0.54    1.60
  -6   4  27   -1.08    1.65
   5  -4 -27    0.25    1.43
  -5  -4  27    0.60    1.51
  -5  -4  27    1.30    1.55
   5   4 -27   -1.92    1.38
  -4  -4  27   -0.44    1.38
   4  -4 -27    0.66    1.51
  -4  -4  27    1.29    1.57
  -3  -4  27   -1.59    1.33
   3  -4 -27    3.15    1.61
  -3  -4  27   -0.28    1.32
   2  -4 -27   -0.82    1.27
  -2  -4  27   -0.80    1.40
  -2  -4  27   -1.29    1.18
   1  -4 -27   38.64    3.24
  -1  -4  27   31.87    2.27
  -1  -4  27   35.59    3.64
   0  -4 -27    0.94    1.24
   0  -4  27   -0.93    0.94
   0  -4  27   -0.60    1.46
   0   4 -27   -0.52    0.86
   0   4  27   -0.27    1.38
   1  -4  27    0.04    1.80
  -1  -4 -27    0.75    1.12
   1   4  27    3.30    1.73
  -1   4 -27   -1.62    0.80
   2  -4  27    2.40    2.05
  -2  -4 -27    0.85    1.35
   2   4  27    0.64    1.68
  -2   4 -27    2.26    1.01
  -3  -4 -27   25.46    2.74
   3  -4  27   27.62    4.02
   3   4  27   21.64    3.32
  -3   4 -27   25.06    1.99
  -4  -4 -27    0.81    1.26
   4  -4  27   -0.28    2.28
   4   4  27    2.54    2.02
  -4   4 -27    2.30    1.10
   5  -4  27    4.68    2.76
  -5  -4 -27    7.78    1.90
  -5   4 -27    3.64    1.22
   5   4  27    2.13    2.12
  -6  -4 -27    1.27    1.60
   6  -4  27    2.52    2.51
   6   4  27    1.42    2.36
  -6   4 -27   -0.12    1.10
   7  -4  27    7.85    3.18
  -7  -4 -27    6.78    2.16
  -7   4 -27    4.34    1.40
   7   4  27   10.78    3.06
   8   4  27    4.84    2.82
  -7   5  27    2.08    2.25
  -6  -5  27    1.79    1.99
   6  -5 -27    0.86    1.83
  -6   5  27    6.23    2.37
   5  -5 -27    1.67    1.70
  -5  -5  27   -0.06    1.70
  -5   5  27    3.99    2.11
   4  -5 -27   21.19    2.88
  -4  -5  27   14.42    2.64
   3  -5 -27   -1.76    1.30
  -3  -5  27   -0.65    1.65
  -2  -5  27   10.62    2.49
   2  -5 -27   10.58    2.13
   1  -5 -27    6.86    1.80
  -1  -5  27    9.35    2.48
   0  -5 -27    2.34    1.50
   0  -5  27    0.68    1.90
   0   5  27    2.10    1.68
   0   5 -27    0.81    1.01
  -1  -5 -27    1.77    1.38
   1  -5  27    2.07    1.90
  -1   5 -27    0.16    0.96
   1   5  27    0.94    1.68
  -2  -5 -27   25.75    2.90
   2  -5  27   25.44    3.95
   2   5  27   28.75    3.50
  -2   5 -27   28.54    2.15
   3  -5  27    5.30    2.81
  -3  -5 -27    3.49    1.51
  -3   5 -27    3.46    1.17
   3   5  27    1.06    1.84
   4  -5  27    0.76    2.56
  -4  -5 -27    3.70    1.58
   4   5  27    5.17    2.37
  -4   5 -27    5.11    1.31
   5  -5  27   -2.13    2.14
  -5  -5 -27    0.77    1.49
   5   5  27   -1.33    1.93
  -5   5 -27    0.65    1.13
  -6  -5 -27    5.98    1.96
   6  -5  27    4.28    2.77
  -6   5 -27    5.25    1.47
   6   5  27    4.56    2.61
   7  -5  27    1.50    2.49
   7   5  27    4.66    2.68
  -6  -6  27    0.98    2.23
   5  -6 -27    0.79    1.83
  -5  -6  27   -1.45    1.90
  -5   6  27    0.34    1.85
  -4  -6  27    2.95    1.93
   4  -6 -27    0.39    1.60
  -3  -6  27    1.13    1.84
   3  -6 -27   -3.70    1.47
   2  -6 -27    0.96    1.60
  -2  -6  27    0.62    1.86
   1  -6 -27    2.12    1.70
  -1  -6  27    0.88    1.97
   0  -6 -27    1.07    1.63
   0  -6  27   -1.38    1.91
   0   6 -27    2.17    1.16
   1  -6  27    9.17    2.85
  -1  -6 -27    8.97    2.03
  -1   6 -27    5.47    1.41
   1   6  27    6.93    2.22
   2  -6  27   -1.12    2.31
  -2  -6 -27    1.17    1.47
  -2   6 -27    0.44    1.13
   2   6  27    1.18    1.99
  -3  -6 -27   11.53    2.26
   3  -6  27    8.99    3.33
  -3   6 -27   13.32    1.74
   3   6  27   14.16    2.95
  -4  -6 -27   17.95    2.73
   4  -6  27   17.34    4.01
  -4   6 -27   18.56    2.09
   4   6  27   13.79    3.16
   5  -6  27    0.95    2.64
  -5  -6 -27    3.52    1.95
  -5   6 -27    6.29    1.57
   5   6  27   -0.89    2.20
   6  -6  27    2.33    2.70
   6   6  27    3.93    2.54
  -6  -7  27   10.35    2.75
  -5  -7  27    0.02    2.07
  -4  -7  27   -0.73    2.07
  -3  -7  27    6.28    2.55
   3  -7 -27    5.88    2.33
   2  -7 -27    2.40    1.92
  -2  -7  27    4.35    2.43
   1  -7 -27   -0.26    1.68
  -1  -7  27   -1.83    2.14
   0  -7 -27    2.51    1.95
   0  -7  27    3.96    2.82
   1  -7  27    1.76    2.60
  -1  -7 -27    4.65    2.06
  -2  -7 -27    6.81    2.07
   2  -7  27   12.60    3.63
   2   7  27   11.74    2.83
   3  -7  27   -1.23    2.73
   3   7  27    2.90    2.30
   4  -7  27    2.36    2.91
   4   7  27   -1.09    2.09
   5  -7  27    3.73    2.87
   5   7  27    4.18    2.69
  -3  -8  27    0.31    2.33
  -2  -8  27   -2.89    2.16
  -1  -8  27    2.85    2.75
   0  -8  27    2.49    2.69
   1  -8  27   -1.33    2.70
   2  -8  27    1.18    2.84
   2   8  27   -1.95    2.13
 -10   0  28    1.37    2.14
  -9   0  28   -3.14    1.82
   9   0 -28    0.96    1.27
  -8   0  28    3.02    2.07
   8   0 -28   -0.03    1.29
  -7   0  28   -0.33    1.76
   7   0 -28   -0.77    1.30
   6   0 -28   27.83    2.55
  -6   0  28   32.28    3.39
  -5   0  28    0.13    1.54
   5   0 -28   -0.41    1.15
  -4   0  28   16.27    2.27
   4   0 -28   16.26    2.08
   4   0 -28   13.82    1.90
  -3   0  28    1.38    1.15
  -3   0  28    3.53    1.47
   3   0 -28    2.64    1.16
   3   0 -28    1.30    1.12
   2   0 -28  113.04    4.34
  -2   0  28  108.37    4.84
   2   0 -28  111.11    4.31
  -2   0  28  109.27    4.69
   1   0 -28    1.59    0.95
  -1   0  28    0.86    1.17
   1   0 -28    0.58    0.97
  -1   0  28    1.12    1.17
   0   0 -28   24.96    2.04
   0   0  28   25.03    2.31
   0   0  28   23.19    2.61
   1   0  28    1.12    1.38
  -1   0 -28   -0.12    0.80
   1   0  28   -1.84    1.01
  -1   0 -28   -1.70    0.80
  -2   0 -28    3.34    1.14
   2   0  28    3.01    1.64
  -2   0 -28    4.17    1.21
   2   0  28    4.58    1.39
  -3   0 -28   -0.13    0.97
   3   0  28   -0.51    1.14
   3   0  28   -0.85    1.61
  -3   0 -28    0.09    0.96
  -4   0 -28  104.53    4.38
   4   0  28  123.80    5.06
   4   0  28  132.03    6.49
  -4   0 -28  103.13    4.59
  -5   0 -28   -0.58    1.14
   5   0  28    1.99    1.97
   5   0  28   -1.65    1.30
  -5   0 -28    2.15    1.26
   6   0  28    6.87    1.98
   6   0  28   16.14    3.22
  -6   0 -28   11.70    2.07
  -6   0 -28    7.05    1.67
  -7   0 -28   -3.36    1.20
   7   0  28    0.23    1.58
   7   0  28    2.53    2.17
  -7   0 -28    0.34    1.33
  -8   0 -28   27.37    2.79
   8   0  28   26.47    4.00
   8   0  28   25.57    3.12
  -8   0 -28   29.73    3.33
   9   0  28    0.12    1.79
   9   0  28    0.06    2.27
  -9   0 -28   -2.16    1.44
 -10  -1  28   -3.40    1.70
  10   1 -28   -2.18    1.35
  -9  -1  28   -1.66    1.72
   9   1 -28    0.25    1.56
  -8  -1  28   16.09    2.61
   8   1 -28   12.04    2.20
  -7  -1  28    3.48    1.86
  -7   1  28   10.51    2.42
   7   1 -28    9.02    1.99
  -6  -1  28    3.51    1.71
   6  -1 -28   -0.12    0.92
  -6   1  28   -0.37    1.47
   6   1 -28    2.29    1.56
   5  -1 -28   19.48    1.76
   5  -1 -28   22.93    2.68
  -5  -1  28   20.35    2.67
  -5   1  28   20.45    2.54
   5   1 -28   13.54    2.14
   4  -1 -28   23.11    1.93
   4  -1 -28   21.38    2.39
  -4  -1  28   25.11    2.63
   4   1 -28   21.73    2.34
  -3  -1  28   20.79    2.34
  -3  -1  28   17.46    2.27
   3  -1 -28   16.57    1.75
   3  -1 -28   20.82    2.20
   3   1 -28   23.76    2.25
  -2  -1  28    3.02    1.40
   2  -1 -28    2.58    1.07
   2  -1 -28    0.17    0.97
  -2  -1  28    3.13    1.40
   2   1 -28    0.71    1.05
  -2   1  28    1.99    1.28
  -1  -1  28   -0.76    1.04
   1  -1 -28    1.03    0.99
   1  -1 -28    0.54    0.96
  -1  -1  28    0.21    1.09
  -1   1  28    0.46    1.16
   0  -1 -28   -0.45    0.92
   0  -1 -28    0.02    0.87
   0  -1  28    1.63    1.39
   0  -1  28    0.44    1.18
   0   1 -28    0.70    0.90
   0   1  28   -1.53    1.06
   0   1  28    0.49    1.15
  -1  -1 -28    1.99    1.04
   1  -1  28   -0.67    1.14
   1  -1  28    0.86    1.33
  -1   1 -28   -0.75    0.87
   1   1  28    0.81    1.17
  -1   1 -28    0.94    0.84
   1   1  28    1.62    1.47
  -2  -1 -28    9.38    1.56
   2  -1  28    8.70    2.19
   2  -1  28   11.30    1.78
  -2  -1 -28    8.93    1.30
  -2   1 -28   11.46    1.54
   2   1  28   10.89    2.25
  -2   1 -28    7.98    1.35
   2   1  28   10.23    1.73
  -3  -1 -28    2.02    1.01
   3  -1  28    1.81    1.89
  -3  -1 -28    0.74    1.09
   3  -1  28   -0.65    1.19
  -3   1 -28    1.62    1.03
   3   1  28    0.36    1.28
   3   1  28    1.41    1.77
  -3   1 -28    0.24    1.00
   4  -1  28    3.88    2.18
  -4  -1 -28    2.25    1.24
   4  -1  28    4.89    1.61
  -4  -1 -28    2.38    1.09
  -4   1 -28    5.62    1.39
   4   1  28    1.50    1.42
  -4   1 -28    3.19    1.06
  -4   1 -28    3.44    1.26
   4   1  28    2.63    2.07
  -5  -1 -28    5.48    1.66
   5  -1  28    4.29    1.68
   5  -1  28    6.19    2.41
  -5  -1 -28    6.49    1.37
  -5   1 -28    8.61    1.71
   5   1  28    7.57    1.96
  -5   1 -28    7.96    1.63
   5   1  28    9.34    2.84
  -5   1 -28    5.81    1.19
   6  -1  28    4.06    1.72
  -6  -1 -28    3.49    1.61
   6  -1  28    2.35    2.29
  -6  -1 -28    4.13    1.41
  -6   1 -28    5.69    1.66
   6   1  28    2.98    1.79
  -6   1 -28    3.19    1.20
  -6   1 -28    3.59    1.49
   6   1  28    0.59    2.14
  -7  -1 -28   13.18    2.42
   7  -1  28    9.42    2.12
  -7  -1 -28    9.52    1.76
   7  -1  28    8.62    2.95
  -7   1 -28   15.21    2.40
  -7   1 -28   11.31    2.04
   7   1  28   10.07    3.05
   7   1  28    8.35    2.19
  -7   1 -28   10.76    1.62
   8  -1  28   -0.85    1.58
  -8  -1 -28    1.39    1.72
  -8  -1 -28    0.18    1.39
   8  -1  28    0.60    2.14
  -8   1 -28    1.16    1.29
   8   1  28    3.50    2.56
  -8   1 -28    0.73    1.56
  -8   1 -28    0.75    1.69
   8   1  28    0.41    1.80
   9  -1  28    1.07    1.64
  -9  -1 -28    0.86    1.52
   9  -1  28    0.80    2.33
   9   1  28    0.43    2.27
  -9   1 -28    2.89    1.75
   9   1  28    3.76    2.02
 -10  -2  28    0.30    1.85
  10   2 -28    0.63    1.75
  -9  -2  28   -0.35    1.73
   9   2 -28    0.76    1.78
  -9   2  28    0.75    2.19
  -8  -2  28   -0.35    1.66
   8   2 -28    1.73    1.89
  -8   2  28    0.23    1.92
  -7  -2  28   19.17    2.64
  -7   2  28   21.70    3.11
   7   2 -28   18.85    2.64
  -6  -2  28    1.07    1.59
   6   2 -28    3.70    1.72
  -6   2  28   -0.59    1.51
   5  -2 -28    6.91    1.87
  -5  -2  28    7.55    2.00
  -5   2  28    5.28    1.75
   5   2 -28    6.46    1.79
   4  -2 -28   -1.95    1.17
  -4  -2  28    0.12    1.41
  -4  -2  28    2.81    1.37
   4   2 -28    1.25    1.26
  -3  -2  28   -1.39    1.24
   3  -2 -28    0.52    1.19
  -3  -2  28   -0.32    1.16
   3   2 -28   -0.66    1.14
  -2  -2  28   -0.62    1.01
  -2  -2  28    0.56    1.38
   2  -2 -28    0.32    1.07
  -1  -2  28   43.32    3.59
   1  -2 -28   48.39    2.90
  -1  -2  28   47.80    3.08
  -1   2  28   43.36    3.02
   1   2 -28   49.38    2.73
   0  -2 -28   -0.10    0.99
   0  -2  28   -1.46    1.15
   0  -2  28    0.29    1.41
   0  -2 -28    0.44    0.72
   0   2 -28   -0.22    1.04
   0   2  28   -0.14    1.33
   1  -2  28    0.79    1.45
   1  -2  28    0.94    1.30
  -1  -2 -28    0.90    1.03
  -1  -2 -28    2.49    0.85
   1   2  28    0.69    1.45
  -1   2 -28    3.55    1.16
   2  -2  28    1.14    1.33
   2  -2  28   -1.24    1.39
  -2  -2 -28    0.06    0.80
  -2  -2 -28    0.44    1.10
   2   2  28   -1.08    1.41
  -2   2 -28   -0.36    0.78
  -2   2 -28   -0.42    1.04
  -3  -2 -28   52.66    3.18
   3  -2  28   39.14    4.18
   3  -2  28   46.49    3.02
   3   2  28   36.68    4.03
  -3   2 -28   45.97    2.41
  -3   2 -28   44.64    2.72
   4  -2  28    0.95    1.45
  -4  -2 -28    1.92    1.23
   4  -2  28    0.77    2.02
  -4  -2 -28    0.75    0.93
  -4   2 -28    1.09    0.96
   4   2  28    0.71    1.97
  -4   2 -28    2.41    1.33
  -5  -2 -28    5.82    1.25
   5  -2  28    5.75    1.81
  -5  -2 -28    5.80    1.66
   5  -2  28    1.97    2.16
  -5   2 -28    2.38    1.40
  -5   2 -28    5.25    1.46
   5   2  28    5.11    2.49
  -5   2 -28    3.30    1.13
  -6  -2 -28   -0.98    1.26
   6  -2  28    0.04    2.20
  -6  -2 -28   -0.44    1.13
   6  -2  28    0.90    1.61
  -6   2 -28    1.43    1.36
   6   2  28   -0.62    1.91
  -6   2 -28    0.84    1.12
   6   2  28    0.62    1.60
  -6   2 -28   -0.21    1.25
   7  -2  28    7.64    1.93
  -7  -2 -28    3.97    1.38
   7  -2  28    5.33    2.72
  -7  -2 -28    4.34    1.85
  -7   2 -28    4.57    1.75
   7   2  28    4.00    2.65
  -7   2 -28    7.05    1.94
   7   2  28    4.26    1.94
  -7   2 -28    5.18    1.43
  -8  -2 -28   -0.27    1.28
  -8  -2 -28   -0.57    1.77
   8  -2  28    1.07    1.54
   8  -2  28    1.75    2.43
   8   2  28   -2.03    2.13
  -8   2 -28    0.22    1.82
  -8   2 -28    1.96    1.37
  -8   2 -28    0.53    1.53
   8   2  28   -0.54    1.85
  -9  -2 -28    7.34    1.57
   9  -2  28    8.19    2.91
  -9   2 -28    9.30    2.19
   9   2  28    5.90    2.27
   9   2  28    6.31    2.82
 -10  -3  28    4.24    1.82
  10   3 -28    2.37    1.96
  -9  -3  28   -0.93    1.62
   9   3 -28   -0.89    1.70
  -8  -3  28   25.72    2.87
   8   3 -28   26.85    3.28
  -7  -3  28    2.76    1.75
   7   3 -28    0.25    1.67
  -7   3  28    2.00    1.95
  -6  -3  28    0.34    1.54
   6  -3 -28    2.35    1.87
  -6   3  28   -0.98    1.51
   6   3 -28    0.53    1.57
  -5  -3  28    2.48    1.56
  -5  -3  28    0.75    1.53
   5  -3 -28    6.19    1.80
   5   3 -28    0.43    1.40
  -4  -3  28   18.85    2.48
   4  -3 -28   19.73    2.56
  -4  -3  28   20.00    2.51
   4   3 -28   23.43    2.51
   3  -3 -28    1.65    1.39
  -3  -3  28   -0.19    1.25
  -3  -3  28   -1.98    1.35
   3   3 -28    1.79    1.25
   2  -3 -28   -0.54    1.11
  -2  -3  28    2.15    1.50
  -2  -3  28    1.18    1.43
  -1  -3  28    4.30    1.78
  -1  -3  28    5.01    1.63
   1  -3 -28    3.25    1.30
  -1   3  28    3.05    1.49
   1   3 -28    5.85    1.39
   0  -3  28    0.79    1.49
   0  -3  28   -0.19    1.49
   0  -3 -28   -1.40    0.97
   0   3 -28    0.78    1.09
   0   3  28   -0.39    1.40
   1  -3  28    1.20    1.80
   1  -3  28   -0.63    1.45
  -1  -3 -28    0.67    1.14
  -1   3 -28   -0.87    0.79
  -1   3 -28    0.12    1.05
   1   3  28    0.56    1.49
  -2  -3 -28   12.73    1.95
   2  -3  28    9.65    2.53
   2  -3  28   11.50    2.00
   2   3  28    4.47    1.83
  -2   3 -28    9.74    1.36
   3  -3  28   -0.37    1.50
   3  -3  28    3.33    2.05
  -3  -3 -28    0.49    1.14
  -3   3 -28    1.99    0.97
   3   3  28    2.77    1.92
   4  -3  28    3.40    1.56
   4  -3  28    3.85    2.45
  -4  -3 -28    0.97    1.31
  -4   3 -28    2.42    1.06
   4   3  28   -1.48    1.76
  -5  -3 -28    7.39    1.84
   5  -3  28    3.88    2.66
   5  -3  28    5.52    1.61
  -5   3 -28    5.54    1.27
   5   3  28    5.81    2.48
   6  -3  28    2.84    1.26
   6  -3  28    2.08    2.48
  -6  -3 -28    3.26    1.67
  -6   3 -28    1.85    1.16
   6   3  28    1.41    2.32
  -7  -3 -28   -0.87    1.55
   7  -3  28    5.09    2.72
   7   3  28    2.76    2.44
  -7   3 -28    5.40    1.41
   8  -3  28    2.16    2.54
   8   3  28    0.63    2.40
  -8   3 -28   -0.55    1.15
   9   3  28    3.57    2.63
   9   3  28   -0.54    2.07
  -9  -4  28   -2.23    1.35
   9   4 -28    0.23    1.98
  -8  -4  28   -0.47    1.49
  -8   4  28    0.20    2.15
   8   4 -28   -0.49    1.83
  -7  -4  28   -0.72    1.48
  -7   4  28   -2.24    1.88
   7   4 -28    1.78    1.90
  -6  -4  28   19.11    2.39
   6  -4 -28   19.12    3.07
   6   4 -28   18.92    2.75
  -6   4  28   27.17    3.56
  -5  -4  28   -0.21    1.41
  -5  -4  28    1.15    1.53
   5  -4 -28    0.87    1.51
   5   4 -28    2.26    1.60
  -4  -4  28    5.91    1.73
   4  -4 -28    7.26    2.10
  -4  -4  28    4.37    1.90
  -3  -4  28   -0.18    1.37
   3  -4 -28   -0.40    1.30
  -3  -4  28    1.89    1.64
  -2  -4  28   53.63    3.80
   2  -4 -28   53.07    3.56
  -2  -4  28   51.45    2.90
  -1  -4  28   11.16    2.35
   1  -4 -28    9.66    1.91
  -1  -4  28   10.69    1.61
   0  -4  28   12.89    2.54
   0  -4  28   11.50    1.44
   0  -4 -28   12.74    2.01
   0   4  28   11.02    2.20
   1  -4  28    7.63    2.47
  -1  -4 -28    7.79    1.86
   1   4  28    5.98    1.98
  -1   4 -28    7.46    1.31
  -2  -4 -28    8.57    1.84
   2  -4  28    4.51    2.43
  -2   4 -28    8.78    1.38
   2   4  28   10.48    2.36
   3  -4  28    5.69    2.73
  -3  -4 -28    1.91    1.49
  -3   4 -28    5.54    1.21
   3   4  28    5.65    2.23
  -4  -4 -28   51.44    3.49
   4  -4  28   51.99    5.50
  -4   4 -28   49.15    2.66
   4   4  28   54.36    5.09
  -5  -4 -28    2.71    1.57
   5  -4  28    3.07    2.62
  -5   4 -28    1.23    1.13
   5   4  28   -0.37    2.08
   6  -4  28    7.10    2.98
  -6  -4 -28    3.03    1.76
  -6   4 -28    6.17    1.46
   6   4  28    5.34    2.74
  -7  -4 -28   -1.61    1.59
   7  -4  28    0.70    2.50
   7   4  28    0.70    2.40
  -7   4 -28    1.56    1.22
   8   4  28   17.10    3.62
  -7   5  28    5.07    2.52
  -6  -5  28    2.20    2.07
   6  -5 -28    2.67    2.04
  -6   5  28    2.24    2.16
  -5  -5  28    3.43    1.95
   5  -5 -28   13.03    2.47
  -5   5  28   10.31    2.60
  -4  -5  28    0.88    1.73
   4  -5 -28    3.00    1.85
  -3  -5  28   13.68    2.61
   3  -5 -28   14.82    2.45
   2  -5 -28    4.45    1.79
  -2  -5  28    4.98    1.99
   1  -5 -28    2.03    1.41
  -1  -5  28   -0.44    1.73
   0  -5  28    1.69    1.90
   0  -5 -28    0.41    1.38
   0   5  28    0.99    1.66
  -1  -5 -28    0.89    1.41
   1  -5  28   -3.81    1.56
   1   5  28   -0.63    1.69
  -1   5 -28   -0.39    0.95
   2  -5  28    5.03    2.57
  -2  -5 -28    3.48    1.54
  -2   5 -28    3.81    1.16
   2   5  28    6.41    2.18
   3  -5  28    2.45    2.48
  -3  -5 -28   -0.20    1.40
  -3   5 -28   -0.53    0.97
   3   5  28   -0.30    1.92
   4  -5  28   -1.51    2.33
  -4  -5 -28    0.21    1.43
  -4   5 -28    1.20    1.11
   4   5  28    0.33    1.92
  -5  -5 -28    3.35    1.75
   5  -5  28    3.45    2.73
  -5   5 -28    1.86    1.25
   5   5  28    2.97    2.38
  -6  -5 -28    0.45    1.64
   6  -5  28   -0.24    2.43
  -6   5 -28    1.78    1.30
   6   5  28    3.59    2.53
   7  -5  28   12.33    3.33
   7   5  28    6.12    2.98
  -6  -6  28   -0.26    1.91
   5  -6 -28    4.35    2.07
  -5  -6  28    0.54    1.99
  -5   6  28   -1.13    1.72
  -4  -6  28   -0.08    1.74
   4  -6 -28    0.42    1.74
  -3  -6  28    2.75    2.08
   3  -6 -28    1.56    1.77
  -2  -6  28    2.44    2.16
   2  -6 -28    0.48    1.71
  -1  -6  28   11.55    2.90
   1  -6 -28   10.85    2.40
   0  -6 -28    0.30    1.64
   0  -6  28   -2.28    1.83
  -1  -6 -28    1.48    1.55
   1  -6  28    0.53    2.12
   1   6  28    1.37    1.92
  -1   6 -28    2.86    1.25
  -2  -6 -28    0.30    1.45
   2  -6  28    2.57    2.69
  -2   6 -28    0.49    1.12
   2   6  28   -0.17    1.85
   3  -6  28    7.99    3.27
  -3  -6 -28    6.36    1.99
   3   6  28    5.37    2.44
  -3   6 -28    5.09    1.42
  -4  -6 -28    2.44    1.80
   4  -6  28   -0.39    2.66
   4   6  28    3.61    2.39
  -4   6 -28    1.98    1.33
   5  -6  28    0.36    2.61
   5   6  28   -0.58    2.05
  -5   6 -28   -0.89    1.25
   6  -6  28    0.54    2.65
   6   6  28    3.26    2.68
  -5  -7  28   -0.36    2.10
  -4  -7  28    1.73    2.26
  -3  -7  28    2.94    2.27
   2  -7 -28    0.44    1.87
  -2  -7  28   -1.30    1.96
   1  -7 -28   -1.66    1.63
  -1  -7  28   -0.19    2.22
   0  -7  28   -0.80    2.38
   0  -7 -28    1.61    1.74
  -1  -7 -28    0.41    1.72
   1  -7  28    1.08    2.64
   2  -7  28    2.56    2.92
   2   7  28    1.94    2.12
   3  -7  28    0.48    2.83
   3   7  28   -0.03    2.00
   4  -7  28    0.62    2.90
   4   7  28   -2.16    2.07
  -2  -8  28    8.38    3.08
  -1  -8  28    1.88    2.68
   0  -8  28    7.55    3.13
   1  -8  28    6.39    3.11
 -10   0  29   -0.49    1.99
  -9   0  29   -0.88    1.89
   9   0 -29    0.16    1.21
   8   0 -29    0.41    1.29
  -8   0  29    1.15    2.02
  -7   0  29    2.80    2.05
   7   0 -29    3.78    1.49
  -6   0  29   -1.67    1.63
   6   0 -29   -1.32    1.33
   5   0 -29    8.69    1.77
  -5   0  29   13.13    2.34
  -4   0  29   -1.11    1.45
   4   0 -29    0.63    1.23
  -3   0  29    0.28    1.30
  -3   0  29   -0.09    1.16
   3   0 -29    1.82    1.20
   3   0 -29    0.44    1.16
   2   0 -29    0.18    1.00
  -2   0  29    0.73    1.34
   2   0 -29    0.98    1.09
  -2   0  29    1.96    1.26
   1   0 -29   45.54    2.65
   1   0 -29   49.62    2.67
  -1   0  29   42.42    2.85
  -1   0  29   48.49    3.17
   0   0  29    0.72    1.15
   0   0 -29    0.34    0.91
   0   0  29    0.66    1.26
  -1   0 -29    4.62    1.18
   1   0  29    7.88    1.54
   1   0  29    7.32    1.89
  -1   0 -29    6.04    1.25
  -2   0 -29   -0.71    0.95
  -2   0 -29   -0.75    0.87
   2   0  29   -0.86    1.04
   2   0  29   -1.99    1.31
  -3   0 -29   50.74    2.93
  -3   0 -29   58.31    2.91
   3   0  29   49.34    3.14
   3   0  29   50.91    4.39
   4   0  29   -2.42    1.19
  -4   0 -29    0.51    1.17
   4   0  29    0.13    1.76
  -4   0 -29   -0.32    1.09
  -5   0 -29    3.00    1.32
   5   0  29    4.61    1.76
   5   0  29   -0.53    1.94
  -5   0 -29    2.25    1.41
   6   0  29    1.85    1.69
   6   0  29   -2.14    1.86
  -6   0 -29   -0.47    1.26
  -6   0 -29   -1.08    1.21
   7   0  29    1.56    2.18
   7   0  29    0.96    1.77
  -7   0 -29   -0.33    1.38
  -7   0 -29    2.74    1.62
   8   0  29    2.02    1.91
  -8   0 -29    0.30    1.49
   8   0  29    1.56    2.23
  -8   0 -29    1.81    1.75
   9   0  29    7.89    2.28
   9   0  29    8.05    2.89
  -9   0 -29    7.07    2.01
 -10  -1  29    4.05    2.20
  10   1 -29    3.24    1.60
  -9  -1  29    2.09    1.97
   9   1 -29    3.94    1.72
  -8  -1  29    8.80    2.24
   8   1 -29    7.91    1.97
  -7  -1  29    1.04    1.70
   7   1 -29    2.67    1.74
   6  -1 -29   12.33    1.35
  -6  -1  29   14.20    2.55
  -6   1  29   10.17    2.23
   6   1 -29   11.86    2.20
  -5  -1  29   11.63    2.20
   5  -1 -29   11.47    1.46
   5  -1 -29   13.42    2.29
  -5   1  29   17.76    2.40
   5   1 -29    9.20    1.96
   4  -1 -29   -1.96    1.03
   4  -1 -29    2.21    1.39
  -4  -1  29   -0.06    1.33
   4   1 -29    1.36    1.38
   3  -1 -29    2.39    1.12
   3  -1 -29    0.73    1.17
  -3  -1  29    3.71    1.44
  -3  -1  29   -0.78    1.35
   3   1 -29    0.35    1.21
   2  -1 -29   10.97    1.68
  -2  -1  29   13.58    2.03
  -2  -1  29   15.24    2.18
   2  -1 -29   13.70    1.58
   2   1 -29   12.28    1.72
  -2   1  29   14.09    1.98
   1  -1 -29   10.62    1.45
  -1  -1  29   13.42    1.91
  -1  -1  29   11.31    1.98
   1  -1 -29   13.36    1.69
  -1   1  29   11.10    1.93
   0  -1 -29   13.82    1.55
   0  -1 -29   15.42    1.81
   0  -1  29   14.69    2.29
   0  -1  29   17.63    2.03
   0   1 -29   14.27    1.71
   0   1  29   13.28    1.87
   0   1  29   13.81    2.14
   1  -1  29    3.25    1.63
   1  -1  29    1.46    1.25
  -1  -1 -29    1.56    1.05
  -1   1 -29   -1.29    0.95
   1   1  29    0.55    1.42
  -1   1 -29    0.95    0.89
   1   1  29    0.79    1.22
   2  -1  29    9.72    2.25
  -2  -1 -29    7.78    1.27
   2  -1  29    8.12    1.73
  -2  -1 -29    6.12    1.40
  -2   1 -29    7.32    1.38
   2   1  29    8.38    1.69
   2   1  29    5.52    1.98
  -2   1 -29    4.94    1.24
   3  -1  29    0.34    1.75
   3  -1  29    1.00    1.34
  -3  -1 -29   -0.33    0.93
  -3  -1 -29   -0.43    1.07
  -3   1 -29    1.46    1.08
   3   1  29    0.00    1.76
   3   1  29    0.81    1.28
  -3   1 -29    1.19    1.10
   4  -1  29    7.13    2.49
  -4  -1 -29    6.44    1.37
  -4  -1 -29    6.74    1.58
   4  -1  29    7.32    1.76
  -4   1 -29    9.10    1.63
   4   1  29    9.15    2.64
   4   1  29    5.23    1.67
  -4   1 -29    8.44    1.57
   5  -1  29   10.15    2.85
   5  -1  29   13.12    2.20
  -5  -1 -29   14.77    2.26
  -5  -1 -29   11.91    1.71
  -5   1 -29   15.58    2.07
   5   1  29   12.89    3.04
   5   1  29   17.10    2.41
  -5   1 -29   13.94    1.57
  -5   1 -29   11.89    1.89
   6  -1  29   12.06    3.21
   6  -1  29   15.53    2.40
  -6  -1 -29   17.44    2.45
  -6  -1 -29   17.03    2.02
   6   1  29   17.40    2.59
  -6   1 -29   17.58    2.37
  -6   1 -29   17.10    2.22
   6   1  29   18.86    3.57
  -6   1 -29   13.18    1.66
   7  -1  29    1.83    2.34
  -7  -1 -29    3.25    1.56
  -7  -1 -29    0.62    1.65
   7  -1  29    1.60    1.70
   7   1  29    0.35    2.23
  -7   1 -29    2.97    1.28
  -7   1 -29    2.18    1.52
  -7   1 -29    1.63    1.65
   7   1  29    2.77    1.90
   8  -1  29    3.55    1.79
  -8  -1 -29   -0.79    1.42
   8  -1  29    4.31    2.49
  -8  -1 -29    4.24    2.06
  -8   1 -29   -0.11    1.77
   8   1  29    2.52    1.93
  -8   1 -29    2.28    1.68
   8   1  29    2.35    2.37
  -8   1 -29    1.22    1.37
   9  -1  29    1.29    1.75
   9  -1  29    1.04    2.28
  -9  -1 -29    2.09    1.64
  -9   1 -29    4.32    1.94
   9   1  29   -0.32    1.91
   9   1  29    6.94    2.69
 -10  -2  29    9.84    2.31
  10   2 -29   11.03    2.36
  -9  -2  29   -1.96    1.68
   9   2 -29   -1.84    1.68
  -8  -2  29    1.20    1.65
  -8   2  29    4.56    2.47
   8   2 -29   -0.06    1.68
  -7  -2  29   -0.28    1.54
  -7   2  29    1.32    1.79
   7   2 -29    0.58    1.62
  -6  -2  29   81.25    4.45
   6   2 -29   69.80    4.12
  -6   2  29   66.73    4.41
  -5  -2  29   -1.64    1.41
   5  -2 -29    0.43    1.49
   5   2 -29   -1.15    1.37
  -5   2  29   -1.08    1.23
   4  -2 -29    1.79    1.39
  -4  -2  29    2.23    1.34
  -4  -2  29    1.76    1.60
   4   2 -29    2.61    1.45
   3  -2 -29    3.81    1.47
  -3  -2  29    2.84    1.42
  -3  -2  29    1.91    1.52
   3   2 -29    4.28    1.35
  -2  -2  29   85.01    4.20
  -2  -2  29   77.34    4.29
   2  -2 -29   78.98    3.89
  -1  -2  29    5.31    1.60
   1  -2 -29    8.66    1.61
  -1  -2  29    8.28    1.88
  -1   2  29   11.17    1.86
   0  -2  29    8.02    2.00
   0  -2 -29    7.11    1.53
   0  -2  29    5.26    1.61
   0   2  29    4.65    1.64
   0   2 -29    7.13    1.48
  -1  -2 -29    0.88    0.82
   1  -2  29    1.46    1.45
   1  -2  29    0.50    1.48
  -1  -2 -29    0.97    1.06
  -1   2 -29    2.19    1.16
   1   2  29    3.06    1.68
   2  -2  29   14.50    2.74
  -2  -2 -29   12.77    1.33
   2  -2  29   13.60    2.02
  -2  -2 -29   10.89    1.76
  -2   2 -29   11.75    1.75
   2   2  29   12.19    2.51
   3  -2  29   -0.10    1.82
  -3  -2 -29    3.15    1.34
   3  -2  29    1.29    1.41
  -3   2 -29    0.51    1.05
   3   2  29    2.81    1.94
  -3   2 -29    1.11    0.92
   4  -2  29   26.04    3.72
  -4  -2 -29   30.64    2.85
   4  -2  29   23.27    2.55
   4   2  29   23.40    3.53
  -4   2 -29   23.45    2.33
  -4   2 -29   26.99    2.07
  -5  -2 -29    1.65    1.52
   5  -2  29    2.98    1.67
  -5  -2 -29    1.13    1.10
   5  -2  29    0.87    2.20
  -5   2 -29    5.03    1.58
   5   2  29    2.31    2.20
  -5   2 -29    4.17    1.18
   6  -2  29    4.23    1.78
  -6  -2 -29    4.50    1.73
  -6  -2 -29    2.75    1.26
   6  -2  29    1.83    2.38
  -6   2 -29    1.00    1.16
  -6   2 -29    3.07    1.54
   6   2  29    3.93    1.83
   6   2  29    4.91    2.54
  -7  -2 -29   -1.09    1.49
  -7  -2 -29    2.08    1.32
   7  -2  29    1.19    1.67
   7  -2  29    1.29    2.37
   7   2  29   -1.10    2.15
   7   2  29    0.66    1.89
  -7   2 -29   -0.72    1.13
  -7   2 -29    2.49    1.58
   8  -2  29    3.99    2.54
  -8  -2 -29    5.86    1.61
   8  -2  29    6.07    1.76
   8   2  29    7.91    2.35
   8   2  29   11.66    3.25
  -8   2 -29    4.78    1.85
  -8   2 -29    6.29    1.66
   9  -2  29    0.55    2.39
   9   2  29    1.61    2.54
  -9   2 -29    0.05    1.63
   9   2  29   -2.74    1.81
  -9  -3  29    5.91    1.96
   9   3 -29    1.70    1.87
  -8  -3  29   -0.84    1.62
  -8   3  29   -1.35    1.98
   8   3 -29    1.97    1.91
  -7  -3  29    1.96    1.75
   7   3 -29    0.38    1.68
  -7   3  29    1.82    1.99
  -6  -3  29    1.46    1.68
   6  -3 -29    6.22    2.11
  -6   3  29    5.66    2.12
   6   3 -29    3.29    1.74
  -5  -3  29   17.02    2.44
   5  -3 -29   20.23    2.72
   5   3 -29   18.26    2.48
  -4  -3  29    7.58    1.90
   4  -3 -29    5.14    1.75
  -4  -3  29    5.91    1.81
   4   3 -29    5.01    1.65
   3  -3 -29    9.65    1.83
  -3  -3  29    9.86    2.08
  -3  -3  29    8.30    1.97
   3   3 -29    8.90    1.72
   2  -3 -29    0.85    1.28
  -2  -3  29   -0.54    1.45
  -2  -3  29   -0.71    1.30
  -1  -3  29    5.00    1.71
  -1  -3  29    6.60    1.97
   1  -3 -29    7.05    1.58
  -1   3  29    4.53    1.70
   1   3 -29   10.49    1.66
   0  -3 -29   19.74    2.36
   0  -3  29   14.17    2.55
   0  -3  29   17.98    2.31
   0   3 -29   16.60    2.08
   0   3  29   23.18    2.75
   1  -3  29    2.41    1.75
  -1  -3 -29    2.30    1.36
   1  -3  29    3.97    1.69
  -1   3 -29    2.62    1.24
   1   3  29   -1.03    1.46
   2  -3  29   12.18    2.76
   2  -3  29    9.96    1.97
  -2  -3 -29   12.59    2.03
   2   3  29    9.37    2.41
  -2   3 -29   12.38    1.88
  -2   3 -29   10.02    1.41
   3  -3  29   -0.07    1.53
  -3  -3 -29    0.68    1.29
   3  -3  29    1.26    2.04
  -3   3 -29   -0.17    0.90
   3   3  29    0.65    1.65
   4  -3  29    6.99    2.78
   4  -3  29    6.98    1.83
  -4  -3 -29    7.60    1.86
  -4   3 -29    7.09    1.29
   4   3  29    3.79    2.13
  -5  -3 -29   12.46    2.30
   5  -3  29    7.57    1.72
   5  -3  29    7.24    2.91
  -5   3 -29    9.71    1.50
   5   3  29    3.37    2.45
  -6  -3 -29    2.61    1.65
   6  -3  29    3.81    1.24
   6  -3  29    6.38    2.78
   6   3  29    8.14    2.87
  -6   3 -29    3.74    1.30
  -7  -3 -29    6.24    2.04
   7  -3  29    2.36    2.56
   7   3  29    1.51    2.50
  -7   3 -29    3.03    1.34
   8  -3  29    3.19    2.79
   8   3  29    3.64    2.71
  -9  -4  29    0.30    1.47
   9   4 -29    2.38    2.13
  -8  -4  29   -0.19    1.48
   8   4 -29    1.21    2.00
  -7  -4  29    2.77    1.63
  -7   4  29    6.24    2.42
   7   4 -29    3.04    1.97
  -6  -4  29    0.91    1.59
   6  -4 -29    0.41    1.90
  -6   4  29    0.09    1.82
   6   4 -29    0.10    1.71
  -5  -4  29    2.35    1.78
   5  -4 -29    4.93    1.88
  -5  -4  29    2.08    1.66
   5   4 -29    2.23    1.66
  -4  -4  29    0.18    1.50
  -4  -4  29    1.56    1.66
   4  -4 -29    0.85    1.52
   3  -4 -29   -1.79    1.22
  -3  -4  29   -0.21    1.42
  -3  -4  29    0.24    1.44
  -2  -4  29    2.25    1.38
   2  -4 -29    0.83    1.29
  -2  -4  29    3.68    1.82
  -1  -4  29   19.84    2.00
   1  -4 -29   21.23    2.55
  -1  -4  29   21.08    2.95
   0  -4  29    4.79    2.06
   0  -4 -29    6.60    1.60
   0  -4  29    2.70    1.29
   0   4  29    4.32    1.85
  -1  -4 -29   -0.34    1.10
   1  -4  29    0.28    1.95
  -1   4 -29    1.44    0.98
   1   4  29    1.03    1.67
  -2  -4 -29    0.81    1.28
   2  -4  29    0.18    2.13
   2   4  29   -0.97    1.64
  -2   4 -29    2.84    1.07
   3  -4  29   14.17    3.32
  -3  -4 -29   18.02    2.48
  -3   4 -29   16.75    1.73
   3   4  29   18.47    3.14
  -4  -4 -29    2.73    1.48
   4  -4  29    1.27    2.49
  -4   4 -29    3.12    1.11
   4   4  29    3.62    2.16
  -5  -4 -29   -1.39    1.32
   5  -4  29   -3.02    2.22
   5   4  29   -0.55    2.04
  -5   4 -29   -0.09    0.98
  -6  -4 -29    2.30    1.77
   6  -4  29   -0.54    2.39
   6   4  29    1.36    2.42
  -6   4 -29   -0.01    1.09
   7  -4  29    2.72    2.79
   7   4  29    2.34    2.48
  -7   4 -29    1.91    1.29
   8  -4  29   -1.39    2.34
   8   4  29   -1.68    2.30
   8   5 -29    1.91    2.29
   6  -5 -29    3.94    2.20
  -6   5  29    1.56    2.06
  -5  -5  29   -1.21    1.54
   5  -5 -29   -0.29    1.62
  -5   5  29    0.85    2.03
  -4  -5  29   -0.94    1.58
   4  -5 -29   -0.97    1.53
  -3  -5  29    1.04    1.83
   3  -5 -29   -0.21    1.46
   2  -5 -29    4.22    1.75
  -2  -5  29    5.40    2.26
  -1  -5  29    1.38    1.76
   1  -5 -29    2.99    1.68
   0  -5 -29   12.64    2.19
   0  -5  29    8.94    2.51
   0   5  29   10.10    2.24
  -1  -5 -29   -0.55    1.30
   1  -5  29    1.97    2.09
  -1   5 -29    0.95    1.05
   1   5  29    0.44    1.78
   2  -5  29    2.48    2.36
  -2  -5 -29    0.03    1.38
   2   5  29    2.23    1.93
  -2   5 -29   -0.34    0.95
   3  -5  29    3.49    2.44
  -3  -5 -29   -2.33    1.24
   3   5  29   -0.46    1.81
  -3   5 -29    2.08    1.13
   4  -5  29    0.01    2.43
  -4  -5 -29    5.93    1.94
  -4   5 -29    5.23    1.35
   4   5  29    6.29    2.53
  -5  -5 -29    2.02    1.65
   5  -5  29    3.77    2.92
   5   5  29    0.93    2.31
  -5   5 -29    1.24    1.20
   6  -5  29   10.82    3.45
  -6   5 -29   10.61    1.73
   6   5  29    7.86    3.03
   7  -5  29   -1.56    2.45
   7   5  29    1.65    2.53
  -6  -6  29   21.56    3.44
   5  -6 -29    0.64    1.90
  -5  -6  29    2.07    2.10
  -5   6  29    0.18    1.97
   4  -6 -29   -0.51    1.78
  -4  -6  29    3.49    2.10
  -3  -6  29    4.51    2.24
   3  -6 -29    4.17    1.88
  -2  -6  29   21.03    3.44
   2  -6 -29   21.40    2.99
  -1  -6  29   12.63    3.16
   1  -6 -29   12.02    2.44
   0  -6  29    2.48    2.29
   0  -6 -29    2.98    1.83
   1  -6  29    0.77    2.41
  -1  -6 -29    0.91    1.48
   1   6  29    1.68    2.14
  -1   6 -29    2.92    1.29
  -2  -6 -29    6.70    2.00
   2  -6  29    1.11    2.74
  -2   6 -29    3.09    1.35
   2   6  29    4.68    2.33
  -3  -6 -29    2.92    1.69
   3  -6  29    1.81    2.74
  -3   6 -29    0.94    1.28
   3   6  29    2.59    2.15
   4  -6  29    0.60    2.74
  -4  -6 -29    9.11    2.27
  -4   6 -29    9.43    1.67
   4   6  29    6.90    2.77
   5  -6  29    3.32    3.00
  -5   6 -29    2.14    1.38
   5   6  29    6.60    2.77
   6  -6  29    1.41    2.70
   6   6  29   -1.34    2.24
  -5  -7  29    7.56    2.66
  -4  -7  29    3.16    2.33
  -3  -7  29    4.73    2.41
  -2  -7  29   -2.54    1.92
   1  -7 -29   -1.92    1.65
  -1  -7  29   -1.97    2.09
   0  -7  29    9.15    3.03
   0  -7 -29    5.49    2.28
   1  -7  29    1.54    2.71
   2  -7  29    4.28    3.02
   2   7  29    7.78    2.71
   3  -7  29   -0.88    2.68
   3   7  29    0.10    2.39
   4  -7  29   -0.29    2.94
   4   7  29    6.34    2.82
  -1  -8  29    1.64    2.65
   0  -8  29   -2.80    2.24
 -10   0  30    3.77    2.33
  -9   0  30   -2.06    1.88
   9   0 -30    0.30    1.12
   8   0 -30    7.69    1.58
  -8   0  30    8.51    2.49
  -7   0  30    3.30    2.09
   7   0 -30    0.07    1.35
   6   0 -30   71.66    3.68
  -6   0  30   70.71    4.54
  -5   0  30   -0.07    1.60
   5   0 -30   -0.35    1.29
  -4   0  30   21.80    2.69
   4   0 -30   21.79    2.25
  -3   0  30    1.09    1.41
   3   0 -30   -0.04    1.14
   2   0 -30    7.45    1.48
  -2   0  30    6.52    1.63
   2   0 -30    9.07    1.57
  -2   0  30    4.25    1.57
   1   0 -30    2.43    1.09
  -1   0  30    1.12    1.29
  -1   0  30    3.17    1.40
   1   0 -30   -0.96    0.97
   0   0  30   22.19    2.37
   0   0 -30   19.87    1.99
   0   0  30   19.01    2.46
  -1   0 -30    0.18    0.90
   1   0  30    0.04    1.42
  -1   0 -30    1.11    1.03
   1   0  30    0.02    1.12
  -2   0 -30    1.78    1.10
   2   0  30    0.06    1.57
   2   0  30    3.64    1.38
  -2   0 -30    0.15    1.00
   3   0  30   -0.39    1.64
   3   0  30   -1.37    1.15
  -3   0 -30   -0.46    1.05
  -3   0 -30    1.34    1.10
   4   0  30    1.55    1.52
  -4   0 -30    0.49    1.12
  -4   0 -30   -1.32    1.09
   4   0  30    0.58    1.96
  -5   0 -30    0.51    1.24
  -5   0 -30    1.24    1.35
   5   0  30    0.47    1.54
   5   0  30   -0.43    1.89
   6   0  30    8.55    2.86
  -6   0 -30   15.11    2.41
   6   0  30    9.95    2.24
  -6   0 -30   10.59    1.82
  -7   0 -30    3.55    1.57
   7   0  30   -0.71    1.62
  -7   0 -30    0.25    1.51
   7   0  30   -1.61    2.05
  -8   0 -30    0.86    1.72
   8   0  30    1.07    1.88
   8   0  30    0.25    2.14
  -8   0 -30   -0.43    1.45
   9   0  30    0.37    1.87
  -9   0 -30   -0.17    1.55
   9   0  30    1.17    2.35
 -10  -1  30    6.55    2.34
  10   1 -30    5.72    1.75
  -9  -1  30    5.93    2.19
   9   1 -30    2.96    1.66
  -8  -1  30    0.75    1.76
   8   1 -30    0.56    1.56
  -7  -1  30   -0.61    1.65
   7   1 -30   -1.29    1.49
   6  -1 -30   10.91    1.22
  -6  -1  30   10.95    2.37
  -6   1  30    8.57    2.12
   6   1 -30    9.39    2.05
   5  -1 -30   11.73    2.23
   5  -1 -30   15.11    1.59
  -5  -1  30   19.13    2.63
  -5   1  30   15.20    2.33
   5   1 -30   15.79    2.25
  -4  -1  30   31.29    3.04
   4  -1 -30   32.70    2.32
   4  -1 -30   38.14    3.15
   4   1 -30   33.50    2.89
   3  -1 -30    3.54    1.40
  -3  -1  30    3.02    1.57
  -3  -1  30    4.46    1.54
   3  -1 -30    4.61    1.31
   3   1 -30    3.53    1.46
  -2  -1  30   16.88    2.28
  -2  -1  30   17.09    2.22
   2  -1 -30   15.48    1.72
   2  -1 -30   17.81    2.05
  -2   1  30   15.34    2.11
   2   1 -30   14.93    1.86
  -1  -1  30    9.47    1.93
   1  -1 -30   14.24    1.60
   1  -1 -30   13.22    1.72
  -1  -1  30    7.20    1.74
  -1   1  30   10.59    1.94
   0  -1  30   23.58    2.86
   0  -1  30   29.45    2.65
   0  -1 -30   25.03    2.01
   0  -1 -30   27.16    2.35
   0   1  30   31.87    2.96
   0   1 -30   26.61    2.27
   0   1  30   29.42    2.57
  -1  -1 -30   19.89    2.11
   1  -1  30   17.41    2.57
   1  -1  30   19.05    2.23
   1   1  30   19.47    2.62
   1   1  30   22.17    2.33
  -1   1 -30   16.30    1.91
   2  -1  30    5.98    1.61
   2  -1  30    7.63    2.17
  -2  -1 -30    4.35    1.38
   2   1  30    4.47    1.58
  -2   1 -30    6.04    1.42
   2   1  30    7.86    2.14
  -2   1 -30    7.30    1.36
   3  -1  30   -1.18    1.60
  -3  -1 -30    1.91    1.21
  -3  -1 -30    1.49    1.04
   3  -1  30    0.91    1.39
   3   1  30    0.06    1.34
   3   1  30   -0.50    1.72
  -3   1 -30   -1.34    0.95
  -3   1 -30    2.11    1.16
  -4  -1 -30   19.11    2.23
   4  -1  30   18.53    3.30
  -4  -1 -30   17.67    1.88
   4  -1  30   20.82    2.48
  -4   1 -30   18.58    2.12
  -4   1 -30   20.70    2.20
   4   1  30   17.86    3.25
   4   1  30   19.93    2.45
  -5  -1 -30   15.53    2.30
   5  -1  30   14.56    2.24
  -5  -1 -30   13.87    1.77
   5  -1  30   19.12    3.53
   5   1  30   17.15    2.45
  -5   1 -30   11.70    1.97
  -5   1 -30   15.74    2.18
   5   1  30   16.94    3.39
  -6  -1 -30    8.78    1.65
   6  -1  30    8.66    2.09
  -6  -1 -30    8.06    1.99
   6  -1  30    9.77    3.17
  -6   1 -30    7.09    1.84
   6   1  30    8.61    2.15
  -6   1 -30   10.47    1.96
   6   1  30    5.67    2.74
   7  -1  30    1.15    2.31
   7  -1  30   -2.05    1.57
  -7  -1 -30    0.09    1.34
  -7  -1 -30   -0.87    1.59
  -7   1 -30    0.15    1.58
   7   1  30    2.02    1.88
   7   1  30   -0.04    2.19
  -7   1 -30    2.31    1.55
   8  -1  30    1.84    1.81
  -8  -1 -30    1.48    1.54
   8  -1  30    0.52    2.23
   8   1  30    1.45    2.21
  -8   1 -30    0.01    1.76
   8   1  30    0.76    1.88
  -8   1 -30    3.48    1.72
  -9  -1 -30    6.73    1.86
   9  -1  30    9.78    2.15
   9  -1  30    8.06    2.95
   9   1  30    6.26    2.35
  -9   1 -30    7.75    2.08
   9   1  30    4.69    2.50
 -10  -2  30   -2.39    1.67
  10   2 -30   -2.83    1.64
  -9  -2  30    1.66    1.90
   9   2 -30    1.07    1.87
  -8  -2  30    0.41    1.79
  -8   2  30    0.97    2.16
   8   2 -30   -1.22    1.64
  -7  -2  30   -1.36    1.62
   7   2 -30    0.20    1.70
  -7   2  30    1.09    2.02
  -6  -2  30    0.24    1.63
  -6   2  30    3.05    1.90
   6   2 -30    0.36    1.60
  -5  -2  30    2.76    1.84
   5  -2 -30    2.25    1.62
  -5   2  30    3.20    1.62
   5   2 -30    1.09    1.50
  -4  -2  30   -0.08    1.43
   4  -2 -30    1.94    1.53
  -4  -2  30    0.89    1.41
   4   2 -30   -0.86    1.28
  -3  -2  30    3.60    1.64
  -3  -2  30    4.11    1.51
   3  -2 -30    6.44    1.66
   3   2 -30    4.56    1.48
   2  -2 -30    5.31    1.49
  -2  -2  30    1.91    1.52
  -2  -2  30    4.42    1.66
  -1  -2  30   49.25    3.59
  -1  -2  30   50.95    3.34
   1  -2 -30   47.23    2.95
  -1   2  30   61.84    3.47
   0  -2 -30    2.15    1.26
   0  -2  30    5.13    1.61
   0  -2  30    1.19    1.56
   0   2  30    1.42    1.44
   0   2 -30    2.04    1.18
   1  -2  30   16.25    2.19
  -1  -2 -30   19.48    2.23
  -1  -2 -30   21.67    1.48
   1  -2  30   20.73    2.95
   1   2  30   23.30    2.98
  -1   2 -30   24.09    2.23
  -2  -2 -30   -0.49    0.83
   2  -2  30   -0.05    1.81
  -2  -2 -30    0.14    1.13
   2  -2  30   -0.64    1.30
   2   2  30   -0.15    1.60
  -2   2 -30   -0.25    1.06
   3  -2  30   12.35    2.09
  -3  -2 -30    9.05    1.82
   3  -2  30   12.60    2.79
  -3   2 -30    9.95    1.39
   3   2  30    9.16    2.44
  -3   2 -30    9.91    1.72
  -4  -2 -30   -0.94    1.23
   4  -2  30    0.21    2.10
   4  -2  30    0.17    1.47
  -4   2 -30   -1.08    0.88
  -4   2 -30    0.84    1.24
   4   2  30   -0.96    1.79
   5  -2  30    2.13    2.49
  -5  -2 -30   -0.49    1.29
   5  -2  30    0.98    1.59
  -5   2 -30    2.56    1.13
  -5   2 -30    3.62    1.49
   5   2  30    0.13    2.12
  -6  -2 -30    3.76    1.70
   6  -2  30    1.20    1.62
  -6  -2 -30    0.01    1.13
   6  -2  30    6.93    2.83
   6   2  30   -2.14    1.56
  -6   2 -30   -0.63    1.10
   6   2  30    0.63    2.27
  -6   2 -30   -0.23    1.39
   7  -2  30   -2.53    2.02
   7  -2  30    0.79    1.60
  -7  -2 -30    0.47    1.26
  -7  -2 -30   -0.83    1.54
  -7   2 -30    1.21    1.56
   7   2  30   -1.74    2.18
  -7   2 -30   -1.12    1.18
   7   2  30   -3.64    1.66
   8  -2  30   -1.38    1.45
   8  -2  30   -2.64    2.06
  -8  -2 -30    0.98    1.33
   8   2  30    1.18    2.02
   8   2  30   -2.85    2.05
  -8   2 -30   -0.72    1.37
  -8   2 -30    0.26    1.61
  -9  -3  30    6.19    2.02
   9   3 -30    7.24    2.25
  -8  -3  30    1.59    1.66
  -8   3  30    0.20    2.08
   8   3 -30   -0.34    1.76
  -7  -3  30   -1.03    1.51
  -7   3  30    0.87    1.96
   7   3 -30   -0.29    1.68
   6  -3 -30   16.81    2.84
  -6  -3  30   15.37    2.33
  -6   3  30   14.85    2.78
   6   3 -30   12.12    2.32
  -5  -3  30    3.15    1.73
   5  -3 -30    4.59    1.89
   5   3 -30    5.26    1.79
  -4  -3  30   20.51    2.67
  -4  -3  30   26.38    2.79
   4  -3 -30   22.36    2.73
   4   3 -30   17.92    2.37
   3  -3 -30   -0.55    1.29
  -3  -3  30    4.86    1.84
  -3  -3  30    1.66    1.51
   3   3 -30    3.15    1.40
  -2  -3  30   16.13    2.34
   2  -3 -30   14.18    2.13
  -2  -3  30   14.99    2.43
  -1  -3  30   11.93    2.39
  -1  -3  30   18.35    2.38
   1  -3 -30   17.09    2.23
  -1   3  30   17.22    2.44
   1   3 -30   18.46    2.13
   0  -3  30   38.05    3.81
   0  -3 -30   34.98    3.03
   0  -3  30   39.68    3.13
   0   3  30   32.46    3.30
   0   3 -30   35.19    2.82
   1  -3  30    9.38    2.00
   1  -3  30    9.96    2.47
  -1  -3 -30    7.46    1.70
   1   3  30    9.66    2.23
  -1   3 -30    5.86    1.56
   2  -3  30    5.35    1.81
  -2  -3 -30    3.47    1.47
   2  -3  30    1.98    2.11
   2   3  30    1.45    1.61
  -2   3 -30    1.51    1.26
  -2   3 -30    1.02    0.95
   3  -3  30   -0.56    1.45
   3  -3  30   -2.67    1.81
  -3  -3 -30    1.66    1.41
   3   3  30    2.47    1.98
  -3   3 -30    0.49    1.31
  -3   3 -30    0.11    0.97
  -4  -3 -30   11.92    2.10
   4  -3  30   17.01    3.42
   4  -3  30   13.41    2.13
   4   3  30   17.57    3.24
  -4   3 -30   15.83    1.73
   5  -3  30    6.58    2.92
   5  -3  30    4.09    1.62
  -5  -3 -30    6.06    1.83
   5   3  30    3.80    2.43
  -5   3 -30    4.95    1.33
   6  -3  30   11.01    3.18
  -6  -3 -30    8.77    2.23
  -6   3 -30   13.91    1.77
   6   3  30   15.20    3.50
   7  -3  30    0.48    2.27
  -7  -3 -30    1.34    1.81
   7   3  30   -1.41    2.16
  -7   3 -30    2.03    1.27
   8  -3  30    3.85    2.82
   8   3  30   -2.42    2.24
  -9  -4  30   -1.13    1.39
   9   4 -30    1.61    2.08
  -8  -4  30    2.83    1.60
   8   4 -30    0.24    2.00
  -7  -4  30   -0.06    1.56
   7   4 -30    0.35    1.89
  -7   4  30    3.86    2.26
   6  -4 -30   29.22    3.54
  -6  -4  30   24.36    2.55
  -6   4  30   22.06    3.35
   6   4 -30   29.32    3.19
   5  -4 -30    1.04    1.72
  -5  -4  30    0.34    1.59
  -5  -4  30    0.81    1.60
   5   4 -30   -1.75    1.44
  -4  -4  30    5.26    1.72
  -4  -4  30    4.72    1.96
   4  -4 -30    8.54    1.98
   4   4 -30    8.02    1.96
   3  -4 -30    5.85    1.84
  -3  -4  30    9.17    1.79
  -3  -4  30    3.85    1.89
   2  -4 -30    2.36    1.43
  -2  -4  30    0.29    1.63
  -2  -4  30    1.04    1.47
  -1  -4  30    7.86    1.61
  -1  -4  30    7.99    2.25
   1  -4 -30    8.22    1.92
   0  -4 -30    7.57    1.84
   0  -4  30    8.59    2.43
   0  -4  30    6.39    1.44
   0   4  30   10.02    2.23
   1  -4  30    4.38    2.11
  -1  -4 -30    1.25    1.42
   1   4  30    2.46    1.78
  -1   4 -30   -0.69    0.86
  -2  -4 -30    2.05    1.49
   2  -4  30    0.80    2.03
   2   4  30   -3.01    1.47
  -2   4 -30   -0.77    0.92
  -3  -4 -30    2.81    1.49
   3  -4  30    1.27    2.38
   3   4  30    2.16    2.02
  -3   4 -30    0.85    1.02
   4  -4  30   -0.09    2.39
  -4  -4 -30    0.94    1.42
  -4   4 -30    0.20    1.01
   4   4  30    1.26    2.15
   5  -4  30    0.78    2.60
  -5  -4 -30    6.44    1.99
  -5   4 -30    5.33    1.34
   5   4  30    1.58    2.28
   6  -4  30    7.59    3.16
  -6  -4 -30    3.04    1.83
   6   4  30   13.34    3.38
  -6   4 -30    6.68    1.49
   7  -4  30   -0.45    2.48
   7   4  30    3.26    2.72
   8   5 -30    0.90    2.15
   6  -5 -30    0.52    2.05
  -6   5  30    0.58    2.12
  -5  -5  30   14.84    2.71
   5  -5 -30   17.64    2.87
  -5   5  30   13.72    2.96
   4  -5 -30   22.99    3.04
  -4  -5  30   17.79    2.92
   3  -5 -30    4.64    1.79
  -3  -5  30    2.88    1.96
   2  -5 -30    5.17    1.76
  -2  -5  30    1.24    1.88
   1  -5 -30    4.47    1.75
  -1  -5  30    5.50    2.19
   0  -5  30   15.44    3.01
   0  -5 -30   12.22    2.26
   0   5  30   11.23    2.42
   1  -5  30    6.14    2.43
  -1  -5 -30    7.68    1.98
   1   5  30    6.74    2.30
  -1   5 -30    6.63    1.39
  -2  -5 -30    1.42    1.45
   2  -5  30    4.16    2.50
   2   5  30    3.15    2.11
  -2   5 -30    4.09    1.25
   3  -5  30    0.42    2.45
  -3  -5 -30   -0.87    1.25
  -3   5 -30    0.80    1.12
   3   5  30    0.74    2.09
   4  -5  30    7.52    3.14
  -4  -5 -30    8.74    2.10
  -4   5 -30    9.34    1.58
   4   5  30   14.56    3.20
   5  -5  30    7.72    3.21
  -5  -5 -30   11.14    2.40
  -5   5 -30    9.14    1.64
   5   5  30   11.06    3.21
   6  -5  30    1.36    2.56
   6   5  30   -2.40    2.19
   7  -5  30   -0.73    2.47
   7   5  30   -0.10    2.35
  -6  -6  30    2.93    2.29
  -5  -6  30    1.22    1.95
  -4  -6  30    0.15    1.86
   4  -6 -30    2.73    2.02
  -3  -6  30   -2.43    1.75
   3  -6 -30    0.49    1.81
  -2  -6  30    8.20    2.57
   2  -6 -30    8.88    2.19
   1  -6 -30    7.67    2.13
  -1  -6  30    8.52    2.76
   0  -6 -30    7.19    2.00
   0  -6  30    2.30    2.27
   1  -6  30    1.07    2.41
  -1  -6 -30    2.90    1.63
   1   6  30    1.19    1.97
  -1   6 -30    1.51    1.23
  -2  -6 -30    0.89    1.58
   2  -6  30   -3.16    2.22
   2   6  30    1.10    1.95
  -2   6 -30    0.04    1.19
  -3  -6 -30    2.74    1.83
   3  -6  30   -1.50    2.48
   3   6  30   -0.28    1.93
  -3   6 -30    2.54    1.31
   4  -6  30    1.68    2.89
   4   6  30   -0.18    2.09
  -4   6 -30    0.29    1.29
   5  -6  30   -2.89    2.48
   5   6  30    5.92    2.77
  -5  -7  30   -0.70    2.10
  -4  -7  30    5.83    2.71
  -3  -7  30   -4.21    1.70
  -2  -7  30    3.29    2.33
  -1  -7  30   -0.60    2.22
   0  -7  30   18.76    3.99
   1  -7  30    4.25    2.92
   2  -7  30   -0.93    2.70
   2   7  30   -2.19    2.02
   3  -7  30   -0.96    2.70
   3   7  30   -0.35    2.23
 -10   0  31    0.88    2.10
  -9   0  31    0.19    2.01
   8   0 -31   -0.01    1.22
  -8   0  31   -0.67    1.94
  -7   0  31    3.67    2.20
   7   0 -31    1.10    1.41
   6   0 -31    1.61    1.40
  -6   0  31   -1.82    1.69
  -5   0  31    1.16    1.65
   5   0 -31    0.93    1.34
  -4   0  31    0.07    1.48
   4   0 -31   -1.11    1.22
  -3   0  31   45.31    3.52
   3   0 -31   45.41    2.90
  -2   0  31    1.75    1.36
   2   0 -31   -0.68    1.09
  -2   0  31    0.64    1.26
  -1   0  31   52.82    3.40
   1   0 -31   53.69    2.91
   1   0 -31   60.10    3.08
  -1   0  31   53.25    3.51
   0   0  31    0.56    1.25
   0   0  31    0.90    1.23
   0   0 -31    1.51    1.03
   1   0  31   58.72    4.06
  -1   0 -31   64.01    3.18
   1   0  31   57.15    3.47
  -2   0 -31    1.10    1.11
   2   0  31   -0.18    1.13
   2   0  31   -1.37    1.56
  -2   0 -31    0.08    1.03
   3   0  31    2.61    1.46
  -3   0 -31    1.62    1.18
   3   0  31   -1.48    1.69
  -3   0 -31    2.67    1.23
   4   0  31    2.97    1.69
  -4   0 -31    1.34    1.20
   4   0  31    0.19    1.73
  -4   0 -31    0.22    1.18
  -5   0 -31   16.28    2.14
   5   0  31   17.23    2.59
   5   0  31   14.08    3.16
  -5   0 -31   21.98    2.49
   6   0  31    0.09    1.68
  -6   0 -31    1.07    1.54
   6   0  31    2.05    2.23
  -6   0 -31   -0.74    1.30
   7   0  31    0.20    1.82
  -7   0 -31    2.01    1.78
  -7   0 -31    2.81    1.55
   7   0  31    2.10    2.38
  -8   0 -31    1.23    1.55
   8   0  31    1.86    1.88
   8   0  31   -0.23    2.37
   9   0  31    2.24    1.94
   9   0  31    0.22    2.39
  -9   0 -31   -1.14    1.56
 -10  -1  31   11.60    2.63
  10   1 -31    5.80    1.75
  -9  -1  31    1.35    1.89
   9   1 -31    0.01    1.53
  -8  -1  31    0.93    1.84
   8   1 -31    2.29    1.69
  -7  -1  31    4.07    1.96
   7   1 -31    0.41    1.59
   6  -1 -31    0.83    0.78
  -6  -1  31    2.09    1.81
   6   1 -31    0.63    1.54
   5  -1 -31   12.00    1.43
  -5  -1  31    9.60    2.19
   5  -1 -31   17.09    2.50
   5   1 -31   12.21    2.11
  -5   1  31   15.70    2.42
  -4  -1  31   32.60    3.03
   4  -1 -31   29.32    2.16
   4  -1 -31   29.13    2.83
   4   1 -31   24.29    2.59
  -3  -1  31    0.47    1.30
  -3  -1  31    0.40    1.51
   3  -1 -31    0.08    1.19
   3  -1 -31    0.09    1.11
   3   1 -31    0.35    1.30
   2  -1 -31   -0.33    1.04
  -2  -1  31    0.89    1.30
   2  -1 -31    0.68    1.14
  -2  -1  31    2.16    1.43
   2   1 -31    1.19    1.13
  -2   1  31    1.33    1.33
   1  -1 -31    5.75    1.30
  -1  -1  31    5.69    1.75
   1  -1 -31    6.42    1.46
  -1  -1  31    7.61    1.69
  -1   1  31    2.27    1.47
   0  -1 -31   15.91    1.72
   0  -1 -31   17.72    2.04
   0  -1  31   16.54    2.21
   0  -1  31   14.82    2.36
   0   1  31   15.13    2.36
   0   1  31   15.41    2.06
   1  -1  31   24.36    2.49
  -1  -1 -31   27.20    2.44
   1  -1  31   33.73    3.44
   1   1  31   26.36    2.59
  -1   1 -31   28.07    2.35
   1   1  31   27.40    3.09
   2  -1  31    8.08    2.31
   2  -1  31    5.27    1.65
  -2  -1 -31    8.91    1.64
   2   1  31    6.35    1.67
  -2   1 -31    8.77    1.56
   2   1  31    7.12    2.11
   3  -1  31   -1.50    1.26
  -3  -1 -31   -0.35    1.13
  -3  -1 -31    1.24    1.07
   3  -1  31    0.28    1.73
  -3   1 -31   -0.99    1.01
   3   1  31    1.59    1.93
  -3   1 -31   -1.47    1.04
   3   1  31   -0.29    1.29
   4  -1  31   10.33    2.03
   4  -1  31   11.78    2.82
  -4  -1 -31    9.70    1.87
  -4  -1 -31    3.66    1.33
  -4   1 -31    6.23    1.62
   4   1  31    7.16    1.91
  -4   1 -31    9.50    1.69
   4   1  31    3.80    2.13
  -5  -1 -31    5.53    1.47
   5  -1  31    5.77    2.77
   5  -1  31    5.13    1.81
  -5  -1 -31    6.29    1.71
  -5   1 -31    9.69    1.84
   5   1  31    8.07    2.73
   5   1  31    7.24    1.98
  -5   1 -31    5.92    1.60
  -6  -1 -31   -0.04    1.43
   6  -1  31   -0.58    1.47
   6  -1  31    1.50    2.37
  -6  -1 -31    0.92    1.22
  -6   1 -31    0.57    1.42
   6   1  31    4.26    1.90
   6   1  31    0.15    2.28
  -6   1 -31   -0.10    1.34
  -7  -1 -31    0.19    1.33
  -7  -1 -31    0.58    1.63
   7  -1  31    0.87    2.39
   7  -1  31   -1.21    1.60
   7   1  31    0.40    1.82
   7   1  31    3.73    2.45
  -7   1 -31   -0.31    1.53
  -7   1 -31    0.71    1.64
   8  -1  31    2.39    2.34
   8  -1  31    1.55    1.82
  -8  -1 -31   -1.50    1.37
   8   1  31   -0.44    1.80
  -8   1 -31    1.35    1.67
   8   1  31   -1.51    2.12
  -9  -2  31   -2.48    1.56
   9   2 -31   -0.42    1.64
  -8  -2  31   31.22    3.26
   8   2 -31   25.91    3.10
  -7  -2  31   -1.99    1.51
  -7   2  31    0.58    2.04
   7   2 -31    1.63    1.79
  -6  -2  31    6.52    1.96
   6   2 -31   -0.30    1.55
  -6   2  31    7.65    2.23
   5  -2 -31    0.71    1.60
  -5  -2  31    0.49    1.72
   5   2 -31   -2.58    1.23
  -5   2  31    1.89    1.57
  -4  -2  31   49.67    3.82
   4  -2 -31   48.06    3.36
  -4  -2  31   45.58    3.32
   4   2 -31   44.07    3.06
   3  -2 -31    2.18    1.38
  -3  -2  31    2.40    1.46
  -3  -2  31    2.74    1.57
   3   2 -31    2.08    1.32
  -2  -2  31    8.80    1.93
  -2  -2  31    7.62    1.93
   2  -2 -31   11.14    1.90
   2   2 -31    6.41    1.52
  -1  -2  31    2.45    1.56
   1  -2 -31    3.81    1.40
  -1  -2  31   -1.24    1.37
  -1   2  31    0.97    1.36
   0  -2  31   72.05    4.51
   0  -2 -31   71.08    3.75
   0  -2  31   77.69    3.98
   0   2  31   67.79    4.19
   0   2 -31   79.22    3.64
   1  -2  31    3.27    1.72
  -1  -2 -31    3.11    1.32
  -1  -2 -31    2.00    0.83
   1  -2  31    3.40    1.58
   1   2  31    4.77    1.84
  -1   2 -31    1.50    1.18
  -2  -2 -31   10.48    1.30
  -2  -2 -31   12.49    1.92
   2  -2  31   11.95    2.69
   2  -2  31   11.38    2.05
  -2   2 -31   13.35    1.82
   2   2  31   11.89    2.65
   3  -2  31    1.97    1.91
  -3  -2 -31    1.36    0.95
  -3  -2 -31    3.71    1.51
   3  -2  31   -0.86    1.47
   3   2  31    5.60    2.34
  -3   2 -31    1.94    1.32
   4  -2  31    5.53    1.83
   4  -2  31    8.22    2.66
  -4  -2 -31    5.35    1.76
  -4   2 -31    4.51    1.25
  -4   2 -31    7.52    1.68
   4   2  31    5.22    2.42
  -5  -2 -31   -0.83    1.31
   5  -2  31    0.75    2.24
   5  -2  31   -0.63    1.59
  -5   2 -31   -0.25    1.00
   5   2  31    0.47    2.32
  -5   2 -31    0.29    1.29
   6  -2  31   29.74    4.43
   6  -2  31   29.81    2.95
  -6  -2 -31   37.17    3.47
  -6   2 -31   30.18    2.41
   6   2  31   28.81    3.29
  -6   2 -31   30.65    2.91
   6   2  31   32.76    4.47
   7  -2  31    2.70    1.71
  -7  -2 -31    1.25    1.28
   7  -2  31   -3.31    2.02
  -7  -2 -31   -0.87    1.59
  -7   2 -31   -0.41    1.46
   7   2  31   -1.11    2.21
  -7   2 -31   -1.55    1.18
   7   2  31   -0.12    1.91
   8  -2  31   10.70    1.90
   8  -2  31    9.01    3.11
  -8   2 -31    8.35    2.05
   8   2  31    4.44    2.21
   8   2  31    5.51    2.84
  -9  -3  31    1.64    1.80
   9   3 -31    1.70    2.04
  -8  -3  31   -0.04    1.69
  -8   3  31    7.77    2.79
   8   3 -31    1.67    1.95
  -7  -3  31    0.70    1.67
  -7   3  31   -0.58    2.00
   7   3 -31   -0.60    1.76
   6  -3 -31   -0.14    1.80
  -6  -3  31   -0.72    1.54
  -6   3  31   -0.84    1.65
   6   3 -31   -0.01    1.59
  -5  -3  31   10.37    2.13
   5  -3 -31    9.78    2.22
   5   3 -31    9.65    2.10
  -4  -3  31   18.36    2.56
   4  -3 -31   11.99    2.25
  -4  -3  31   18.82    2.53
   4   3 -31   18.65    2.37
  -3  -3  31    0.71    1.65
  -3  -3  31    0.32    1.44
   3  -3 -31   -1.02    1.24
   3   3 -31    0.24    1.28
   2  -3 -31    0.47    1.34
  -2  -3  31    0.61    1.55
  -2  -3  31    2.65    1.60
  -1  -3  31    2.31    1.72
  -1  -3  31    2.32    1.61
   1  -3 -31    5.94    1.64
  -1   3  31    2.42    1.55
   0  -3  31    5.58    1.81
   0  -3 -31    0.99    1.23
   0  -3  31    4.55    1.95
   0   3 -31    4.66    1.53
   0   3  31    2.50    1.80
   1  -3  31   25.79    2.72
   1  -3  31   27.81    3.56
  -1  -3 -31   22.90    2.53
   1   3  31   23.69    3.13
  -1   3 -31   18.08    2.19
   2  -3  31    3.49    1.75
  -2  -3 -31    3.38    1.53
   2  -3  31    3.44    2.05
   2   3  31    0.47    1.83
  -2   3 -31    2.46    1.33
   3  -3  31   -1.17    1.50
   3  -3  31    1.34    2.11
  -3  -3 -31   -1.57    1.28
  -3   3 -31   -0.26    0.93
  -3   3 -31   -0.02    1.38
   3   3  31    1.04    1.95
   4  -3  31    9.19    2.95
   4  -3  31    6.38    1.83
  -4  -3 -31    5.99    1.84
  -4   3 -31    4.70    1.24
   4   3  31    5.44    2.47
  -4   3 -31    5.21    1.65
   5  -3  31   23.14    4.01
   5  -3  31   18.20    2.09
  -5  -3 -31   16.16    2.59
  -5   3 -31   12.40    1.69
  -5   3 -31   18.58    2.41
   5   3  31   15.55    3.30
  -6  -3 -31    2.04    1.65
   6  -3  31    0.54    2.24
   6   3  31    2.22    2.42
  -6   3 -31   -0.54    1.11
   7  -3  31    1.48    2.53
  -7   3 -31    2.27    1.37
   7   3  31   -3.08    2.07
   8  -3  31    2.04    2.63
   8   3  31   -0.10    2.49
  -8   3 -31   -0.67    1.68
  -8  -4  31    3.72    1.63
   8   4 -31   -1.11    1.91
  -7  -4  31    3.14    1.63
  -7   4  31    3.65    2.44
   7   4 -31    0.14    1.84
  -6  -4  31    2.48    1.67
   6  -4 -31    1.97    2.08
   6   4 -31    3.63    1.92
  -6   4  31    5.29    2.28
   5  -4 -31    1.29    1.73
  -5  -4  31   -1.40    1.54
  -5  -4  31    0.59    1.64
   5   4 -31    0.11    1.57
  -4  -4  31    8.56    1.89
   4  -4 -31    6.35    2.03
  -4  -4  31    7.42    2.14
   4   4 -31    8.98    2.02
  -3  -4  31   21.65    2.29
   3  -4 -31   16.23    2.51
  -3  -4  31   16.07    2.65
   2  -4 -31    5.08    1.78
  -2  -4  31    6.01    2.11
  -2  -4  31    1.66    1.52
  -1  -4  31   14.56    2.68
  -1  -4  31   16.77    1.98
   1  -4 -31   19.03    2.55
   0  -4  31    3.19    1.95
   0  -4  31    3.31    1.30
   0  -4 -31    2.72    1.58
   0   4  31    4.81    1.93
  -1  -4 -31   26.85    2.82
   1  -4  31   23.31    3.54
   1   4  31   14.93    2.74
   2  -4  31    2.14    2.35
  -2  -4 -31    0.27    1.41
   2   4  31   -1.09    1.69
  -2   4 -31    0.84    0.99
  -3  -4 -31   -0.87    1.38
   3  -4  31    2.03    2.25
  -3   4 -31    1.08    1.05
   3   4  31    0.96    1.99
  -4  -4 -31    0.50    1.50
   4  -4  31    2.49    2.44
  -4   4 -31   -0.15    1.01
   4   4  31   -1.38    1.95
  -5  -4 -31    7.51    2.11
   5  -4  31    9.25    3.23
   5   4  31    6.69    2.72
  -5   4 -31    9.10    1.53
   6  -4  31   -3.40    2.11
   6   4  31    0.30    2.36
  -6   4 -31   -1.44    1.03
   7  -4  31   -0.43    2.46
   7   4  31    2.48    2.58
   6  -5 -31    0.09    1.99
   5  -5 -31    3.47    2.05
  -5  -5  31    7.87    2.40
  -5   5  31    1.83    2.16
   4  -5 -31   11.56    2.48
  -4  -5  31   20.54    3.10
  -3  -5  31   -0.81    1.65
   3  -5 -31    0.67    1.60
   2  -5 -31   -0.38    1.49
  -2  -5  31   -2.59    1.58
   1  -5 -31    5.25    1.86
  -1  -5  31    6.84    2.26
   0  -5 -31   14.56    2.46
   0  -5  31   14.22    2.93
  -1  -5 -31    1.64    1.60
   1  -5  31    7.43    2.62
   1   5  31    2.70    2.14
  -2  -5 -31    7.15    1.96
   2  -5  31    8.23    2.92
   2   5  31    0.65    1.96
  -2   5 -31    4.22    1.29
  -3  -5 -31    0.25    1.41
   3  -5  31   -0.40    2.27
   3   5  31    3.89    2.22
  -3   5 -31    1.59    1.19
   4  -5  31    4.10    2.89
  -4  -5 -31    9.31    2.17
   4   5  31    2.94    2.45
  -4   5 -31    3.71    1.33
   5  -5  31   -0.75    2.59
  -5   5 -31   -0.73    1.13
   5   5  31   -2.64    1.75
   6  -5  31   -2.74    2.23
   6   5  31   -0.38    2.38
  -5  -6  31   -1.03    1.94
  -4  -6  31   12.89    2.76
   4  -6 -31    8.88    2.44
  -3  -6  31    2.09    2.10
   3  -6 -31    4.12    2.07
   2  -6 -31    5.18    1.93
  -2  -6  31    5.67    2.49
   1  -6 -31    2.37    1.74
  -1  -6  31    4.73    2.41
   0  -6 -31   15.51    2.57
   0  -6  31   11.73    3.11
  -1  -6 -31    3.25    1.71
   1  -6  31    2.79    2.55
   1   6  31    1.60    2.17
  -2  -6 -31    8.56    2.12
   2  -6  31    9.47    3.42
  -2   6 -31    9.98    1.72
   2   6  31   13.02    2.88
   3  -6  31    0.23    2.63
  -3   6 -31    3.56    1.42
   3   6  31    4.40    2.46
   4  -6  31    1.21    2.81
   4   6  31   -0.18    2.04
  -4   6 -31    3.26    1.46
   5  -6  31    3.03    3.08
   5   6  31    1.26    2.40
  -4  -7  31    3.30    2.42
  -3  -7  31   -3.54    1.71
  -2  -7  31    0.69    2.05
  -1  -7  31    1.72    2.45
   0  -7  31    1.73    2.56
   1  -7  31    5.44    3.09
   2  -7  31   -2.38    2.46
   2   7  31    0.31    2.25
   3  -7  31    2.45    3.05
   3   7  31   -0.07    2.29
  -9   0  32   -0.13    2.04
  -8   0  32   35.82    3.87
   8   0 -32   37.09    2.42
  -7   0  32   -0.86    1.97
   7   0 -32    0.97    1.36
   6   0 -32    1.03    1.42
  -6   0  32    0.16    1.90
   5   0 -32   -0.71    1.31
  -5   0  32   -4.21    1.52
  -4   0  32   46.76    3.81
   4   0 -32   42.16    2.87
   3   0 -32    1.45    1.24
  -3   0  32    0.16    1.41
  -2   0  32    4.84    1.64
   2   0 -32    8.35    1.59
  -2   0  32    5.59    1.70
  -1   0  32    1.57    1.45
   1   0 -32    0.32    1.16
  -1   0  32    0.83    1.38
   0   0  32   51.01    3.21
   0   0  32   44.96    3.78
   0   0 -32   44.50    2.85
   1   0  32    1.49    1.46
   1   0  32    1.43    1.59
  -1   0 -32    0.58    1.08
   2   0  32   15.60    2.14
  -2   0 -32   13.09    1.75
  -2   0 -32   20.96    2.13
   2   0  32    9.23    2.34
   3   0  32    1.25    1.45
  -3   0 -32    0.28    1.13
  -3   0 -32   -2.36    0.97
   3   0  32   -0.65    1.87
  -4   0 -32    1.36    1.27
  -4   0 -32    0.74    1.22
   4   0  32    2.01    1.87
   4   0  32    0.03    1.41
  -5   0 -32    0.84    1.34
   5   0  32   -2.17    1.65
  -5   0 -32    2.35    1.30
   5   0  32    1.00    1.51
   6   0  32   18.71    3.55
   6   0  32   15.31    2.62
  -6   0 -32   14.80    2.13
  -6   0 -32   14.48    2.44
  -7   0 -32    3.77    1.92
   7   0  32    2.91    1.95
  -7   0 -32    0.53    1.55
   7   0  32    0.78    2.42
   8   0  32    3.65    2.67
  -8   0 -32    1.65    1.68
   8   0  32    5.49    2.08
  -9  -1  32    1.12    1.94
   9   1 -32    2.28    1.62
  -8  -1  32    2.20    1.91
   8   1 -32    0.00    1.55
  -7  -1  32   -2.29    1.60
   7   1 -32    0.49    1.62
  -6  -1  32    8.50    2.20
   6   1 -32    3.93    1.82
   5  -1 -32    2.40    0.99
  -5  -1  32    1.82    1.82
   5   1 -32    0.51    1.56
  -4  -1  32    3.53    1.76
   4  -1 -32    4.38    1.26
   4  -1 -32    4.92    1.72
   4   1 -32    1.19    1.45
   3  -1 -32   -0.16    1.20
  -3  -1  32    3.26    1.53
  -3  -1  32    0.32    1.57
   3  -1 -32   -1.93    1.04
   3   1 -32    1.00    1.32
   2  -1 -32   11.36    1.57
   2  -1 -32   11.47    1.87
  -2  -1  32   10.44    1.97
  -2  -1  32   10.49    2.02
   2   1 -32   11.74    1.79
  -2   1  32    9.99    1.93
   1  -1 -32    2.40    1.20
   1  -1 -32    4.69    1.38
  -1  -1  32    4.45    1.60
  -1  -1  32    0.35    1.40
  -1   1  32    3.13    1.54
   0  -1 -32    0.15    1.09
   0  -1 -32    0.37    1.10
   0  -1  32    0.94    1.52
   0  -1  32    2.44    1.50
   0   1  32   -1.22    1.34
   0   1  32    0.27    1.40
  -1  -1 -32   21.81    2.25
  -1  -1 -32   21.88    1.94
   1  -1  32   25.69    2.61
   1  -1  32   19.49    3.00
   1   1  32   23.84    2.53
  -1   1 -32   27.42    2.37
   1   1  32   22.18    2.82
  -2  -1 -32   49.63    3.05
   2  -1  32   45.90    3.43
   2  -1  32   36.60    3.94
   2   1  32   41.42    3.30
  -2   1 -32   39.50    2.78
   2   1  32   44.02    4.14
  -3  -1 -32   11.14    1.91
   3  -1  32    9.91    2.68
   3  -1  32   10.29    2.06
  -3  -1 -32    9.96    1.56
   3   1  32    7.84    2.41
   3   1  32   12.56    2.17
  -3   1 -32    7.94    1.65
  -4  -1 -32    3.34    1.52
   4  -1  32    2.24    2.28
  -4  -1 -32   -0.01    1.13
   4  -1  32    0.69    1.53
  -4   1 -32   -0.31    1.12
   4   1  32    0.26    2.03
  -4   1 -32   -0.04    1.23
   4   1  32    2.40    1.62
   5  -1  32    3.71    1.76
  -5  -1 -32    3.20    1.41
  -5  -1 -32    2.59    1.48
   5  -1  32    4.01    2.54
   5   1  32    6.91    2.69
  -5   1 -32    4.77    1.63
  -5   1 -32    3.82    1.57
   5   1  32    2.55    1.80
  -6  -1 -32    0.62    1.24
  -6  -1 -32   -0.12    1.49
   6  -1  32    0.67    2.26
   6  -1  32   -0.08    1.64
   6   1  32   -0.75    2.15
  -6   1 -32    0.48    1.43
   6   1  32   -0.81    1.68
  -6   1 -32    0.32    1.38
  -7  -1 -32   16.10    2.62
   7  -1  32   13.41    2.39
  -7  -1 -32   15.54    2.03
   7  -1  32   16.77    3.54
  -7   1 -32   15.73    2.63
   7   1  32   15.64    2.72
  -7   1 -32   13.63    2.19
   7   1  32   20.14    3.74
   8  -1  32    3.76    2.69
  -8  -1 -32    4.15    1.64
   8  -1  32    0.21    1.84
   8   1  32    3.09    2.45
   8   1  32    4.56    2.20
  -8   1 -32    3.44    1.81
  -9  -2  32    1.50    1.85
   9   2 -32    0.33    1.76
  -8  -2  32    2.62    1.83
   8   2 -32    2.15    1.90
  -7  -2  32    9.39    2.17
   7   2 -32    8.04    2.19
  -7   2  32    5.59    2.31
  -6  -2  32   -3.84    1.48
   6   2 -32    4.07    1.88
  -6   2  32    2.89    2.01
   5  -2 -32    0.53    1.54
  -5  -2  32    0.41    1.71
   5   2 -32   -2.05    1.39
  -5   2  32   -0.20    1.49
   4  -2 -32    0.30    1.42
  -4  -2  32   -1.14    1.57
   4   2 -32    2.62    1.59
   3  -2 -32   49.69    3.34
  -3  -2  32   53.43    3.66
  -3  -2  32   58.40    3.74
   3   2 -32   57.14    3.44
   2  -2 -32    1.38    1.28
  -2  -2  32   -0.33    1.31
  -2  -2  32   -4.53    1.14
   2   2 -32    0.78    1.21
  -1  -2  32    5.87    1.83
   1  -2 -32    5.76    1.56
  -1  -2  32    3.51    1.74
  -1   2  32    6.30    1.74
   0  -2  32    3.83    1.67
   0  -2 -32    1.22    1.25
   0  -2  32    2.39    1.76
   0   2 -32    2.78    1.30
   0   2  32    2.74    1.58
  -1  -2 -32   48.75    3.22
   1  -2  32   47.73    3.57
   1  -2  32   53.45    4.54
  -1   2 -32   55.41    3.25
   1   2  32   48.24    4.14
  -2  -2 -32   -0.20    1.19
   2  -2  32   -1.27    1.39
   2  -2  32    1.53    1.81
  -2  -2 -32    1.23    0.90
   2   2  32   -1.61    1.68
  -2   2 -32    2.61    1.42
   3  -2  32   12.62    3.07
  -3  -2 -32   16.07    2.19
  -3  -2 -32   11.88    1.38
   3  -2  32    9.32    2.03
   3   2  32    9.64    2.68
  -3   2 -32    9.28    1.73
   4  -2  32    1.67    1.59
   4  -2  32    0.79    2.18
  -4  -2 -32   -0.54    1.19
   4   2  32    0.62    2.13
  -4   2 -32    0.51    1.28
  -5  -2 -32   18.24    2.59
   5  -2  32   25.01    2.74
   5  -2  32   21.12    3.91
  -5   2 -32   26.59    2.23
  -5   2 -32   28.56    2.77
   5   2  32   23.48    3.98
   6  -2  32    0.81    2.37
   6  -2  32    0.82    1.75
  -6  -2 -32   -1.74    1.44
  -6   2 -32   -0.03    1.38
  -6   2 -32   -0.87    1.14
   6   2  32    1.03    1.87
   6   2  32    0.26    2.27
   7  -2  32    5.12    2.69
   7  -2  32    6.31    1.92
  -7  -2 -32    1.30    1.88
   7   2  32    5.12    2.17
  -7   2 -32    5.49    1.88
   7   2  32    3.55    2.56
  -7   2 -32    2.06    1.43
   8  -2  32    0.56    1.54
   8  -2  32    1.26    2.36
   8   2  32   -1.27    1.84
   8   2  32   -0.91    2.25
  -8   2 -32   -0.02    1.67
  -9  -3  32    0.27    1.71
   9   3 -32   -1.60    1.73
  -8  -3  32    1.28    1.74
   8   3 -32    2.30    1.96
  -7  -3  32   -0.13    1.62
   7   3 -32    1.33    1.83
  -7   3  32    0.21    2.07
  -6  -3  32    0.68    1.70
   6  -3 -32    2.99    2.07
  -6   3  32    1.85    2.07
   6   3 -32    3.58    1.83
   5  -3 -32    9.35    2.19
  -5  -3  32    7.48    2.05
   5   3 -32    7.59    1.97
  -4  -3  32    4.16    1.78
   4  -3 -32    9.25    2.12
  -4  -3  32    4.65    1.85
   4   3 -32    2.21    1.61
   3  -3 -32   -0.36    1.33
  -3  -3  32    2.52    1.69
  -3  -3  32   -2.52    1.24
   3   3 -32   -0.07    1.31
  -2  -3  32   15.43    2.54
  -2  -3  32   17.63    2.49
   2  -3 -32   22.26    2.60
  -1  -3  32    2.32    1.67
   1  -3 -32    3.63    1.47
  -1  -3  32    0.95    1.65
   0  -3 -32    4.31    1.58
   0  -3  32    1.54    1.66
   0  -3  32    0.54    1.60
   0   3 -32    3.02    1.45
   0   3  32    1.21    1.68
   1  -3  32    5.71    1.92
  -1  -3 -32    5.88    1.67
   1  -3  32    1.88    1.95
   1   3  32    4.77    2.03
  -1   3 -32    5.33    1.55
   2  -3  32   31.65    4.08
  -2  -3 -32   39.02    3.33
   2  -3  32   40.07    3.20
   2   3  32   33.89    3.83
  -2   3 -32   37.22    2.97
  -3  -3 -32    2.58    1.44
   3  -3  32   -1.93    1.88
   3  -3  32   -0.18    1.59
  -3   3 -32    0.98    1.07
  -3   3 -32   -0.02    1.40
   3   3  32    0.43    2.00
   4  -3  32   -2.07    2.09
   4  -3  32    0.80    1.57
  -4  -3 -32    2.13    1.52
   4   3  32   -3.50    1.84
  -4   3 -32    1.10    1.08
  -4   3 -32    2.18    1.44
  -5  -3 -32   -0.56    1.38
   5  -3  32    0.96    1.52
   5  -3  32    1.63    2.52
   5   3  32   -2.51    2.05
  -5   3 -32   -1.39    1.44
  -5   3 -32    0.69    1.08
   6  -3  32   -0.63    2.34
  -6  -3 -32    2.71    1.80
  -6   3 -32    1.39    1.65
  -6   3 -32   -0.52    1.17
   6   3  32    0.88    2.40
   7  -3  32    3.45    2.70
   7   3  32    6.24    2.92
  -7   3 -32    2.33    1.79
   8  -3  32    2.65    2.62
  -8  -4  32   18.96    2.15
   8   4 -32   15.97    2.95
  -7  -4  32    1.22    1.56
   7   4 -32   -2.02    1.70
   6  -4 -32    1.97    2.00
  -6  -4  32    1.32    1.58
   6   4 -32    0.10    1.74
  -6   4  32   -0.46    1.94
  -5  -4  32    0.35    1.59
   5  -4 -32    3.10    1.95
   5   4 -32   -0.48    1.59
  -4  -4  32   21.70    3.04
  -4  -4  32   24.05    2.42
   4  -4 -32   19.47    2.81
   4   4 -32   17.85    2.54
  -3  -4  32   -0.17    1.58
  -3  -4  32   -0.13    1.50
   3  -4 -32   -0.11    1.54
   3   4 -32   -0.25    1.37
   2  -4 -32   10.10    2.16
  -2  -4  32   10.68    2.42
  -2  -4  32    5.90    1.67
  -1  -4  32    2.60    1.44
   1  -4 -32    2.09    1.57
  -1  -4  32    2.17    1.83
   0  -4 -32   12.96    2.25
   0  -4  32   13.58    2.72
   0  -4  32   13.64    1.73
   0   4  32   14.25    2.61
   1  -4  32    5.41    2.30
  -1  -4 -32    5.04    1.81
   1   4  32    2.56    2.03
   2  -4  32   15.06    3.40
  -2  -4 -32   18.41    2.60
   2   4  32   14.05    2.81
  -2   4 -32   14.94    1.78
  -3  -4 -32    2.13    1.66
   3  -4  32   -0.16    2.20
   3   4  32    1.98    2.11
  -3   4 -32   -0.09    1.03
   4  -4  32    2.34    2.61
  -4  -4 -32    0.49    1.57
  -4   4 -32    0.24    1.07
   4   4  32   -0.19    1.97
   5  -4  32   -0.59    2.37
  -5  -4 -32    0.28    1.51
  -5   4 -32   -0.35    1.11
   5   4  32   -1.44    2.14
   6  -4  32    9.89    3.36
  -6   4 -32    8.31    1.65
   6   4  32   12.59    3.40
   7  -4  32   -2.30    2.26
   7   4  32    2.77    2.70
  -5  -5  32    4.90    2.17
   5  -5 -32    1.80    1.76
  -5   5  32    3.30    2.33
   4  -5 -32   -1.75    1.44
  -4  -5  32   -0.21    1.73
   3  -5 -32   -1.00    1.52
  -3  -5  32   -0.25    1.71
  -2  -5  32    2.75    1.98
   2  -5 -32    2.14    1.71
  -1  -5  32   -0.99    1.91
   1  -5 -32   -0.13    1.57
   0  -5 -32   -0.81    1.44
   0  -5  32   -1.52    1.90
  -1  -5 -32   11.27    2.26
   1  -5  32    9.65    3.01
   1   5  32   10.77    2.59
  -2  -5 -32    6.97    1.96
   2  -5  32    8.32    2.92
  -2   5 -32   10.49    1.60
   2   5  32    8.10    2.53
   3  -5  32    9.93    3.26
  -3  -5 -32   10.64    2.28
   3   5  32    5.54    2.51
  -3   5 -32    7.62    1.56
   4  -5  32    3.48    2.74
  -4  -5 -32    1.59    1.52
   4   5  32    1.36    2.31
  -4   5 -32    0.25    1.11
   5  -5  32    1.80    2.84
   5   5  32    3.94    2.64
  -5   5 -32    5.59    1.46
   6  -5  32   -1.40    2.35
   6   5  32   -1.47    2.25
  -5  -6  32    1.59    2.19
  -4  -6  32    7.21    2.52
   3  -6 -32   17.28    2.93
  -3  -6  32   14.99    3.09
  -2  -6  32    3.80    2.34
   2  -6 -32   -1.57    1.56
  -1  -6  32   -2.63    1.96
   1  -6 -32    2.28    1.83
   0  -6 -32   -0.05    1.64
   0  -6  32    2.42    2.24
   1  -6  32   16.47    3.65
  -1  -6 -32   17.16    2.68
   2  -6  32   -0.81    2.20
  -2   6 -32    1.35    1.30
   2   6  32   -0.96    1.83
   3  -6  32    1.03    2.64
  -3   6 -32    7.02    1.59
   3   6  32    0.21    2.19
   4  -6  32    2.87    2.91
   4   6  32    0.42    2.22
   5  -6  32    7.48    3.41
   5   6  32    3.34    2.66
  -3  -7  32   -0.06    2.00
  -2  -7  32    8.90    2.96
  -1  -7  32   -1.22    2.22
   0  -7  32    5.08    2.74
   1  -7  32   -1.00    2.47
   2  -7  32    7.37    3.41
  -9   0  33    8.00    2.60
  -8   0  33    2.01    2.15
   8   0 -33    0.05    1.13
   7   0 -33   12.55    1.85
  -7   0  33   15.27    2.92
  -6   0  33   -2.35    1.84
   6   0 -33    0.48    1.35
  -5   0  33    0.99    1.78
   5   0 -33   -0.99    1.32
   4   0 -33    0.94    1.40
  -4   0  33    0.48    1.78
   3   0 -33   33.17    2.72
  -3   0  33   37.04    3.33
   2   0 -33    0.23    1.23
  -2   0  33    0.27    1.46
  -2   0  33    1.72    1.39
   1   0 -33   -0.95    1.10
  -1   0  33    0.80    1.42
  -1   0  33   -0.83    1.36
   0   0 -33    1.11    1.12
   0   0  33    0.42    1.39
   0   0  33   -0.38    1.37
   1   0  33   20.94    2.46
  -1   0 -33   25.26    2.30
   1   0  33   17.42    2.80
  -2   0 -33    0.80    1.16
   2   0  33   -1.64    1.61
   2   0  33   -0.40    1.33
  -2   0 -33    0.49    1.12
  -3   0 -33    4.11    1.43
  -3   0 -33    4.58    1.48
   3   0  33    5.50    1.76
   3   0  33    5.45    2.25
   4   0  33   -0.42    1.50
  -4   0 -33   -1.24    1.05
   4   0  33    0.15    2.11
  -4   0 -33   -1.31    1.17
   5   0  33   -1.61    2.01
  -5   0 -33    3.09    1.58
   5   0  33    3.44    1.84
  -5   0 -33    1.74    1.35
   6   0  33    1.37    1.76
   6   0  33   -1.95    2.09
  -6   0 -33    1.05    1.53
  -6   0 -33    0.90    1.41
   7   0  33    5.92    2.77
  -7   0 -33    6.37    2.14
   7   0  33    4.90    2.01
  -7   0 -33    1.61    1.59
  -8   0 -33   -1.15    1.48
   8   0  33   -0.74    2.38
   8   0  33    1.48    1.98
  -9  -1  33    2.70    2.06
   9   1 -33    1.61    1.53
  -8  -1  33    1.24    1.97
   8   1 -33    2.17    1.71
  -7  -1  33    0.24    1.83
   7   1 -33    3.69    1.81
  -6  -1  33   14.32    2.64
   6   1 -33   10.73    2.19
  -5  -1  33    1.21    1.80
   5  -1 -33    0.80    0.90
   5   1 -33   -0.90    1.42
  -4  -1  33    1.59    1.60
   4  -1 -33   -0.30    1.04
   4   1 -33    0.31    1.44
  -3  -1  33    1.73    1.68
   3  -1 -33   -1.68    1.19
   3  -1 -33   -1.64    1.04
  -3  -1  33   -2.05    1.16
   3   1 -33    0.43    1.31
   2  -1 -33   52.62    2.73
  -2  -1  33   46.20    3.63
   2  -1 -33   45.61    3.03
  -2  -1  33   45.80    3.75
   2   1 -33   51.28    3.11
   1  -1 -33   21.10    2.25
  -1  -1  33   21.78    2.71
  -1  -1  33   19.83    2.45
   1  -1 -33   20.02    1.93
  -1   1  33   13.28    2.30
   0  -1  33    0.77    1.55
   0  -1  33   -1.17    1.37
   0  -1 -33    1.07    1.11
   0  -1 -33    1.23    1.27
   0   1  33   -0.51    1.38
   0   1  33   -1.32    1.36
   1  -1  33   -0.62    1.58
  -1  -1 -33    0.24    1.08
   1  -1  33   -2.22    1.29
  -1  -1 -33    0.10    1.02
   1   1  33    0.89    1.48
  -1   1 -33   -1.00    1.11
   1   1  33    1.15    1.38
  -2  -1 -33   33.51    2.83
   2  -1  33   30.82    3.58
   2  -1  33   32.01    2.98
  -2   1 -33   29.21    2.57
   2   1  33   24.11    3.27
   2   1  33   37.69    3.20
   3  -1  33   20.98    2.60
  -3  -1 -33   23.52    2.52
   3  -1  33   25.52    3.63
  -3   1 -33   21.85    2.29
   3   1  33   23.14    3.41
   3   1  33   20.83    2.61
  -4  -1 -33   -1.80    1.25
   4  -1  33    3.14    1.71
   4  -1  33    1.45    2.17
  -4  -1 -33   -0.55    1.13
   4   1  33    2.66    2.20
   4   1  33   -0.04    1.56
  -4   1 -33    1.20    1.35
   5  -1  33    1.02    1.67
  -5  -1 -33    0.62    1.46
   5  -1  33    0.53    2.08
  -5  -1 -33   -0.70    1.15
   5   1  33    0.72    2.15
  -5   1 -33    2.83    1.56
   5   1  33   -2.51    1.43
   6  -1  33    7.73    2.80
   6  -1  33    2.80    1.92
  -6  -1 -33    2.88    1.80
  -6  -1 -33    5.41    1.67
  -6   1 -33    2.23    1.53
   6   1  33    4.35    2.61
   6   1  33    3.30    1.93
   7  -1  33   19.96    2.84
  -7  -1 -33   19.46    2.21
  -7  -1 -33   24.77    3.17
   7  -1  33   20.84    3.86
  -7   1 -33   19.84    2.53
   7   1  33   18.92    2.87
   7   1  33   22.57    3.83
  -8  -1 -33    2.38    1.52
   8  -1  33    1.54    2.43
   8  -1  33    1.68    1.85
   8   1  33    0.37    2.24
   8   1  33    4.31    2.22
  -8   1 -33    1.30    1.74
  -9  -2  33   -0.83    1.73
   9   2 -33    0.38    1.72
  -8  -2  33    9.47    2.29
   8   2 -33    7.83    2.24
  -7  -2  33    0.16    1.66
   7   2 -33    1.26    1.75
  -6  -2  33   -0.08    1.71
  -6   2  33    0.75    1.94
   6   2 -33   -0.11    1.64
   5  -2 -33    0.03    1.70
  -5  -2  33    1.18    1.74
   5   2 -33   -1.99    1.39
  -5   2  33    0.33    1.64
   4  -2 -33    7.80    1.99
  -4  -2  33    8.82    2.16
   4   2 -33    8.72    1.93
  -3  -2  33    1.39    1.64
   3  -2 -33    0.85    1.41
  -3  -2  33   -1.20    1.31
   3   2 -33    1.06    1.41
  -2  -2  33    2.42    1.62
   2  -2 -33    2.64    1.48
  -2  -2  33    2.33    1.58
   2   2 -33   -1.02    1.14
   1  -2 -33    0.19    1.23
  -1  -2  33   -0.42    1.41
  -1  -2  33    1.12    1.54
  -1   2  33    1.29    1.53
   0  -2  33   -0.57    1.50
   0  -2  33    0.40    1.49
   0  -2 -33    1.36    1.30
   0   2 -33    1.86    1.27
   0   2  33   -0.23    1.39
  -1  -2 -33   -2.09    1.07
   1  -2  33    0.03    1.46
   1  -2  33    1.25    1.84
  -1   2 -33    0.05    1.24
   1   2  33    0.34    1.59
   2  -2  33    5.29    2.30
   2  -2  33    1.16    1.61
  -2  -2 -33    6.32    1.03
  -2  -2 -33    5.77    1.71
   2   2  33    6.88    2.33
  -2   2 -33    5.51    1.50
   3  -2  33    3.99    1.76
  -3  -2 -33    0.16    1.32
  -3  -2 -33   -0.16    0.92
   3  -2  33    1.06    2.01
  -3   2 -33    0.28    1.27
   3   2  33    3.37    2.23
   4  -2  33   13.78    2.41
   4  -2  33   13.89    3.21
  -4  -2 -33   13.59    2.27
  -4  -2 -33   19.07    1.61
   4   2  33   18.81    3.43
  -4   2 -33   13.69    2.14
  -5  -2 -33    0.08    1.49
   5  -2  33    1.91    1.76
   5  -2  33    3.30    2.60
  -5   2 -33   -1.73    1.23
   5   2  33   -0.93    2.15
  -6  -2 -33   -1.53    1.50
   6  -2  33    1.55    2.46
   6  -2  33    0.62    1.66
   6   2  33   -2.64    2.17
  -6   2 -33    2.56    1.67
   6   2  33   -1.54    1.83
   7  -2  33    0.87    2.43
   7  -2  33    1.11    1.77
  -7   2 -33    1.17    1.69
   7   2  33   -1.80    1.82
   7   2  33   -0.05    2.32
   8  -2  33    5.63    2.90
   8   2  33    1.06    1.95
  -8   2 -33    0.57    1.65
   8   2  33    4.74    2.77
  -8  -3  33   -0.85    1.62
   8   3 -33    2.66    2.01
  -7  -3  33    1.53    1.65
  -7   3  33    1.20    2.24
   7   3 -33    1.92    1.86
  -6  -3  33    4.76    1.86
   6  -3 -33    4.78    2.24
  -6   3  33    5.53    2.24
   6   3 -33    4.70    1.98
   5  -3 -33    0.37    1.65
  -5  -3  33   -0.13    1.59
  -5   3  33    2.10    1.87
   5   3 -33    2.11    1.64
   4  -3 -33    0.43    1.58
  -4  -3  33    8.06    2.09
  -4  -3  33    4.85    1.87
   4   3 -33    2.82    1.59
   3  -3 -33    0.41    1.43
  -3  -3  33   -1.07    1.60
  -3  -3  33    2.40    1.65
   3   3 -33   -0.11    1.31
  -2  -3  33   15.11    2.39
  -2  -3  33   19.51    2.83
   2  -3 -33   19.53    2.55
  -1  -3  33   14.35    2.60
  -1  -3  33   19.54    2.51
   1  -3 -33   13.80    2.19
   0  -3  33    1.24    1.81
   0  -3 -33   -1.13    1.18
   0  -3  33    1.10    1.66
   0   3 -33   -0.19    1.23
   0   3  33   -1.52    1.58
   1  -3  33    5.19    1.87
  -1  -3 -33    5.46    1.64
   1  -3  33    6.83    2.32
   1   3  33    3.54    2.01
  -1   3 -33    1.37    1.51
   2  -3  33   11.08    2.18
  -2  -3 -33    7.87    1.84
   2  -3  33    5.68    2.51
   2   3  33    5.08    2.17
  -2   3 -33    7.89    1.74
   3  -3  33   52.41    5.27
  -3  -3 -33   44.62    3.71
   3  -3  33   38.96    3.22
  -3   3 -33   41.15    3.26
   3   3  33   41.13    4.51
   4  -3  33    5.37    2.75
   4  -3  33    4.72    1.78
  -4  -3 -33    3.58    1.74
   4   3  33    5.06    2.57
  -4   3 -33    6.83    1.41
  -4   3 -33    7.78    1.91
   5  -3  33   -1.37    2.27
  -5  -3 -33   -0.47    1.49
   5  -3  33    1.19    1.49
   5   3  33    0.54    2.31
  -5   3 -33    0.07    1.16
  -5   3 -33    0.39    1.51
  -6  -3 -33    0.91    1.83
   6  -3  33    1.73    2.44
  -6   3 -33   -1.48    1.15
  -6   3 -33    1.18    1.60
   6   3  33    2.33    2.55
   7  -3  33   20.36    3.85
   7   3  33   20.08    4.08
  -7   3 -33   25.38    2.94
  -8  -4  33    1.11    1.45
   8   4 -33    3.08    2.26
  -7  -4  33    6.26    1.77
   7   4 -33    7.53    2.31
   6  -4 -33    6.01    2.38
  -6  -4  33    1.74    1.63
   6   4 -33    5.87    2.17
  -6   4  33    6.40    2.47
  -5  -4  33    1.17    1.61
   5  -4 -33    1.11    1.82
   5   4 -33   -0.45    1.58
   4  -4 -33    5.20    1.96
  -4  -4  33    2.69    1.94
  -4  -4  33    1.59    1.62
   4   4 -33    1.11    1.63
  -3  -4  33   18.81    2.26
   3  -4 -33   24.54    2.95
  -3  -4  33   21.44    3.04
   3   4 -33   17.42    2.40
  -2  -4  33   -0.57    1.46
   2  -4 -33    0.18    1.47
  -2  -4  33   -0.62    1.64
  -1  -4  33   -0.48    1.39
   1  -4 -33    2.04    1.41
  -1  -4  33    2.40    1.85
   0  -4  33    0.87    1.81
   0  -4 -33    0.17    1.41
   0  -4  33   -0.02    1.24
   0   4  33   -1.31    1.58
   1  -4  33   23.22    3.61
  -1  -4 -33   19.55    2.70
   1   4  33   22.96    3.23
  -2  -4 -33    0.65    1.57
   2  -4  33    2.03    2.16
   2   4  33    0.12    1.80
   3  -4  33   -3.52    2.18
  -3  -4 -33    0.46    1.56
   3   4  33    3.97    2.38
  -3   4 -33    2.38    1.14
   4  -4  33   -1.25    2.41
  -4  -4 -33    2.90    1.76
  -4   4 -33    1.49    1.18
   4   4  33    1.79    2.30
   5  -4  33    1.09    2.68
  -5  -4 -33    2.32    1.79
  -5   4 -33    2.20    1.25
   5   4  33   -3.49    1.93
   6  -4  33    0.81    2.60
   6   4  33    1.06    2.57
   7   5 -33   -0.03    2.09
   5  -5 -33   -2.09    1.77
  -5  -5  33   -0.43    1.88
  -5   5  33   -2.52    1.85
   4  -5 -33   -0.98    1.74
  -4  -5  33   -0.25    1.77
  -3  -5  33    0.12    1.76
   3  -5 -33   -0.54    1.53
  -2  -5  33   23.96    3.49
   2  -5 -33   24.09    3.06
  -1  -5  33    5.97    2.37
   1  -5 -33    5.30    1.96
   0  -5  33    2.78    2.21
   0  -5 -33    0.42    1.53
   1  -5  33    2.62    2.15
  -1  -5 -33    3.93    1.75
   1   5  33    1.60    1.99
   2  -5  33   19.44    3.83
  -2  -5 -33   23.93    3.05
   2   5  33   20.54    3.26
   3  -5  33    1.82    2.66
  -3  -5 -33    2.38    1.81
   3   5  33    0.20    2.00
  -3   5 -33   -0.46    1.08
   4  -5  33    2.92    2.71
   4   5  33    1.42    2.30
  -4   5 -33    0.09    1.18
   5  -5  33   -1.33    2.25
   5   5  33    4.18    2.66
   6  -5  33    1.01    2.87
  -5  -6  33    2.13    2.40
  -4  -6  33    4.43    2.44
  -3  -6  33    0.47    1.99
  -2  -6  33   -1.91    1.87
  -1  -6  33    1.84    2.33
   1  -6 -33    5.93    2.08
   0  -6  33   -0.64    2.22
   0  -6 -33    1.04    1.85
   1  -6  33    3.60    2.65
   2  -6  33    2.93    2.86
   2   6  33   -1.33    2.03
   3  -6  33    0.59    2.71
   3   6  33    0.81    2.25
   4  -6  33    2.66    3.03
   4   6  33    7.37    2.93
  -3  -7  33    1.25    2.19
  -2  -7  33    2.54    2.49
  -1  -7  33    4.10    2.66
   0  -7  33    3.89    2.68
   1  -7  33    2.56    2.78
  -9   0  34    0.16    2.11
   8   0 -34    1.48    1.13
  -8   0  34   -0.22    2.03
  -7   0  34    2.20    2.18
   7   0 -34   -1.72    1.18
  -6   0  34   17.58    2.97
   6   0 -34   20.40    2.19
   5   0 -34   -0.97    1.38
  -5   0  34    0.67    1.83
  -4   0  34   -0.87    1.71
   4   0 -34   -1.35    1.30
   3   0 -34   -0.22    1.25
  -3   0  34    0.74    1.65
   2   0 -34    0.95    1.30
  -2   0  34    0.23    1.44
  -2   0  34   -0.80    1.32
  -1   0  34   -0.06    1.43
   1   0 -34    0.35    1.18
  -1   0  34    2.37    1.56
   0   0  34   31.38    3.32
   0   0 -34   32.90    2.62
   0   0  34   38.48    3.18
  -1   0 -34    2.24    1.23
   1   0  34   -0.75    1.45
   1   0  34   -1.44    1.40
  -2   0 -34    1.22    1.22
   2   0  34   -0.44    1.73
   2   0  34   -0.10    1.40
  -2   0 -34    0.76    1.17
   3   0  34    1.54    2.05
  -3   0 -34   -0.59    1.18
  -3   0 -34   -0.84    1.13
   3   0  34    1.08    1.39
   4   0  34   27.28    2.93
   4   0  34   18.54    3.44
  -4   0 -34   24.87    2.43
  -4   0 -34   25.31    2.71
   5   0  34    0.05    1.55
   5   0  34    4.33    2.49
  -5   0 -34    1.96    1.37
  -5   0 -34   -1.64    1.24
  -6   0 -34   -0.57    1.32
  -6   0 -34    1.87    1.64
   6   0  34    2.40    1.90
   6   0  34   -2.89    2.19
   7   0  34    4.23    2.61
  -7   0 -34    0.25    1.48
   7   0  34    0.61    1.84
   8   0  34    5.89    2.82
  -8   0 -34    5.53    1.83
   8   0  34    3.08    2.06
  -9  -1  34   -1.07    1.83
   9   1 -34    0.85    1.55
  -8  -1  34    1.48    1.97
   8   1 -34    2.37    1.68
  -7  -1  34    6.29    2.22
   7   1 -34    4.16    1.88
  -6  -1  34    4.45    2.14
   6   1 -34    0.07    1.57
  -5  -1  34   11.14    2.50
   5   1 -34   11.09    2.16
  -4  -1  34    0.48    1.61
   4  -1 -34    0.98    1.03
   4   1 -34   -2.26    1.26
  -3  -1  34    7.45    1.95
  -3  -1  34    6.40    2.08
   3  -1 -34    6.77    1.82
   3  -1 -34    7.00    1.42
   3   1 -34    3.49    1.58
   2  -1 -34   24.23    2.48
   2  -1 -34   23.55    2.04
  -2  -1  34   22.64    2.77
  -2  -1  34   22.80    2.75
   2   1 -34   22.88    2.40
   1  -1 -34   16.10    1.81
  -1  -1  34   18.83    2.50
  -1  -1  34   14.57    2.47
   1  -1 -34   13.93    1.99
   1   1 -34   19.34    2.18
  -1   1  34   20.10    2.62
   0  -1  34   -0.06    1.50
   0  -1  34    0.26    1.52
   0  -1 -34    1.42    1.24
   0  -1 -34    0.27    1.09
   0   1  34   -1.84    1.37
   0   1  34   -0.70    1.40
  -1  -1 -34    1.31    1.14
   1  -1  34    0.17    1.46
   1  -1  34   -0.65    1.53
  -1  -1 -34   -0.01    1.16
  -1   1 -34    2.28    1.33
   1   1  34    1.14    1.67
   1   1  34    0.46    1.43
  -2  -1 -34    3.03    1.41
   2  -1  34    3.96    1.65
   2  -1  34    2.93    1.91
   2   1  34    0.25    1.38
  -2   1 -34    1.91    1.27
   2   1  34    2.43    1.80
   3  -1  34   46.19    3.67
  -3  -1 -34   52.17    3.34
   3  -1  34   54.36    5.08
   3   1  34   48.77    3.82
  -3   1 -34   48.00    3.11
   3   1  34   46.25    4.54
   4  -1  34   -0.53    2.09
   4  -1  34    0.55    1.59
  -4  -1 -34   -1.28    1.25
  -4  -1 -34    1.67    1.22
   4   1  34    2.50    1.79
  -4   1 -34   -0.80    1.20
   4   1  34   -0.59    1.90
   5  -1  34    3.20    2.41
  -5  -1 -34   -0.04    1.30
  -5  -1 -34   -0.57    1.49
   5  -1  34   -1.71    1.56
   5   1  34    1.69    2.17
   5   1  34    1.17    1.75
  -5   1 -34    1.41    1.40
  -6  -1 -34    0.71    1.56
  -6  -1 -34    1.10    1.44
   6  -1  34   -1.21    1.67
   6  -1  34   -0.42    2.27
   6   1  34    0.88    1.82
  -6   1 -34    0.64    1.46
   6   1  34    2.37    2.33
  -7  -1 -34   13.61    2.13
   7  -1  34   13.32    3.33
   7  -1  34   16.00    2.65
  -7   1 -34    9.54    2.13
   7   1  34   10.30    3.16
   7   1  34    8.74    2.43
   8  -1  34    1.64    2.53
  -8  -1 -34    1.85    1.70
   8  -1  34    1.23    1.79
   8   1  34    1.56    2.04
  -8   1 -34    1.60    1.75
   8   1  34    1.21    2.45
  -9  -2  34    6.86    2.17
   9   2 -34    4.17    2.04
  -8  -2  34    2.52    1.90
   8   2 -34    2.87    1.92
  -7  -2  34    0.72    1.73
   7   2 -34    3.08    1.93
  -6  -2  34   -0.85    1.62
   6   2 -34    2.67    1.83
  -5  -2  34    1.27    1.79
   5  -2 -34   -0.29    1.74
   5   2 -34    2.24    1.62
  -5   2  34   -0.81    1.70
  -4  -2  34   -1.21    1.60
   4  -2 -34   -0.23    1.60
   4   2 -34    1.07    1.47
  -3  -2  34   -1.05    1.51
   3  -2 -34   -0.23    1.39
  -3  -2  34    0.29    1.56
   3   2 -34    1.31    1.43
  -2  -2  34    0.29    1.51
  -2  -2  34   -1.03    1.51
   2  -2 -34    1.81    1.36
   2   2 -34    0.97    1.32
  -1  -2  34    4.01    1.76
  -1  -2  34    2.66    1.76
   1  -2 -34    1.68    1.43
  -1   2  34    0.92    1.54
   0  -2  34    0.49    1.64
   0  -2  34    1.23    1.54
   0  -2 -34    0.03    1.22
   0   2  34    1.75    1.52
   1  -2  34   -3.59    1.38
  -1  -2 -34    3.71    1.47
   1  -2  34   -0.16    1.52
  -1   2 -34    0.19    1.20
   1   2  34   -2.80    1.41
  -2  -2 -34    0.15    1.38
   2  -2  34    1.65    1.67
   2  -2  34   -1.23    1.54
   2   2  34    0.81    1.80
  -2   2 -34   -0.32    1.28
  -3  -2 -34    0.40    1.38
   3  -2  34    0.87    1.65
   3  -2  34    0.35    2.07
   3   2  34    1.74    2.12
  -3   2 -34    1.02    1.34
  -4  -2 -34    3.21    1.08
   4  -2  34    0.43    2.22
  -4  -2 -34    1.37    1.50
   4  -2  34    0.99    1.69
  -4   2 -34    1.90    1.46
   4   2  34    3.47    2.45
   5  -2  34   13.05    2.40
   5  -2  34   18.11    3.81
  -5  -2 -34   19.52    2.81
  -5   2 -34   20.45    2.52
   5   2  34   17.89    3.66
   6  -2  34    1.40    1.76
  -6  -2 -34   -1.64    1.57
   6  -2  34    1.76    2.52
   6   2  34   -0.35    2.38
  -6   2 -34    3.16    1.64
   6   2  34    0.33    1.89
   7  -2  34   -0.26    2.37
   7  -2  34    3.88    1.86
  -7   2 -34    1.98    1.65
   7   2  34   -2.68    2.15
   7   2  34    1.28    2.02
  -8  -3  34    0.41    1.76
   8   3 -34    2.50    1.99
  -7  -3  34    2.98    1.85
  -7   3  34    4.16    2.54
   7   3 -34    7.15    2.28
  -6  -3  34    5.79    1.98
  -6   3  34    5.04    2.20
   6   3 -34    5.79    2.04
   5  -3 -34   13.02    2.52
  -5  -3  34   15.57    2.43
   5   3 -34    8.48    2.14
  -5   3  34   16.09    2.77
   4  -3 -34    4.65    1.90
  -4  -3  34    6.59    2.08
  -4  -3  34    2.75    1.78
   4   3 -34    0.61    1.56
   3  -3 -34    1.55    1.58
  -3  -3  34    1.82    1.81
  -3  -3  34    5.24    1.92
   3   3 -34    3.07    1.57
   2  -3 -34   31.93    3.10
  -2  -3  34   27.67    3.24
  -2  -3  34   26.54    2.95
   2   3 -34   23.61    2.58
  -1  -3  34   11.30    2.17
  -1  -3  34    8.76    2.30
   1  -3 -34    6.45    1.74
   0  -3  34    0.25    1.76
   0  -3 -34    3.55    1.51
   0  -3  34    3.36    1.74
   0   3 -34    1.41    1.39
   0   3  34    0.49    1.57
  -1  -3 -34    2.22    1.48
   1  -3  34    3.00    1.84
   1  -3  34    0.32    1.91
   1   3  34   -0.78    1.65
  -1   3 -34    1.54    1.48
   2  -3  34    6.84    2.64
  -2  -3 -34   10.34    2.09
   2  -3  34   10.54    2.17
  -2   3 -34   13.16    2.11
   2   3  34   13.32    2.89
   3  -3  34   20.62    2.57
   3  -3  34   19.55    3.65
  -3  -3 -34   20.20    2.71
  -3   3 -34   20.48    2.44
   3   3  34   21.73    3.57
  -4  -3 -34    0.02    1.49
   4  -3  34   -0.86    1.54
   4  -3  34    2.11    2.46
  -4   3 -34   -1.15    1.46
   4   3  34    0.39    2.15
   5  -3  34   -0.05    1.47
  -5  -3 -34   -1.02    1.51
   5  -3  34    0.34    2.39
   5   3  34    0.16    2.36
  -5   3 -34    0.83    1.23
  -5   3 -34   -1.12    1.50
   6  -3  34    1.96    2.67
  -6   3 -34    0.53    1.58
   6   3  34    0.93    2.40
  -6   3 -34   -0.37    1.25
   7  -3  34    5.78    2.96
   7   3  34    1.09    2.62
  -7   3 -34    4.64    1.94
  -7  -4  34    0.82    1.52
   7   4 -34   -0.43    1.89
   6  -4 -34   10.06    2.58
  -6  -4  34    7.42    1.86
  -6   4  34    8.02    2.58
   6   4 -34    5.27    2.14
   5  -4 -34   -0.38    1.72
  -5  -4  34    0.63    1.63
   5   4 -34    1.83    1.83
  -5   4  34    1.56    2.03
  -4  -4  34   -0.34    1.58
   4  -4 -34    0.43    1.72
  -4  -4  34   -0.23    1.52
   4   4 -34    0.14    1.61
  -3  -4  34    1.21    1.77
  -3  -4  34    2.91    1.64
   3  -4 -34   -1.00    1.51
   3   4 -34    0.48    1.55
  -2  -4  34   -0.94    1.44
  -2  -4  34   -0.48    1.62
   2  -4 -34   -0.06    1.37
  -1  -4  34    1.22    1.87
   1  -4 -34   -0.20    1.50
  -1  -4  34    1.47    1.47
   0  -4  34   15.95    1.78
   0  -4  34   13.56    2.86
   0  -4 -34   13.96    2.36
  -1  -4 -34   -0.84    1.41
   1  -4  34   -1.11    1.87
   1   4  34    0.01    1.86
   2  -4  34   -0.45    2.06
  -2  -4 -34    1.33    1.61
   2   4  34    1.21    1.96
  -3  -4 -34    2.40    1.76
   3  -4  34    0.57    2.30
   3   4  34   -2.90    1.76
   4  -4  34   15.48    3.70
  -4  -4 -34   12.84    2.52
   4   4  34   17.51    3.47
  -4   4 -34   12.32    1.75
   5  -4  34   -0.87    2.45
   5   4  34    1.91    2.48
  -5   4 -34   -0.07    1.25
   6  -4  34    1.72    2.61
   6   4  34   -1.97    2.29
  -4  -5  34   -0.90    1.76
   4  -5 -34   -2.62    1.61
   3  -5 -34    2.93    1.87
  -3  -5  34    4.92    2.21
  -2  -5  34    0.49    1.96
   2  -5 -34    6.52    1.99
   1  -5 -34   14.72    2.55
  -1  -5  34   13.08    2.93
   0  -5  34    2.06    1.92
   0  -5 -34    2.62    1.81
  -1  -5 -34    0.24    1.61
   1  -5  34    2.28    2.31
   1   5  34   -0.54    1.83
   2  -5  34    2.04    2.46
  -2  -5 -34    0.23    1.68
   2   5  34    0.71    1.92
   3  -5  34   25.41    4.36
  -3  -5 -34   29.75    3.38
   3   5  34   24.56    3.73
  -3   5 -34   21.69    2.19
   4  -5  34    2.52    2.66
   4   5  34    7.45    2.84
  -4   5 -34    1.36    1.28
   5  -5  34    1.99    2.71
   5   5  34   -1.37    2.13
  -5  -6  34   -0.51    2.20
  -4  -6  34    2.18    2.24
  -3  -6  34    1.02    2.08
  -2  -6  34    0.73    2.17
  -1  -6  34    3.36    2.44
   0  -6  34    1.68    2.42
   1  -6  34    0.57    2.33
   2  -6  34    1.50    2.57
   2   6  34    0.22    2.20
   3  -6  34    4.07    3.13
   3   6  34   -2.25    2.08
  -1  -7  34    2.47    2.66
   0  -7  34    0.64    2.55
  -9   0  35   -1.10    2.19
  -8   0  35    1.48    2.20
   7   0 -35    2.18    1.34
  -7   0  35    2.05    2.26
   6   0 -35    1.09    1.38
  -6   0  35    1.08    2.08
  -5   0  35    5.67    2.16
   5   0 -35    1.98    1.57
  -4   0  35   -2.89    1.70
   4   0 -35    0.02    1.38
  -3   0  35   28.53    3.08
   3   0 -35   21.93    2.36
  -2   0  35    0.43    1.47
   2   0 -35    0.62    1.38
  -2   0  35   -1.28    1.51
  -1   0  35   29.64    3.05
  -1   0  35   33.91    3.32
   1   0 -35   24.18    2.43
   0   0  35   -0.27    1.40
   0   0  35    1.77    1.64
   0   0 -35    0.67    1.19
   1   0  35   15.64    2.36
   1   0  35   11.37    2.53
   2   0  35   -1.94    1.29
   2   0  35   -1.61    1.72
  -3   0 -35    4.78    1.54
   3   0  35    1.51    1.63
   3   0  35    4.40    2.36
  -3   0 -35    4.09    1.53
  -4   0 -35   -0.37    1.32
   4   0  35    1.03    2.05
   4   0  35    1.60    1.62
  -4   0 -35    1.25    1.55
  -5   0 -35   56.67    3.89
   5   0  35   62.47    5.89
  -5   0 -35   62.64    3.50
   5   0  35   57.54    4.00
  -6   0 -35   -1.57    1.29
   6   0  35   -1.78    2.22
  -6   0 -35   -0.58    1.54
   6   0  35    1.46    1.77
  -7   0 -35   -0.02    1.52
   7   0  35    1.68    2.51
   7   0  35   -0.34    1.74
  -9  -1  35    1.97    2.06
   9   1 -35    1.90    1.57
  -8  -1  35   -1.46    1.79
   8   1 -35   -0.01    1.57
  -7  -1  35    5.21    2.20
   7   1 -35    5.25    1.86
  -6  -1  35    2.49    1.97
   6   1 -35    0.89    1.72
  -5  -1  35    5.12    2.06
   5   1 -35    4.43    1.75
   4  -1 -35    7.55    1.21
  -4  -1  35    7.51    2.12
   4   1 -35    8.56    1.93
   3  -1 -35    7.54    1.40
  -3  -1  35    6.81    2.05
   3   1 -35    4.19    1.68
  -2  -1  35   13.14    2.30
   2  -1 -35   11.32    2.00
   2  -1 -35    9.08    1.52
  -2  -1  35   14.13    2.46
   2   1 -35   12.66    2.06
  -1  -1  35    2.31    1.67
   1  -1 -35    0.87    1.20
  -1  -1  35   -0.09    1.50
   1  -1 -35    2.11    1.25
   1   1 -35    2.01    1.33
  -1   1  35    4.29    1.77
   0  -1 -35    0.29    1.21
   0  -1  35    0.69    1.64
   0  -1  35    0.44    1.48
   0  -1 -35    2.35    1.24
   0   1  35    2.26    1.66
   0   1  35    2.19    1.67
   1  -1  35   -0.14    1.68
  -1  -1 -35    1.36    1.23
   1  -1  35    1.47    1.58
  -1  -1 -35    0.31    1.27
   1   1  35    2.32    1.78
   1   1  35   -0.21    1.54
   2  -1  35    1.95    1.61
   2  -1  35    4.87    2.18
  -2  -1 -35    3.14    1.43
  -2   1 -35    0.92    1.33
   2   1  35    1.77    1.54
   2   1  35    0.85    1.80
   3  -1  35   10.58    2.20
   3  -1  35   11.72    2.94
  -3  -1 -35   16.40    2.28
  -3   1 -35   14.51    2.12
   3   1  35   14.57    2.34
   3   1  35   16.88    3.07
   4  -1  35    2.53    1.78
   4  -1  35   -2.14    1.94
  -4  -1 -35    2.36    1.52
  -4   1 -35    2.60    1.51
   4   1  35    4.38    2.35
   4   1  35   -0.28    1.62
   5  -1  35    0.96    1.76
   5  -1  35   -0.59    2.10
  -5  -1 -35    2.21    1.45
  -5  -1 -35    1.02    1.67
  -5   1 -35   -0.90    1.24
   5   1  35   -1.10    1.63
   5   1  35    5.46    2.69
  -6  -1 -35    1.16    1.46
  -6  -1 -35   -2.04    1.59
   6  -1  35    0.94    1.88
   6  -1  35    6.41    2.66
   6   1  35    1.23    1.93
  -6   1 -35   -0.04    1.48
   6   1  35   -1.51    2.00
   7  -1  35   -1.32    1.69
  -7  -1 -35    0.40    1.55
   7  -1  35    0.50    2.23
   7   1  35    1.61    2.08
   7   1  35    3.75    2.58
  -7   1 -35    0.64    1.64
  -8  -2  35    0.48    1.82
   8   2 -35   -0.39    1.73
  -7  -2  35   -2.86    1.64
   7   2 -35    1.68    1.93
  -6  -2  35   20.92    2.83
   6   2 -35   22.13    2.98
   5  -2 -35   -0.70    1.88
  -5  -2  35    0.20    1.69
   5   2 -35   -0.03    1.59
  -5   2  35   -1.30    1.60
   4  -2 -35   -0.12    1.59
  -4  -2  35    2.71    1.90
   4   2 -35   -0.27    1.52
  -3  -2  35   -1.05    1.37
   3  -2 -35    0.19    1.45
  -3  -2  35    0.01    1.60
   3   2 -35   -1.64    1.28
  -2  -2  35    0.63    1.65
  -2  -2  35    0.40    1.61
   2  -2 -35    1.09    1.42
   2   2 -35   -1.42    1.20
  -1  -2  35    2.31    1.66
   1  -2 -35    0.40    1.30
  -1  -2  35    0.05    1.63
  -1   2  35    0.87    1.58
   0  -2 -35   29.21    2.82
   0  -2  35   26.47    2.90
   0  -2  35   27.36    3.30
   0   2  35   24.47    3.02
   1  -2  35    3.14    1.76
  -1  -2 -35   -0.10    1.33
   1  -2  35    0.64    1.77
   1   2  35    0.80    1.59
  -1   2 -35   -0.82    1.18
   2  -2  35    0.78    1.93
   2  -2  35    2.91    1.69
  -2  -2 -35   -1.56    1.17
   2   2  35    0.27    1.86
  -2   2 -35    0.86    1.35
   3  -2  35    2.39    2.12
  -3  -2 -35   -0.15    1.38
   3  -2  35    0.11    1.63
  -3   2 -35    0.83    1.40
   3   2  35   -1.77    1.80
   4  -2  35   18.28    2.68
   4  -2  35   12.53    3.20
  -4  -2 -35   15.80    2.52
   4   2  35   17.35    3.36
  -4   2 -35   16.49    2.23
  -5  -2 -35   -2.68    1.40
   5  -2  35    1.77    2.57
   5  -2  35    2.83    1.85
   5   2  35   -0.95    1.71
  -5   2 -35    0.70    1.45
   5   2  35    0.88    2.34
   6  -2  35    2.91    1.90
   6  -2  35    3.75    2.80
   6   2  35    0.01    2.36
  -6   2 -35    0.98    1.63
   6   2  35    3.50    2.05
   7  -2  35    1.92    2.53
   7  -2  35    1.60    1.74
   7   2  35    0.53    1.99
   7   2  35    0.49    2.42
  -7   2 -35   -0.08    1.59
  -8  -3  35    3.22    1.80
   8   3 -35    3.25    2.14
  -7  -3  35   10.28    2.19
   7   3 -35   11.00    2.50
  -6  -3  35   -0.90    1.62
  -6   3  35   -0.12    2.07
   6   3 -35   -2.05    1.51
  -5  -3  35    3.23    1.82
   5  -3 -35    1.03    1.88
   5   3 -35    3.68    1.88
  -5   3  35    3.21    2.08
  -4  -3  35    1.75    1.81
   4  -3 -35    2.69    1.74
   4   3 -35    5.12    1.75
  -3  -3  35    7.66    2.07
   3  -3 -35    2.75    1.70
  -3  -3  35    5.70    2.12
   3   3 -35    5.20    1.78
   2  -3 -35    4.71    1.74
  -2  -3  35    0.99    1.65
  -2  -3  35    0.02    1.63
   2   3 -35    0.91    1.32
  -1  -3  35    1.97    1.91
   1  -3 -35    2.60    1.57
  -1  -3  35    5.48    1.97
   0  -3  35    0.46    1.83
   0  -3 -35    1.46    1.47
   0  -3  35    2.83    1.74
   0   3  35    0.89    1.67
   0   3 -35    0.27    1.30
   1  -3  35   -0.05    1.88
   1  -3  35   -3.59    1.52
  -1  -3 -35    1.65    1.57
  -1   3 -35    0.81    1.38
   1   3  35    2.44    1.97
   2  -3  35   -1.22    1.97
   2  -3  35    1.92    1.77
  -2  -3 -35    4.08    1.71
  -2   3 -35    1.68    1.41
   2   3  35   -1.31    1.83
   3  -3  35   14.07    3.39
   3  -3  35   11.32    2.30
  -3  -3 -35   11.75    2.30
  -3   3 -35   14.80    2.22
   3   3  35    7.42    2.74
  -4  -3 -35    0.81    1.58
   4  -3  35    1.15    2.36
   4  -3  35   -0.61    1.63
   4   3  35   -2.18    1.95
  -4   3 -35    0.58    1.50
   5  -3  35    1.41    1.44
   5  -3  35    2.04    2.53
  -5  -3 -35   -1.31    1.60
   5   3  35    1.06    2.46
  -5   3 -35    6.46    1.98
   6  -3  35    1.11    2.62
   6   3  35    2.21    2.59
  -6   3 -35    2.63    1.81
  -7  -4  35    0.64    1.50
   7   4 -35    1.07    2.00
  -6  -4  35    0.37    1.62
   6   4 -35    3.51    2.02
   5  -4 -35    3.72    2.15
  -5  -4  35    6.43    1.84
  -5   4  35    5.81    2.43
   5   4 -35    4.56    2.03
   4  -4 -35   -0.04    1.74
  -4  -4  35   -2.36    1.67
  -4  -4  35    0.63    1.52
   4   4 -35   -0.61    1.64
   3  -4 -35    8.82    2.19
  -3  -4  35    9.83    2.39
  -3  -4  35   13.04    2.04
   3   4 -35    9.92    2.12
   2  -4 -35   -1.13    1.36
  -2  -4  35    2.01    1.55
  -2  -4  35    2.93    1.93
   2   4 -35    0.67    1.61
   1  -4 -35   19.17    2.69
  -1  -4  35   23.29    3.31
  -1  -4  35   15.25    1.98
   0  -4 -35   -1.96    1.27
   0  -4  35   -1.12    1.17
   0  -4  35    1.17    1.94
  -1  -4 -35    9.61    2.05
   1  -4  35   10.08    2.81
   1   4  35    7.83    2.55
   2  -4  35    3.69    2.53
  -2  -4 -35    3.00    1.80
   2   4  35    3.35    2.13
   3  -4  35    6.27    2.97
  -3  -4 -35    1.05    1.66
   3   4  35    3.97    2.41
   4  -4  35   -0.29    2.45
  -4  -4 -35    6.18    2.06
   4   4  35    6.02    2.71
   5  -4  35   28.42    4.78
   5   4  35   29.16    4.43
   6  -4  35    0.96    2.55
   6   4  35    0.20    2.48
   6   5 -35   -0.72    1.93
  -4  -5  35    6.02    2.48
  -3  -5  35    2.20    2.06
   3  -5 -35    2.02    1.92
   2  -5 -35    6.97    2.22
  -2  -5  35    7.99    2.47
   1  -5 -35    1.87    1.70
  -1  -5  35    1.27    2.00
   0  -5 -35    1.58    1.74
   0  -5  35    3.16    2.36
  -1  -5 -35   -1.34    1.46
   1  -5  35    0.59    2.04
   1   5  35   -1.32    1.79
   2  -5  35    2.74    2.37
  -2  -5 -35   -0.56    1.60
   2   5  35   -0.17    2.09
   3  -5  35    2.17    2.58
   3   5  35    0.33    2.12
   4  -5  35    3.01    2.73
   4   5  35    3.03    2.35
   5  -5  35   -1.88    2.43
   5   5  35    0.52    2.35
  -4  -6  35    0.77    2.04
  -3  -6  35    2.04    2.09
  -2  -6  35    0.10    2.12
  -1  -6  35   -1.46    1.77
   0  -6  35    8.01    3.03
   1  -6  35   -0.18    2.31
   2  -6  35    0.60    2.67
   2   6  35    1.46    2.20
   3  -6  35   -0.26    2.77
   3   6  35    0.70    2.35
  -8   0  36    1.58    2.21
   7   0 -36   -0.17    1.08
  -7   0  36   -0.76    2.15
   6   0 -36    9.68    1.76
  -6   0  36   10.33    2.76
   5   0 -36    0.57    1.42
  -5   0  36   -0.05    1.89
  -4   0  36    0.48    1.97
   4   0 -36   -2.42    1.28
  -3   0  36    0.22    1.68
   3   0 -36   -0.13    1.28
  -2   0  36    0.23    1.45
  -2   0  36    0.19    1.62
   2   0 -36    1.48    1.35
  -1   0  36    1.49    1.62
   1   0 -36    1.07    1.34
  -1   0  36    1.95    1.78
   0   0  36   13.53    2.29
   0   0 -36   12.08    1.86
   0   0  36   11.40    2.40
   1   0  36    0.94    1.72
   1   0  36    0.17    1.49
   2   0  36   -1.49    1.49
   2   0  36    0.59    1.49
   3   0  36   -2.35    1.46
   3   0  36   -0.63    1.78
  -3   0 -36   -0.53    1.23
  -4   0 -36   16.34    2.15
  -4   0 -36   14.85    2.27
   4   0  36   17.50    3.50
   4   0  36   18.84    2.74
  -5   0 -36    1.63    1.71
   5   0  36   -1.98    1.94
   5   0  36   -1.27    1.57
  -5   0 -36    1.24    1.52
   6   0  36    3.32    2.00
  -6   0 -36    5.81    1.77
  -6   0 -36    1.77    1.81
   6   0  36    1.38    2.65
  -7   0 -36    1.04    1.55
   7   0  36   -2.35    2.21
   7   0  36    3.03    2.03
  -8  -1  36    1.91    2.02
   8   1 -36    0.57    1.53
  -7  -1  36    1.01    2.00
   7   1 -36    1.14    1.71
  -6  -1  36    1.93    1.98
   6   1 -36   -0.57    1.64
  -5  -1  36    2.36    2.03
   5   1 -36    2.97    1.78
  -4  -1  36   11.30    2.40
   4   1 -36   13.98    2.24
   3  -1 -36    0.91    1.08
  -3  -1  36   -0.72    1.60
   3   1 -36    0.03    1.49
  -2  -1  36   -1.73    1.43
  -2  -1  36    2.99    1.78
   2  -1 -36    2.54    1.30
   2   1 -36   -0.44    1.32
   1  -1 -36    4.19    1.55
   1  -1 -36    5.19    1.36
  -1  -1  36    4.86    1.91
  -1  -1  36    6.75    1.98
  -1   1  36    3.93    1.79
   1   1 -36    3.63    1.52
   0  -1  36   -1.26    1.45
   0  -1  36    0.08    1.43
   0  -1 -36    1.93    1.24
   0  -1 -36   -1.55    1.29
   0   1  36    3.28    1.78
   0   1  36    0.53    1.62
  -1  -1 -36   10.55    1.67
   1  -1  36   12.95    2.70
   1  -1  36   15.15    2.43
  -1  -1 -36   13.28    2.07
   1   1  36   12.25    2.33
   1   1  36   13.23    2.66
   2  -1  36   -2.96    1.54
  -2  -1 -36    0.67    1.21
   2  -1  36    3.38    1.73
  -2  -1 -36    1.03    1.31
   2   1  36    3.15    1.71
  -2   1 -36    0.38    1.33
   2   1  36    0.88    1.85
   3  -1  36    1.36    1.60
  -3  -1 -36    2.94    1.59
   3  -1  36    0.46    2.03
   3   1  36    0.98    1.67
   3   1  36   -0.52    1.92
  -3   1 -36    2.34    1.47
   4  -1  36    3.32    1.87
   4  -1  36    3.36    2.46
  -4  -1 -36    7.48    1.93
  -4   1 -36    3.32    1.54
   4   1  36    4.32    1.98
   4   1  36    6.75    2.52
   5  -1  36    1.87    1.88
   5  -1  36    4.35    2.50
  -5  -1 -36    1.28    1.75
   5   1  36   -0.35    1.59
   5   1  36    3.58    2.37
  -5   1 -36    0.59    1.48
  -6  -1 -36    3.43    1.56
   6  -1  36    4.50    2.21
   6  -1  36    8.01    2.97
  -6   1 -36    3.49    1.60
   6   1  36    3.63    2.15
   6   1  36    1.82    2.47
   7  -1  36    7.57    2.99
   7  -1  36    4.31    2.03
  -7  -1 -36    7.52    1.86
   7   1  36   11.96    3.40
   7   1  36    6.95    2.38
  -7   1 -36    5.02    1.77
  -8  -2  36   -0.89    1.75
   8   2 -36    0.27    1.77
  -7  -2  36    9.56    2.24
   7   2 -36    7.30    2.28
  -6  -2  36   -0.29    1.71
   6   2 -36    1.26    1.76
  -5  -2  36   17.48    2.71
   5   2 -36   14.94    2.50
   4  -2 -36   -0.48    1.66
  -4  -2  36   -0.17    1.70
   4   2 -36    3.63    1.75
  -3  -2  36   14.49    2.51
   3  -2 -36   19.47    2.65
  -3  -2  36   11.63    2.34
   3   2 -36   17.52    2.39
  -2  -2  36    0.81    1.60
   2  -2 -36    1.60    1.46
  -2  -2  36    1.02    1.64
   2   2 -36   -2.65    1.19
  -1  -2  36   25.18    2.94
  -1  -2  36   33.87    3.58
   1  -2 -36   33.89    3.04
   0  -2 -36    1.14    1.47
   0  -2  36    2.09    1.89
   0  -2  36    4.00    1.84
   0   2  36   -0.98    1.59
   1  -2  36    6.97    2.03
  -1  -2 -36   12.59    2.15
   1  -2  36    7.62    2.32
  -1   2 -36    9.40    1.88
   1   2  36    7.72    2.22
   2  -2  36    1.06    1.71
  -2  -2 -36    1.18    1.49
   2  -2  36    2.31    1.99
  -2   2 -36    1.18    1.43
   2   2  36    1.19    1.89
   3  -2  36   -2.31    1.83
  -3  -2 -36    0.80    1.52
   3  -2  36    1.09    1.72
   3   2  36   -0.80    1.77
  -3   2 -36   -0.60    1.27
   4  -2  36    2.09    1.86
  -4  -2 -36   -1.20    1.45
   4  -2  36   -0.80    2.26
   4   2  36   -0.82    2.06
  -4   2 -36    0.93    1.40
  -5  -2 -36   26.68    3.14
   5  -2  36   24.84    2.92
   5  -2  36   23.31    4.15
   5   2  36   24.92    4.03
   5   2  36   23.37    3.14
  -5   2 -36   24.13    2.67
   6  -2  36   -0.27    1.78
   6  -2  36   -1.73    2.18
   6   2  36   -2.19    1.77
   6   2  36    4.58    2.79
  -6   2 -36    3.31    1.68
   7  -2  36   -0.03    2.42
   7  -2  36    0.70    1.71
  -7   2 -36   -2.35    1.51
   7   2  36    1.67    2.10
   7   2  36    1.25    2.59
  -7  -3  36    1.48    1.72
   7   3 -36    0.09    1.79
  -6  -3  36    0.38    1.71
   6   3 -36    1.04    1.79
  -6   3  36   -2.03    1.93
  -5  -3  36    1.96    1.66
   5  -3 -36   -0.70    1.84
  -5   3  36    0.83    1.97
   5   3 -36    3.05    1.87
  -4  -3  36   18.43    2.58
   4  -3 -36   10.22    2.40
   4   3 -36   12.69    2.20
  -3  -3  36   -1.61    1.63
   3  -3 -36    0.14    1.53
  -3  -3  36    1.37    1.73
   3   3 -36   -0.81    1.37
   2  -3 -36    7.81    2.06
  -2  -3  36    8.89    2.20
  -2  -3  36    4.50    1.99
   2   3 -36    9.53    1.94
   1  -3 -36    0.84    1.43
  -1  -3  36    1.01    1.77
  -1  -3  36    1.41    1.79
   0  -3 -36    2.18    1.61
   0  -3  36    7.39    2.35
   0  -3  36    2.89    1.81
   0   3  36    3.00    1.92
   1  -3  36   13.06    2.97
   1  -3  36   12.06    2.27
  -1  -3 -36    9.65    2.15
  -1   3 -36   14.45    2.21
   1   3  36   19.10    3.09
   2  -3  36    0.02    2.01
  -2  -3 -36   -0.30    1.50
   2  -3  36    3.55    1.84
  -2   3 -36    1.80    1.61
   2   3  36    0.00    1.94
   3  -3  36    1.39    1.71
  -3  -3 -36    0.22    1.60
   3  -3  36   -0.20    2.29
  -3   3 -36    0.22    1.49
   3   3  36   -1.68    1.95
   4  -3  36    2.44    1.72
   4  -3  36    1.12    2.50
  -4  -3 -36    5.85    2.01
   4   3  36    2.35    2.38
  -4   3 -36    2.99    1.62
   5  -3  36    4.06    2.87
   5   3  36    3.16    2.64
  -5   3 -36    2.81    1.78
   6  -3  36   -0.82    2.43
   6   3  36   -0.41    2.35
  -6   3 -36    2.05    1.79
  -7  -4  36   -1.94    1.41
   7   4 -36    1.10    1.95
  -6  -4  36    6.85    1.77
   6   4 -36    6.58    2.25
  -5  -4  36    0.87    1.63
   5  -4 -36    0.00    1.86
   5   4 -36    1.97    1.89
  -5   4  36    2.15    2.18
  -4  -4  36    0.61    1.84
   4  -4 -36    1.21    1.81
  -4  -4  36   -0.32    1.52
   4   4 -36   -3.02    1.38
   3  -4 -36    1.99    1.79
  -3  -4  36   -0.01    1.53
  -3  -4  36    2.08    1.87
   3   4 -36    2.25    1.73
   2  -4 -36    1.30    1.67
  -2  -4  36    0.00    1.47
  -2  -4  36   -0.74    1.66
   2   4 -36   -2.47    1.30
  -1  -4  36    0.09    1.77
   1  -4 -36    0.78    1.62
  -1  -4  36    0.07    1.40
   0  -4  36    5.25    2.31
   0  -4 -36    7.40    2.09
   1  -4  36   -3.11    1.70
  -1  -4 -36   -1.57    1.34
   1   4  36   -1.57    1.80
   2  -4  36    1.09    2.34
  -2  -4 -36    0.26    1.69
   2   4  36   -0.11    2.00
  -3  -4 -36   -2.52    1.43
   3  -4  36    2.26    2.62
   3   4  36    0.33    2.11
   4  -4  36    7.19    3.05
   4   4  36    6.90    2.78
   5  -4  36   -0.34    2.73
   5   4  36    1.24    2.44
  -4  -5  36    1.37    1.98
  -3  -5  36    0.75    1.94
  -2  -5  36    0.33    1.91
   2  -5 -36    3.28    1.95
  -1  -5  36    0.81    2.02
   1  -5 -36    3.48    1.95
   0  -5 -36    1.03    1.71
   0  -5  36    0.17    2.02
  -1  -5 -36    5.86    2.11
   1  -5  36    2.88    2.45
   2  -5  36    1.09    2.43
   2   5  36    4.31    2.40
   3  -5  36    0.20    2.52
   3   5  36    1.00    2.21
   4  -5  36    1.53    2.59
   4   5  36   -1.01    2.28
  -3  -6  36    2.72    2.39
  -2  -6  36    0.18    2.11
  -1  -6  36   17.66    3.50
   0  -6  36    3.75    2.73
   1  -6  36   -1.05    2.26
   2  -6  36    0.43    2.69
  -8   0  37    1.84    2.26
  -7   0  37    1.83    2.25
   6   0 -37   -2.25    1.19
  -6   0  37    1.48    2.05
   5   0 -37   14.52    2.05
  -5   0  37   14.78    2.83
  -4   0  37   -1.04    1.66
   4   0 -37    1.31    1.43
   3   0 -37    1.27    1.45
  -3   0  37    3.97    2.00
  -2   0  37    0.54    1.54
   2   0 -37    1.78    1.42
  -2   0  37   -1.45    1.62
  -1   0  37    3.96    1.83
  -1   0  37    3.53    1.86
   1   0 -37    5.11    1.60
   0   0  37   -2.18    1.51
   0   0  37    1.15    1.68
   0   0 -37    2.53    1.37
   1   0  37   -2.82    1.26
   1   0  37    0.98    1.76
   2   0  37   -0.26    1.51
   2   0  37   -0.75    1.77
   3   0  37    3.32    1.85
   3   0  37    3.18    2.27
   4   0  37   -2.32    2.02
  -4   0 -37   -0.37    1.36
   4   0  37    1.54    1.80
   5   0  37   -1.31    1.60
  -5   0 -37    0.82    1.47
   5   0  37   -0.90    2.17
   6   0  37    0.05    1.89
   6   0  37    2.63    2.55
  -6   0 -37   -0.10    1.61
  -7   0 -37    8.91    2.14
   7   0  37   11.68    3.21
   7   0  37    1.63    2.12
  -8  -1  37    3.46    2.10
   8   1 -37    4.13    1.70
  -7  -1  37    2.24    2.08
   7   1 -37   -1.14    1.55
  -6  -1  37    1.44    2.01
   6   1 -37    1.54    1.75
  -5  -1  37   23.73    3.14
   5   1 -37   21.17    2.68
  -4  -1  37   14.32    2.62
   4   1 -37   18.52    2.42
  -3  -1  37    4.09    1.94
   3  -1 -37    8.66    1.30
   3   1 -37    5.01    1.73
  -2  -1  37    4.42    1.96
  -2  -1  37   -0.66    1.62
   2  -1 -37    3.30    1.26
   2   1 -37    0.72    1.51
  -1  -1  37    6.35    1.99
  -1  -1  37    8.68    2.18
   1  -1 -37    6.63    1.43
   1   1 -37    6.04    1.65
  -1   1  37    9.09    2.28
   0  -1  37   12.92    2.52
   0  -1  37   14.89    2.43
   0  -1 -37   14.25    1.78
   0  -1 -37   12.16    2.04
   0   1  37   11.99    2.33
   0   1  37   17.73    2.72
   1  -1  37   16.66    2.97
   1  -1  37   12.85    2.43
  -1  -1 -37   15.81    2.30
  -1  -1 -37   15.73    1.84
   1   1  37   12.11    2.60
   1   1  37   20.66    2.78
   2  -1  37    0.62    1.63
  -2  -1 -37   -0.13    1.33
   2  -1  37    2.35    2.07
  -2  -1 -37    1.52    1.30
   2   1  37   -1.18    1.52
   2   1  37   -1.69    1.56
  -2   1 -37    1.55    1.35
   3  -1  37    7.44    2.06
  -3  -1 -37    6.19    1.86
   3  -1  37    6.71    2.62
  -3   1 -37    9.00    1.87
   3   1  37    5.08    2.43
   3   1  37   10.36    2.16
  -4  -1 -37   -1.75    1.41
   4  -1  37    5.10    2.68
   4  -1  37    0.63    1.70
  -4   1 -37    0.88    1.50
   4   1  37    0.38    1.72
   4   1  37   -0.06    2.12
   5  -1  37    5.18    2.67
   5  -1  37    3.53    1.95
  -5  -1 -37    3.42    1.86
  -5   1 -37    2.25    1.62
   5   1  37    0.87    2.37
   5   1  37    1.67    1.84
   6  -1  37    4.12    2.06
   6  -1  37    5.01    2.83
  -6   1 -37    3.39    1.72
   6   1  37    6.75    2.24
   6   1  37    9.68    3.17
   7  -1  37   -2.61    1.75
   7  -1  37    2.11    2.63
  -7   1 -37    2.35    1.69
   7   1  37    2.77    2.15
   7   1  37    7.04    2.93
  -8  -2  37   -0.66    1.69
   8   2 -37    0.10    1.77
  -7  -2  37   -0.19    1.82
   7   2 -37   -0.57    1.74
  -6  -2  37    1.61    1.83
   6   2 -37   -0.48    1.78
  -5  -2  37    1.03    1.93
   5   2 -37   -0.54    1.66
  -4  -2  37    5.12    2.07
   4   2 -37    2.00    1.74
  -3  -2  37    1.38    1.64
  -3  -2  37   -0.62    1.66
   3  -2 -37    0.12    1.51
   3   2 -37   -0.03    1.47
  -2  -2  37   -1.15    1.41
  -2  -2  37   -0.91    1.58
   2  -2 -37   -3.07    1.23
   2   2 -37    1.59    1.53
  -1  -2  37    0.28    1.63
   1  -2 -37   -0.81    1.34
  -1  -2  37    0.18    1.60
   1   2 -37   -1.41    1.32
   0  -2 -37    7.51    1.87
   0  -2  37    7.66    2.34
   0  -2  37    6.07    2.03
   0   2  37   12.56    2.55
   1  -2  37   -0.45    1.92
   1  -2  37    1.68    1.69
  -1  -2 -37    0.91    1.50
   1   2  37    2.20    1.82
   2  -2  37    4.44    2.38
  -2  -2 -37    4.83    1.74
   2  -2  37    4.29    1.88
   2   2  37    5.10    2.21
  -2   2 -37    3.99    1.66
  -3  -2 -37    0.04    1.52
   3  -2  37   -1.05    1.64
   3  -2  37   -1.32    2.00
   3   2  37   -0.95    1.82
  -3   2 -37    2.60    1.54
  -4  -2 -37    7.95    2.12
   4  -2  37    6.50    2.86
   4  -2  37   10.55    2.31
  -4   2 -37   10.88    2.08
   4   2  37    3.46    2.39
  -5  -2 -37    2.65    1.88
   5  -2  37    1.07    1.84
   5  -2  37    0.41    2.47
   5   2  37   -0.06    2.34
   5   2  37    1.29    2.02
  -5   2 -37    1.52    1.56
   6  -2  37   -0.28    2.59
   6  -2  37    2.68    1.86
  -6   2 -37    2.44    1.70
   6   2  37    2.46    2.46
   6   2  37    2.27    2.12
  -7  -3  37   -1.87    1.67
   7   3 -37    2.24    2.04
  -6  -3  37   -0.04    1.62
   6   3 -37    1.64    1.92
  -6   3  37    0.49    2.23
  -5  -3  37   13.88    2.35
   5  -3 -37   11.78    2.64
  -5   3  37   16.43    2.99
   5   3 -37    8.58    2.24
  -4  -3  37    1.80    1.73
   4  -3 -37    3.78    2.17
   4   3 -37    1.17    1.61
  -3  -3  37    6.39    2.07
   3  -3 -37    5.65    1.96
  -3  -3  37    6.33    2.09
   3   3 -37    5.82    1.83
  -2  -3  37    4.30    1.90
  -2  -3  37   -0.59    1.60
   2  -3 -37    0.51    1.51
   2   3 -37    1.64    1.52
   1  -3 -37   15.58    2.41
  -1  -3  37   12.18    2.43
  -1  -3  37    8.01    2.27
   0  -3 -37    4.48    1.83
   0  -3  37    6.38    2.31
   0  -3  37    5.65    1.99
   0   3  37    5.74    2.11
   1  -3  37   10.09    2.73
  -1  -3 -37    9.81    2.21
   1  -3  37    9.41    2.18
   1   3  37   10.50    2.53
  -1   3 -37   10.34    2.10
   2  -3  37    2.88    2.27
  -2  -3 -37    1.65    1.66
   2  -3  37   -0.53    1.76
   2   3  37    2.32    2.09
  -2   3 -37   -0.24    1.33
  -3  -3 -37    3.11    1.82
   3  -3  37    2.12    1.78
   3  -3  37   -2.06    2.03
  -3   3 -37    3.08    1.58
   3   3  37    0.92    2.15
   4  -3  37    1.33    1.64
   4  -3  37   -0.51    2.32
  -4  -3 -37    0.65    1.78
   4   3  37    0.67    2.17
  -4   3 -37   -1.71    1.38
   5  -3  37    4.92    2.86
   5   3  37   -1.26    2.25
  -5   3 -37    2.08    1.68
   6  -3  37    2.92    2.84
  -6   3 -37    4.28    1.98
   6   3  37    3.79    2.85
  -6  -4  37    0.14    1.52
   6   4 -37   -0.01    1.91
  -5  -4  37    3.88    1.72
   5   4 -37    6.65    2.18
  -4  -4  37    2.63    2.07
  -4  -4  37    0.42    1.60
   4  -4 -37   -1.10    1.70
   4   4 -37    0.61    1.71
  -3  -4  37    0.25    1.77
   3  -4 -37    3.71    1.88
  -3  -4  37   -1.20    1.40
   3   4 -37    2.22    1.78
  -2  -4  37    0.32    1.49
  -2  -4  37   -1.11    1.64
   2  -4 -37    1.32    1.76
   2   4 -37    2.25    1.66
  -1  -4  37   -2.18    1.68
   1  -4 -37    1.98    1.72
  -1  -4  37   -1.56    1.26
   0  -4  37    5.74    2.38
   0  -4 -37    3.83    1.82
   1  -4  37    0.68    2.02
  -1  -4 -37    0.85    1.70
   1   4  37    1.15    2.12
   2  -4  37    0.41    2.23
  -2  -4 -37   -0.04    1.64
   2   4  37   -1.11    1.92
   3  -4  37   -2.57    2.18
   3   4  37    5.86    2.59
   4  -4  37   -0.16    2.56
   4   4  37   -0.87    2.29
   5  -4  37    2.70    2.83
   5   4  37   -0.57    2.37
  -4  -5  37   12.98    2.87
  -3  -5  37    3.99    2.25
  -2  -5  37    4.31    2.30
  -1  -5  37    3.55    2.20
   0  -5  37    8.85    2.79
   1  -5  37    7.99    2.88
   2  -5  37    0.21    2.38
   2   5  37    4.05    2.40
   3  -5  37    8.10    3.30
   3   5  37    6.89    2.67
   4  -5  37   -1.08    2.50
   4   5  37    1.05    2.48
  -2  -6  37   -1.87    2.14
  -1  -6  37   -2.02    2.03
   0  -6  37    0.93    2.37
   1  -6  37    0.72    2.39
  -8   0  38    3.17    2.37
  -7   0  38   -0.35    2.22
  -6   0  38    2.08    2.28
   6   0 -38    0.15    1.27
   5   0 -38   -0.27    1.40
  -5   0  38   -1.31    1.83
  -4   0  38    1.05    1.89
   4   0 -38    1.96    1.51
  -3   0  38   -0.99    1.77
   3   0 -38   -0.47    1.38
   2   0 -38    4.40    1.65
  -2   0  38    2.30    1.93
  -1   0  38    1.21    1.69
   1   0 -38   -2.09    1.25
  -1   0  38    3.27    1.82
   0   0 -38    8.21    1.73
   0   0  38    5.71    2.05
   0   0  38    8.45    2.30
   1   0  38    2.22    1.90
  -1   0 -38    1.64    1.37
   1   0  38    0.88    1.64
   2   0  38   25.07    3.52
   2   0  38   22.32    2.79
   3   0  38    3.14    2.25
   3   0  38   -0.73    1.63
  -4   0 -38   -0.55    1.40
   4   0  38    0.38    2.20
   4   0  38    1.60    1.90
   5   0  38    1.93    2.45
  -5   0 -38   -0.45    1.49
   5   0  38   -1.59    1.74
   6   0  38    7.12    2.34
  -6   0 -38    9.48    2.06
   6   0  38    4.01    2.80
  -8  -1  38    1.06    2.08
   8   1 -38    5.09    1.72
  -7  -1  38    1.66    2.07
   7   1 -38    0.45    1.59
  -6  -1  38   -0.93    1.91
   6   1 -38   -1.10    1.59
  -5  -1  38    9.30    2.46
   5   1 -38    7.90    2.13
  -4  -1  38    5.04    2.10
   4   1 -38   10.28    2.09
  -3  -1  38    3.20    1.99
   3   1 -38    9.51    2.05
   2  -1 -38    1.91    1.16
  -2  -1  38    2.60    1.70
  -2  -1  38    4.72    1.93
   2   1 -38   -0.42    1.35
  -1  -1  38    7.66    2.11
  -1  -1  38    5.36    2.03
   1  -1 -38    5.46    1.39
  -1   1  38    3.29    1.87
   1   1 -38    4.93    1.73
   0  -1 -38   14.36    1.80
   0  -1  38   16.24    2.49
   0  -1  38   12.83    2.60
   0   1 -38   13.81    2.08
   0   1  38   14.41    2.43
   0   1  38    9.27    2.33
   1  -1  38    5.19    2.19
  -1  -1 -38    1.56    1.30
   1  -1  38    1.88    1.73
  -1  -1 -38    1.94    1.51
   1   1  38    0.54    1.74
   1   1  38    0.03    1.76
   2  -1  38    5.05    1.96
   2  -1  38    1.78    2.05
  -2  -1 -38    3.60    1.71
  -2  -1 -38    2.71    1.40
   2   1  38    3.67    2.11
   2   1  38    5.70    2.04
  -3  -1 -38   -0.62    1.46
   3  -1  38    1.45    1.74
   3  -1  38   -1.24    2.02
  -3  -1 -38    2.37    1.35
   3   1  38   -1.46    1.91
   3   1  38    0.63    1.76
  -3   1 -38    0.39    1.38
   4  -1  38    3.45    1.92
   4  -1  38   -0.06    2.25
  -4  -1 -38    0.21    1.62
   4   1  38    1.48    1.80
  -4   1 -38   -3.16    1.29
   4   1  38    0.30    2.24
   5  -1  38    0.18    2.41
  -5  -1 -38    1.54    1.81
   5  -1  38   -1.10    1.76
  -5   1 -38    0.74    1.67
   5   1  38   -0.20    1.80
   5   1  38    3.80    2.58
   6  -1  38    2.41    1.93
   6  -1  38    4.85    2.90
   6   1  38    2.84    2.05
  -6   1 -38    3.64    1.74
   6   1  38   -0.35    2.58
  -7  -2  38    9.39    2.33
   7   2 -38   12.49    2.43
  -6  -2  38    1.83    1.89
   6   2 -38    0.51    1.85
  -5  -2  38    2.95    2.00
   5   2 -38    0.40    1.75
  -4  -2  38    3.28    1.96
   4   2 -38   -0.36    1.64
  -3  -2  38   25.21    3.01
   3   2 -38   26.88    2.88
   2  -2 -38   -0.06    1.56
  -2  -2  38   -0.12    1.56
  -2  -2  38   -1.03    1.55
   2   2 -38    3.99    1.71
   1  -2 -38    4.53    1.74
  -1  -2  38    5.01    2.00
  -1  -2  38    3.08    1.89
   1   2 -38    4.25    1.56
   0  -2  38    1.53    1.87
   0  -2 -38    1.94    1.56
   0  -2  38    1.05    1.74
   0   2  38    1.01    1.77
   1  -2  38   21.71    2.78
   1  -2  38   16.71    2.95
  -1  -2 -38   30.98    3.12
   1   2  38   19.46    3.12
   2  -2  38    1.17    1.74
  -2  -2 -38    1.37    1.56
   2  -2  38    1.90    2.10
  -2   2 -38   -0.28    1.37
   2   2  38   -2.59    1.54
   3  -2  38    9.32    2.86
   3  -2  38    6.16    2.09
  -3  -2 -38    5.49    1.92
   3   2  38    3.68    2.34
  -3   2 -38    8.64    1.99
   4  -2  38   -0.47    2.30
   4  -2  38   -0.16    1.82
  -4  -2 -38    5.44    2.02
   4   2  38    0.15    2.13
  -4   2 -38    1.31    1.53
   5  -2  38    4.89    1.96
   5  -2  38   -0.84    2.41
  -5   2 -38    1.55    1.59
   5   2  38    5.19    2.63
   5   2  38    4.00    2.25
   6  -2  38    0.68    1.78
   6  -2  38    3.46    2.72
  -6   2 -38    0.16    1.52
   6   2  38    2.51    2.53
   6   2  38    0.36    2.15
  -7  -3  38   -2.27    1.62
   7   3 -38   -0.93    1.85
  -6  -3  38   -1.40    1.52
   6   3 -38    0.36    1.79
   5  -3 -38    4.64    2.32
  -5  -3  38    5.55    1.98
  -5   3  38    4.07    2.38
   5   3 -38    5.51    2.06
   4  -3 -38   15.23    2.72
  -4  -3  38   19.17    2.59
   4   3 -38   11.95    2.32
  -3  -3  38    6.60    2.13
   3  -3 -38   10.29    2.38
  -3  -3  38    8.83    2.34
   3   3 -38    9.17    2.10
  -2  -3  38    1.51    1.81
  -2  -3  38    4.60    2.05
   2  -3 -38    3.90    1.89
   2   3 -38    3.61    1.65
  -1  -3  38    2.10    1.78
   1  -3 -38    1.27    1.62
  -1  -3  38    1.15    1.74
   0  -3 -38    9.53    2.24
   0  -3  38   10.96    2.30
   0  -3  38   10.85    2.63
   1  -3  38    0.11    1.70
  -1  -3 -38    0.82    1.62
   1  -3  38    1.80    1.95
   1   3  38    2.20    1.93
  -1   3 -38    1.37    1.59
  -2  -3 -38    2.63    1.81
   2  -3  38    3.69    1.89
   2  -3  38    5.95    2.62
  -2   3 -38    2.48    1.62
   2   3  38    2.25    2.08
  -3  -3 -38    1.15    1.76
   3  -3  38    2.37    2.48
   3  -3  38   -0.85    1.68
  -3   3 -38    2.56    1.69
   3   3  38   -0.77    2.16
   4  -3  38   -1.38    2.35
   4  -3  38    1.05    1.60
  -4   3 -38    3.81    1.75
   4   3  38   -1.98    2.06
   5  -3  38    0.32    2.52
   5   3  38   -2.81    2.11
  -5   3 -38   -0.38    1.53
   6   4 -38    1.13    1.82
  -5  -4  38    2.52    1.60
   5   4 -38   -1.91    1.66
  -4  -4  38   -0.82    1.48
   4   4 -38   -0.47    1.55
  -3  -4  38   -0.30    1.91
  -3  -4  38    1.16    1.53
   3  -4 -38    0.00    1.68
   3   4 -38    0.09    1.65
  -2  -4  38    4.02    2.24
  -2  -4  38    7.77    1.68
   2  -4 -38    4.71    1.98
   2   4 -38    4.86    1.87
   1  -4 -38    2.38    1.83
  -1  -4  38    0.89    1.99
   0  -4 -38    5.42    2.03
   0  -4  38    2.68    2.10
  -1  -4 -38    3.52    1.94
   1  -4  38   -0.69    1.90
   1   4  38    2.88    2.18
   2  -4  38    8.01    2.95
   2   4  38    5.11    2.50
   3  -4  38    0.90    2.50
   3   4  38   -1.16    2.17
   4  -4  38   -5.14    2.12
   4   4  38    2.14    2.45
  -4  -5  38    0.61    2.09
  -3  -5  38   -2.61    1.86
  -2  -5  38    1.75    2.07
  -1  -5  38    1.25    2.06
   0  -5  38    1.00    2.10
   1  -5  38    5.96    2.67
   2  -5  38   -0.82    2.15
   2   5  38    6.38    2.71
   3  -5  38    0.25    2.62
   3   5  38    1.90    2.47
  -7   0  39   29.37    3.78
   6   0 -39    0.39    1.18
  -6   0  39    0.28    2.13
  -5   0  39    0.87    2.00
   5   0 -39    0.95    1.42
  -4   0  39    1.46    1.99
   4   0 -39    1.43    1.45
   3   0 -39   36.56    2.85
  -3   0  39   30.10    3.45
  -2   0  39   -0.78    1.73
   2   0 -39    0.75    1.41
  -1   0  39    5.65    2.06
   1   0 -39    4.48    1.57
  -1   0  39    7.90    2.19
   0   0  39    0.87    1.70
   0   0 -39   -2.22    1.22
   0   0  39    1.56    1.82
   1   0  39   24.74    3.44
   1   0  39   28.73    3.16
  -1   0 -39   26.36    2.49
   2   0  39    1.15    1.62
   2   0  39   -3.11    1.53
   3   0  39    5.99    2.08
   3   0  39    2.70    2.13
   4   0  39   -2.36    1.88
   4   0  39   -0.56    1.70
  -5   0 -39    0.41    1.58
   5   0  39    0.79    2.39
   5   0  39    1.75    1.91
   6   0  39   -0.17    1.98
   6   0  39   -0.54    2.40
  -6   0 -39   -3.81    1.45
  -7  -1  39    0.41    2.02
   7   1 -39   -0.31    1.52
  -6  -1  39   -1.32    1.93
   6   1 -39   -1.17    1.57
  -5  -1  39   -2.14    1.78
   5   1 -39    0.00    1.61
  -4  -1  39    8.68    2.33
   4   1 -39    8.37    2.15
  -3  -1  39   -2.83    1.60
   3   1 -39   -0.97    1.49
  -2  -1  39    3.24    1.97
   2  -1 -39    2.90    1.12
  -2  -1  39    3.06    1.92
   2   1 -39    3.40    1.61
   1  -1 -39    3.11    1.25
  -1  -1  39    0.71    1.82
  -1  -1  39    0.88    1.78
  -1   1  39    1.27    1.85
   1   1 -39    4.76    1.69
   0  -1 -39    4.39    1.35
   0  -1  39    3.42    1.82
   0  -1  39    1.71    1.79
   0   1  39    2.59    1.93
   0   1 -39    1.87    1.48
   0   1  39    0.80    1.78
   1  -1  39    1.58    1.91
  -1  -1 -39    2.33    1.32
   1  -1  39   -0.63    1.52
   1   1  39    0.68    1.74
   1   1  39   -1.19    1.75
   2  -1  39    2.56    1.80
   2  -1  39    3.71    2.21
  -2  -1 -39    4.97    1.52
   2   1  39    4.26    2.22
   2   1  39    3.44    1.97
  -3  -1 -39    6.42    1.97
   3  -1  39   10.55    2.34
   3  -1  39    8.65    2.84
  -3  -1 -39    6.68    1.64
  -3   1 -39    7.55    1.83
   3   1  39   10.66    2.89
   3   1  39    5.16    2.11
   4  -1  39    2.28    2.50
  -4  -1 -39    1.29    1.72
  -4  -1 -39    2.43    1.45
   4  -1  39    1.02    1.85
  -4   1 -39    0.23    1.53
   4   1  39    1.62    1.80
   4   1  39    1.53    2.34
   5  -1  39    0.69    2.46
   5  -1  39    1.44    1.84
  -5   1 -39   -0.96    1.52
   5   1  39   -2.42    1.66
   5   1  39    1.84    2.52
   6  -1  39    0.58    1.94
   6  -1  39   -5.06    1.99
   6   1  39   -0.75    1.76
  -6   1 -39    0.43    1.75
   6   1  39    4.19    2.74
  -7  -2  39    0.58    1.84
   7   2 -39   -0.37    1.83
  -6  -2  39    7.65    2.21
   6   2 -39    6.94    2.17
  -5  -2  39    0.31    1.81
   5   2 -39    2.37    1.81
  -4  -2  39    0.52    1.88
   4   2 -39   -0.21    1.59
  -3  -2  39    3.16    1.92
   3   2 -39    1.42    1.59
  -2  -2  39   23.68    3.13
  -2  -2  39   34.15    3.34
   2   2 -39   29.80    3.04
   1  -2 -39   -0.75    1.42
  -1  -2  39    2.74    1.90
  -1  -2  39    2.57    1.88
   1   2 -39    0.73    1.37
   0  -2  39    2.65    2.07
   0  -2 -39    7.42    2.07
   0  -2  39    4.00    1.99
   0   2  39    6.77    2.22
  -1  -2 -39   -1.73    1.44
   1  -2  39   -0.14    1.88
   1  -2  39    0.00    1.71
   1   2  39    0.19    1.82
   2  -2  39   39.03    4.52
   2  -2  39   34.71    3.40
  -2  -2 -39   38.92    3.60
  -2   2 -39   38.34    3.29
   2   2  39   31.08    3.91
   3  -2  39   -1.35    2.03
   3  -2  39   -2.87    1.54
  -3  -2 -39   -1.40    1.46
   3   2  39    2.10    2.11
  -3   2 -39   -1.15    1.47
   4  -2  39    3.21    2.40
   4  -2  39    2.05    1.92
   4   2  39   -0.68    2.12
  -4   2 -39    3.75    1.81
   5  -2  39    1.78    2.68
   5  -2  39   -0.97    1.80
   5   2  39   -0.17    2.20
  -5   2 -39    1.38    1.63
   5   2  39    0.28    1.94
  -6  -3  39    0.68    1.70
   6   3 -39    0.65    1.91
  -5  -3  39    1.53    1.78
   5   3 -39   -2.38    1.67
  -4  -3  39    4.11    1.93
   4  -3 -39    3.54    2.19
   4   3 -39   -0.06    1.69
  -3  -3  39   -0.19    1.85
   3  -3 -39   -0.34    1.77
  -3  -3  39   -1.68    1.73
   3   3 -39   -0.29    1.55
  -2  -3  39    3.12    1.83
  -2  -3  39    1.11    1.87
   2  -3 -39   -0.24    1.62
   2   3 -39    0.40    1.49
  -1  -3  39    2.00    1.88
   1  -3 -39    5.21    1.94
  -1  -3  39    5.75    2.09
   1   3 -39    1.28    1.55
   0  -3 -39    1.72    1.72
   0  -3  39    3.51    2.08
   0  -3  39    3.20    1.93
   1  -3  39   -0.98    1.89
  -1  -3 -39    1.12    1.71
   1  -3  39   -1.94    1.58
   1   3  39    1.94    1.96
   2  -3  39    0.92    2.17
   2  -3  39    0.96    1.73
  -2  -3 -39    1.50    1.80
  -2   3 -39   -0.16    1.53
   2   3  39   -0.52    1.92
   3  -3  39    9.99    3.19
   3  -3  39    7.77    2.02
  -3   3 -39    8.14    2.10
   3   3  39    6.18    2.54
   4  -3  39    4.36    2.81
  -4   3 -39   -0.65    1.54
   4   3  39    1.05    2.33
   5  -3  39   -2.52    2.28
   5   3  39    2.66    2.58
  -5   3 -39   -1.40    1.51
   5   4 -39    1.14    1.88
  -4  -4  39    1.72    1.57
   4   4 -39   -0.59    1.70
  -3  -4  39   18.32    3.08
  -3  -4  39   15.51    1.96
   3   4 -39   13.36    2.48
   2  -4 -39    1.39    1.80
  -2  -4  39    0.82    2.04
   2   4 -39    0.80    1.60
   1  -4 -39    1.45    1.76
  -1  -4  39    2.01    2.02
   0  -4 -39    1.67    1.83
   0  -4  39   -0.40    1.90
   1  -4  39   15.55    3.20
   1   4  39   17.44    3.17
   2  -4  39    0.94    2.18
   2   4  39    1.14    2.07
   3  -4  39    1.52    2.61
   3   4  39    0.06    2.25
   4  -4  39   -1.85    2.53
   4   4  39   -2.14    2.27
  -3  -5  39   -1.53    1.85
  -2  -5  39    0.83    2.00
  -1  -5  39    2.67    2.17
   0  -5  39    2.19    2.34
   1  -5  39   -0.85    2.15
   2  -5  39    1.34    2.49
   2   5  39   -0.80    2.22
  -7   0  40    5.93    2.55
  -6   0  40   13.08    2.89
  -5   0  40   -0.44    1.98
   5   0 -40    1.24    1.33
  -4   0  40    1.15    2.05
   4   0 -40    0.13    1.42
   3   0 -40   -0.78    1.45
  -3   0  40    1.52    1.84
  -2   0  40   43.09    3.93
   2   0 -40   38.11    3.00
  -1   0  40   -1.19    1.71
   1   0 -40   -0.58    1.42
  -1   0  40   -0.57    1.60
   0   0  40    9.25    2.34
   0   0  40    5.21    2.18
   0   0 -40    5.89    1.73
   1   0  40    2.84    1.85
  -1   0 -40   -0.65    1.34
   1   0  40    0.87    1.80
   2   0  40   30.53    3.25
  -2   0 -40   22.56    2.43
   2   0  40   22.24    3.50
   3   0  40    2.29    1.88
   3   0  40    0.36    2.07
   4   0  40   -3.15    1.93
   4   0  40   -1.68    1.67
   5   0  40   -1.85    2.32
   5   0  40    0.35    2.00
  -7  -1  40    1.87    2.16
   7   1 -40    3.49    1.71
  -6  -1  40   -0.89    1.87
   6   1 -40    2.42    1.74
  -5  -1  40    3.39    2.12
   5   1 -40    3.90    1.86
  -4  -1  40   -1.48    1.72
   4   1 -40    1.05    1.66
  -3  -1  40    2.30    1.95
   3   1 -40    1.08    1.61
  -2  -1  40    4.53    2.08
  -2  -1  40    4.20    2.05
   2   1 -40    1.76    1.55
  -1  -1  40   10.65    2.49
   1  -1 -40    9.16    1.45
  -1  -1  40    7.37    2.16
   1   1 -40    9.21    1.96
   0  -1 -40    7.70    1.49
   0  -1  40    0.79    1.83
   0  -1  40    2.29    1.83
   0   1  40    5.24    2.21
   0   1 -40    5.68    1.71
   0   1  40    6.43    2.16
   1  -1  40    0.91    1.98
   1  -1  40    2.11    1.84
  -1  -1 -40    2.32    1.30
   1   1  40    0.77    1.86
   1   1  40    0.23    1.77
   2  -1  40   -1.83    1.82
   2  -1  40   -1.99    1.68
  -2  -1 -40    0.03    1.27
   2   1  40   -2.47    1.74
   2   1  40    1.03    2.07
  -3  -1 -40   19.68    2.08
   3  -1  40   16.88    3.43
   3  -1  40   17.28    2.71
   3   1  40   19.59    2.92
   3   1  40   13.82    3.13
   4  -1  40    6.58    2.93
   4  -1  40    4.35    2.10
  -4  -1 -40    9.97    1.76
   4   1  40    5.81    2.83
   4   1  40    1.86    2.03
  -4   1 -40    5.99    1.88
  -5  -1 -40    1.72    1.46
   5  -1  40   -1.22    2.29
   5  -1  40   -1.86    1.85
   5   1  40   -0.43    1.86
  -5   1 -40    0.18    1.69
   5   1  40   -1.20    2.28
  -6  -2  40    1.41    1.90
   6   2 -40   -2.38    1.76
  -5  -2  40    4.82    2.09
   5   2 -40    1.13    1.84
  -4  -2  40    1.90    1.83
   4   2 -40   -1.47    1.59
  -3  -2  40    3.58    2.01
   3   2 -40   -1.18    1.58
  -2  -2  40    0.40    1.69
  -2  -2  40    0.47    1.74
   2   2 -40    3.53    1.78
  -1  -2  40   -0.65    1.72
  -1  -2  40    0.17    1.73
   1   2 -40    2.24    1.51
   0  -2 -40   -0.47    1.63
   0  -2  40    1.54    1.88
   0  -2  40    0.84    1.95
   0   2  40    1.92    1.85
  -1  -2 -40    4.59    1.89
   1  -2  40    3.82    1.99
   1  -2  40    0.04    1.93
   1   2  40    3.78    2.12
   2  -2  40    4.08    1.94
   2  -2  40    4.39    2.52
  -2  -2 -40    0.81    1.70
   2   2  40    3.41    2.15
   3  -2  40   -0.66    2.15
  -3  -2 -40    0.37    1.83
   3  -2  40    0.72    1.80
  -3   2 -40   -0.55    1.51
   3   2  40    3.59    2.37
   4  -2  40    2.97    2.00
   4  -2  40   -1.49    2.21
   4   2  40    5.22    2.53
  -4   2 -40    1.78    1.71
   5  -2  40    3.10    2.73
   5  -2  40    6.53    2.16
   5   2  40    3.50    2.27
  -5   2 -40    5.01    1.97
   5   2  40    6.66    2.88
  -6  -3  40   -0.55    1.60
   6   3 -40    2.61    2.08
  -5  -3  40    7.71    2.05
   5   3 -40   10.33    2.44
  -4  -3  40   -0.45    1.68
   4   3 -40    3.02    1.86
  -3  -3  40   -1.65    1.73
  -3  -3  40   -0.39    1.90
   3  -3 -40    1.34    1.95
   3   3 -40   -0.71    1.54
  -2  -3  40    4.53    2.00
  -2  -3  40    5.52    2.19
   2  -3 -40    7.47    2.13
   2   3 -40    4.06    1.83
   1  -3 -40    1.69    1.77
  -1  -3  40    7.37    2.30
  -1  -3  40    6.30    2.17
   1   3 -40    3.92    1.75
   0  -3  40    0.56    1.87
   0  -3  40    2.10    1.86
   0  -3 -40    3.31    1.87
   1  -3  40   -0.29    1.80
   1  -3  40    0.67    2.09
  -1  -3 -40    2.26    1.78
   1   3  40    1.81    2.07
   2  -3  40    0.59    2.20
  -2  -3 -40    0.68    1.83
   2  -3  40    1.49    1.76
   2   3  40   -2.60    1.76
  -2   3 -40    3.75    1.84
   3  -3  40    9.55    2.04
   3  -3  40   12.54    3.38
   3   3  40   12.41    2.93
  -3   3 -40   12.26    2.28
   4  -3  40    9.83    3.39
   4   3  40   11.03    3.01
  -4   3 -40    7.33    2.19
   5   4 -40    2.68    1.96
   4   4 -40    0.81    1.70
  -3  -4  40    3.38    2.15
   3   4 -40    2.68    1.84
  -2  -4  40   21.28    3.38
   2   4 -40   16.62    2.59
  -1  -4  40    0.94    1.96
   1   4 -40    0.37    1.63
   0  -4  40    5.49    2.40
   1  -4  40   -2.62    1.96
   2  -4  40    8.63    2.97
   2   4  40   10.81    2.82
  -2   4 -40   10.23    2.31
   3  -4  40    1.56    2.37
   3   4  40    0.62    2.16
  -3   4 -40   -0.52    1.70
  -2  -5  40    2.33    2.10
  -1  -5  40    6.11    2.55
   0  -5  40    5.49    2.68
   1  -5  40   -1.76    2.06
  -6   0  41   -1.75    2.11
  -5   0  41   15.25    2.95
   5   0 -41    8.94    1.56
   4   0 -41    3.29    1.51
  -4   0  41   -2.02    1.84
  -3   0  41    1.71    1.95
   3   0 -41   -1.38    1.47
   2   0 -41    2.74    1.54
  -2   0  41   -0.30    1.78
   1   0 -41    4.38    1.66
  -1   0  41    1.91    1.81
  -1   0  41    4.86    2.13
   0   0  41    0.07    1.77
   0   0 -41    0.50    1.44
   0   0  41   -0.78    1.70
   1   0  41    5.64    2.34
   1   0  41    5.32    2.09
  -1   0 -41    6.17    1.76
   2   0  41    2.38    2.16
  -2   0 -41    2.12    1.47
   2   0  41    0.74    1.75
   3   0  41   -0.55    2.09
   3   0  41    2.38    1.87
   4   0  41    1.87    2.26
   4   0  41   -0.28    1.86
   5   0  41    8.16    3.00
   5   0  41    7.14    2.38
  -6  -1  41    5.15    2.44
   6   1 -41    4.28    1.81
  -5  -1  41   -0.79    1.86
   5   1 -41    0.12    1.70
  -4  -1  41    5.29    2.19
   4   1 -41    2.61    1.76
  -3  -1  41    1.21    1.85
   3   1 -41    1.37    1.67
  -2  -1  41    3.25    2.04
   2   1 -41    2.79    1.66
  -1  -1  41    8.33    2.29
  -1  -1  41    7.82    2.34
   1   1 -41   10.53    2.14
   0  -1 -41   16.25    1.62
   0  -1  41   11.23    2.60
   0  -1  41   13.86    2.52
   0   1 -41   11.64    2.17
   0   1  41   11.87    2.59
   0   1  41    8.92    2.51
  -1  -1 -41    0.99    1.25
   1  -1  41   -1.69    1.79
   1  -1  41   -0.70    1.66
   1   1  41    0.90    1.91
  -1   1 -41    0.95    1.50
   1   1  41    2.60    2.03
  -2  -1 -41    0.60    1.25
   2  -1  41   -0.17    1.97
   2  -1  41   -1.90    1.67
   2   1  41   -0.45    1.84
   2   1  41    1.36    1.93
  -3  -1 -41    1.27    1.38
   3  -1  41    4.17    2.55
   3  -1  41    1.88    2.02
   3   1  41    4.86    2.20
   3   1  41   10.40    2.87
   4  -1  41   16.38    2.81
   4  -1  41   17.51    3.78
  -4  -1 -41   12.13    1.84
   4   1  41   15.00    2.82
   4   1  41   13.55    3.32
   5  -1  41    0.94    2.02
   5  -1  41    1.05    2.63
  -5   1 -41   -0.36    1.72
   5   1  41   -3.42    2.26
   5   1  41    3.55    2.14
  -6  -2  41    2.38    2.00
   6   2 -41    4.08    2.07
  -5  -2  41    2.26    1.98
   5   2 -41   -1.26    1.72
  -4  -2  41    1.07    1.96
   4   2 -41    4.72    1.97
  -3  -2  41    0.45    1.84
   3   2 -41   -0.39    1.55
  -2  -2  41    7.87    2.21
  -2  -2  41    5.54    2.21
   2   2 -41    5.09    1.83
  -1  -2  41    2.87    1.91
  -1  -2  41    1.21    1.76
   1   2 -41   -0.37    1.50
   0  -2  41   11.14    2.44
   0  -2  41    5.70    2.33
   0   2 -41    5.21    1.74
   0   2  41    6.63    2.30
   1  -2  41   -0.17    1.88
  -1  -2 -41   -0.30    1.61
   1  -2  41    4.21    2.03
   1   2  41    0.43    2.02
   2  -2  41    0.13    2.12
  -2  -2 -41   -0.92    1.79
   2  -2  41    0.72    1.84
   2   2  41    2.58    2.20
   3  -2  41    2.80    2.47
   3  -2  41    0.17    1.86
   3   2  41   -0.09    2.06
  -3   2 -41    0.42    1.64
   4  -2  41    7.67    2.28
   4  -2  41    3.68    2.82
   4   2  41    4.78    2.71
  -4   2 -41    6.00    1.96
  -5  -3  41    1.41    1.78
   5   3 -41    2.33    2.01
  -4  -3  41   -0.38    1.69
   4   3 -41    0.15    1.77
  -3  -3  41   -1.70    1.68
   3   3 -41    0.59    1.70
   2  -3 -41   -1.73    1.71
  -2  -3  41    3.32    2.18
  -2  -3  41    2.85    2.00
   2   3 -41    1.09    1.64
  -1  -3  41    5.86    2.06
  -1  -3  41   11.25    2.62
   1  -3 -41   13.15    2.50
   1   3 -41    8.20    1.97
   0  -3  41   14.51    2.49
   0  -3 -41   10.24    2.34
   0  -3  41    4.74    2.49
   1  -3  41    0.47    1.83
   1  -3  41    3.58    2.25
   1   3  41    1.26    2.10
   2  -3  41    0.01    2.05
   2  -3  41    1.19    1.87
   2   3  41    1.90    2.18
   3  -3  41    6.06    1.88
   3  -3  41    8.79    3.02
  -3   3 -41    9.22    2.19
   3   3  41    4.60    2.43
   4  -3  41    0.68    2.56
   4   3  41    8.60    2.84
  -4   3 -41    4.89    2.02
   4   4 -41    0.68    1.82
  -3  -4  41   -2.09    1.80
   3   4 -41    0.31    1.67
  -2  -4  41   -1.43    1.88
   2   4 -41   -1.80    1.61
  -1  -4  41    6.96    2.47
   1   4 -41    4.63    1.86
   0  -4  41    2.70    2.19
   1  -4  41    4.11    2.43
   2  -4  41    3.86    2.47
  -2   4 -41    1.36    1.90
   2   4  41    0.21    2.13
  -6   0  42   -0.01    2.12
  -5   0  42   -0.75    2.02
  -4   0  42    8.97    2.51
   4   0 -42   11.62    1.82
  -3   0  42    0.17    2.02
   3   0 -42   -1.43    1.38
   2   0 -42    7.65    1.81
  -2   0  42    1.57    2.01
  -1   0  42    1.79    1.95
  -1   0  42    2.42    1.94
   1   0 -42    0.51    1.50
   0   0  42   20.91    3.26
   0   0  42   22.86    3.03
   0   0 -42   25.21    2.56
   1   0  42   -0.92    1.84
   1   0  42    0.38    1.87
  -1   0 -42   -3.40    1.34
   2   0  42    2.91    1.99
  -2   0 -42    2.12    1.59
   2   0  42    3.01    2.28
   3   0  42   -1.16    2.01
  -3   0 -42    1.81    1.60
   3   0  42   -2.81    1.66
   4   0  42    2.05    2.06
   4   0  42    9.71    3.11
  -6  -1  42    3.71    2.32
   6   1 -42    4.04    1.78
  -5  -1  42   -1.48    1.97
   5   1 -42    0.68    1.70
  -4  -1  42    3.96    2.30
   4   1 -42    7.45    2.07
  -3  -1  42   -0.36    1.80
   3   1 -42    3.97    1.80
  -2  -1  42   -0.43    1.79
   2   1 -42   -1.11    1.50
  -1  -1  42    3.75    2.06
  -1  -1  42    8.47    2.43
   1   1 -42    4.27    1.81
   0  -1  42    1.43    1.91
   0  -1  42    1.58    1.90
   0   1 -42    2.07    1.68
   0   1  42   -0.21    1.86
   0   1  42    2.46    2.08
   1  -1  42   -0.14    1.75
   1  -1  42    0.35    1.89
   1   1  42    1.48    1.98
   1   1  42    4.83    2.33
  -1   1 -42    2.27    1.66
   2  -1  42    1.89    1.92
   2  -1  42   -0.37    1.98
   2   1  42   -0.62    1.79
   2   1  42   -1.32    1.88
   3  -1  42   -1.73    1.99
   3  -1  42   -1.94    1.74
   3   1  42    0.07    2.14
   3   1  42    2.43    2.12
   4  -1  42    6.24    2.27
   4  -1  42    7.49    3.02
   4   1  42   12.92    3.20
   4   1  42    7.29    2.45
  -5  -2  42   11.91    2.49
   5   2 -42   13.01    2.60
  -4  -2  42   -0.66    1.82
   4   2 -42   -2.15    1.65
  -3  -2  42   -0.90    1.82
   3   2 -42    1.20    1.68
  -2  -2  42   -0.16    1.72
  -2  -2  42   -0.96    1.78
   2   2 -42    3.09    1.82
  -1  -2  42   -0.53    1.70
  -1  -2  42    0.44    1.85
   1   2 -42    1.41    1.67
   0  -2  42    2.62    2.03
   0  -2  42    2.83    1.96
   0   2 -42    3.19    1.70
   1  -2  42   12.71    2.53
   1  -2  42    8.38    2.65
   1   2  42   11.09    2.81
   2  -2  42    0.63    2.22
   2  -2  42    2.23    1.97
   2   2  42    2.07    2.20
   3  -2  42    0.91    2.40
   3  -2  42   -0.69    1.78
   3   2  42   -2.56    1.92
   4  -2  42   -0.06    2.36
   4  -2  42    0.48    1.85
   4   2  42    1.47    2.34
  -4   2 -42    0.72    1.79
  -4  -3  42    2.40    1.86
   4   3 -42    1.89    1.96
  -3  -3  42    0.32    1.70
   3   3 -42    1.49    1.76
  -2  -3  42   -1.14    1.75
  -2  -3  42    1.87    1.94
   2   3 -42    1.35    1.73
  -1  -3  42   -0.25    1.79
  -1  -3  42    2.02    2.03
   1   3 -42    1.87    1.67
   0  -3  42    5.41    2.11
   0  -3  42    3.77    2.26
   1  -3  42    3.37    2.33
   1  -3  42   -1.02    1.81
   1   3  42    0.45    2.11
   2  -3  42    4.37    1.96
   2  -3  42    1.63    2.27
   2   3  42    0.61    2.09
   3  -3  42    0.88    2.42
  -3   3 -42   -3.30    1.59
   3   3  42    3.20    2.19
  -3  -4  42    1.16    2.16
   3   4 -42    2.31    1.89
  -2  -4  42    3.09    2.15
   2   4 -42    3.39    1.88
  -1  -4  42    1.56    2.16
   1   4 -42    1.53    1.69
   0  -4  42   12.15    2.88
   1  -4  42   -1.81    2.01
  -5   0  43    8.07    2.65
  -4   0  43    2.75    2.10
   3   0 -43   -0.28    1.41
  -3   0  43   -0.69    2.02
  -2   0  43    1.56    1.95
   2   0 -43   -0.47    1.43
  -1   0  43    0.29    1.86
   1   0 -43   -1.36    1.39
   0   0  43    1.38    1.92
   0   0 -43    2.49    1.55
   0   0  43    2.34    2.03
  -1   0 -43    2.27    1.67
   1   0  43    5.60    2.39
   1   0  43    4.82    2.14
  -2   0 -43   -1.33    1.44
   2   0  43   -2.21    1.90
   2   0  43    1.78    1.97
   3   0  43    1.24    2.22
   3   0  43   -0.44    1.93
  -3   0 -43    0.89    1.59
   4   0  43    0.43    1.93
   4   0  43    0.21    2.34
  -5  -1  43   -1.05    1.93
   5   1 -43   -1.07    1.56
  -4  -1  43   -2.47    1.80
   4   1 -43   -1.23    1.66
  -3  -1  43    5.70    2.17
   3   1 -43    4.22    1.94
  -2  -1  43    1.97    1.99
   2   1 -43    3.60    1.86
  -1  -1  43   -1.94    1.72
  -1  -1  43    1.36    1.89
   1   1 -43    0.89    1.63
  -1   1  43    0.96    2.09
   0  -1  43   -1.33    1.68
   0  -1  43   -0.15    1.82
   0   1  43   -0.13    2.02
   0   1  43    0.29    2.02
   0   1 -43    1.11    1.61
   1  -1  43    2.24    1.92
   1  -1  43   -1.66    1.79
   1   1  43    3.83    2.09
  -1   1 -43   -1.33    1.51
   1   1  43    0.63    1.93
   2  -1  43   17.37    3.28
   2  -1  43   10.98    2.53
   2   1  43   11.94    2.61
   2   1  43   13.00    2.96
   3  -1  43    0.16    2.29
   3  -1  43    3.07    2.00
   3   1  43    4.70    2.24
   3   1  43   -1.10    1.98
  -5  -2  43    0.68    1.94
   5   2 -43    2.10    2.01
  -4  -2  43    5.45    2.20
   4   2 -43    8.79    2.29
  -3  -2  43    1.33    1.99
   3   2 -43    1.10    1.82
  -2  -2  43    6.88    2.18
   2   2 -43    8.67    2.17
  -1  -2  43    0.20    1.79
  -1  -2  43    0.36    1.91
   1   2 -43   -0.13    1.66
   0  -2  43   11.38    2.40
   0  -2  43    9.58    2.70
   0   2 -43   13.25    2.24
   1  -2  43    1.34    2.19
   1  -2  43   -0.63    1.83
   1   2  43   -1.32    1.90
   2  -2  43   -1.90    1.80
   2  -2  43    1.10    2.32
   2   2  43    2.22    2.23
   3  -2  43    0.47    1.92
   3  -2  43   -0.78    2.23
   3   2  43    0.58    2.14
  -3  -3  43    2.76    1.92
   3   3 -43    6.25    2.10
  -2  -3  43    1.28    1.82
  -2  -3  43    0.83    1.96
   2   3 -43   -1.37    1.63
  -1  -3  43    3.47    2.25
  -1  -3  43   -0.43    1.79
   1   3 -43    1.79    1.77
   0  -3  43    0.99    1.83
   0  -3  43   -0.13    2.02
   0   3 -43    2.01    1.68
   1  -3  43    5.94    2.04
   1  -3  43    6.18    2.60
   2  -3  43    5.74    1.93
   2  -3  43    7.02    2.78
   2   3  43    0.97    2.21
  -4   0  44    2.16    2.17
   3   0 -44    1.10    1.43
  -3   0  44    1.75    2.18
   2   0 -44    0.98    1.50
  -2   0  44    2.74    2.13
  -1   0  44    0.49    2.03
   1   0 -44   -0.26    1.48
   0   0  44    0.10    2.01
   0   0  44    0.63    1.93
   0   0 -44    0.17    1.51
   1   0  44    1.80    2.13
  -1   0 -44   -0.40    1.50
   1   0  44    1.65    1.92
  -2   0 -44    1.17    1.55
   2   0  44   -0.25    2.02
   2   0  44    2.89    2.06
   3   0  44   -2.06    1.99
  -3   0 -44   -2.31    1.46
   3   0  44    1.43    2.08
  -4  -1  44    4.78    2.20
   4   1 -44    6.34    1.92
  -3  -1  44    4.72    2.24
   3   1 -44    4.44    1.87
  -2  -1  44   -0.50    1.86
   2   1 -44    2.15    1.73
  -1  -1  44    2.20    2.02
  -1  -1  44    3.40    2.13
   1   1 -44    0.17    1.53
  -1   1  44   -0.33    2.02
   0  -1  44    5.55    2.14
   0  -1  44    1.37    2.15
   0   1  44    2.63    2.17
   0   1  44    6.36    2.40
   0   1 -44    3.33    1.81
   1  -1  44   -0.74    1.94
   1  -1  44    1.03    1.88
   1   1  44   -0.19    2.01
   1   1  44    1.49    2.10
  -1   1 -44    1.42    1.70
   2  -1  44   13.62    3.03
   2  -1  44   11.28    2.53
  -2   1 -44    8.71    2.05
   2   1  44    5.26    2.62
   2   1  44   15.71    2.82
   3  -1  44    2.28    2.38
   3  -1  44    1.14    2.03
   3   1  44   -2.10    1.95
   3   1  44    0.77    2.21
  -4  -2  44   -0.69    1.95
   4   2 -44    1.56    1.84
  -3  -2  44    0.28    1.87
   3   2 -44   -0.51    1.77
  -2  -2  44   -4.16    1.62
   2   2 -44    1.19    1.77
  -1  -2  44    0.40    1.94
  -1  -2  44   -0.45    1.82
   1   2 -44   -1.63    1.58
   0  -2  44    0.31    1.95
   0  -2  44    2.84    1.88
   0   2 -44   -1.60    1.53
   1  -2  44    0.60    1.92
   1  -2  44    0.43    2.06
  -1   2 -44    2.58    1.72
   1   2  44    0.52    2.12
   2  -2  44   -0.23    2.04
   2  -2  44    1.61    2.02
   2   2  44    1.76    2.23
  -2  -3  44    4.23    2.07
  -2  -3  44    4.34    2.37
   2   3 -44    3.90    1.94
  -1  -3  44    2.48    2.02
  -1  -3  44   -0.66    1.86
   1   3 -44    0.45    1.72
   0  -3  44    4.65    2.28
   0  -3  44    2.67    2.00
   0   3 -44    5.20    1.94
   1  -3  44   -1.18    1.79
   1  -3  44   -0.35    1.91
  -4   0  45   -0.15    2.08
  -3   0  45   -0.95    1.95
   2   0 -45   -0.99    1.36
  -2   0  45    1.78    2.04
   1   0 -45    1.88    1.51
  -1   0  45    0.00    1.93
   0   0  45    1.92    2.07
   0   0  45    0.45    2.02
   0   0 -45    0.73    1.51
   1   0  45    1.26    2.08
   1   0  45    1.95    2.02
  -1   0 -45   -0.99    1.50
   2   0  45   -2.00    1.94
  -2   0 -45   -0.60    1.57
   2   0  45    0.60    2.10
  -3  -1  45    4.17    2.20
   3   1 -45    2.67    1.84
  -2  -1  45    1.59    2.00
   2   1 -45    4.37    1.87
  -1  -1  45   -1.42    1.85
   1   1 -45    0.62    1.72
  -1   1  45    0.13    2.07
   0  -1  45    0.56    2.14
   0  -1  45    3.19    2.02
   0   1  45    4.01    2.34
   0   1 -45    2.82    1.76
   1  -1  45    3.14    2.34
   1  -1  45    4.27    2.18
   1   1  45    6.34    2.50
   1   1  45    6.25    2.50
  -1   1 -45    6.68    2.03
   2  -1  45    0.77    1.97
   2  -1  45    5.59    2.61
   2   1  45    6.62    2.55
   2   1  45    1.91    2.07
  -2   1 -45    5.97    1.94
  -2  -2  45    9.89    2.32
   2   2 -45    9.86    2.24
  -1  -2  45    1.42    1.98
  -1  -2  45    0.04    1.99
   1   2 -45   -0.41    1.76
   0  -2  45    5.27    2.18
   0  -2  45    0.55    1.97
   0   2 -45    2.46    1.95
   1  -2  45    0.90    1.87
   1  -2  45   -0.85    2.06
   1   2  45    1.40    2.19
  -1   2 -45    0.50    1.66
  -2   0  46   12.92    2.84
  -1   0  46    2.72    2.10
   1   0 -46    2.28    1.55
   0   0  46   10.88    2.87
   0   0  46    6.48    2.36
   0   0 -46    5.08    1.69
   1   0  46    0.00    1.91
  -1   0 -46   -0.99    1.55
   1   0  46    0.64    2.10
  -2  -1  46    4.38    2.16
  -2   1  46   -0.20    2.17
   2   1 -46   -1.15    1.62
  -1  -1  46    5.45    2.29
   1   1 -46    3.91    1.89
  -1   1  46    7.39    2.61
   0  -1  46    1.56    2.08
   0  -1  46   -1.95    1.94
   0   1  46   -1.33    2.01
   0   1 -46    1.22    1.68
   0   0   0    0.00    0.00
;
_shelx_hkl_checksum              32803
loop_
_space_group_symop_operation_xyz
'x, y, z'
'-x+1/2, y+1/2, -z+1/2'
'-x, -y, -z'
'x-1/2, -y-1/2, z-1/2'
loop_
_atom_site_label
_atom_site_type_symbol
_atom_site_fract_x
_atom_site_fract_y
_atom_site_fract_z
_atom_site_U_iso_or_equiv
_atom_site_adp_type
_atom_site_occupancy
_atom_site_site_symmetry_order
_atom_site_calc_flag
Pb1 Pb 0.74121(3) 0.12334(5) 0.10836(2) 0.01580(5) Uani 1 1 d
Pb2 Pb 0.96012(3) -0.39395(5) 0.22530(2) 0.01641(6) Uani 1 1 d
Se1 Se 1.23387(8) 0.12185(12) 0.03922(2) 0.01073(10) Uani 1 1 d
Se2 Se 0.49394(8) -0.41552(12) 0.17155(2) 0.01066(11) Uani 1 1 d
Br1 Br 1.13948(9) 0.10397(13) 0.19842(2) 0.01800(12) Uani 1 1 d
Br2 Br 1.00220(9) -0.38436(14) 0.10003(2) 0.01887(13) Uani 1 1 d
Cu1 Cu 1.38714(11) -0.33887(14) 0.04478(3) 0.01280(14) Uani 1 1 d
O1 O 1.2305(6) -0.1103(8) -0.00663(15) 0.0136(8) Uani 1 1 d
O2 O 0.6469(6) -0.6344(9) 0.19945(15) 0.0157(9) Uani 1 1 d
O3 O 0.5266(6) -0.4927(9) 0.10631(15) 0.0143(9) Uani 1 1 d
O4 O 1.4167(6) -0.0168(8) 0.07953(15) 0.0133(8) Uani 1 1 d
O5 O 1.3491(6) 0.3472(8) 0.00815(16) 0.0141(8) Uani 1 1 d
O6 O 0.6401(6) -0.1725(9) 0.18503(16) 0.0158(9) Uani 1 1 d
loop_
_atom_site_aniso_label
_atom_site_aniso_U_11
_atom_site_aniso_U_22
_atom_site_aniso_U_33
_atom_site_aniso_U_23
_atom_site_aniso_U_13
_atom_site_aniso_U_12
Pb1 0.01618(9) 0.01758(13) 0.01357(8) -0.00100(9) 0.00039(7) -0.00023(10)
Pb2 0.01519(9) 0.01588(13) 0.01808(9) -0.00345(10) 0.00042(7) 0.00050(10)
Se1 0.0109(2) 0.0103(3) 0.01113(19) -0.0013(2) 0.00155(16) 0.0003(2)
Se2 0.0105(2) 0.0113(3) 0.0102(2) -0.0002(2) 0.00083(16) 0.0002(2)
Br1 0.0200(3) 0.0147(3) 0.0191(3) -0.0004(3) -0.0006(2) 0.0001(3)
Br2 0.0191(3) 0.0201(3) 0.0179(2) -0.0004(3) 0.00432(19) -0.0016(3)
Cu1 0.0181(3) 0.0097(4) 0.0103(3) -0.0007(3) -0.0017(2) 0.0007(3)
O1 0.0173(18) 0.013(2) 0.0098(15) -0.0024(17) -0.0009(13) 0.0014(18)
O2 0.0170(18) 0.016(2) 0.0143(17) 0.0042(18) -0.0017(14) 0.0012(19)
O3 0.021(2) 0.015(2) 0.0074(15) -0.0007(16) 0.0018(14) 0.0048(18)
O4 0.020(2) 0.011(2) 0.0089(16) -0.0001(15) -0.0037(14) -0.0003(17)
O5 0.0185(19) 0.010(2) 0.0137(17) -0.0009(16) -0.0006(14) -0.0017(17)
O6 0.0185(19) 0.013(2) 0.0154(18) -0.0037(16) -0.0016(15) 0.0009(18)
loop_
_atom_type_symbol
_atom_type_description
_atom_type_scat_dispersion_real
_atom_type_scat_dispersion_imag
_atom_type_scat_source
O O 0.0106 0.0060 'International Tables Vol C Tables 4.2.6.8 and 6.1.1.4'
Cu Cu 0.3201 1.2651 'International Tables Vol C Tables 4.2.6.8 and 6.1.1.4'
Se Se -0.0929 2.2259 'International Tables Vol C Tables 4.2.6.8 and 6.1.1.4'
Br Br -0.2901 2.4595 'International Tables Vol C Tables 4.2.6.8 and 6.1.1.4'
Pb Pb -3.3944 10.1111 'International Tables Vol C Tables 4.2.6.8 and 6.1.1.4'
loop_
_geom_angle_atom_site_label_1
_geom_angle_atom_site_label_2
_geom_angle_atom_site_label_3
_geom_angle
_geom_angle_site_symmetry_1
_geom_angle_site_symmetry_3
O4 Pb1 O1 80.15(13) 1_455 3_755
O4 Pb1 O3 74.73(15) 1_455 1_565
O1 Pb1 O3 94.89(13) 3_755 1_565
O4 Pb1 O6 74.57(13) 1_455 .
O1 Pb1 O6 137.82(14) 3_755 .
O3 Pb1 O6 109.92(14) 1_565 .
O4 Pb1 O2 97.61(13) 1_455 1_565
O1 Pb1 O2 150.48(14) 3_755 1_565
O3 Pb1 O2 56.67(12) 1_565 1_565
O6 Pb1 O2 67.33(14) . 1_565
O4 Pb1 Br2 138.20(10) 1_455 1_565
O1 Pb1 Br2 83.20(10) 3_755 1_565
O3 Pb1 Br2 68.82(11) 1_565 1_565
O6 Pb1 Br2 137.02(9) . 1_565
O2 Pb1 Br2 79.14(10) 1_565 1_565
O4 Pb1 Br2 101.97(11) 1_455 .
O1 Pb1 Br2 80.66(10) 3_755 .
O3 Pb1 Br2 174.93(8) 1_565 .
O6 Pb1 Br2 72.42(10) . .
O2 Pb1 Br2 128.07(9) 1_565 .
Br2 Pb1 Br2 112.776(19) 1_565 .
O4 Pb1 Br1 149.94(10) 1_455 .
O1 Pb1 Br1 122.34(9) 3_755 .
O3 Pb1 Br1 118.25(9) 1_565 .
O6 Pb1 Br1 75.45(9) . .
O2 Pb1 Br1 72.59(8) 1_565 .
Br2 Pb1 Br1 69.216(17) 1_565 .
Br2 Pb1 Br1 66.513(16) . .
O4 Pb1 Se2 83.91(10) 1_455 1_565
O1 Pb1 Se2 122.60(10) 3_755 1_565
O3 Pb1 Se2 27.81(8) 1_565 1_565
O6 Pb1 Se2 87.86(10) . 1_565
O2 Pb1 Se2 28.96(8) 1_565 1_565
Br2 Pb1 Se2 73.406(16) 1_565 1_565
Br2 Pb1 Se2 156.743(15) . 1_565
Br1 Pb1 Se2 97.145(15) . 1_565
O4 Pb1 Pb2 134.04(10) 1_455 1_565
O1 Pb1 Pb2 131.63(10) 3_755 1_565
O3 Pb1 Pb2 70.83(9) 1_565 1_565
O6 Pb1 Pb2 89.48(9) . 1_565
O2 Pb1 Pb2 37.44(9) 1_565 1_565
Br2 Pb1 Pb2 48.433(11) 1_565 1_565
Br2 Pb1 Pb2 113.951(12) . 1_565
Br1 Pb1 Pb2 47.438(13) . 1_565
Se2 Pb1 Pb2 52.101(10) 1_565 1_565
O4 Pb1 Pb2 105.47(10) 1_455 .
O1 Pb1 Pb2 127.50(10) 3_755 .
O3 Pb1 Pb2 137.41(8) 1_565 .
O6 Pb1 Pb2 36.43(9) . .
O2 Pb1 Pb2 81.67(9) 1_565 .
Br2 Pb1 Pb2 115.051(12) 1_565 .
Br2 Pb1 Pb2 46.875(11) . .
Br1 Pb1 Pb2 45.835(13) . .
Se2 Pb1 Pb2 109.886(11) 1_565 .
Pb2 Pb1 Pb2 81.603(6) 1_565 .
O4 Pb1 Pb2 85.87(9) 1_455 2_655
O1 Pb1 Pb2 165.93(9) 3_755 2_655
O3 Pb1 Pb2 79.70(9) 1_565 2_655
O6 Pb1 Pb2 36.95(10) . 2_655
O2 Pb1 Pb2 30.40(10) 1_565 2_655
Br2 Pb1 Pb2 106.519(12) 1_565 2_655
Br2 Pb1 Pb2 104.069(12) . 2_655
Br1 Pb1 Pb2 71.333(12) . 2_655
Se2 Pb1 Pb2 53.482(11) 1_565 2_655
Pb2 Pb1 Pb2 58.982(6) 1_565 2_655
Pb2 Pb1 Pb2 58.139(5) . 2_655
O2 Pb2 O2 101.19(7) 2_655 .
O2 Pb2 O6 74.95(13) 2_655 .
O2 Pb2 O6 58.62(14) . .
O2 Pb2 O6 67.71(14) 2_655 2_645
O2 Pb2 O6 70.92(12) . 2_645
O6 Pb2 O6 107.68(8) . 2_645
O2 Pb2 Br1 78.39(11) 2_655 .
O2 Pb2 Br1 137.77(9) . .
O6 Pb2 Br1 81.26(10) . .
O6 Pb2 Br1 140.49(9) 2_645 .
O2 Pb2 Br1 143.78(10) 2_655 1_545
O2 Pb2 Br1 80.27(10) . 1_545
O6 Pb2 Br1 131.09(9) . 1_545
O6 Pb2 Br1 79.06(10) 2_645 1_545
Br1 Pb2 Br1 124.55(2) . 1_545
O2 Pb2 Br2 141.33(10) 2_655 .
O2 Pb2 Br2 83.88(9) . .
O6 Pb2 Br2 75.48(9) . .
O6 Pb2 Br2 146.33(9) 2_645 .
Br1 Pb2 Br2 72.980(18) . .
Br1 Pb2 Br2 74.859(18) 1_545 .
O2 Pb2 Br1 81.29(9) 2_655 2_745
O2 Pb2 Br1 144.19(9) . 2_745
O6 Pb2 Br1 151.08(10) . 2_745
O6 Pb2 Br1 77.40(8) 2_645 2_745
Br1 Pb2 Br1 77.973(16) . 2_745
Br1 Pb2 Br1 77.686(15) 1_545 2_745
Br2 Pb2 Br1 116.515(17) . 2_745
O2 Pb2 Se2 89.67(9) 2_655 .
O2 Pb2 Se2 29.44(10) . .
O6 Pb2 Se2 29.31(10) . .
O6 Pb2 Se2 90.89(8) 2_645 .
Br1 Pb2 Se2 109.123(17) . .
Br1 Pb2 Se2 105.304(17) 1_545 .
Br2 Pb2 Se2 76.091(15) . .
Br1 Pb2 Se2 167.250(17) 2_745 .
O2 Pb2 Pb1 140.95(9) 2_655 1_545
O2 Pb2 Pb1 40.24(10) . 1_545
O6 Pb2 Pb1 76.97(9) . 1_545
O6 Pb2 Pb1 96.20(9) 2_645 1_545
Br1 Pb2 Pb1 123.212(13) . 1_545
Br1 Pb2 Pb1 54.137(12) 1_545 1_545
Br2 Pb2 Pb1 51.013(14) . 1_545
Br1 Pb2 Pb1 131.561(15) 2_745 1_545
Se2 Pb2 Pb1 53.954(11) . 1_545
O2 Pb2 Pb2 84.95(10) 2_655 2_645
O2 Pb2 Pb2 32.92(9) . 2_645
O6 Pb2 Pb2 80.70(10) . 2_645
O6 Pb2 Pb2 38.01(8) 2_645 2_645
Br1 Pb2 Pb2 158.063(14) . 2_645
Br1 Pb2 Pb2 77.089(13) 1_545 2_645
Br2 Pb2 Pb2 114.041(14) . 2_645
Br1 Pb2 Pb2 113.687(14) 2_745 2_645
Se2 Pb2 Pb2 56.159(12) . 2_645
Pb1 Pb2 Pb2 64.056(5) 1_545 2_645
O2 Pb2 Pb2 34.07(9) 2_655 2_655
O2 Pb2 Pb2 79.97(10) . 2_655
O6 Pb2 Pb2 40.88(9) . 2_655
O6 Pb2 Pb2 85.14(10) 2_645 2_655
Br1 Pb2 Pb2 77.286(13) . 2_655
Br1 Pb2 Pb2 157.868(15) 1_545 2_655
Br2 Pb2 Pb2 112.684(15) . 2_655
Br1 Pb2 Pb2 113.974(14) 2_745 2_655
Se2 Pb2 Pb2 59.227(12) . 2_655
Pb1 Pb2 Pb2 113.176(8) 1_545 2_655
Pb2 Pb2 Pb2 80.912(9) 2_645 2_655
O5 Se1 O1 103.3(2) . .
O5 Se1 O4 103.9(2) . .
O1 Se1 O4 91.92(19) . .
O5 Se1 Cu1 120.60(15) . .
O1 Se1 Cu1 48.14(13) . .
O4 Se1 Cu1 45.75(14) . .
O5 Se1 Br2 82.64(15) . 1_565
O1 Se1 Br2 150.48(13) . 1_565
O4 Se1 Br2 115.02(14) . 1_565
Cu1 Se1 Br2 150.44(3) . 1_565
O5 Se1 Br2 176.46(15) . .
O1 Se1 Br2 73.42(15) . .
O4 Se1 Br2 75.18(15) . .
Cu1 Se1 Br2 56.27(2) . .
Br2 Se1 Br2 100.87(2) 1_565 .
O6 Se2 O3 105.6(2) . .
O6 Se2 O2 97.5(2) . .
O3 Se2 O2 95.3(2) . .
O6 Se2 Pb2 50.19(15) . .
O3 Se2 Pb2 101.54(15) . .
O2 Se2 Pb2 47.60(15) . .
O6 Se2 Br1 89.02(14) . 2_645
O3 Se2 Br1 165.22(16) . 2_645
O2 Se2 Br1 80.66(14) . 2_645
Pb2 Se2 Br1 86.302(16) . 2_645
O6 Se2 Pb1 111.06(15) . 1_545
O3 Se2 Pb1 44.88(15) . 1_545
O2 Se2 Pb1 50.61(14) . 1_545
Pb2 Se2 Pb1 73.944(13) . 1_545
Br1 Se2 Pb1 128.21(2) 2_645 1_545
Pb2 Br1 Pb2 124.55(2) . 1_565
Pb2 Br1 Pb2 102.393(19) . 2_755
Pb2 Br1 Pb2 101.946(19) 1_565 2_755
Pb2 Br1 Se2 68.399(17) . 2_655
Pb2 Br1 Se2 71.917(18) 1_565 2_655
Pb2 Br1 Se2 73.812(15) 2_755 2_655
Pb2 Br1 Pb1 81.561(16) . .
Pb2 Br1 Pb1 78.424(15) 1_565 .
Pb2 Br1 Pb1 174.61(2) 2_755 .
Se2 Br1 Pb1 111.25(2) 2_655 .
Pb2 Br1 Br2 54.105(16) . .
Pb2 Br1 Br2 133.98(2) 1_565 .
Pb2 Br1 Br2 123.86(2) 2_755 .
Se2 Br1 Br2 121.75(2) 2_655 .
Pb1 Br1 Br2 55.553(14) . .
Pb2 Br1 Br2 134.93(2) . 1_565
Pb2 Br1 Br2 52.899(15) 1_565 1_565
Pb2 Br1 Br2 122.57(2) 2_755 1_565
Se2 Br1 Br2 123.96(2) 2_655 1_565
Pb1 Br1 Br2 53.374(14) . 1_565
Br2 Br1 Br2 94.042(18) . 1_565
Pb2 Br1 Br1 127.75(2) . 2_755
Pb2 Br1 Br1 52.604(8) 1_565 2_755
Pb2 Br1 Br1 49.343(18) 2_755 2_755
Se2 Br1 Br1 62.02(2) 2_655 2_755
Pb1 Br1 Br1 130.775(19) . 2_755
Br2 Br1 Br1 172.33(3) . 2_755
Br2 Br1 Br1 88.340(14) 1_565 2_755
Pb2 Br1 Br1 52.683(8) . 2_745
Pb2 Br1 Br1 127.83(2) 1_565 2_745
Pb2 Br1 Br1 49.710(18) 2_755 2_745
Se2 Br1 Br1 59.18(2) 2_655 2_745
Pb1 Br1 Br1 134.10(2) . 2_745
Br2 Br1 Br1 89.664(14) . 2_745
Br2 Br1 Br1 171.82(3) 1_565 2_745
Br1 Br1 Br1 87.08(2) 2_755 2_745
Cu1 Br2 Pb2 125.53(2) . .
Cu1 Br2 Pb1 126.25(3) . 1_545
Pb2 Br2 Pb1 80.552(16) . 1_545
Cu1 Br2 Pb1 116.42(3) . .
Pb2 Br2 Pb1 82.355(16) . .
Pb1 Br2 Pb1 112.775(19) 1_545 .
Cu1 Br2 Se1 56.27(2) . 1_545
Pb2 Br2 Se1 118.90(2) . 1_545
Pb1 Br2 Se1 70.006(18) 1_545 1_545
Pb1 Br2 Se1 158.33(2) . 1_545
Cu1 Br2 Se1 47.83(2) . .
Pb2 Br2 Se1 120.12(2) . .
Pb1 Br2 Se1 158.69(2) 1_545 .
Pb1 Br2 Se1 68.597(18) . .
Se1 Br2 Se1 100.87(2) 1_545 .
Cu1 Br2 Br1 92.54(2) . .
Pb2 Br2 Br1 52.915(15) . .
Pb1 Br2 Br1 132.53(2) 1_545 .
Pb1 Br2 Br1 57.934(16) . .
Se1 Br2 Br1 137.14(2) 1_545 .
Se1 Br2 Br1 67.342(18) . .
Cu1 Br2 Br1 99.24(2) . 1_545
Pb2 Br2 Br1 52.240(15) . 1_545
Pb1 Br2 Br1 57.409(16) 1_545 1_545
Pb1 Br2 Br1 133.75(2) . 1_545
Se1 Br2 Br1 66.826(19) 1_545 1_545
Se1 Br2 Br1 138.08(2) . 1_545
Br1 Br2 Br1 94.041(18) . 1_545
O3 Cu1 O5 91.46(18) 1_655 1_545
O3 Cu1 O4 90.89(18) 1_655 .
O5 Cu1 O4 177.55(17) 1_545 .
O3 Cu1 O1 165.93(18) 1_655 .
O5 Cu1 O1 101.66(17) 1_545 .
O4 Cu1 O1 75.94(16) . .
O3 Cu1 O5 94.04(16) 1_655 3_855
O5 Cu1 O5 78.77(18) 1_545 3_855
O4 Cu1 O5 101.73(17) . 3_855
O1 Cu1 O5 93.49(16) . 3_855
O3 Cu1 Se1 127.60(13) 1_655 .
O5 Cu1 Se1 138.57(12) 1_545 .
O4 Cu1 Se1 38.99(11) . .
O1 Cu1 Se1 38.44(12) . .
O5 Cu1 Se1 107.74(12) 3_855 .
O3 Cu1 Br2 90.66(13) 1_655 .
O5 Cu1 Br2 92.42(13) 1_545 .
O4 Cu1 Br2 86.87(13) . .
O1 Cu1 Br2 83.80(12) . .
O5 Cu1 Br2 170.11(10) 3_855 .
Se1 Cu1 Br2 75.90(3) . .
Se1 O1 Cu1 93.42(16) . .
Se1 O1 Pb1 133.1(2) . 3_755
Cu1 O1 Pb1 121.92(19) . 3_755
Se2 O2 Pb2 119.8(2) . 2_645
Se2 O2 Pb2 103.0(2) . .
Pb2 O2 Pb2 113.01(13) 2_645 .
Se2 O2 Pb1 100.43(16) . 1_545
Pb2 O2 Pb1 115.94(18) 2_645 1_545
Pb2 O2 Pb1 102.32(14) . 1_545
Se2 O3 Cu1 123.3(2) . 1_455
Se2 O3 Pb1 107.31(18) . 1_545
Cu1 O3 Pb1 128.74(19) 1_455 1_545
Se1 O4 Cu1 95.27(17) . .
Se1 O4 Pb1 130.7(2) . 1_655
Cu1 O4 Pb1 118.6(2) . 1_655
Se1 O5 Cu1 119.2(2) . 1_565
Se1 O5 Cu1 131.1(2) . 3_855
Cu1 O5 Cu1 101.23(18) 1_565 3_855
Se2 O6 Pb1 121.82(19) . .
Se2 O6 Pb2 100.5(2) . .
Pb1 O6 Pb2 107.54(15) . .
Se2 O6 Pb2 114.2(2) . 2_655
Pb1 O6 Pb2 108.99(16) . 2_655
Pb2 O6 Pb2 101.11(12) . 2_655
loop_
_geom_bond_atom_site_label_1
_geom_bond_atom_site_label_2
_geom_bond_distance
_geom_bond_site_symmetry_2
Pb1 O4 2.433(4) 1_455
Pb1 O1 2.550(4) 3_755
Pb1 O3 2.580(4) 1_565
Pb1 O6 2.636(5) .
Pb1 O2 2.743(4) 1_565
Pb1 Br2 3.2689(8) 1_565
Pb1 Br2 3.3395(8) .
Pb1 Br1 3.4318(6) .
Pb1 Se2 3.4904(7) 1_565
Pb1 Pb2 4.1484(4) 1_565
Pb1 Pb2 4.2728(4) .
Pb1 Pb2 4.4499(3) 2_655
Pb2 O2 2.504(4) 2_655
Pb2 O2 2.581(4) .
Pb2 O6 2.661(4) .
Pb2 O6 2.829(4) 2_645
Pb2 Br1 3.0986(8) .
Pb2 Br1 3.1189(8) 1_545
Pb2 Br2 3.1466(6) .
Pb2 Br1 3.2483(6) 2_745
Pb2 Se2 3.4064(6) .
Pb2 Pb1 4.1484(4) 1_545
Pb2 Pb2 4.2409(4) 2_645
Pb2 Pb2 4.2410(4) 2_655
Se1 O5 1.688(4) .
Se1 O1 1.711(4) .
Se1 O4 1.736(4) .
Se1 Cu1 2.7478(10) .
Se1 Br2 3.5432(9) 1_565
Se1 Br2 3.5959(9) .
Se2 O6 1.696(5) .
Se2 O3 1.706(4) .
Se2 O2 1.718(4) .
Se2 Br1 3.4207(8) 2_645
Se2 Pb1 3.4904(7) 1_545
Br1 Pb2 3.1189(8) 1_565
Br1 Pb2 3.2484(6) 2_755
Br1 Se2 3.4208(8) 2_655
Br1 Br2 3.7141(9) .
Br1 Br2 3.8080(10) 1_565
Br1 Br1 3.9948(8) 2_755
Br1 Br1 3.9948(8) 2_745
Br2 Cu1 3.0835(10) .
Br2 Pb1 3.2689(8) 1_545
Br2 Se1 3.5432(9) 1_545
Br2 Br1 3.8081(10) 1_545
Cu1 O3 1.946(4) 1_655
Cu1 O5 1.963(4) 1_545
Cu1 O4 1.976(4) .
Cu1 O1 2.050(4) .
Cu1 O5 2.318(4) 3_855
O1 Pb1 2.550(4) 3_755
O2 Pb2 2.504(4) 2_645
O2 Pb1 2.743(4) 1_545
O3 Cu1 1.946(4) 1_455
O3 Pb1 2.580(4) 1_545
O4 Pb1 2.433(4) 1_655
O5 Cu1 1.963(4) 1_565
O5 Cu1 2.318(4) 3_855
O6 Pb2 2.829(4) 2_655

_cod_database_fobs_code 2108340
