#------------------------------------------------------------------------------
#$Date: 2019-02-03 22:56:14 +0200 (Sun, 03 Feb 2019) $
#$Revision: 213457 $
#$URL: file:///home/coder/svn-repositories/cod/cif/2/10/83/2108366.cif $
#------------------------------------------------------------------------------
#
# This file is available in the Crystallography Open Database (COD),
# http://www.crystallography.net/. The original data for this entry
# were provided by IUCr Journals, http://journals.iucr.org/.
#
# The file may be used within the scientific community so long as
# proper attribution is given to the journal article from which the
# data were obtained.
#
data_2108366
loop_
_publ_author_name
'Kader, Thomas'
'St\"oger, Berthold'
'Fr\"ohlich, Johannes'
'Kautny, Paul'
_publ_section_title
;
 The phase transitions of 4-aminopyridine-based indolocarbazoles:
 twinning, local- and pseudo-symmetry
;
_journal_coeditor_code           WF5145SUP1
_journal_issue                   1
_journal_name_full               'Acta Crystallographica Section B'
_journal_page_first              97
_journal_page_last               106
_journal_paper_doi               10.1107/S2052520618017341
_journal_volume                  75
_journal_year                    2019
_chemical_formula_sum            'C16 H9 N3'
_chemical_formula_weight         243.26
_space_group_crystal_system      orthorhombic
_space_group_IT_number           31
_space_group_name_Hall           'P 2ac -2'
_space_group_name_H-M_alt        'P m n 21'
_symmetry_space_group_name_Hall  'P 2ac -2'
_symmetry_space_group_name_H-M   'P m n 21'
_atom_sites_solution_hydrogens   geom
_audit_creation_method           SHELXL-2014/7
_cell_angle_alpha                90
_cell_angle_beta                 90
_cell_angle_gamma                90
_cell_formula_units_Z            2
_cell_length_a                   19.316(4)
_cell_length_b                   3.7013(8)
_cell_length_c                   7.7676(18)
_cell_measurement_reflns_used    2468
_cell_measurement_temperature    100
_cell_measurement_theta_max      30.19
_cell_measurement_theta_min      2.83
_cell_volume                     555.3(2)
_computing_structure_refinement  'SHELXL-2014/7 (Sheldrick, 2014)'
_diffrn_ambient_temperature      100
_diffrn_measured_fraction_theta_full 0.998
_diffrn_measured_fraction_theta_max 0.997
_diffrn_measurement_device       'four-circle diffractometer'
_diffrn_measurement_device_type  'Bruker KAPPA APEX II CCD'
_diffrn_measurement_method       '\w- and \f-scans'
_diffrn_radiation_monochromator  graphite
_diffrn_radiation_type           MoK\a
_diffrn_radiation_wavelength     0.71073
_diffrn_reflns_av_R_equivalents  0.0344
_diffrn_reflns_av_unetI/netI     0.0373
_diffrn_reflns_Laue_measured_fraction_full 0.998
_diffrn_reflns_Laue_measured_fraction_max 0.997
_diffrn_reflns_limit_h_max       22
_diffrn_reflns_limit_h_min       -27
_diffrn_reflns_limit_k_max       5
_diffrn_reflns_limit_k_min       -5
_diffrn_reflns_limit_l_max       10
_diffrn_reflns_limit_l_min       -10
_diffrn_reflns_number            5744
_diffrn_reflns_point_group_measured_fraction_full 0.953
_diffrn_reflns_point_group_measured_fraction_max 0.940
_diffrn_reflns_theta_full        25.242
_diffrn_reflns_theta_max         30.281
_diffrn_reflns_theta_min         2.826
_exptl_absorpt_coefficient_mu    0.089
_exptl_absorpt_correction_T_max  0.493
_exptl_absorpt_correction_T_min  0.424
_exptl_absorpt_correction_type   multi-scan
_exptl_absorpt_process_details   SADABS
_exptl_crystal_colour            colourless
_exptl_crystal_density_diffrn    1.455
_exptl_crystal_description       plate
_exptl_crystal_F_000             252
_exptl_crystal_size_max          0.45
_exptl_crystal_size_mid          0.23
_exptl_crystal_size_min          0.03
_refine_diff_density_max         0.329
_refine_diff_density_min         -0.269
_refine_diff_density_rms         0.047
_refine_ls_abs_structure_details
;
 Flack x determined using 561 quotients [(I+)-(I-)]/[(I+)+(I-)]
 (Parsons, Flack and Wagner, Acta Cryst. B69 (2013) 249-259).
;
_refine_ls_abs_structure_Flack   -0.3(10)
_refine_ls_extinction_method     none
_refine_ls_goodness_of_fit_ref   1.070
_refine_ls_hydrogen_treatment    constr
_refine_ls_matrix_type           full
_refine_ls_number_parameters     91
_refine_ls_number_reflns         1608
_refine_ls_number_restraints     1
_refine_ls_restrained_S_all      1.069
_refine_ls_R_factor_all          0.0469
_refine_ls_R_factor_gt           0.0405
_refine_ls_shift/su_max          0.000
_refine_ls_shift/su_mean         0.000
_refine_ls_structure_factor_coef Fsqd
_refine_ls_weighting_details
'w=1/[\s^2^(Fo^2^)+(0.0589P)^2^+0.0808P] where P=(Fo^2^+2Fc^2^)/3'
_refine_ls_weighting_scheme      calc
_refine_ls_wR_factor_gt          0.0998
_refine_ls_wR_factor_ref         0.1041
_reflns_Friedel_coverage         0.767
_reflns_Friedel_fraction_full    0.900
_reflns_Friedel_fraction_max     0.876
_reflns_number_gt                1458
_reflns_number_total             1608
_reflns_threshold_expression     'I > 2\s(I)'
_cod_data_source_file            wf5145sup1.cif
_cod_data_source_block           25NICz-1
_cod_depositor_comments
'Adding full bibliography for 2108362--2108368.cif.'
_cod_database_code               2108366
_cod_database_fobs_code          2108366
_publcif_datablock.id            {65f753f0-a57b-4094-a166-ec3de2245ffd}
_shelx_shelxl_version_number     2014/7
_shelx_space_group_comment
;
The symmetry employed for this shelxl refinement is uniquely defined
by the following loop, which should always be used as a source of
symmetry information in preference to the above space-group names.
They are only intended as comments.
;
_shelx_estimated_absorpt_t_min   0.961
_shelx_estimated_absorpt_t_max   0.997
_shelx_res_file
;
TITL
CELL  0.71073  19.3158   3.7013   7.7676   90.000   90.000   90.000
ZERR    2.000   0.0041   0.0008   0.0018    0.000    0.000    0.000
LATT -1
SYMM 1/2-X, -Y, 1/2+Z
SYMM 1/2+X, -Y, 1/2+Z
SYMM -X, Y, Z
SFAC C H N
UNIT 32 18 6
TEMP -173
SIZE 0.03 0.23 0.45
L.S. 10
ACTA
BOND $H
LIST 6
FMAP 2
PLAN 20
EADP C11 N5
EXYZ C11 N5
WGHT    0.058900    0.080800
FVAR       0.98088
C1    1    0.438690    0.378762    0.763312    11.00000    0.02498    0.01550 =
         0.01302    0.00199    0.00239    0.00037
AFIX  43
H1    2    0.396899    0.333006    0.823999    11.00000   -1.20000
AFIX   0
N2    3    0.500000    0.315015    0.842741    10.50000    0.03017    0.01590 =
         0.01224    0.00300    0.00000    0.00000
C3A   1    0.435165    0.510042    0.594479    11.00000    0.01925    0.01247 =
         0.01284   -0.00006    0.00104    0.00034
C3B   1    0.388103    0.628471    0.455811    11.00000    0.02011    0.01257 =
         0.01251    0.00024    0.00017    0.00026
C3C   1    0.500000    0.562091    0.525017    10.50000    0.02279    0.01147 =
         0.01157    0.00236    0.00000    0.00000
PART 1
C4    1    0.316752    0.651950    0.437605    11.00000    0.01882    0.01939 =
         0.01834   -0.00129    0.00425    0.00012
AFIX  43
H4    2    0.287726    0.580784    0.530332    11.00000   -1.20000
AFIX   0
C11   1    0.287458    0.776008    0.288189    10.50000    0.02133    0.02187 =
         0.02317   -0.00010   -0.00245    0.00232
AFIX  43
H11   2    0.238559    0.789911    0.276875    10.50000   -1.20000
AFIX   0
C6    1    0.329902    0.880249    0.154658    11.00000    0.02638    0.01766 =
         0.02045   -0.00184   -0.00738    0.00457
AFIX  43
H6    2    0.308730    0.964433    0.051815    11.00000   -1.20000
AFIX   0
PART 2
N5    3    0.287458    0.776008    0.288189    10.50000    0.02133    0.02187 =
         0.02317   -0.00010   -0.00245    0.00232
PART 0
C7    1    0.401926    0.869924    0.161018    11.00000    0.02401    0.01359 =
         0.01419    0.00177   -0.00304   -0.00007
AFIX  43
H7    2    0.429895    0.946164    0.067206    11.00000   -1.20000
AFIX   0
C7A   1    0.430143    0.741077    0.313244    11.00000    0.01639    0.01217 =
         0.01323   -0.00077   -0.00066    0.00083
N8    3    0.500000    0.694477    0.361024    10.50000    0.01673    0.01696 =
         0.01143    0.00383    0.00000    0.00000
HKLF 4


END

WGHT      0.0582      0.0842

Q1    1   0.4383  0.4383  0.6791  11.00000  0.05    0.33
Q2    1   0.4083  0.6672  0.3797  11.00000  0.05    0.32
Q3    1   0.5000  0.6156  0.4450  10.50000  0.05    0.31
Q4    1   0.4139  0.7756  0.2286  11.00000  0.05    0.27
Q5    1   0.3668  0.8398  0.1591  11.00000  0.05    0.26
Q6    1   0.4669  0.5591  0.5747  11.00000  0.05    0.25
Q7    1   0.3515  0.6375  0.4375  11.00000  0.05    0.25
Q8    1   0.4611  0.7119  0.3248  11.00000  0.05    0.20
Q9    1   0.4128  0.5717  0.5252  11.00000  0.05    0.20
Q10   1   0.3066  0.6226  0.3409  11.00000  0.05    0.20
Q11   1   0.3174  0.8915  0.2412  11.00000  0.05    0.19
Q12   1   0.4746  0.3926  0.7846  11.00000  0.05    0.17
Q13   1   0.5000  0.2953  0.9367  10.50000  0.05    0.16
Q14   1   0.3127  1.2832 -0.0044  11.00000  0.05    0.14
Q15   1   0.4097  0.4289  0.8769  11.00000  0.05    0.14
Q16   1   0.2681  0.5614  0.4746  11.00000  0.05    0.13
Q17   1   0.4574  1.0009  0.0424  11.00000  0.05    0.13
Q18   1   0.2479  0.8508  0.3051  11.00000  0.05    0.12
Q19   1   0.4211  0.7001  0.9010  11.00000  0.05    0.11
Q20   1   0.5000  0.8636  0.1644  10.50000  0.05    0.11
;
_shelx_res_checksum              54844
_shelx_hkl_file
;
   0  -1   0 1657.53   65.39
   0   1   0 1702.33   65.09
   0  -2   0  303.57   13.10
   0   2   0  312.47   12.60
   0  -2   0  311.67   12.60
   0  -3   0   16.60    2.60
   0   3   0   13.80    1.70
   0  -4   0   65.29    5.10
   0   4   0   71.59    4.20
   0  -5   0   19.80    3.90
   0  -5   0   12.30    4.40
   0   0  -1    0.50    0.50
   0   0   1    0.50    0.30
   0   0   1    0.10    0.20
   0   0   1    0.10    0.20
   0   0  -1    0.60    0.40
   0   0  -1   -0.30    0.30
   0  -1   1 9277.77  364.76
   0  -1   1 9311.47  365.46
   0   1  -1 9730.33  365.76
   0   1   1 9700.93  365.26
   0  -1   1 8579.64  366.26
   0  -1  -1 9999.00  364.86
   0  -2   1 1779.52   70.59
   0  -2   1 1760.82   69.79
   0   2  -1 1849.31   69.99
   0   2   1 1810.22   70.19
   0   3   1   -0.20    1.10
   0  -3   1    2.80    1.90
   0  -3   1    0.30    0.70
   0   3  -1    0.50    1.00
   0  -3   1    0.30    1.70
   0  -3  -1    3.60    1.90
   0  -4   1   23.90    3.90
   0   4  -1   23.50    2.20
   0  -4  -1   15.60    3.20
   0  -4   1   20.50    3.50
   0   4   1   22.00    2.60
   0  -5  -1   17.40    3.90
   0  -5   1   18.30    3.60
   0  -5   1   14.90    4.00
   0   0   2  629.84   25.30
   0   0   2  657.13   25.60
   0   0  -2  655.53   25.50
   0   0  -2  637.94   25.30
   0   0   2  681.63   25.60
   0   0  -2  627.04   25.60
   0  -1   2 1064.99   43.50
   0  -1   2 1141.79   43.70
   0  -1  -2 1084.19   43.30
   0   1  -2 1129.39   43.00
   0   1  -2 1094.89   43.60
   0   1   2 1139.19   43.40
   0   1  -2 1112.59   43.50
   0  -2   2 1639.24   62.29
   0  -2   2 1566.84   63.19
   0   2   2 1665.23   62.99
   0  -2   2 1564.84   63.39
   0  -3   2  688.53   28.40
   0  -3   2  678.23   26.90
   0   3   2  688.33   27.90
   0  -3   2  692.03   28.60
   0   3  -2  704.53   27.40
   0  -4   2   16.20    3.10
   0   4  -2   17.40    1.90
   0  -4   2   10.60    3.10
   0   4   2   16.40    2.40
   0  -4  -2   12.60    3.10
   0  -5  -2   28.90    4.40
   0  -5   2   29.00    4.40
   0   5   2   22.30    3.00
   0  -5   2   32.70    4.50
   0   0  -3   -0.20    0.80
   0   0   3   -0.30    1.10
   0   0   3    0.30    0.80
   0   0   3   -1.00    1.10
   0   0  -3   -1.20    0.90
   0   0  -3    0.20    0.60
   0   1  -3   75.39    3.40
   0   1  -3   74.89    4.00
   0   1  -3   74.79    3.30
   0  -1   3   74.09    4.00
   0   1   3   76.59    3.80
   0  -1   3   76.49    4.10
   0   2   3  159.38    7.30
   0  -2   3  162.78    7.80
   0  -2   3  161.08    7.60
   0   3   3  542.45   22.10
   0  -3   3  517.45   22.40
   0   3  -3  544.45   21.40
   0  -3   3  536.05   22.80
   0  -4   3   85.39    5.80
   0  -4  -3   80.29    6.10
   0   4   3   89.89    5.40
   0  -4   3   76.49    5.90
   0  -5   3  120.59    8.40
   0  -5   3  127.39    8.00
   0  -5  -3  120.89    8.30
   0   0   4  176.88    8.20
   0   0   4  171.88    8.00
   0   0   4  185.78    7.60
   0  -1   4  222.98    9.50
   0   1   4  209.88    9.10
   0   1  -4  213.08    8.80
   0  -1   4  203.68    9.40
   0   1  -4  211.18    8.70
   0  -2   4   27.80    2.80
   0   2   4   30.40    2.60
   0  -2   4   32.30    2.90
   0   2  -4   29.30    1.80
   0   3   4   52.89    3.90
   0  -3   4   59.99    4.70
   0  -3   4   58.89    4.30
   0  -4   4  378.46   17.30
   0   4   4  399.76   17.00
   0  -4   4  383.06   17.90
   0   0   5    1.30    1.40
   0   0   5   -2.30    1.20
   0   0   5    0.50    0.90
   0   1   5  184.58    8.30
   0   1  -5  183.08    7.90
   0  -1   5  178.38    8.70
   0  -1   5  193.98    8.80
   0  -2   5  342.97   15.90
   0   2  -5  363.06   14.30
   0  -2   5  375.16   15.80
   0   2   5  367.86   15.50
   0  -3   5   53.09    4.50
   0  -3   5   52.49    4.10
   0   3   5   51.99    4.00
   0  -4   5    7.90    2.90
   0  -4   5    7.30    2.20
   0   4   5    9.40    2.60
   0   0   6  572.44   24.20
   0   0   6  586.04   23.50
   0   1  -6  232.08    9.70
   0   1   6  225.38   10.00
   0  -1   6  214.08   10.50
   0  -1   6  223.68   10.60
   0  -2   6  132.99    7.40
   0  -2   6  137.99    7.20
   0   2  -6  129.79    5.70
   0   2   6  134.49    6.90
   0  -3   6    9.70    2.90
   0   3   6   10.90    2.30
   0  -3   6   12.70    2.50
   0  -4   6   14.00    3.50
   0   4   6   16.20    2.90
   0  -4   6   16.90    3.10
   0   0   7    1.00    2.00
   0   0   7   -0.40    1.40
   0  -1   7  373.66   16.50
   0   1   7  376.66   15.80
   0  -1   7  356.86   16.30
   0   1  -7  364.36   15.40
   0  -2   7   19.70    3.30
   0   2   7   21.80    2.80
   0  -2   7   24.10    3.20
   0   3   7   25.50    3.40
   0  -3   7   26.50    3.70
   0  -3   7   26.30    4.10
   0  -4   7   25.10    4.30
   0   4   7   15.70    3.10
   0  -4   7   13.30    4.60
   0   0   8   98.99    6.50
   0   0   8   98.49    5.40
   0   1   8  136.59    7.10
   0  -1   8  133.49    7.90
   0  -1   8  124.19    7.60
   0   1  -8  146.99    6.90
   0  -2   8   41.40    4.70
   0   2   8   45.40    4.10
   0  -2   8   43.70    4.60
   0  -3   8   52.19    5.00
   0  -3   8   56.79    5.30
   0   3   8   53.89    4.70
   0   0   9   -1.70    1.60
   0   1   9    4.00    2.00
   0  -1   9   11.00    3.00
   0   1  -9    8.60    1.90
   0  -1   9    6.20    2.60
   0   2   9  128.19    7.30
   0  -2   9  128.89    8.10
   0  -2   9  126.99    8.20
   0   3   9   65.99    5.30
   0  -3   9   59.39    5.70
   0  -3   9   60.89    6.00
   0   0  10  114.79    6.60
   0   1  10    1.40    2.00
   0  -1  10    0.70    2.50
   0   2  10    8.30    2.60
   0  -2  10    3.10    3.30
   0  -2  10   11.90    3.30
   1   0   0   -0.10    0.10
  -1   0   0    0.00    0.10
   1   0   0    0.00    0.10
  -1   0   0    0.00    0.10
  -1  -1   0 1957.70   77.89
  -1   1   0 2034.00   77.69
   1   1   0 2007.20   77.59
   1  -1   0 1992.50   77.69
  -1  -1   0 2037.10   77.59
  -1  -2   0   55.89    3.50
   1  -2   0   59.69    3.00
  -1   2   0   61.79    3.20
   1   2   0   59.79    3.10
   1  -2   0   58.29    3.60
   1  -3   0    6.60    2.10
   1   3   0    4.80    1.30
  -1   3   0    3.90    1.40
  -1  -3   0    5.90    2.00
  -1   4   0    1.80    1.40
   1   4   0    3.20    1.40
  -1  -4   0    4.90    2.50
   1  -4   0    3.50    2.30
   1  -5   0    6.40    3.00
   1  -5   0    3.30    3.70
  -1  -5   0   -1.90    3.20
  -1  -5   0    9.00    3.20
   1   0  -1 1847.62   71.79
  -1   0  -1 1903.81   71.89
   1   0  -1 1887.01   71.99
   1   0  -1 1847.22   71.99
  -1   0  -1 1828.52   71.89
  -1   0  -1 1833.32   71.89
  -1  -1  -1 2881.21  110.29
   1   1  -1 2727.63  110.39
   1  -1   1 2857.91  110.39
   1  -1   1 2753.12  110.39
   1  -1   1 3060.99  110.59
  -1   1   1 2876.91  110.29
  -1   1  -1 2907.41  110.09
  -1  -1   1 2804.42  109.99
  -1   1  -1 2893.71  110.49
  -1  -1   1 2754.32  110.49
   1  -1  -1 2848.62  110.29
   1   1   1 2898.71  110.29
  -1  -1   1 2755.72  110.49
  -1   2   1  287.97   12.30
   1  -2   1  314.97   12.00
   1  -2   1  315.27   12.80
   1   2  -1  299.27   12.00
  -1  -2   1  280.07   11.80
  -1  -2   1  277.07   12.60
   1   2   1  320.27   12.30
  -1  -2   1  289.27   12.70
   1  -3   1   18.00    2.70
   1   3  -1   18.70    1.80
  -1  -3  -1   23.00    2.90
   1  -3   1   18.90    1.60
   1  -3   1   18.70    2.70
  -1   3   1   21.00    2.20
  -1  -3   1   13.50    2.50
  -1  -3   1   19.40    1.50
   1  -3  -1   18.00    2.80
   1   3   1   20.40    2.10
  -1  -3   1   19.00    2.80
  -1   3  -1   20.90    2.00
   1   4  -1   19.70    2.10
   1  -4   1   17.50    3.50
   1  -4   1   19.40    3.40
  -1   4   1   15.10    2.30
  -1  -4  -1   23.20    3.60
  -1  -4   1   16.90    3.50
   1  -4  -1   22.20    3.50
   1   4   1   19.20    2.30
  -1   4  -1   20.40    2.20
  -1  -4   1   22.30    3.40
  -1   5   1    7.90    2.20
   1  -5   1   12.40    3.20
  -1  -5  -1    7.30    3.00
   1  -5   1    3.90    3.10
   1  -5  -1    8.60    3.40
  -1  -5   1    4.40    3.30
  -1  -5   1   11.20    3.30
   1   0   2    0.00    0.70
  -1   0   2    1.00    0.80
  -1   0  -2   -0.20    0.70
  -1   0  -2    0.90    0.60
   1   0   2    0.70    0.60
  -1   0   2    0.20    0.90
  -1   0   2    0.00    0.60
  -1   0  -2    0.50    0.70
   1   0  -2    0.30    0.80
   1   0   2    0.60    0.80
   1   0  -2   -0.40    0.80
   1   0  -2    0.50    0.60
   1   1  -2   66.89    2.60
   1  -1   2   61.89    3.40
   1  -1   2   58.99    3.20
   1   1  -2   64.39    3.30
   1   1  -2   70.69    3.40
  -1   1   2   60.09    3.20
   1  -1   2   61.19    2.80
  -1  -1  -2   59.69    3.10
  -1   1  -2   66.09    3.40
  -1  -1   2   67.79    3.50
  -1  -1   2   66.09    3.40
  -1   1  -2   62.49    3.20
  -1   1  -2   64.29    2.80
   1  -1  -2   67.49    3.10
   1   1   2   59.09    3.10
   1  -2   2  888.11   33.10
  -1   2   2  810.02   33.60
   1  -2   2  852.11   34.10
   1  -2   2  871.41   33.90
  -1  -2   2  846.62   34.10
   1   2   2  873.41   33.60
  -1  -2   2  796.92   33.90
  -1   3   2  293.97   12.70
   1  -3   2  323.77   13.20
   1   3  -2  272.87   12.00
   1  -3   2  312.07   11.80
   1  -3   2  310.67   13.40
  -1  -3   2  263.37   11.50
  -1  -3   2  278.17   13.10
  -1   3  -2  320.27   12.30
   1   3   2  328.37   12.70
  -1  -3   2  283.97   13.30
  -1  -3   2  267.07   11.50
  -1  -4  -2   13.20    3.10
  -1   4   2    9.70    2.20
   1  -4   2   15.80    3.20
   1  -4   2   17.90    3.10
   1   4   2   15.10    2.30
  -1  -4   2   15.90    3.10
  -1   4  -2   14.20    1.90
   1  -4  -2   12.50    3.10
  -1  -4   2   13.30    3.00
   1  -5   2   20.10    3.50
  -1  -5  -2   19.90    4.10
   1  -5   2   19.90    3.90
  -1   5   2   22.70    3.00
  -1  -5   2   27.30    4.40
  -1  -5   2   24.00    4.10
   1   5   2   21.20    2.90
   1  -5  -2   31.10    4.60
   1   0  -3  567.34   22.60
   1   0  -3  566.24   22.50
  -1   0  -3  561.44   22.30
  -1   0   3  547.95   22.70
  -1   0  -3  585.34   22.50
   1   0  -3  542.25   22.20
   1   0   3  587.64   22.50
   1   0   3  559.84   22.30
  -1   0   3  567.84   22.60
   1   0   3  549.85   22.60
  -1   0  -3  551.84   22.50
  -1   0   3  572.54   22.30
   1  -1   3    2.20    1.10
  -1   1   3    4.70    1.00
   1   1  -3    4.00    0.70
   1  -1   3    5.00    1.40
   1   1  -3    2.90    1.30
  -1  -1   3    3.30    1.40
  -1  -1   3    5.00    1.40
  -1   1  -3    4.50    0.80
  -1   1  -3    4.60    0.80
   1   1   3    4.10    1.20
  -1   1  -3    4.00    1.20
   1  -2   3  110.09    5.30
   1  -2   3  107.59    5.60
  -1   2   3   95.19    5.10
  -1   2  -3  101.39    4.20
   1   2   3  101.89    5.10
  -1  -2   3  101.89    5.40
  -1  -2   3   96.49    5.40
  -1   3   3  186.98    8.90
   1  -3   3  212.28    9.80
   1  -3   3  218.78    9.40
   1   3  -3  178.38    8.10
  -1  -3   3  172.28    9.30
  -1  -3   3  173.98    9.40
   1   3   3  215.58    9.00
   1  -4   3  369.86   16.70
  -1   4   3  390.56   16.30
   1  -4   3  369.26   17.30
  -1  -4  -3  380.16   17.10
   1  -4  -3  352.16   17.00
   1   4   3  392.66   16.30
  -1  -4   3  366.96   17.20
  -1  -4   3  364.46   16.90
   1  -5   3   32.40    4.30
   1  -5   3   24.30    4.30
  -1  -5  -3   29.90    4.80
  -1  -5   3   39.60    5.10
   1   5   3   25.20    3.30
   1  -5  -3   39.70    5.30
  -1  -5   3   34.60    4.40
   1   0   4    0.20    1.20
   1   0   4   -0.70    1.20
   1   0   4    0.30    0.90
  -1   0   4   -0.30    0.90
  -1   0   4   -0.40    1.40
  -1   0   4   -0.60    1.30
  -1   1   4  104.39    5.10
   1   1  -4  106.59    4.70
   1  -1   4  106.99    5.50
   1  -1   4  110.99    5.40
  -1   1  -4  111.79    4.90
   1   1   4  111.49    5.20
  -1  -1   4  110.39    5.50
  -1   1  -4  111.19    5.10
  -1  -1   4  100.69    5.50
   1   2  -4   15.40    1.30
  -1   2   4   13.80    2.00
   1  -2   4   12.40    2.00
   1  -2   4   14.30    2.30
  -1   2  -4   13.50    1.00
  -1  -2   4   17.50    2.30
  -1  -2   4   14.50    2.30
   1   2   4   11.70    1.80
   1  -3   4  112.79    6.90
   1  -3   4  112.09    6.40
  -1   3   4  125.09    6.50
   1   3  -4  127.39    5.40
  -1  -3   4  122.09    7.00
  -1  -3   4  120.09    6.70
   1   3   4  114.39    6.20
  -1   4   4   13.50    2.60
   1  -4   4   17.30    2.80
   1  -4   4   17.40    3.50
  -1  -4   4   13.30    3.20
   1   4   4   22.30    2.80
  -1  -4   4   19.60    3.10
  -1   0   5  202.88    8.60
  -1   0   5  194.68    9.30
   1   0   5  205.08    9.00
   1   0   5  197.68    9.20
   1   0   5  202.38    8.60
  -1   0   5  187.68    9.00
   1  -1   5   31.70    2.90
  -1   1   5   38.10    2.70
   1  -1   5   36.60    2.90
   1   1   5   31.40    2.60
  -1  -1   5   38.40    3.10
  -1   1  -5   37.30    2.30
  -1  -1   5   34.00    3.10
   1  -2   5   53.89    4.10
  -1   2   5   68.59    4.00
   1   2  -5   63.39    2.50
   1  -2   5   59.99    4.30
   1   2  -5   64.49    2.50
  -1  -2   5   72.79    4.50
   1   2   5   53.79    3.80
  -1   2  -5   52.79    2.90
  -1  -2   5   60.19    4.40
  -1   3   5   62.09    4.30
   1  -3   5   58.69    4.40
   1  -3   5   55.89    4.60
  -1  -3   5   54.39    4.70
   1   3   5   55.99    4.20
  -1  -3   5   65.49    4.60
   1  -4   5    9.10    2.90
  -1   4   5    6.00    2.20
   1  -4   5    9.30    2.30
  -1  -4   5   13.00    2.70
  -1  -4   5    9.30    3.00
   1   4   5    6.90    2.30
   1   0   6    0.60    1.70
   1   0   6    0.30    1.30
  -1   0   6   -1.60    1.10
  -1   0   6    0.10    1.60
   1  -1   6  126.89    6.90
  -1   1   6  127.19    6.40
   1  -1   6  130.89    7.00
  -1   1  -6  126.39    6.10
  -1  -1   6  135.59    7.00
  -1  -1   6  133.69    7.00
   1   1   6  124.89    6.40
   1   2  -6   14.70    1.80
  -1   2   6   18.70    2.50
   1  -2   6   15.60    2.80
   1  -2   6   14.70    2.40
   1   2   6   14.90    2.30
  -1  -2   6   20.40    3.10
  -1   2  -6   16.10    1.50
  -1  -2   6   17.80    2.80
   1  -3   6   15.90    3.10
   1  -3   6   15.40    2.80
  -1   3   6   16.10    2.70
  -1  -3   6   18.40    3.10
   1   3   6   11.90    2.40
  -1  -3   6   11.50    2.90
   1  -4   6    8.70    3.00
   1  -4   6    4.50    2.10
  -1   4   6    3.50    2.20
  -1  -4   6    3.90    2.30
   1   4   6    0.90    2.30
  -1  -4   6    3.80    2.70
  -1   0   7  383.76   16.20
   1   0   7  386.96   17.20
   1   0   7  398.26   16.30
  -1   0   7  383.26   17.30
  -1   1   7   16.80    2.40
   1  -1   7   23.50    3.20
   1  -1   7   24.50    3.30
  -1  -1   7   17.60    3.10
  -1   1  -7   22.40    2.30
  -1  -1   7   23.10    3.20
   1   1   7   23.10    2.60
  -1   2   7    2.10    1.70
   1  -2   7    2.00    2.00
   1  -2   7    4.50    1.90
   1   2   7    1.40    1.80
  -1  -2   7    1.80    2.20
  -1  -2   7    2.20    2.20
  -1   3   7   15.30    2.80
   1  -3   7   14.80    3.30
   1  -3   7   12.60    2.80
  -1  -3   7   16.10    3.00
  -1  -3   7   18.30    3.70
   1   3   7   15.60    2.80
   1  -4   7    9.20    3.30
  -1   4   7   11.00    2.80
  -1  -4   7    7.50    2.80
  -1  -4   7    7.30    3.30
   1   4   7    5.50    2.50
  -1   0   8   -1.00    1.30
   1   0   8   -1.00    1.30
  -1   0   8    0.80    2.20
   1  -1   8   71.69    5.30
  -1   1   8   64.69    4.40
   1   1  -8   75.49    4.30
   1  -1   8   73.79    5.40
  -1  -1   8   67.19    5.60
   1   1   8   64.79    4.60
  -1  -1   8   64.69    5.20
  -1   1  -8   76.09    4.50
  -1   2   8  107.99    6.30
   1  -2   8  106.49    6.80
   1  -2   8  111.29    6.80
  -1  -2   8   86.49    6.40
  -1  -2   8   93.19    6.70
   1   2   8  104.69    6.10
   1  -3   8    4.30    2.90
  -1   3   8    2.60    2.10
   1  -3   8    5.10    2.30
  -1  -3   8    1.30    2.40
   1   3   8   -0.10    2.00
  -1  -3   8    3.30    2.60
  -1   0   9    1.40    1.70
   1   0   9    0.80    1.60
   1   1  -9   34.40    3.10
   1  -1   9   27.00    4.00
   1  -1   9   20.80    3.50
  -1   1   9   24.40    3.00
   1   1   9   25.70    3.20
  -1  -1   9   21.10    3.80
  -1  -1   9   27.90    4.00
  -1   1  -9   27.70    3.00
  -1   2   9   19.40    3.00
   1  -2   9   26.20    3.90
   1  -2   9   25.20    4.10
  -1  -2   9   23.20    4.10
   1   2   9   26.80    3.30
  -1  -2   9   18.90    3.80
   1  -3   9   65.79    6.10
   1  -3   9   67.99    6.90
  -1   3   9   66.59    5.40
  -1  -3   9   71.79    6.60
  -1  -3   9   64.89    5.90
   1   3   9   69.59    5.50
  -1   0  10    0.90    1.80
  -1   0 -10    2.10    1.90
  -1   1  10    0.60    1.90
   1  -1  10    1.00    2.50
  -1  -1  10   -1.30    2.70
   1   1  10    2.60    1.90
   1  -2  10   34.00    5.00
  -1   2  10   35.80    4.10
   1  -2  10   36.90    4.70
   1   2  10   31.20    3.80
  -1  -2  10   20.40    4.50
  -1  -2  10   24.60    4.20
   2  -1   0 1365.26   50.99
  -2  -1   0 1297.37   50.99
  -2   1   0 1281.57   50.89
  -2  -1   0 1322.17   50.79
   2   1   0 1281.67   50.79
   2  -2   0   27.60    2.60
   2   2   0   28.70    1.90
  -2   2   0   30.40    2.10
  -2  -2   0   28.60    2.40
   2  -2   0   27.80    1.90
  -2  -3   0   23.60    2.90
  -2   3   0   23.70    2.20
   2   3   0   28.30    2.20
   2  -3   0   20.90    2.90
   2   4   0    9.20    1.70
  -2  -4   0    7.00    2.60
   2  -4   0    6.50    2.50
  -2   4   0    4.60    1.70
  -2  -5   0   15.50    4.40
   2  -5   0   13.80    4.20
   2  -5   0   25.10    4.20
  -2  -5   0   16.60    3.50
   2   0  -1    0.40    0.60
  -2   0   1    1.90    0.70
   2   0  -1    0.50    0.60
   2   0   1    0.10    0.60
   2   0   1    0.90    0.40
  -2   0  -1    0.20    0.40
  -2   0   1   -0.30    0.60
   2   0  -1    0.40    0.50
   2   0  -1    0.30    0.40
  -2   0   1    0.70    0.40
  -2   0  -1    1.70    0.60
  -2   0   1   -0.40    0.40
  -2   0  -1   -0.10    0.50
   2   0   1    0.10    0.30
   2  -1   1  249.68    9.60
  -2  -1  -1  249.97    9.40
  -2   1   1  208.18    9.40
   2  -1   1  269.17    9.40
   2   1  -1  227.38    9.10
   2   1  -1  206.88    9.50
   2  -1   1  238.38    9.30
   2   1   1  235.68    9.30
  -2   1  -1  247.58    9.60
   2  -1  -1  208.38    9.50
  -2  -1   1  209.98    9.50
  -2   1  -1  252.17    9.30
   2  -1  -1  218.48    9.40
  -2  -1   1  209.68    9.60
  -2  -2  -1  290.07   12.10
   2   2  -1  297.47   11.50
   2  -2   1  279.97   11.60
   2  -2   1  281.17   12.30
  -2   2   1  286.77   11.90
   2   2   1  280.77   11.70
  -2  -2   1  287.77   12.30
  -2  -2   1  290.47   12.40
  -2  -2   1  283.57   11.40
   2   3  -1    3.40    1.00
  -2   3   1    4.10    1.40
   2  -3   1    2.10    0.90
   2  -3   1    4.90    2.00
  -2  -3  -1    4.20    1.90
   2  -3  -1    6.20    2.10
  -2  -3   1    7.00    2.40
  -2   3  -1    3.30    1.30
  -2  -3   1    2.70    1.90
  -2  -3   1    6.30    0.90
   2   3   1    4.50    1.30
  -2  -4  -1   34.70    4.10
   2  -4   1   38.20    4.30
  -2   4   1   34.70    3.20
   2   4  -1   39.90    2.80
   2  -4   1   37.10    4.30
  -2  -4   1   38.90    4.30
  -2   4  -1   32.30    3.00
  -2  -4   1   38.30    4.50
   2  -4  -1   38.00    4.40
   2   4   1   40.50    3.10
   2  -5   1   16.40    3.50
  -2  -5  -1   10.60    3.20
  -2   5   1    8.60    2.30
   2  -5   1   10.60    3.50
  -2  -5   1   13.60    3.30
  -2  -5   1   10.20    3.90
   2  -5  -1   16.00    3.60
  -2   0   2   61.19    3.10
  -2   0   2   59.79    3.10
   2   0  -2   57.59    2.60
   2   0   2   55.39    2.70
   2   0   2   58.89    2.80
  -2   0  -2   57.09    2.80
  -2   0   2   58.09    2.70
   2   0  -2   55.59    3.00
  -2   0  -2   62.19    2.90
   2   0  -2   59.69    3.00
  -2   0  -2   57.09    2.70
   2  -1   2   74.39    3.50
   2   1  -2   72.99    3.70
   2  -1   2   71.29    3.20
   2   1  -2   78.39    3.80
   2   1  -2   73.49    3.00
  -2   1   2   72.29    3.60
   2   1  -2   71.29    2.90
   2  -1   2   71.69    3.70
  -2  -1  -2   69.99    3.50
  -2   1  -2   72.39    3.30
  -2  -1   2   79.79    3.90
  -2   1  -2   73.39    3.70
  -2  -1   2   76.09    3.90
   2   1   2   72.49    3.50
   2  -1  -2   73.19    3.50
  -2   1  -2   72.69    3.50
   2  -1  -2   73.49    3.80
   2   2  -2  184.18    8.10
   2  -2   2  218.98    8.20
  -2   2   2  171.58    8.60
   2  -2   2  223.98    8.80
   2  -2   2  223.38    9.20
  -2  -2   2  171.28    8.90
   2   2   2  211.18    8.60
  -2   2  -2  220.08    8.20
  -2  -2   2  168.98    8.90
  -2   3   2  247.18   10.70
   2   3  -2  252.77   10.00
   2  -3   2  226.38    9.90
   2  -3   2  237.18   10.90
   2  -3   2  233.58   11.30
  -2  -3  -2  250.87   11.10
  -2   3  -2  246.48   10.30
   2   3   2  237.78   10.50
  -2  -3   2  242.68   11.30
  -2  -3   2  241.98   11.30
   2  -4   2   29.80    3.50
  -2  -4  -2   33.80    4.20
  -2   4   2   29.70    3.00
   2  -4   2   22.90    3.70
  -2  -4   2   35.00    4.20
  -2   4  -2   27.50    2.60
   2   4   2   24.50    2.70
   2  -4  -2   30.70    4.20
  -2  -4   2   31.70    4.10
   2  -5   2    9.30    3.10
   2  -5   2   10.30    2.80
  -2  -5  -2   13.10    3.30
  -2   5   2    9.90    2.30
  -2  -5   2    9.30    3.10
  -2  -5   2    9.50    3.30
   2  -5  -2    5.10    3.20
   2   0   3    1.00    0.90
  -2   0   3   -0.10    0.80
  -2   0  -3   -0.70    0.70
   2   0  -3    0.00    1.00
   2   0  -3    0.00    0.60
   2   0   3    0.30    1.00
  -2   0   3    0.30    1.00
  -2   0  -3   -0.30    0.70
  -2   0  -3    0.10    0.90
  -2   0   3   -0.10    1.20
   2   0  -3    0.40    1.00
   2   0   3   -0.80    1.00
   2  -1   3  213.68    9.50
  -2   1   3  225.98    9.40
   2   1  -3  219.98    8.90
   2  -1   3  219.68    9.40
  -2   1  -3  213.48    9.30
  -2   1  -3  218.08    9.10
  -2  -1   3  220.18    9.70
  -2  -1   3  231.58    9.70
  -2   1  -3  225.68    9.10
   2   1   3  225.68    9.40
  -2   2   3  166.18    7.50
   2  -2   3  167.38    7.90
   2  -2   3  165.38    6.70
   2  -2   3  165.08    7.50
   2   2   3  157.48    7.40
  -2  -2   3  162.38    7.90
  -2   2  -3  165.08    6.80
  -2  -2   3  167.38    7.90
  -2   3   3   82.59    4.70
   2  -3   3   84.39    5.40
   2  -3   3   80.59    3.80
   2   3  -3   80.89    3.80
   2  -3   3   85.89    4.90
   2   3   3   77.39    4.60
  -2  -3   3   76.99    5.30
  -2  -3   3   81.39    5.20
   2  -4   3   86.39    5.50
  -2  -4  -3   87.29    6.10
  -2   4   3   86.59    5.40
   2  -4   3   89.09    6.10
  -2   4  -3   85.99    4.50
  -2  -4   3   72.29    5.60
   2  -4  -3   62.79    5.90
  -2  -4   3   72.29    5.80
   2   4   3   98.59    5.30
  -2  -5  -3    6.90    3.00
   2  -5   3    7.40    3.00
  -2   5   3    3.80    2.20
  -2  -5   3    6.70    3.10
   2  -5  -3    5.40    3.40
  -2  -5   3   10.80    3.00
   2   5   3    7.00    2.20
  -2   0   4  582.44   23.70
   2   0   4  549.54   23.30
   2   0   4  587.94   23.50
   2   0   4  573.04   23.10
  -2   0   4  598.04   23.00
  -2   0   4  585.04   23.60
   2  -1   4  202.48    8.80
   2   1  -4  198.68    8.10
  -2   1   4  190.38    8.60
   2  -1   4  198.78    8.90
  -2   1  -4  194.08    8.30
  -2  -1   4  205.68    9.10
  -2  -1   4  203.38    9.10
   2   1   4  194.48    8.60
   2   2  -4   53.19    2.60
  -2   2   4   48.90    3.40
   2  -2   4   58.79    3.60
   2  -2   4   58.99    3.90
  -2  -2   4   49.30    3.70
   2   2   4   54.89    3.40
  -2   2  -4   55.59    2.60
  -2  -2   4   46.40    3.80
   2  -3   4   32.10    3.70
   2  -3   4   35.00    3.00
  -2   3   4   25.80    3.00
   2   3  -4   29.80    1.90
  -2  -3   4   28.40    3.60
   2   3   4   31.90    3.00
  -2  -3   4   29.00    3.40
   2  -4   4   47.50    4.70
  -2   4   4   45.40    4.00
  -2  -4  -4   52.49    5.40
   2  -4   4   49.00    4.10
   2   4   4   48.20    4.00
  -2  -4   4   39.90    4.80
  -2  -4   4   41.50    4.40
   2   0   5   -1.20    1.20
   2   0   5    0.20    1.30
  -2   0   5   -0.60    1.40
   2   0   5    1.80    1.20
  -2   0   5   -0.20    0.90
   2  -1   5  128.89    7.20
   2  -1   5  155.38    7.40
  -2   1   5  153.68    7.10
   2   1   5  149.39    7.10
  -2   1  -5  155.38    6.80
  -2  -1   5  168.88    7.70
  -2  -1   5  159.58    7.60
   2   2  -5   57.59    3.00
   2  -2   5   66.99    4.10
   2  -2   5   68.09    4.50
  -2   2   5   58.59    4.00
  -2   2  -5   64.39    3.10
  -2  -2   5   56.69    4.40
  -2  -2   5   62.39    4.60
   2   2   5   64.89    4.00
   2  -3   5   49.20    3.80
  -2   3   5   37.50    3.70
   2  -3   5   51.39    4.50
  -2  -3   5   37.00    4.30
   2   3   5   47.60    3.70
  -2  -3   5   45.70    4.00
   2  -4   5   16.10    2.70
   2  -4   5   10.30    3.10
  -2   4   5    8.60    2.50
   2   4   5   17.20    2.70
  -2  -4   5    7.90    2.90
  -2  -4   5   12.20    2.90
  -2   0   6  109.29    6.30
   2   0   6  111.89    5.50
  -2   0   6  112.69    5.40
   2   0   6  105.49    6.10
   2  -1   6    0.80    1.80
   2  -1   6    0.60    1.50
  -2   1   6    1.90    1.30
  -2  -1   6    0.90    1.70
   2   1   6    2.00    1.40
  -2   1  -6    1.60    1.20
  -2  -1   6    2.10    1.80
   2  -2   6  112.69    6.40
  -2   2   6  114.19    6.20
   2  -2   6  117.29    6.70
  -2   2  -6  116.39    5.30
  -2  -2   6  121.69    6.80
  -2  -2   6  105.29    6.70
   2   2   6  126.69    6.30
   2  -3   6   32.70    4.10
   2  -3   6   27.40    3.50
  -2   3   6   35.20    3.60
  -2  -3   6   35.60    4.10
  -2  -3   6   36.10    4.30
   2   3   6   30.10    3.40
   2  -4   6    2.60    2.60
  -2   4   6    3.50    2.10
  -2  -4   6    1.10    2.60
  -2  -4   6    1.80    2.20
   2   4   6    3.10    2.10
  -2   0   7    2.30    2.10
  -2   0   7   -0.60    1.30
   2   0   7   -0.60    1.40
   2  -1   7   89.39    5.90
  -2   1   7   91.69    5.40
   2  -1   7  103.99    6.00
  -2  -1   7  101.99    6.30
  -2  -1   7  106.29    6.50
   2   1   7  109.09    5.60
  -2   1  -7  100.09    5.30
   2  -2   7    7.90    2.80
  -2   2   7   15.40    2.40
   2  -2   7    9.40    2.40
   2   2   7   11.70    2.30
  -2  -2   7   11.20    2.70
  -2  -2   7   11.10    3.00
   2  -3   7   35.50    4.00
   2  -3   7   35.70    4.50
  -2   3   7   32.80    3.80
   2   3   7   40.60    4.00
  -2  -3   7   38.60    4.40
  -2  -3   7   47.80    4.70
  -2   4   7   12.80    3.00
   2  -4   7   14.70    3.60
  -2  -4   7   13.50    3.10
  -2  -4   7   14.00    3.80
   2   4   7    9.40    2.70
   2   0   8  107.99    5.80
  -2   0   8  104.49    5.70
  -2   0   8  108.19    6.90
  -2   1   8   21.90    2.80
   2  -1   8   22.30    3.50
   2  -1   8   19.70    3.10
  -2  -1   8   22.30    3.50
  -2  -1   8   20.50    3.50
   2   1   8   23.40    2.90
  -2   1  -8   26.00    2.70
  -2   2   8   22.00    3.00
   2  -2   8   19.30    3.30
   2  -2   8   22.30    3.70
   2   2   8   18.60    2.80
  -2  -2   8   22.40    3.50
  -2  -2   8   16.80    3.40
  -2   3   8   10.20    2.70
   2  -3   8    9.30    3.20
   2  -3   8    8.00    2.60
  -2  -3   8    9.30    3.00
   2   3   8   11.00    2.60
  -2  -3   8   11.70    3.30
  -2   0  -9   -0.50    1.60
   2   0   9    2.00    1.70
  -2   0   9   -0.90    2.40
  -2   0   9   -2.00    1.40
   2   1  -9   32.10    4.20
  -2   1   9   17.40    2.70
   2  -1   9   20.10    3.50
   2  -1   9   25.00    4.00
   2   1   9   28.60    3.30
  -2  -1   9   28.40    4.20
  -2  -1   9   27.10    4.10
  -2   1  -9   29.10    3.00
   2  -2   9   27.00    3.80
   2  -2   9   25.60    4.00
  -2   2   9   23.50    3.20
   2   2   9   25.90    3.40
  -2  -2   9   27.80    4.50
  -2  -2   9   21.90    3.80
   2  -3   9   29.10    4.70
  -2  -3   9   31.60    4.70
  -2   0 -10    3.00    1.90
  -2   0  10    2.40    1.90
  -2   1  10    1.40    2.00
   2   1  10    4.20    2.30
  -2  -1  10    0.60    2.70
   2  -2  10   12.50    3.40
  -2   2  10   27.70    3.50
   2  -2  10   20.50    4.50
   2   2  10   23.50    3.60
  -2  -2  10   19.70    3.90
  -2  -2  10   26.90    4.60
  -3   0   0   -0.30    0.40
   3   0   0    0.80    0.50
   3   0   0    1.50    0.60
  -3   0   0    0.50    0.40
  -3   1   0 1667.03   64.79
   3  -1   0 1723.33   64.79
  -3  -1   0 1681.23   64.59
  -3  -1   0 1669.53   64.79
  -3  -1   0 1623.24   64.69
   3   1   0 1653.03   64.49
   3   1   0 1652.63   64.79
  -3  -2   0    1.40    1.20
   3  -2   0    2.40    0.90
  -3  -2   0    1.50    0.70
   3  -2   0    3.20    1.50
   3   2   0    0.80    0.80
  -3   2   0    0.10    1.00
  -3   3   0   53.19    3.20
  -3  -3   0   50.99    3.80
   3   3   0   48.90    2.90
   3  -3   0   43.00    3.80
  -3  -4   0   17.70    3.20
   3  -4   0   11.20    2.80
   3   4   0   11.60    1.80
  -3   4   0   11.40    2.10
   3  -5   0   66.59    6.90
  -3  -5   0   74.29    7.50
  -3  -5   0   87.09    6.60
   3  -5   0   91.69    6.70
  -3   0   1 2709.83  104.79
   3   0  -1 2700.43  104.79
  -3   0   1 2781.42  104.69
   3   0  -1 2763.02  104.89
  -3   0   1 2601.84  104.89
  -3   0  -1 2714.43  104.79
   3   0  -1 2688.83  104.79
  -3   0  -1 2708.23  104.79
   3   0   1 2740.83  104.79
  -3   0  -1 2666.13  104.69
   3  -1   1  138.19    6.10
   3  -1   1  135.39    5.80
   3   1  -1  134.19    6.00
  -3  -1  -1  134.19    5.80
   3   1  -1  140.19    5.40
   3  -1   1  153.28    5.80
  -3   1   1  136.09    5.90
   3  -1  -1  134.49    6.00
  -3  -1   1  136.09    6.20
  -3  -1   1  143.59    6.10
  -3   1  -1  143.39    5.90
  -3  -1   1  133.79    5.50
   3   1   1  140.59    5.80
  -3   2   1   83.79    4.20
   3  -2   1   82.99    3.90
  -3  -2  -1   88.89    4.50
   3  -2   1   85.89    4.60
   3   2  -1   86.39    3.70
   3   2   1   81.59    4.00
  -3  -2   1   82.99    4.80
  -3  -2   1   84.09    3.60
  -3  -2   1   78.19    4.50
   3  -3   1  165.08    8.00
  -3  -3  -1  156.98    7.70
  -3   3   1  147.49    7.20
   3   3  -1  145.89    6.60
  -3   3  -1  165.78    7.10
  -3  -3   1  147.29    6.40
  -3  -3   1  152.18    6.50
   3   3   1  157.28    7.00
   3  -3  -1  148.29    7.90
  -3  -3   1  155.68    8.10
  -3  -3   1  146.89    7.70
   3   4  -1   54.39    3.40
   3  -4   1   56.99    5.10
  -3   4   1   58.99    4.10
   3  -4   1   50.49    4.80
  -3  -4  -1   57.19    4.70
  -3  -4   1   64.09    5.00
  -3  -4   1   63.09    5.40
   3   4   1   57.99    3.80
  -3   4  -1   54.29    3.80
   3  -4  -1   53.29    4.80
   3  -5   1   10.20    3.20
  -3   5   1   18.80    2.70
  -3  -5  -1   13.30    3.40
   3  -5   1   18.30    3.70
  -3  -5   1   16.30    3.50
  -3  -5   1   11.20    3.60
   3  -5  -1   19.20    3.70
   3   0   2    0.10    0.70
  -3   0   2    0.10    0.90
  -3   0  -2    1.10    0.70
  -3   0  -2    0.30    0.80
  -3   0   2   -0.20    0.50
  -3   0  -2   -0.30    0.70
  -3   0   2    1.40    1.00
   3   0  -2   -0.30    0.50
   3   0   2   -1.40    0.60
   3   0  -2    0.90    0.90
   3   0  -2   -0.10    0.90
   3   0  -2    0.10    0.70
  -3   0  -2    0.90    0.60
  -3   1   2   31.60    2.10
  -3  -1  -2   27.40    1.90
   3   1  -2   31.70    1.40
   3  -1   2   29.90    1.70
   3   1  -2   31.00    1.30
   3   1  -2   27.40    2.10
   3   1  -2   29.40    2.30
   3  -1   2   29.00    1.80
   3  -1   2   29.90    2.20
  -3  -1   2   29.20    2.40
   3  -1  -2   29.90    2.20
   3   1   2   34.10    2.00
  -3  -1   2   28.60    2.30
  -3   1  -2   30.80    2.10
   3  -1  -2   33.10    2.00
  -3   1  -2   29.80    1.90
   3   2  -2  430.36   16.40
   3  -2   2  407.16   16.60
   3  -2   2  424.36   17.00
  -3   2   2  415.06   17.10
   3  -2   2  424.36   17.40
  -3  -2   2  402.16   17.40
  -3   2  -2  423.96   16.60
   3   2   2  408.66   16.90
  -3  -2   2  408.16   17.50
  -3  -3  -2    6.30    2.10
  -3   3   2    2.70    1.50
   3  -3   2    6.10    1.70
   3  -3   2    3.60    0.90
   3   3  -2    3.40    0.90
   3  -3   2    3.90    2.00
  -3  -3   2   -0.40    1.80
  -3  -3   2    1.20    1.80
   3   3   2    4.80    1.40
  -3   3  -2    5.00    1.40
  -3   4   2   28.60    3.10
  -3  -4  -2   25.90    3.70
   3  -4   2   27.70    3.40
   3  -4   2   25.50    3.80
  -3   4  -2   27.30    2.60
   3  -4  -2   30.60    4.20
   3   4   2   29.90    2.90
  -3  -4   2   23.70    3.60
  -3  -4   2   21.50    3.50
  -3   5   2   13.20    2.60
  -3  -5  -2   16.50    3.60
   3  -5   2   13.50    3.20
  -3  -5   2   11.60    3.40
  -3  -5   2   12.10    3.50
   3  -5  -2    8.10    3.50
  -3   0   3  475.65   19.10
  -3   0   3  457.35   18.50
  -3   0  -3  456.35   18.60
  -3   0   3  485.55   19.00
  -3   0  -3  463.85   18.60
   3   0  -3  452.65   18.40
   3   0  -3  467.35   18.90
   3   0  -3  446.26   19.00
   3   0   3  469.55   18.60
   3   0   3  475.45   18.70
  -3   0  -3  476.65   18.80
  -3   1   3  127.79    6.10
   3  -1   3  136.39    6.30
   3  -1   3  141.99    6.10
   3   1  -3  135.39    5.50
   3   1  -3  125.49    5.60
  -3   1  -3  147.09    5.90
  -3  -1   3  127.19    6.50
  -3   1  -3  138.19    6.00
  -3  -1   3  139.69    6.50
   3   1   3  143.29    6.10
   3  -2   3   40.20    2.70
   3   2  -3   43.30    1.90
  -3   2   3   44.00    2.90
   3  -2   3   37.10    3.10
   3  -2   3   40.10    2.20
   3   2   3   37.60    2.70
  -3   2  -3   41.40    2.30
  -3  -2   3   41.90    3.20
  -3  -2   3   45.40    3.30
  -3   3   3    4.20    1.70
   3  -3   3    4.60    2.10
   3  -3   3    2.70    1.50
   3   3  -3    7.30    0.90
   3   3   3    5.40    1.60
  -3  -3   3    4.00    2.10
  -3  -3   3    5.50    2.10
   3  -4   3   49.80    4.70
   3  -4   3   50.59    4.10
  -3  -4  -3   53.19    4.80
  -3   4   3   54.09    4.20
  -3  -4   3   55.09    4.90
  -3  -4   3   46.00    4.50
  -3   4  -3   50.99    3.60
   3   4   3   53.69    4.10
  -3   5   3   24.70    3.20
  -3  -5  -3   15.00    3.80
   3  -5   3   20.10    4.00
   3  -5  -3   17.40    4.30
  -3  -5   3   15.30    3.70
   3   5   3   14.80    2.70
  -3  -5   3   18.50    3.80
  -3   0   4   -0.90    1.30
   3   0   4   -1.30    0.90
  -3   0   4   -0.70    0.90
   3   0  -4    0.00    0.70
  -3   0   4   -0.50    1.40
   3   0   4   -0.50    1.10
  -3   0  -4    1.90    1.20
   3  -1   4  134.49    6.20
  -3   1   4  132.69    6.10
   3   1  -4  132.69    5.70
   3  -1   4  120.49    6.30
   3   1  -4  134.79    5.50
  -3   1  -4  125.29    6.40
  -3   1  -4  130.29    5.90
  -3  -1   4  147.29    6.60
   3   1   4  129.79    6.10
  -3  -1   4  132.09    6.60
   3   2  -4   82.69    3.50
   3  -2   4   81.19    4.40
   3  -2   4   75.29    4.80
  -3   2   4   83.09    4.60
  -3   2  -4   81.09    3.80
  -3  -2   4   87.49    5.00
   3   2   4   71.69    4.30
  -3  -2   4   81.19    5.00
   3  -3   4   82.79    5.60
   3  -3   4   93.99    5.20
  -3   3   4   86.49    5.20
  -3  -3   4   89.59    5.80
   3   3   4   95.19    5.30
  -3  -3   4   80.99    5.60
   3  -4   4    6.40    2.60
  -3  -4  -4    0.20    2.90
  -3   4   4    9.40    2.30
   3  -4   4    5.20    1.90
   3   4   4    3.60    1.90
  -3  -4   4    7.50    2.90
  -3  -4   4    5.00    2.20
  -3   0   5  128.29    5.90
   3   0   5  132.79    6.40
   3   0   5  128.19    6.10
  -3   0   5  133.09    6.80
   3   1  -5  252.87   10.50
  -3   1   5  252.87   11.00
   3  -1   5  263.77   11.40
   3  -1   5  263.07   11.20
   3   1   5  253.77   11.10
  -3  -1   5  257.37   11.60
  -3   1  -5  260.07   10.80
  -3  -1   5  243.28   11.50
  -3   2   5    9.70    1.90
   3  -2   5    8.90    2.20
   3   2  -5   11.00    1.10
   3  -2   5   10.80    1.90
  -3   2  -5    7.30    1.20
  -3  -2   5   11.30    2.30
   3   2   5    8.40    1.80
  -3  -2   5   10.30    2.40
   3  -3   5   74.39    5.40
   3  -3   5   78.19    4.90
  -3   3   5   76.49    4.90
  -3  -3   5   82.49    5.40
  -3  -3   5   74.59    5.60
   3   3   5   67.09    4.70
   3  -4   5   10.00    3.00
   3  -4   5    8.10    2.20
  -3   4   5    7.60    2.50
  -3  -4   5    8.80    3.10
  -3  -4   5    8.80    2.60
   3   4   5    7.70    2.30
  -3   0   6    0.50    1.70
  -3   0   6   -0.10    1.10
   3   0   6    0.00    1.20
   3   0   6   -0.10    1.40
  -3   1   6  189.68    8.50
   3  -1   6  191.18    8.90
   3  -1   6  192.78    8.90
  -3  -1   6  183.08    9.20
   3   1   6  178.08    8.50
  -3   1  -6  192.78    8.30
  -3  -1   6  161.98    9.00
   3  -2   6  135.29    7.60
   3  -2   6  145.39    7.30
  -3   2   6  138.19    7.20
  -3  -2   6  149.59    7.90
  -3   2  -6  142.39    6.40
  -3  -2   6  144.39    7.90
   3   2   6  136.99    7.20
   3  -3   6   12.60    2.40
   3  -3   6   14.90    3.10
  -3   3   6   15.80    2.70
  -3  -3   6   20.70    3.30
   3   3   6   16.40    2.60
  -3  -3   6   16.30    3.30
   3  -4   6    0.50    2.40
  -3   4   6   -1.40    2.00
  -3  -4   6   -0.20    2.60
   3   4   6    0.80    1.90
  -3  -4   6    3.90    2.40
  -3   0   7  338.17   15.60
  -3   0   7  342.47   14.30
   3   0   7  339.97   14.50
   3  -1   7    1.10    1.80
  -3   1   7    2.30    1.50
   3  -1   7    1.90    1.70
  -3  -1   7    0.00    1.90
   3   1   7    2.70    1.60
  -3  -1   7    1.10    2.20
  -3   1  -7    0.70    1.30
   3  -2   7   14.20    2.50
   3  -2   7   13.80    2.90
  -3   2   7   12.00    2.40
   3   2   7   14.50    2.40
  -3  -2   7   13.90    3.00
  -3  -2   7   15.30    3.20
   3  -3   7    2.80    2.00
  -3   3   7    2.40    2.00
   3  -3   7    8.20    2.80
   3   3   7   -0.20    1.90
  -3  -3   7    1.90    2.50
  -3  -3   7    2.90    2.30
  -3   4   7   46.10    4.70
   3  -4   7   47.90    5.60
   3   4   7   44.40    4.60
  -3  -4   7   38.60    5.40
   3   0   8   -0.40    1.40
  -3   0   8    2.10    1.50
  -3   0  -8    1.50    1.70
  -3   0   8    1.80    2.30
   3  -1   8   39.30    3.90
  -3   1   8   50.99    3.90
   3  -1   8   46.40    4.20
  -3   1  -8   43.60    3.50
   3   1   8   44.20    3.90
  -3  -1   8   46.20    4.50
  -3  -1   8   42.40    4.50
   3  -2   8   83.49    6.00
   3  -2   8   81.29    5.70
  -3   2   8   88.59    5.50
  -3  -2   8   81.39    6.10
   3   2   8   76.69    5.30
  -3  -2   8   93.19    6.30
  -3   3   8   -0.70    2.00
   3  -3   8    0.90    2.50
   3   3   8    0.10    2.00
  -3  -3   8    1.70    2.40
  -3  -3   8    2.00    2.70
  -3   0   9   12.80    3.30
  -3   0  -9   12.10    2.60
  -3   0   9   12.10    2.10
   3  -1   9   45.00    4.60
  -3   1   9   43.90    4.00
   3  -1   9   48.60    4.50
  -3  -1   9   47.20    4.90
   3   1   9   46.50    4.00
  -3   1  -9   51.09    3.90
  -3  -1   9   52.99    5.10
   3  -2   9    2.60    2.20
  -3   2   9    1.60    2.10
   3  -2   9    2.50    2.60
   3   2   9    2.80    2.00
  -3  -2   9    2.00    2.50
  -3  -2   9    2.30    3.00
  -3   0  10   -0.60    1.60
  -3   0 -10   -0.90    1.90
  -3   1  10   27.30    3.40
  -3  -1 -10   37.10    4.20
   3   1  10   39.00    3.90
  -3  -1  10   37.80    5.00
   3  -2  10    5.90    3.20
  -3   2  10    7.70    2.40
   3  -2  10    4.20    2.80
  -3  -2  10    6.60    3.70
  -3  -2  10    7.10    3.10
   3   2  10    4.40    2.40
  -4   0   0    0.60    0.60
  -4   0   0    1.70    0.60
   4   0   0    2.50    0.60
   4   0   0    3.50    0.80
  -4  -1   0  193.58    7.80
   4  -1   0  182.78    7.80
  -4   1   0  190.08    7.90
   4   1   0  186.68    7.70
  -4  -1   0  182.68    7.70
  -4  -1   0  188.88    7.50
   4   1   0  187.68    7.50
   4  -2   0   68.39    3.90
  -4  -2   0   67.99    3.20
  -4  -2   0   69.19    3.90
   4   2   0   72.89    3.30
  -4   2   0   71.99    3.80
  -4  -3   0   11.70    2.30
   4   3   0   13.00    1.50
  -4   3   0   10.10    1.80
   4  -3   0    9.60    2.40
  -4   4   0  113.39    6.00
   4  -4   0  110.29    6.90
  -4  -4   0  112.89    6.80
   4   4   0  109.09    5.50
  -4   5   0    4.60    2.00
   4  -5   0    6.20    2.90
  -4  -5   0    7.40    3.00
  -4  -5   0   -4.70    3.00
   4   0   1    0.40    0.70
  -4   0   1    0.80    0.80
  -4   0   1    0.20    0.80
   4   0  -1   -0.50    0.70
   4   0  -1   -0.10    0.70
   4   0  -1    0.70    0.70
  -4   0  -1    0.50    0.80
  -4   0  -1    0.80    0.40
   4   0   1    0.30    0.20
  -4   1   1  139.49    6.10
  -4  -1  -1  135.89    5.80
   4  -1   1  132.99    6.00
  -4   1   1  143.69    6.00
  -4  -1  -1  134.29    6.00
   4   1  -1  144.39    6.00
   4  -1   1  137.79    5.90
   4  -1   1  133.29    5.60
   4   1  -1  141.09    5.60
  -4  -1   1  141.29    6.00
  -4  -1   1  139.79    5.60
   4  -1  -1  136.39    6.10
   4  -1  -1  135.79    5.90
  -4  -1   1  134.99    6.30
  -4   1  -1  137.09    5.90
   4   1   1  135.59    5.80
  -4   2   1  147.79    6.90
   4   2  -1  144.99    6.30
   4  -2   1  154.38    6.70
  -4  -2  -1  165.88    7.00
   4  -2   1  160.48    7.30
   4   2   1  162.88    6.70
  -4  -2   1  144.39    7.40
  -4  -2   1  151.48    7.10
  -4   2  -1  156.98    6.70
  -4  -2   1  148.19    6.30
  -4  -3  -1   94.49    5.70
   4   3  -1  106.99    4.70
   4  -3   1   94.29    5.80
  -4   3   1  106.59    5.40
  -4  -3   1  108.69    5.90
  -4  -3   1  108.49    4.50
   4   3   1   87.69    4.90
  -4  -3   1  102.29    4.50
  -4  -3   1  102.19    6.30
  -4   3  -1  102.29    5.20
  -4   4   1    4.90    1.80
   4  -4   1    4.00    2.60
   4  -4   1    5.50    2.50
  -4  -4  -1    7.40    2.40
  -4  -4   1    6.80    2.90
  -4   4  -1    6.40    1.80
  -4  -4   1    6.90    2.60
   4  -4  -1    9.20    2.80
   4   4   1    7.00    1.60
   4  -5   1   12.10    3.30
  -4   5   1    5.20    2.20
  -4  -5  -1   16.30    3.50
  -4  -5   1   13.00    3.30
  -4  -5   1    8.60    3.40
   4  -5  -1   12.60    3.60
  -4   0   2  821.32   31.70
   4   0  -2  787.22   31.90
   4   0  -2  792.02   32.00
  -4   0   2  816.22   32.10
   4   0  -2  831.42   32.10
  -4   0  -2  819.92   31.90
  -4   0  -2  809.32   32.00
   4   0  -2  847.02   31.70
  -4   0  -2  802.72   31.80
   4   0   2  824.22   31.70
  -4   0  -2  789.92   31.70
   4  -1   2  191.48    7.90
   4   1  -2  181.08    8.70
  -4   1   2  193.78    8.10
   4  -1   2  190.38    7.80
  -4  -1  -2  202.18    8.00
   4   1  -2  186.98    7.60
   4   1  -2  190.48    8.20
   4  -1   2  192.48    8.20
  -4   1  -2  196.38    8.00
  -4  -1   2  186.58    7.60
   4  -1  -2  185.28    8.50
   4  -1  -2  183.58    8.20
  -4  -1   2  185.68    8.50
  -4   1  -2  198.68    8.20
  -4   1  -2  200.08    7.80
   4  -1  -2  185.88    8.30
   4   1   2  195.18    8.00
  -4  -1   2  182.68    8.30
   4  -2   2  142.89    6.70
   4   2  -2  171.48    6.30
   4  -2   2  139.69    7.30
  -4   2   2  165.18    7.20
   4  -2   2  159.08    7.00
  -4  -2   2  169.88    7.70
   4   2   2  145.09    6.90
  -4  -2   2  167.08    7.50
  -4   2  -2  157.18    6.80
   4  -3   2   56.99    4.30
   4   3  -2   57.19    2.80
  -4  -3  -2   61.69    4.40
  -4   3   2   60.99    3.90
   4  -3   2   56.09    3.10
   4  -3   2   62.59    3.90
  -4  -3   2   57.99    4.40
   4   3   2   61.09    3.60
  -4  -3   2   57.79    4.50
   4  -4   2    2.00    2.20
  -4   4   2    4.20    1.90
   4  -4   2   -0.60    1.70
  -4  -4  -2    1.90    2.20
  -4  -4   2    2.90    2.30
   4   4   2    4.30    1.60
  -4  -4   2    0.30    2.20
  -4   4  -2    3.30    1.60
   4  -4  -2    0.40    2.60
   4  -5   2   40.60    5.10
  -4  -5  -2   46.60    4.80
  -4   5   2   35.60    4.00
   4  -5  -2   41.60    5.40
  -4  -5   2   35.80    4.70
  -4  -5   2   39.90    5.10
  -4   0  -3   -1.60    0.90
   4   0   3   -1.30    0.80
   4   0  -3   -0.40    0.80
  -4   0  -3    0.60    0.90
   4   0  -3   -0.30    0.60
   4   0   3   -0.70    0.90
  -4   0   3   -0.60    0.70
  -4   0   3   -0.10    1.30
  -4   0  -3   -0.20    0.80
   4   1  -3  774.02   30.40
   4   1  -3  765.62   30.20
   4  -1   3  781.42   31.00
   4  -1   3  787.02   30.70
   4  -1   3  788.02   30.70
  -4   1   3  831.52   30.90
  -4  -1   3  759.32   31.30
  -4  -1   3  747.53   31.10
   4   1   3  768.72   30.80
  -4   1  -3  791.22   30.70
  -4   1  -3  771.32   30.70
   4   2  -3   11.50    0.70
  -4   2   3   14.20    1.80
   4  -2   3   15.50    2.20
   4  -2   3   16.10    1.70
   4  -2   3   14.90    1.30
   4   2  -3   13.60    0.70
  -4   2  -3   15.20    1.50
  -4  -2   3   11.00    2.00
   4   2   3   14.00    1.70
  -4  -2   3   12.10    2.10
   4  -3   3   18.60    2.30
   4   3  -3   18.10    1.20
   4  -3   3   17.70    2.90
  -4   3   3   18.70    2.40
  -4  -3   3   17.50    2.90
   4   3   3   19.20    2.30
  -4  -3   3   17.90    2.90
  -4  -4  -3   36.60    4.20
   4  -4   3   31.30    3.30
  -4   4   3   41.40    3.70
   4  -4   3   34.60    4.30
  -4  -4   3   34.10    4.30
  -4  -4   3   39.00    4.20
   4   4   3   33.20    3.20
  -4   4  -3   29.30    2.90
   4   0   4  999.30   40.20
  -4   0  -4 1019.30   40.40
   4   0  -4 1045.10   40.20
  -4   0  -4 1011.70   40.20
  -4   0   4 1025.00   40.00
   4   0   4 1058.19   40.30
  -4   0   4  982.00   40.70
   4  -1   4   60.29    3.40
  -4  -1  -4   55.59    3.70
  -4   1   4   63.09    3.40
   4   1  -4   57.19    2.90
   4   1  -4   57.79    2.70
   4  -1   4   61.89    3.70
  -4   1  -4   62.09    3.30
  -4  -1   4   57.59    3.80
  -4   1  -4   62.39    3.30
  -4  -1   4   60.59    2.80
  -4  -1   4   60.59    3.90
   4   1   4   59.79    3.40
   4   2  -4   41.10    1.80
   4  -2   4   39.60    2.80
  -4   2   4   40.80    3.10
   4  -2   4   44.00    3.40
  -4  -2   4   38.20    3.50
   4   2   4   39.70    2.90
  -4  -2   4   37.20    3.40
  -4   2  -4   39.80    2.40
   4  -3   4  107.39    5.80
  -4   3   4  117.49    6.20
   4  -3   4  109.49    6.50
  -4  -3   4  106.39    6.70
   4   3   4  105.29    5.80
  -4  -3   4  115.59    6.60
  -4  -4  -4   43.30    4.70
   4  -4   4   49.40    3.80
   4  -4   4   45.80    4.60
  -4   4   4   53.09    4.50
  -4  -4   4   45.60    4.50
   4   4   4   42.50    4.00
  -4  -4   4   46.60    5.20
   4   0   5   -1.10    1.00
  -4   0   5   -1.30    1.50
  -4   0  -5   -0.90    1.10
  -4   0   5    0.50    0.90
   4   0   5    1.60    1.30
   4  -1   5   59.59    3.80
   4  -1   5   58.89    3.60
  -4   1   5   50.39    3.30
   4   1  -5   52.19    2.90
   4   1  -5   53.19    2.70
  -4  -1   5   53.19    3.90
   4   1   5   57.89    3.50
  -4   1  -5   58.39    3.30
  -4  -1   5   53.99    4.00
  -4  -1   5   53.49    2.80
   4  -2   5  350.56   15.80
   4  -2   5  375.86   15.40
  -4   2   5  369.86   15.50
  -4  -2   5  362.56   16.10
  -4  -2   5  333.47   15.90
   4   2   5  372.76   15.40
  -4   2  -5  365.96   14.80
   4  -3   5    1.70    2.20
   4  -3   5    3.50    1.60
  -4   3   5    3.20    1.80
  -4  -3   5    1.00    2.30
  -4  -3   5    3.20    2.00
   4   3   5    5.10    1.80
  -4  -4  -5   14.00    3.60
   4  -4   5   24.70    4.00
  -4   4   5   18.70    3.00
   4   4   5   14.60    2.80
  -4  -4   5   21.10    3.90
  -4  -4   5   19.40    3.50
  -4   0   6  179.68    8.00
   4   0   6  190.08    8.50
   4   0   6  175.58    8.20
  -4   0   6  169.68    9.00
  -4   0  -6  184.38    8.50
   4  -1   6  137.49    7.10
   4  -1   6  143.19    6.90
  -4   1   6  138.09    6.70
  -4  -1   6  136.09    7.50
  -4  -1   6  139.29    6.10
   4   1   6  137.79    6.80
  -4   1  -6  136.09    6.60
  -4  -1   6  136.39    7.40
   4  -2   6    2.00    1.90
   4  -2   6    1.80    1.50
  -4   2   6    1.80    1.60
   4   2   6    0.10    1.50
  -4  -2   6    2.30    2.20
  -4  -2   6    3.30    2.00
  -4   2  -6    0.60    1.20
   4  -3   6   62.19    5.10
   4  -3   6   65.09    4.40
  -4   3   6   55.19    4.60
  -4  -3   6   61.19    5.20
   4   3   6   63.79    4.50
  -4  -3   6   64.49    5.30
  -4   4   6   33.40    4.00
   4  -4   6   43.10    5.00
  -4  -4   6   32.50    4.40
   4   4   6   36.30    4.00
  -4  -4   6   36.20    4.90
  -4   0  -7    0.90    1.70
  -4   0   7    2.70    2.10
   4   0   7    2.20    1.60
  -4   0   7    0.30    1.20
   4  -1   7  105.59    6.00
  -4   1   7  106.49    5.70
   4  -1   7  108.59    6.20
   4   1   7   99.69    5.80
  -4  -1   7  119.89    6.80
  -4  -1   7  115.39    6.90
  -4   1  -7  106.19    5.60
  -4   2   7    9.40    2.10
   4  -2   7   12.70    2.80
   4  -2   7   12.30    2.40
  -4  -2   7   10.70    2.80
  -4   2  -7    8.90    2.60
  -4  -2   7    9.90    2.70
   4   2   7   10.20    2.20
   4  -3   7   53.09    4.20
   4  -3   7   54.69    4.90
  -4   3   7   44.10    4.20
  -4  -3   7   46.50    5.00
   4   3   7   50.49    4.20
  -4  -3   7   46.60    4.80
  -4   0   8   44.80    3.40
  -4   0  -8   40.70    3.70
  -4   0   8   47.10    4.60
   4   0   8   46.40    3.60
   4  -1   8   58.39    4.50
   4  -1   8   61.69    4.70
  -4   1   8   68.19    4.40
  -4   1  -8   55.19    4.00
  -4  -1   8   52.09    4.90
  -4  -1   8   52.19    5.10
   4   1   8   56.99    4.20
  -4   2   8    4.70    2.00
   4  -2   8    5.90    2.50
   4  -2   8    9.50    2.30
  -4  -2   8    8.70    2.90
   4   2   8    9.50    2.30
  -4  -2   8    6.40    2.60
  -4   3   8    8.80    2.50
   4  -3   8    9.30    3.20
  -4  -3   8    6.10    3.00
  -4  -3   8    8.00    3.10
   4   3   8    7.90    2.50
  -4   0   9   -1.40    1.50
  -4   0   9   -3.20    2.30
  -4   0  -9   -0.70    1.70
  -4   1   9    3.50    1.90
   4  -1   9   -1.10    2.20
  -4  -1   9    4.10    2.70
   4   1   9    2.20    1.90
  -4  -1   9    3.70    2.80
  -4   1  -9    0.70    1.80
   4  -2   9   30.80    4.30
  -4   2   9   31.40    3.60
   4  -2   9   32.20    3.90
  -4  -2   9   25.20    4.40
   4   2   9   33.80    3.80
  -4  -2   9   27.30    4.50
  -4   0 -10   26.10    3.50
  -4   0  10   21.60    2.80
  -4   0  10   27.20    4.40
  -4   1  10    2.90    2.10
  -4  -1 -10    2.70    2.20
  -4  -1  10    3.60    2.80
   4   1  10    1.50    2.10
  -4   2  10    8.80    2.50
   4  -2  10   10.40    3.40
  -4  -2  10    3.30    2.90
  -4  -2  10   11.50    3.80
   4   2  10    8.90    2.60
  -5   0   0    0.20    0.70
   5   0   0    1.20    0.70
  -5   0   0    0.20    0.60
   5   0   0    0.00    0.70
   5   1   0   96.29    4.00
   5   1   0   96.89    4.20
   5   1   0   93.79    4.20
   5  -1   0   95.19    4.10
   5  -1   0   94.79    4.40
  -5  -1   0   96.29    4.30
  -5  -1   0   96.19    4.00
  -5   1   0   97.29    4.50
  -5  -1   0   98.79    4.30
  -5  -2   0   36.10    2.30
  -5  -2   0   37.80    2.00
  -5  -2   0   38.10    2.70
   5   2   0   38.00    2.10
   5  -3   0    1.70    2.00
  -5  -3   0    2.00    2.00
   5   3   0    0.50    1.00
  -5  -3   0    1.40    1.00
  -5   3   0    0.90    1.50
  -5  -4   0    6.10    2.40
  -5  -4   0    8.00    3.30
  -5   4   0    5.70    1.80
   5   4   0    5.40    1.40
   5  -4   0    7.80    2.70
  -5  -5   0    8.10    2.70
  -5   5   0    8.10    2.10
   5  -5   0    9.20    3.30
  -5  -5   0   -3.00    3.30
  -5   0  -1  201.98    8.60
   5   0  -1  203.58    8.50
   5   0  -1  204.88    8.50
   5   0  -1  204.18    8.50
   5   0   1  214.78    8.60
  -5   0   1  204.68    8.50
  -5   0   1  210.78    8.60
  -5  -1  -1   40.40    2.50
  -5   1   1   47.70    2.50
  -5   1   1   44.50    2.70
  -5  -1  -1   44.90    2.20
   5   1  -1   42.80    2.10
   5  -1   1   48.50    2.70
   5   1  -1   43.00    2.40
  -5  -1  -1   43.50    2.30
   5  -1   1   38.30    1.90
  -5   1  -1   44.30    2.50
  -5  -1   1   45.30    2.50
  -5  -1   1   43.20    1.80
   5   1   1   43.00    2.30
   5  -1  -1   44.50    2.40
  -5  -1   1   46.40    2.90
  -5  -1   1   43.30    2.20
   5  -2   1   13.80    1.50
  -5  -2  -1   14.70    1.80
   5  -2   1   16.50    2.20
  -5   2   1   16.30    1.80
   5   2  -1   17.20    1.10
  -5  -2   1   18.30    2.40
  -5  -2   1   18.50    2.10
   5   2   1   15.90    1.50
  -5  -2   1   16.80    1.30
  -5   2  -1   15.20    1.70
   5   3  -1    1.30    0.80
   5  -3   1    2.20    1.80
  -5   3   1    0.40    1.50
  -5  -3  -1    1.80    1.70
  -5  -3   1    1.50    0.80
  -5  -3   1    3.60    2.30
   5   3   1    3.00    1.20
  -5   3  -1   -1.50    1.30
  -5  -3   1    1.60    1.80
   5  -4   1    1.90    2.20
  -5   4   1    8.30    2.00
  -5  -4  -1    7.10    1.60
  -5  -4  -1    7.50    2.50
   5  -4   1    5.10    2.50
  -5   4  -1    7.00    1.80
   5   4   1    7.20    1.60
   5  -4  -1    4.40    2.70
  -5  -4   1    4.40    2.90
  -5  -4   1    4.70    2.50
  -5   5   1    6.20    2.20
  -5  -5  -1    7.30    2.60
  -5  -5  -1   -8.30    3.30
   5  -5   1   12.20    3.60
  -5  -5   1    4.30    3.10
   5  -5  -1    5.80    3.00
  -5  -5   1    8.10    3.00
  -5   0   2   -0.20    0.60
  -5   0  -2    1.10    0.90
  -5   0  -2   -0.50    0.70
   5   0   2   -0.70    0.50
   5   0  -2    0.30    0.90
  -5   0  -2    0.60    0.50
   5   0  -2    0.70    0.80
   5   0   2    0.80    0.70
  -5   0   2    0.10    1.00
   5   0  -2   -0.10    0.90
  -5   0   2   -0.20    0.80
  -5  -1  -2   66.49    3.70
   5  -1   2   67.39    3.10
  -5   1   2   70.99    3.60
   5   1  -2   72.89    3.20
   5   1  -2   73.99    3.70
  -5  -1  -2   69.39    3.50
   5  -1   2   70.99    3.40
   5  -1   2   64.39    3.70
  -5  -1   2   76.89    3.20
  -5  -1   2   74.09    4.10
  -5  -1   2   69.19    3.80
  -5   1  -2   72.09    3.60
   5  -1  -2   74.79    3.70
   5   1   2   67.99    3.50
  -5   1  -2   67.59    3.10
   5  -2   2   16.30    1.60
   5  -2   2   12.70    1.40
  -5   2   2   23.40    2.00
   5  -2   2   15.30    2.10
   5   2   2   14.30    1.60
  -5  -2   2   18.10    2.30
  -5  -2   2   16.60    2.30
  -5   2  -2   19.20    1.70
   5  -3   2    2.30    1.90
  -5  -3  -2    2.10    1.90
  -5   3   2    1.10    1.50
   5   3  -2    3.60    0.70
   5  -3   2    1.80    1.40
   5   3   2    2.90    1.30
  -5  -3   2    2.20    2.00
  -5  -3   2    5.00    2.10
  -5  -4  -2    5.10    2.50
   5  -4   2    3.30    2.40
   5  -4   2    0.90    1.70
  -5   4   2    3.20    1.80
  -5  -4   2    5.90    2.60
  -5   4  -2    3.10    1.50
  -5  -4   2    3.60    2.60
   5   4   2    3.10    1.50
   5  -4  -2    1.20    2.60
  -5  -5  -2    9.00    3.10
   5  -5   2    8.30    3.00
  -5   5   2    7.00    2.50
  -5  -5   2   11.20    3.30
  -5  -5   2   12.60    3.30
   5  -5  -2   10.70    3.90
  -5   0   3   52.39    2.60
   5   0  -3   45.60    2.80
   5   0  -3   47.40    2.40
  -5   0  -3   47.90    2.50
  -5   0  -3   47.40    2.80
  -5   0   3   51.99    3.40
   5   0   3   53.39    2.60
  -5   0  -3   47.30    3.00
   5  -1   3   54.89    3.10
   5   1  -3   60.99    2.80
  -5   1   3   62.69    3.30
   5  -1   3   52.29    3.30
   5   1  -3   62.09    2.50
   5  -1   3   55.99    2.90
  -5   1  -3   55.09    3.20
  -5  -1   3   61.39    3.60
  -5  -1   3   62.89    2.50
   5   1   3   54.59    3.20
  -5  -1   3   63.39    3.80
  -5   1  -3   57.09    2.90
   5  -2   3   18.60    2.40
  -5   2   3   26.70    2.40
   5  -2   3   22.70    1.70
   5  -2   3   21.30    1.90
  -5  -2   3   23.40    2.70
  -5  -2   3   24.30    2.80
   5   2   3   24.50    2.10
  -5  -3  -3    4.40    2.10
   5  -3   3    3.30    1.40
  -5   3   3    3.30    1.70
   5  -3   3    1.70    1.90
   5   3   3    4.00    1.60
  -5  -3   3    4.70    2.10
  -5  -3   3   -1.80    1.80
   5  -4   3   35.60    3.20
  -5   4   3   34.60    3.60
   5  -4   3   35.50    4.30
  -5  -4  -3   33.30    4.00
  -5  -4   3   33.80    4.30
   5   4   3   29.10    3.10
  -5  -4   3   34.70    4.50
  -5   4  -3   30.90    3.00
   5   0   4    1.30    1.10
  -5   0  -4    0.90    0.80
  -5   0   4   -1.30    1.30
  -5   0  -4   -0.10    1.10
   5   0  -4   -0.20    0.70
   5   0   4   -1.00    0.90
  -5   0   4   -1.60    0.80
   5   1  -4   42.80    2.20
   5  -1   4   46.20    3.00
  -5   1   4   42.60    2.80
   5   1  -4   42.20    2.40
  -5  -1  -4   46.90    2.80
  -5   1   4   43.10    3.50
   5  -1   4   52.89    2.80
   5   1   4   47.20    3.00
  -5  -1   4   41.00    3.30
  -5  -1   4   42.90    3.30
  -5   1  -4   48.00    2.70
  -5  -1   4   44.80    2.20
   5  -2   4    7.90    1.50
   5  -2   4   12.90    2.20
  -5   2   4    9.40    1.80
   5   2   4    7.80    1.60
  -5  -2   4    8.30    2.20
  -5   2  -4   11.30    1.50
  -5  -2   4   10.60    2.20
   5  -3   4   26.80    2.50
   5  -3   4   23.20    3.30
  -5   3   4   21.80    2.90
  -5  -3   4   24.90    3.40
   5   3   4   24.30    2.60
  -5  -3   4   20.30    3.20
  -5  -4  -4   50.09    5.10
   5  -4   4   55.99    5.00
  -5   4   4   49.50    4.30
  -5   4  -4   40.30    3.70
   5   4   4   48.30    4.00
  -5  -4   4   47.30    4.80
  -5  -4   4   44.00    4.90
  -5   0  -5   58.79    3.70
  -5   0   5   56.79    4.20
   5   0   5   59.19    3.40
  -5   0   5   58.19    3.20
   5  -1   5   23.60    2.30
  -5   1   5   18.40    2.00
   5   1  -5   18.30    1.70
   5   1  -5   19.00    1.50
  -5   1   5   21.30    2.90
   5  -1   5   24.60    2.60
  -5  -1   5   18.80    1.50
  -5  -1   5   15.90    2.50
   5   1   5   22.80    2.30
  -5   1  -5   22.20    2.00
  -5  -1   5   13.80    2.40
  -5   2   5   47.70    3.50
   5  -2   5   44.20    3.20
   5  -2   5   42.20    3.60
   5   2   5   48.20    3.60
  -5   2  -5   40.10    2.90
  -5  -2   5   55.19    4.20
  -5  -2   5   51.79    4.10
  -5   3   5   65.19    4.90
   5  -3   5   70.49    4.40
   5  -3   5   75.39    5.20
  -5  -3   5   69.49    5.20
  -5  -3   5   67.89    5.40
   5   3   5   69.39    4.60
  -5  -4  -5   -0.30    2.90
  -5   4   5    1.70    2.00
   5  -4   5    4.00    2.90
  -5  -4   5    1.60    2.30
  -5  -4   5   -0.60    2.40
   5   4   5    0.50    1.80
   5   0   6    0.20    1.30
  -5   0  -6   -0.60    1.40
  -5   0   6   -0.60    1.00
   5   0   6    1.50    1.30
  -5   0   6   -0.20    1.80
   5  -1   6   76.19    4.60
  -5   1   6   76.79    4.30
   5  -1   6   73.79    4.50
  -5  -1   6   74.89    3.70
  -5  -1   6   76.89    5.20
  -5  -1   6   71.19    5.00
  -5   1  -6   75.09    4.30
   5   1   6   69.89    4.40
  -5   2   6   26.80    3.00
   5  -2   6   32.90    3.00
   5  -2   6   30.50    3.50
  -5  -2   6   22.70    3.50
  -5  -2   6   27.00    3.60
   5   2   6   29.70    3.00
  -5   2  -6   27.30    2.50
   5  -3   6   15.90    3.20
   5  -3   6   20.90    2.70
  -5   3   6   13.40    2.60
   5   3   6   11.70    2.40
  -5  -3   6   13.90    3.30
  -5  -3   6   12.80    2.90
  -5   4   6    7.70    2.60
   5  -4   6    9.00    3.00
  -5  -4   6   13.50    3.10
   5   4   6    3.10    2.00
  -5  -4   6   11.10    3.40
  -5   0  -7  264.77   11.90
  -5   0   7  256.07   11.20
  -5   0   7  254.27   12.50
   5  -1   7   47.90    3.80
   5  -1   7   45.60    3.80
  -5   1   7   48.80    3.40
   5   1   7   48.30    3.70
  -5  -1   7   41.80    2.80
  -5   1  -7   44.90    3.30
  -5  -1   7   45.30    4.30
  -5  -1   7   40.50    4.20
   5  -2   7   19.90    2.70
  -5   2   7   19.70    2.80
   5  -2   7   25.10    3.50
   5   2   7   18.20    2.70
  -5  -2   7   23.00    3.60
  -5   2  -7   18.10    2.30
  -5  -2   7   21.40    3.40
   5  -3   7   11.60    2.90
  -5   3   7   11.00    2.50
   5   3   7    9.80    2.40
  -5  -3   7   13.10    3.20
  -5  -3   7   11.20    3.00
  -5   0   8    0.20    1.40
  -5   0  -8    0.80    1.80
  -5   0   8   -0.30    2.30
  -5   1   8   62.09    4.30
   5  -1   8   61.99    4.90
  -5  -1  -8   64.59    4.90
  -5  -1   8   58.59    5.10
   5   1   8   56.99    4.30
  -5  -1   8   65.99    5.40
  -5   1  -8   54.69    4.10
   5  -2   8   51.99    4.40
   5  -2   8   56.69    4.80
  -5   2   8   54.59    4.20
   5   2   8   54.19    4.60
  -5  -2   8   50.79    5.10
  -5  -2   8   52.79    5.10
   5  -3   8    2.90    2.50
  -5   3   8    0.70    2.00
  -5  -3   8    1.90    2.40
  -5  -3   8    2.90    3.00
   5   3   8   -0.90    1.90
  -5   0   9   35.60    3.30
  -5   0  -9   32.60    3.70
  -5   0   9   35.20    4.70
  -5   1   9   24.40    2.90
   5  -1   9   24.80    3.70
  -5  -1  -9   24.00    3.50
  -5  -1   9   28.10    4.30
  -5   1  -9   23.60    3.00
   5   1   9   18.10    2.90
  -5   2   9   25.80    3.40
   5  -2   9   29.10    3.80
   5  -2   9   29.00    4.20
   5   2   9   28.60    3.60
  -5  -2   9   25.60    4.50
  -5  -2   9   32.30    4.80
  -5   0 -10    5.20    2.20
  -5   0  10    1.00    1.70
  -5   0  10   -1.20    2.70
  -5   1  10    6.50    2.10
  -5  -1 -10    4.50    2.70
  -5  -1  10    3.80    2.90
   5   1  10    4.70    2.30
  -6   0   0   85.59    4.00
  -6   0   0   83.89    3.80
   6   0   0   83.19    3.80
   6   0   0   83.69    3.90
   6  -1   0   24.00    2.00
   6  -1   0   26.00    1.50
   6   1   0   27.00    1.70
   6   1   0   24.70    1.70
  -6  -1   0   25.70    1.70
  -6  -1   0   26.80    1.90
  -6   1   0   26.40    2.10
  -6  -1   0   25.60    1.50
  -6   2   0    7.20    1.50
  -6  -2   0    9.50    0.90
  -6  -2   0    6.50    1.10
   6   2   0    9.20    1.00
  -6  -2   0    7.80    1.60
  -6   3   0   77.09    4.40
  -6  -3   0   81.69    4.80
   6  -3   0   76.09    5.10
  -6  -3   0   75.69    4.00
   6   3   0   80.99    3.90
  -6  -4   0   25.90    3.50
  -6  -4   0   22.80    4.20
  -6   4   0   21.70    2.70
   6  -4   0   26.20    3.90
  -6  -5   0   14.10    3.30
  -6   5   0    6.30    2.10
  -6  -5   0    2.90    4.20
   6  -5   0    8.90    3.30
   6   0  -1    0.50    0.70
   6   0  -1   -0.70    0.60
   6   0   1    0.10    0.20
   6   0  -1    0.20    0.80
  -6   0   1   -0.10    0.80
  -6   0  -1    0.30    0.70
  -6   0   1   -0.20    0.80
   6   0   1    0.60    0.80
  -6  -1  -1   96.09    4.60
   6  -1   1  102.29    4.60
  -6  -1  -1   93.69    4.20
  -6  -1  -1  101.39    4.40
   6   1  -1   97.09    4.30
  -6   1   1   92.39    4.80
   6   1  -1   99.79    4.50
   6  -1   1   99.79    4.60
   6  -1  -1   93.69    4.90
   6  -1  -1   99.79    4.50
  -6  -1   1  102.49    5.00
  -6  -1   1   96.49    4.60
  -6   1  -1  101.29    4.70
  -6  -1   1   98.89    4.00
   6   1   1  100.49    4.40
  -6  -1   1  101.59    4.40
   6  -2   1   75.49    4.00
  -6  -2  -1   70.49    3.60
   6   2  -1   58.29    2.80
  -6  -2  -1   66.79    3.50
  -6   2   1   62.89    3.60
   6   2   1   68.69    3.30
  -6  -2   1   54.99    3.60
  -6   2  -1   72.59    3.60
  -6  -2   1   57.79    3.00
  -6  -2   1   60.99    4.20
   6   3  -1    4.00    0.90
  -6  -3  -1    3.90    1.90
  -6  -3  -1    5.30    1.40
  -6   3   1    2.00    1.50
   6  -3   1    0.40    1.80
  -6  -3   1    3.00    0.90
   6   3   1    3.00    1.20
  -6  -3   1    1.40    1.90
  -6  -3   1    2.20    2.30
  -6   3  -1    1.70    1.40
  -6  -4  -1   31.30    3.90
   6  -4   1   22.60    3.60
   6  -4   1   24.60    3.20
  -6  -4  -1   29.90    2.70
  -6   4   1   22.50    2.90
  -6   4  -1   23.90    2.70
   6  -4  -1   16.70    3.70
  -6  -4   1   24.50    4.00
  -6  -4   1   29.00    3.80
   6   4   1   22.80    2.40
  -6  -5  -1   14.30    3.10
  -6  -5  -1   -4.50    3.60
  -6   5   1    7.90    2.30
   6  -5   1    8.30    3.20
  -6   5  -1    5.30    2.30
  -6  -5   1   12.30    3.40
   6  -5  -1    8.00    3.30
  -6  -5   1   10.30    3.60
  -6   0   2  639.54   25.70
  -6   0   2  644.84   25.50
  -6   0  -2  628.94   25.60
   6   0  -2  624.74   25.60
   6   0   2  628.54   25.50
  -6   0   2  655.83   25.20
   6   0  -2  621.14   25.40
   6   0  -2  656.73   25.60
   6   0   2  650.83   25.10
  -6   0  -2  662.23   25.10
  -6   0  -2  650.63   25.40
   6  -1   2  214.58    8.30
  -6  -1  -2  214.58    9.10
  -6   1   2  215.28    9.20
   6  -1   2  208.88    8.80
   6   1  -2  204.68    8.50
  -6   1   2  207.98    8.90
   6   1  -2  195.08    9.30
   6  -1   2  209.38    8.90
  -6  -1   2  204.88    8.50
  -6   1  -2  224.68    8.90
   6   1   2  219.08    8.80
  -6  -1   2  202.78    9.00
  -6  -1   2  197.48    9.30
   6  -1  -2  204.08    9.00
   6  -2   2   36.40    3.00
   6  -2   2   33.80    2.10
  -6   2   2   34.30    2.60
  -6  -2  -2   39.30    2.60
  -6  -2   2   33.80    3.10
  -6   2  -2   36.40    2.50
  -6  -2   2   35.30    1.70
  -6  -2   2   37.60    2.90
   6   2   2   38.40    2.40
  -6  -3  -2   14.70    2.50
  -6   3   2   10.00    2.00
   6  -3   2   15.80    2.00
   6   3  -2   11.10    0.90
   6  -3   2   13.70    2.60
  -6  -3   2    9.80    2.40
   6   3   2   14.30    1.80
  -6  -3   2    9.30    2.50
  -6   4   2    0.90    1.80
   6  -4   2    2.40    1.60
  -6  -4  -2    3.90    2.30
  -6  -4  -2    2.90    1.50
   6  -4   2    1.70    2.20
   6   4   2    1.00    1.30
  -6   4  -2   -1.40    1.40
  -6  -4   2    1.40    2.40
   6  -4  -2   -2.80    2.50
  -6  -4   2    2.10    2.20
  -6  -5  -2   37.70    4.50
   6  -5   2   36.90    4.90
  -6   5   2   24.30    3.40
  -6  -5   2   30.80    4.50
   6  -5  -2   25.20    4.70
  -6  -5   2   31.30    4.80
  -6   0  -3    0.00    0.70
  -6   0  -3   -0.30    1.10
   6   0  -3    0.90    0.80
   6   0  -3   -0.30    1.00
   6   0   3   -0.10    0.70
  -6   0   3    1.80    1.40
  -6   0   3   -0.60    0.70
  -6   0  -3   -0.10    0.90
  -6  -1  -3  291.97   12.20
   6  -1   3  280.97   11.50
   6   1  -3  278.47   11.50
  -6   1   3  282.57   11.90
  -6   1   3  284.47   12.30
   6  -1   3  279.17   11.90
  -6  -1   3  277.77   11.10
  -6  -1   3  285.97   12.50
  -6  -1   3  278.37   12.20
  -6   1  -3  294.57   11.50
  -6   1  -3  293.67   11.90
   6   1   3  287.47   11.90
  -6   2   3   56.69    3.70
   6  -2   3   64.49    3.20
   6  -2   3   63.69    4.00
   6   2   3   64.49    3.60
  -6  -2   3   61.59    4.10
  -6   2  -3   63.19    3.50
  -6  -2   3   56.79    4.20
  -6  -3  -3    3.30    2.00
   6  -3   3    2.20    1.90
   6  -3   3    1.40    1.10
  -6   3   3    1.00    1.50
  -6   3  -3    3.40    1.20
  -6  -3   3   -1.20    1.70
   6   3   3    0.90    1.40
  -6  -3   3    0.90    1.90
  -6  -4  -3   31.50    3.90
  -6  -4  -3   36.10    3.50
   6  -4   3   28.30    4.00
  -6   4   3   23.30    3.10
   6   4   3   21.70    2.80
  -6   4  -3   30.80    3.00
  -6  -4   3   21.30    3.60
  -6  -4   3   24.80    4.00
  -6   0   4  241.98   10.90
  -6   0  -4  248.78   10.60
  -6   0  -4  217.98   10.10
  -6   0   4  248.48   10.10
   6   0   4  259.77   10.30
  -6  -1  -4    8.20    1.30
  -6  -1  -4    6.70    1.70
   6   1  -4    7.70    0.80
   6  -1   4    7.50    1.20
  -6   1   4    9.00    2.00
  -6   1   4    9.30    1.50
   6   1  -4    5.90    1.00
   6  -1   4    6.20    1.40
  -6  -1   4    7.90    1.90
  -6   1  -4    5.60    1.30
  -6  -1   4    6.10    1.80
   6   1   4    6.90    1.40
  -6  -1   4    8.80    0.80
  -6   1  -4    9.40    1.20
   6  -2   4   94.09    4.70
   6  -2   4   95.69    5.50
  -6   2   4  101.79    5.20
  -6  -2   4   96.89    5.80
  -6  -2   4   98.09    5.70
  -6   2  -4   95.29    4.80
   6   2   4  102.69    5.10
   6  -3   4  100.99    5.20
   6  -3   4  101.89    6.10
  -6   3   4   92.09    5.60
  -6  -3   4   91.99    6.20
  -6   3  -4  104.49    4.80
  -6  -3   4   90.19    6.20
   6   3   4  102.89    5.60
  -6   4   4   55.49    4.50
   6  -4   4   56.29    5.00
  -6  -4  -4   46.80    4.90
  -6  -4   4   60.29    5.20
   6   4   4   47.80    4.10
  -6  -4   4   57.29    5.10
  -6   4  -4   42.40    3.90
   6   0   5   -0.70    1.10
  -6   0  -5    0.50    1.30
  -6   0   5    0.40    0.90
  -6   0   5   -1.10    1.20
  -6  -1  -5  120.49    6.40
  -6   1   5  121.19    5.90
   6   1  -5  125.39    5.30
   6  -1   5  126.69    6.00
  -6   1   5  121.39    6.80
   6   1  -5  120.09    5.80
   6  -1   5  112.79    6.10
  -6  -1   5  123.09    6.60
  -6  -1   5  129.79    6.80
   6   1   5  125.59    6.10
  -6   1  -5  122.99    5.90
  -6  -1   5  123.89    5.30
  -6   2   5   39.50    3.40
   6  -2   5   50.19    3.70
   6  -2   5   48.10    3.10
  -6   2  -5   48.60    3.00
  -6  -2   5   36.00    3.80
  -6  -2   5   45.20    4.00
   6   2   5   40.70    3.30
   6  -3   5   48.50    4.40
  -6   3   5   43.20    3.90
   6  -3   5   47.70    3.40
  -6  -3   5   53.99    4.70
   6   3   5   47.20    3.80
  -6  -3   5   54.99    4.70
  -6   4   5   10.70    2.70
   6  -4   5   15.50    3.40
  -6  -4  -5   10.00    3.40
  -6  -4   5   11.40    3.40
   6   4   5   14.20    2.50
  -6  -4   5    9.80    3.00
  -6   0   6  242.38   11.70
  -6   0  -6  240.98   11.00
  -6   0   6  242.18   10.40
   6  -1   6  112.39    5.80
  -6   1   6  102.09    6.60
  -6   1   6  101.79    5.50
  -6  -1  -6  101.09    6.10
   6  -1   6  109.89    5.90
  -6   1  -6  115.79    5.70
  -6  -1   6  115.59    6.50
  -6  -1   6  108.99    4.90
  -6  -1   6  102.99    6.50
   6   1   6  109.69    5.80
   6  -2   6   45.40    4.10
  -6   2   6   49.60    3.80
   6  -2   6   44.10    3.40
  -6  -2   6   49.10    4.40
   6   2   6   45.80    3.60
  -6  -2   6   52.49    4.60
  -6   2  -6   44.90    3.20
  -6   3   6    1.70    1.90
   6  -3   6    2.90    2.10
  -6  -3   6    4.40    2.50
  -6  -3   6    3.50    2.50
   6   3   6    0.40    1.70
   6  -4   6    8.50    3.00
  -6   4   6   10.40    2.90
   6   4   6   10.50    2.70
  -6  -4   6   11.20    3.30
  -6  -4   6   11.90    3.10
  -6   0   7   -1.60    1.10
  -6   0   7    0.50    2.20
  -6   0  -7   -0.70    1.70
  -6  -1  -7   51.79    4.20
   6  -1   7   51.29    4.10
  -6   1   7   47.50    3.70
  -6  -1   7   46.40    2.90
  -6  -1   7   57.49    4.70
   6   1   7   48.40    3.80
  -6   1  -7   46.00    3.50
  -6  -1   7   43.20    4.40
   6  -2   7   23.50    2.70
  -6   2   7   21.20    2.80
   6  -2   7   19.60    3.10
  -6   2  -7   17.40    2.30
  -6  -2   7   20.20    3.50
   6   2   7   19.30    2.80
  -6  -2   7   17.10    3.40
   6  -3   7    6.40    2.60
  -6   3   7    8.20    2.50
  -6  -3   7    4.50    2.90
   6   3   7    8.20    2.50
  -6  -3   7   10.10    3.20
  -6   0  -8   16.30    2.70
  -6   0   8   15.20    2.10
  -6   0   8   13.50    3.20
  -6   1   8   15.30    2.40
  -6  -1  -8   13.00    2.80
   6  -1   8   19.00    3.20
   6   1   8   15.50    2.50
  -6   1  -8   10.40    2.20
  -6  -1   8   18.10    3.50
  -6  -1   8   19.60    3.50
   6  -2   8   72.59    5.00
  -6   2   8   78.69    5.10
   6  -2   8   66.89    5.60
   6   2   8   74.39    5.20
  -6  -2   8   74.29    6.10
  -6  -2   8   79.39    6.20
   6  -3   8   38.60    4.80
  -6   3   8   44.70    4.30
   6   3   8   48.20    4.60
  -6  -3   8   30.90    4.70
  -6  -3   8   31.60    4.70
  -6   0   9   -0.10    1.40
  -6   0   9   -1.60    2.40
  -6   0  -9    0.00    2.00
  -6  -1  -9   24.20    3.70
   6  -1   9   28.00    3.70
  -6   1   9   25.00    3.00
   6   1   9   21.40    3.00
  -6  -1   9   21.40    4.10
  -6   1  -9   25.60    3.20
  -6  -2  -9   30.40    4.00
  -6   2   9   23.40    3.20
   6  -2   9   29.10    4.10
   6   2   9   27.30    3.50
  -6  -2   9   26.60    4.40
  -6  -2   9   18.60    4.20
  -6   0 -10  101.79    6.60
  -6   0  10   88.09    7.30
  -6   1  10   23.70    3.10
  -6  -1 -10   26.30    4.00
   6   1  10   26.50    3.60
  -6  -1  10   24.10    4.40
  -7   0   0   -0.10    0.70
   7   0   0    0.40    0.80
  -7   0   0    1.60    1.00
  -7  -1   0  340.87   13.80
   7  -1   0  326.87   13.00
   7   1   0  322.47   13.10
  -7  -1   0  319.97   13.40
  -7  -1   0  323.47   13.00
   7   1   0  320.27   13.30
  -7  -1   0  332.67   13.20
  -7   1   0  340.87   13.60
  -7  -2   0  119.79    5.20
  -7   2   0  118.69    5.90
   7   2   0  128.19    5.30
  -7  -2   0  120.59    5.60
  -7  -2   0  124.89    5.80
   7   3   0  241.78   10.20
  -7   3   0  239.28   10.90
  -7  -3   0  243.98   11.10
   7  -3   0  246.78   11.60
  -7  -3   0  248.28   10.40
   7  -4   0    0.40    2.30
  -7  -4   0   -2.60    2.60
  -7  -4   0    7.10    2.50
  -7   4   0    1.90    1.70
  -7  -5   0   31.50    4.30
   7  -5   0   35.90    4.90
  -7  -5   0   26.30    5.00
  -7   5   0   25.40    3.40
   7   0  -1  246.98    9.00
  -7   0  -1  215.68    9.20
   7   0  -1  206.38    9.00
   7   0   1  213.68    8.50
   7   0   1  206.78    9.10
  -7   0   1  206.68    9.10
   7   0  -1  217.78    9.10
  -7   0   1  215.58    9.10
  -7   1   1  263.47   11.30
   7  -1   1  262.57   11.20
  -7  -1  -1  278.17   10.70
   7   1  -1  263.87   10.90
  -7  -1  -1  265.17   11.20
  -7  -1  -1  261.97   10.90
   7   1  -1  264.87   11.00
   7  -1   1  264.27   11.10
  -7  -1   1  263.67   11.50
   7   1   1  273.77   10.90
  -7   1  -1  271.17   11.30
  -7  -1   1  270.77   11.10
  -7  -1   1  271.37   10.60
  -7  -1   1  262.57   10.90
   7  -1  -1  276.67   11.00
  -7   2   1  364.36   16.30
  -7  -2  -1  388.46   16.30
  -7  -2  -1  392.26   16.30
   7  -2   1  394.46   16.70
  -7   2  -1  395.76   16.40
  -7  -2   1  430.06   16.60
  -7  -2   1  391.76   17.10
  -7  -2   1  409.66   15.90
   7   2   1  397.36   16.00
  -7  -2   1  405.26   15.60
   7  -2  -1  399.86   16.70
  -7  -3  -1   16.70    2.00
   7  -3   1   17.90    2.30
  -7  -3  -1   19.40    2.70
  -7   3   1   20.40    2.40
   7   3  -1   18.80    1.40
   7  -3   1   21.70    3.00
  -7  -3   1   17.10    3.10
  -7  -3   1   18.70    1.70
  -7  -3   1   21.50    2.80
   7   3   1   17.80    1.90
  -7  -4  -1   91.29    4.90
   7  -4   1   74.49    5.20
  -7  -4  -1   88.69    5.80
   7  -4   1   79.19    5.90
  -7   4   1   88.09    5.40
  -7  -4   1   92.09    6.70
   7   4   1   88.59    4.80
  -7   4  -1   88.99    5.30
  -7  -4   1   91.39    5.90
   7  -4  -1   85.39    6.30
  -7  -5  -1    0.90    4.10
   7  -5   1   12.40    3.50
  -7   5   1   13.50    2.60
  -7  -5  -1   18.10    3.40
  -7   5  -1   11.70    2.70
   7  -5  -1   13.80    3.70
  -7  -5   1    9.10    3.60
  -7  -5   1   13.90    3.20
  -7   0   2   -0.20    1.10
   7   0  -2    0.10    0.90
  -7   0   2    1.30    0.70
   7   0   2    0.20    0.50
  -7   0   2   -1.20    1.00
   7   0  -2   -0.60    1.00
   7   0  -2    0.90    1.00
  -7   0  -2    1.40    1.20
  -7   0  -2   -0.80    0.50
  -7   1   2  320.67   12.70
   7   1  -2  295.37   12.10
  -7   1   2  292.17   12.70
   7  -1   2  296.27   12.40
  -7   1   2  301.17   12.40
  -7  -1  -2  290.87   12.60
   7  -1  -2  292.57   12.50
  -7   1  -2  299.17   12.50
  -7  -1   2  305.77   12.90
  -7  -1   2  306.57   12.60
   7   1   2  303.27   12.30
  -7  -1   2  297.67   12.20
  -7  -2  -2   31.30    2.60
  -7   2   2   29.20    2.50
  -7  -2  -2   28.60    2.30
   7  -2   2   25.70    2.50
   7  -2   2   30.30    1.80
  -7  -2   2   29.20    2.70
   7   2   2   31.80    2.30
  -7  -2   2   27.70    1.60
  -7   2  -2   28.60    2.50
  -7  -2   2   30.40    2.80
   7  -3   2  131.49    6.40
  -7  -3  -2  135.69    7.00
   7  -3   2  131.79    7.40
  -7  -3  -2  138.79    6.90
  -7   3   2  143.89    7.00
  -7  -3   2  144.59    7.40
  -7  -3   2  147.49    7.90
   7   3   2  130.19    6.40
  -7  -4  -2    9.20    2.00
  -7  -4  -2   11.50    2.70
  -7   4   2    5.80    2.10
   7  -4   2    5.40    2.60
  -7   4  -2    4.40    1.90
   7   4   2    6.30    1.80
  -7  -4   2    5.30    2.90
  -7  -4   2    6.50    2.60
   7  -4  -2    6.00    3.20
  -7   0  -3  659.33   26.60
  -7   0   3  644.54   26.80
   7   0   3  672.83   26.10
  -7   0   3  666.13   26.20
  -7   0  -3  675.13   26.10
  -7   0  -3  662.73   26.40
  -7   1   3   14.20    1.60
   7   1  -3   14.00    1.40
  -7   1   3   15.80    2.10
  -7  -1  -3   14.90    1.30
   7  -1   3   15.40    1.80
  -7  -1  -3   14.80    2.00
  -7   1  -3   14.00    1.20
  -7  -1   3   14.60    0.90
  -7   1  -3   16.60    1.90
  -7  -1   3   17.40    2.20
  -7  -1   3   17.20    2.30
   7   1   3   15.90    1.80
   7  -2   3   57.69    3.00
  -7   2   3   58.69    3.70
   7  -2   3   58.89    3.80
  -7  -2  -3   55.29    3.80
   7   2   3   58.49    3.50
  -7  -2   3   59.49    4.10
  -7  -2   3   64.99    4.20
  -7   2  -3   62.39    3.50
  -7  -3  -3   85.39    4.90
  -7  -3  -3   75.69    4.80
   7  -3   3   72.99    5.10
   7  -3   3   78.29    4.20
  -7   3   3   77.29    4.80
   7   3   3   75.79    4.50
  -7  -3   3   77.89    5.40
  -7   3  -3   78.69    4.30
  -7  -3   3   75.69    5.50
  -7  -4  -3  167.68    8.50
  -7   4   3  156.88    8.40
   7  -4   3  149.88    9.00
  -7  -4  -3  167.98    8.70
  -7  -4   3  158.78    9.20
   7   4   3  164.28    8.00
  -7  -4   3  170.88    9.50
  -7   0   4    0.50    1.50
  -7   0  -4   -0.10    0.70
   7   0   4    0.80    0.90
  -7   0   4   -1.10    0.80
  -7   0  -4    0.20    1.20
  -7   1   4  177.68    8.70
   7   1  -4  177.58    7.70
  -7   1   4  196.38    8.10
   7  -1   4  187.68    8.20
  -7  -1  -4  186.38    8.60
  -7  -1  -4  185.18    7.80
  -7  -1   4  181.88    7.40
   7   1   4  170.18    8.10
  -7   1  -4  190.68    8.20
  -7  -1   4  183.78    8.60
  -7   1  -4  183.68    7.80
  -7  -1   4  168.18    8.70
   7  -2   4   85.19    4.90
  -7   2   4   79.39    4.60
  -7  -2  -4   84.89    4.90
   7  -2   4   80.59    4.00
  -7   2  -4   83.39    4.40
  -7  -2   4   72.39    5.00
   7   2   4   82.39    4.50
  -7  -2   4   74.29    5.20
   7  -3   4  153.88    8.40
  -7  -3  -4  146.69    7.80
  -7   3   4  151.88    7.80
   7  -3   4  158.58    7.20
  -7  -3   4  146.89    8.50
  -7   3  -4  158.18    7.10
   7   3   4  156.78    7.50
  -7  -3   4  160.58    8.70
  -7  -4  -4    7.10    2.20
  -7   4   4    4.90    2.20
   7  -4   4    7.10    2.70
  -7  -4  -4    7.80    2.70
   7   4   4    5.10    1.90
  -7  -4   4    5.20    2.80
  -7  -4   4    2.60    2.40
  -7   0   5   26.60    2.10
   7   0   5   31.00    2.40
  -7   0   5   29.60    3.20
  -7   0  -5   27.90    2.70
   7  -1   5  127.29    6.10
  -7  -1  -5  127.19    6.50
  -7   1   5  119.19    5.90
   7   1  -5  118.19    5.20
  -7   1   5  117.49    6.80
  -7  -1   5  118.19    5.20
  -7  -1   5  118.89    6.80
  -7   1  -5  129.89    6.00
  -7  -1   5  114.99    6.60
   7   1   5  123.59    6.10
   7  -2   5  284.87   12.00
   7  -2   5  274.57   12.80
  -7   2   5  278.57   12.50
   7   2   5  275.37   12.40
  -7  -2   5  292.67   13.20
  -7   2  -5  301.27   12.20
  -7  -2   5  272.37   13.20
  -7   3   5   27.30    3.20
   7  -3   5   24.40    3.50
   7  -3   5   23.60    2.30
  -7  -3   5   26.20    3.70
  -7  -3   5   25.90    3.80
   7   3   5   24.40    2.90
  -7   4   5   27.00    3.50
   7  -4   5   25.70    4.00
  -7  -4  -5   29.80    3.70
  -7  -4  -5   13.60    3.70
  -7  -4   5   23.00    4.10
  -7  -4   5   24.00    4.20
   7   4   5   26.80    3.20
  -7   0   6    0.80    2.10
  -7   0   6    0.70    1.10
  -7   0  -6    0.70    1.60
   7  -1   6  105.19    5.90
  -7   1   6  105.69    5.70
  -7  -1  -6  113.59    6.40
  -7   1   6  114.89    6.80
  -7  -1   6  104.99    6.50
  -7   1  -6  116.09    5.80
   7   1   6  109.69    5.80
  -7  -1   6   95.59    6.40
  -7  -1   6  113.79    4.90
   7  -2   6   12.90    1.90
  -7  -2  -6    9.40    2.30
   7  -2   6    9.80    2.40
  -7   2   6   10.50    2.10
   7   2   6    8.50    2.00
  -7  -2   6   12.60    2.80
  -7  -2   6    7.10    2.60
  -7   2  -6    8.30    1.80
   7  -3   6   58.89    4.80
  -7   3   6   53.79    4.60
  -7  -3   6   54.29    5.10
   7   3   6   63.69    4.60
  -7  -3   6   56.79    5.20
  -7  -4  -6   11.30    2.70
   7  -4   6    9.40    3.00
  -7   4   6    9.40    2.70
   7   4   6   11.40    2.50
  -7  -4   6    7.20    3.30
  -7  -4   6   11.20    3.20
  -7   0  -7  374.06   16.00
  -7   0   7  372.36   15.30
  -7   0   7  343.87   16.70
  -7   1   7   67.39    4.40
  -7   1   7   74.09    5.70
  -7  -1  -7   63.39    5.00
   7  -1   7   73.69    4.80
  -7  -1   7   71.09    3.70
  -7  -1   7   71.49    5.50
   7   1   7   72.19    4.60
  -7   1  -7   67.89    4.50
  -7  -1   7   82.09    5.70
  -7  -2  -7   13.00    2.40
   7  -2   7   17.50    3.10
   7  -2   7   13.00    2.20
  -7   2   7   12.90    2.30
  -7   2  -7   11.50    2.20
   7   2   7   10.40    2.40
  -7  -2   7   16.80    3.40
  -7  -2   7   13.90    3.10
  -7   3   7   20.30    3.10
  -7  -3  -7   22.30    3.40
   7  -3   7   18.00    3.40
   7   3   7   22.80    3.20
  -7  -3   7   23.10    4.00
  -7  -3   7   18.80    3.80
  -7   0  -8   -1.30    1.60
  -7   0   8    1.40    1.30
  -7   0   8   -1.60    2.20
  -7  -1  -8  118.19    7.00
  -7   1   8  124.39    6.30
   7  -1   8  104.39    6.70
   7   1   8  122.79    6.60
  -7  -1   8  114.99    7.60
  -7  -1   8  116.19    5.50
  -7  -1   8  105.79    7.30
  -7   1  -8  118.09    6.50
  -7   2   8   42.40    3.70
  -7  -2  -8   30.40    4.00
   7  -2   8   43.20    4.70
  -7  -2   8   44.70    5.30
   7   2   8   39.20    3.90
  -7  -2   8   37.30    4.90
   7  -3   8   38.70    4.80
  -7  -3  -8   41.80    4.70
  -7   3   8   38.50    4.20
  -7  -3   8   42.00    5.30
   7   3   8   42.80    4.40
  -7  -3   8   37.70    5.10
  -7   0   9   31.00    3.00
  -7   0  -9   29.80    3.70
  -7   0   9   31.60    4.60
  -7   1   9   11.00    2.30
   7  -1   9   11.20    2.70
  -7  -1  -9   11.00    2.90
  -7  -1   9   11.00    3.40
  -7   1  -9    5.80    2.10
   7   1   9   11.30    2.50
  -7   2   9  112.39    6.60
   7  -2   9  114.39    7.30
  -7  -2  -9  112.39    7.20
  -7  -2   9  100.99    7.80
  -7  -2   9   99.29    7.60
   7   2   9  105.59    6.70
  -7   0 -10   -0.70    1.90
  -7   0  10   -3.40    2.70
  -7   0  10   -4.00    1.50
  -7  -1 -10   67.99    5.70
  -7   1  10   59.79    4.70
  -7  -1  10   59.19    6.10
   8   0   0  825.92   33.80
  -8   0   0  854.91   33.80
  -8   0   0  885.01   33.60
  -8  -1   0    9.10    1.00
   8   1   0    7.60    1.00
  -8  -1   0    7.00    1.10
  -8   1   0    7.90    1.60
  -8  -1   0   11.40    1.90
   8  -1   0    7.60    0.80
   8   1   0    7.60    1.20
  -8  -1   0    8.00    1.30
  -8  -2   0    4.50    1.20
  -8  -2   0    5.80    1.40
  -8  -2   0    6.60    0.80
  -8   2   0    6.50    1.50
   8   2   0    7.50    1.00
   8  -2   0    6.20    1.10
  -8  -3   0   35.30    3.40
   8  -3   0   33.70    3.90
  -8  -3   0   37.70    2.60
   8   3   0   36.90    2.30
  -8   3   0   37.80    3.20
  -8  -4   0   17.00    2.90
   8  -4   0   18.50    3.50
  -8  -4   0   11.70    3.70
  -8   4   0   15.80    2.60
  -8  -5   0   -0.10    3.50
  -8  -5   0    4.80    2.60
  -8   5   0    0.60    2.10
   8  -5   0    7.30    3.00
   8   0   1    0.40    0.50
   8   0  -1    0.40    0.90
   8   0  -1    1.50    1.00
  -8   0   1   -0.10    1.10
  -8   0   1    1.30    1.20
   8   0  -1    0.50    0.90
  -8   0  -1    1.30    1.20
  -8   1   1  184.78    7.80
   8   1  -1  175.98    7.70
  -8   1   1  185.78    8.20
   8  -1   1  188.78    7.90
  -8  -1  -1  179.48    8.00
  -8  -1  -1  181.18    7.40
   8   1  -1  177.58    7.80
  -8  -1  -1  180.18    7.60
  -8  -1   1  185.58    7.30
  -8  -1   1  189.08    7.80
   8  -1  -1  181.98    7.80
  -8   1  -1  185.08    8.10
  -8  -1   1  184.28    8.30
  -8  -1   1  180.88    7.80
  -8   2   1    4.40    1.50
  -8  -2  -1    4.00    1.20
  -8   2   1    5.40    1.40
   8  -2   1    3.80    1.60
  -8  -2  -1    3.70    1.20
  -8   2  -1    3.50    1.40
  -8  -2   1    6.70    0.60
  -8  -2   1    6.60    1.60
  -8  -2   1    5.70    1.80
   8  -2  -1    6.40    1.20
   8   2   1    3.30    1.00
  -8  -2   1    5.30    1.10
  -8  -3  -1   27.00    2.50
   8   3  -1   21.50    1.50
  -8  -3  -1   24.20    2.80
   8  -3   1   24.20    2.40
  -8   3   1   18.50    2.40
   8  -3   1   23.50    3.20
   8   3   1   24.80    2.10
  -8  -3   1   22.00    2.80
  -8  -3   1   19.50    1.90
  -8  -3   1   24.40    3.50
   8  -4   1    6.30    2.60
   8  -4   1    3.20    2.90
  -8   4   1    8.40    2.30
  -8  -4  -1    8.20    2.40
  -8  -4  -1    7.10    1.70
  -8   4  -1    6.20    2.20
  -8  -4   1    7.10    2.60
   8  -4  -1    8.00    3.10
  -8  -4   1    8.40    3.00
  -8   0   2  528.25   21.20
   8   0   2  499.15   20.40
  -8   0  -2  501.55   21.20
  -8   0   2  529.15   21.10
  -8   0   2  539.95   20.70
   8   0  -2  546.45   21.10
   8   0  -2  517.75   21.50
  -8   1   2   92.99    4.40
   8  -1   2   87.29    4.40
  -8  -1  -2   87.09    3.80
  -8   1   2   97.59    4.70
  -8  -1  -2   83.59    4.60
  -8   1   2   85.39    4.70
  -8  -1   2   91.09    5.00
  -8   1  -2   86.39    4.60
  -8  -1   2   91.79    4.20
  -8  -1   2   91.09    3.70
   8  -1  -2   94.49    4.50
  -8  -1   2   93.29    4.60
  -8   2   2   74.49    4.40
   8  -2   2   83.29    4.70
   8  -2   2   81.59    3.60
  -8  -2  -2   82.29    4.10
  -8  -2  -2   80.89    4.50
  -8  -2   2   80.89    5.10
  -8  -2   2   84.79    4.70
  -8  -2   2   77.79    3.70
  -8   2  -2   84.49    4.40
   8   2   2   82.19    4.10
  -8  -3  -2   11.90    2.10
   8  -3   2   10.50    2.50
  -8   3   2    9.20    1.90
  -8  -3  -2   12.20    2.20
   8  -3   2   12.60    1.60
   8   3   2   10.00    1.60
  -8  -3   2    7.50    0.80
  -8  -3   2    5.50    2.10
  -8   3  -2   14.00    2.00
  -8  -3   2    7.60    2.40
   8  -4   2    7.70    2.80
  -8   4   2    7.00    2.40
  -8  -4  -2   10.10    2.60
  -8  -4  -2   12.60    2.30
   8  -4  -2    7.70    3.40
  -8   4  -2    6.60    2.20
   8   4   2   12.00    2.00
  -8  -4   2    9.60    2.80
  -8  -4   2    7.60    3.00
  -8   0   3   -1.10    1.20
  -8   0   3   -1.40    0.90
  -8   0   3   -0.20    0.70
   8   0   3    0.50    0.60
  -8   0  -3    1.10    0.90
  -8   0  -3    0.00    0.90
  -8   0  -3    1.00    0.70
  -8  -1  -3  104.69    5.40
  -8  -1  -3  106.09    4.50
  -8   1   3  103.59    5.00
   8   1  -3  107.19    4.80
   8  -1   3  109.59    5.10
  -8   1   3  109.99    5.60
   8   1   3   98.49    5.00
  -8   1  -3  104.59    5.40
  -8   1  -3  107.09    4.50
  -8  -1   3  104.59    5.50
  -8  -1   3  104.19    5.70
  -8  -1   3  104.39    4.30
  -8  -1   3  109.59    4.80
  -8  -2  -3   55.89    3.70
   8  -2   3   48.90    3.50
  -8   2   3   45.40    3.40
  -8  -2  -3   55.39    3.20
   8  -2   3   51.79    2.60
  -8  -2   3   52.49    4.10
   8   2   3   53.59    3.40
  -8  -2   3   54.39    3.90
  -8   3   3    0.20    1.60
   8  -3   3    0.90    0.90
   8  -3   3    1.70    1.80
  -8  -3  -3   -0.30    1.70
  -8  -3  -3    1.50    1.80
  -8  -3   3    0.50    2.10
  -8  -3   3    1.10    1.80
  -8   3  -3    2.30    1.40
   8   3   3    1.30    1.40
  -8  -4  -3   40.60    4.10
   8  -4   3   43.00    4.50
  -8   4   3   47.70    4.10
  -8  -4  -3   44.50    4.10
  -8  -4   3   49.00    5.00
   8   4   3   39.10    3.40
  -8  -4   3   43.00    4.90
  -8   4  -3   38.30    3.80
  -8   0  -4   65.79    3.30
  -8   0   4   67.19    4.30
  -8   0  -4   68.19    4.00
  -8   0   4   65.19    3.30
   8   0   4   64.49    3.30
   8  -1   4    7.90    1.40
  -8   1   4    3.20    1.20
  -8   1   4    5.80    1.90
  -8  -1  -4    7.90    1.80
   8   1  -4    4.40    1.10
  -8  -1  -4    6.50    1.10
  -8   1  -4    7.00    1.60
   8   1   4    6.30    1.50
  -8  -1   4    4.90    1.80
  -8   1  -4    8.80    1.10
  -8  -1   4    5.90    1.90
  -8  -1   4    5.70    0.70
  -8  -2  -4  108.29    6.10
   8  -2   4  110.89    5.10
  -8   2   4  117.69    6.00
   8   2  -4  116.09    4.70
   8  -2   4  110.69    6.20
   8   2   4  110.19    5.80
  -8  -2   4  116.89    6.70
  -8  -2   4  118.39    6.40
  -8   2  -4  116.49    5.70
  -8   3   4  119.99    6.40
   8  -3   4  108.89    5.70
  -8  -3  -4  111.39    6.30
  -8  -3  -4  110.39    6.50
   8  -3   4  113.79    6.70
  -8   3  -4  116.99    5.80
  -8  -3   4  125.79    7.10
  -8  -3   4  128.29    7.30
   8   3   4  116.09    6.20
   8  -4   4   57.39    5.00
  -8  -4  -4   51.49    4.60
  -8  -4  -4   44.30    4.50
  -8   4   4   46.80    4.50
  -8  -4   4   50.89    5.10
  -8  -4   4   47.70    5.30
   8   4   4   51.09    3.90
  -8   0   5    0.00    0.90
  -8   0  -5    1.00    1.40
  -8   0   5   -1.10    1.60
   8   0   5    0.70    1.10
  -8   1   5  102.69    5.20
  -8  -1  -5   89.39    5.10
   8  -1   5  102.79    5.40
  -8  -1  -5  102.39    5.90
  -8   1   5  103.09    6.20
  -8   1  -5  104.49    5.40
   8   1   5  103.99    5.40
  -8  -1   5  107.09    4.50
  -8  -1   5   98.19    5.90
  -8  -1   5  106.99    6.20
  -8   2   5  117.89    6.20
  -8  -2  -5  109.89    6.50
   8  -2   5  118.49    5.50
   8  -2   5  121.49    6.40
  -8   2  -5  111.09    5.90
   8   2   5  120.39    6.20
  -8  -2   5  119.79    6.90
  -8  -2   5  123.69    7.10
  -8   3   5   40.70    3.80
   8  -3   5   41.90    4.10
  -8  -3  -5   38.20    4.00
  -8  -3   5   50.69    4.70
   8   3   5   42.40    3.60
  -8  -3   5   47.30    4.60
   8  -4   5   12.80    3.30
  -8   4   5   14.10    2.90
  -8  -4  -5   15.80    3.10
  -8  -4   5   13.40    3.30
  -8  -4   5   13.70    3.60
   8   4   5   10.60    2.50
  -8   0   6  484.65   19.60
  -8   0  -6  486.15   20.40
  -8   0   6  475.75   21.00
  -8   1   6  206.08   10.70
  -8   1   6  210.48    9.60
   8  -1   6  202.98    9.80
  -8  -1  -6  218.18   10.40
   8   1   6  213.08    9.80
  -8  -1   6  226.48   10.70
  -8  -1   6  210.58   10.70
  -8  -1   6  224.08    8.90
  -8   1  -6  207.08    9.70
  -8   2   6   37.40    3.40
  -8  -2  -6   38.90    3.90
   8  -2   6   48.10    4.00
   8  -2   6   41.80    2.90
   8   2   6   43.40    3.60
  -8  -2   6   38.90    4.40
  -8  -2   6   42.80    4.40
  -8   2  -6   40.80    3.30
  -8   3   6   16.20    2.70
  -8  -3  -6   11.80    2.70
   8  -3   6   11.60    2.80
  -8  -3   6   12.60    3.10
   8   3   6   11.70    2.40
  -8  -3   6    9.50    3.10
  -8  -4  -6   19.10    3.40
  -8   4   6   17.00    3.20
   8  -4   6   13.30    3.50
   8   4   6   14.00    2.90
  -8  -4   6   15.90    4.00
  -8  -4   6   16.50    3.80
  -8   0   7    1.50    2.30
  -8   0   7    1.30    1.20
  -8   0  -7    1.70    1.80
  -8   1   7  163.78    9.10
  -8  -1  -7  151.38    8.50
   8  -1   7  169.48    8.20
  -8   1   7  162.78    7.80
  -8   1  -7  163.78    8.00
   8   1   7  164.58    8.10
  -8  -1   7  150.78    7.00
  -8  -1   7  168.38    9.10
  -8  -1   7  154.58    8.90
  -8  -2  -7   66.19    5.00
   8  -2   7   62.59    4.10
  -8   2   7   67.09    4.50
   8  -2   7   71.39    5.10
  -8   2  -7   54.79    4.10
  -8  -2   7   65.69    5.50
  -8  -2   7   67.29    5.50
   8   2   7   59.39    4.50
   8  -3   7   18.20    3.50
  -8  -3  -7   15.00    3.00
  -8   3   7   18.70    3.20
  -8  -3   7   15.30    3.60
   8   3   7   23.10    3.20
  -8  -3   7   16.40    3.60
  -8   0   8   55.39    3.60
  -8   0  -8   59.59    4.80
  -8   0   8   49.00    5.10
   8  -1   8    4.60    2.20
  -8   1   8    5.50    1.70
  -8  -1  -8    7.60    2.60
   8   1   8    5.10    2.00
  -8  -1   8    6.20    2.80
  -8   1  -8    4.60    1.90
  -8  -2  -8   93.79    6.40
   8  -2   8   96.89    6.40
  -8   2   8   90.59    5.70
  -8  -2   8   91.19    7.00
  -8  -2   8  104.99    7.60
   8   2   8   95.49    6.00
  -8   3   8   77.49    5.60
  -8  -3  -8   83.39    6.20
   8  -3   8   86.49    6.30
  -8  -3   8   75.89    6.60
  -8  -3   8   77.69    6.60
   8   3   8   81.19    5.70
  -8   0   9    0.00    2.50
  -8   0  -9    1.10    2.30
  -8   0   9    0.90    1.40
  -8   1   9   38.90    3.50
  -8  -1  -9   43.30    4.70
   8  -1   9   41.80    4.50
  -8   1  -9   37.50    3.70
  -8  -1   9   40.70    5.20
   8  -2   9   15.50    3.30
  -8   2   9    9.30    2.40
  -8  -2  -9   18.30    3.40
  -8  -2   9    9.70    3.70
   8   2   9   11.80    2.70
  -8  -2   9   13.90    3.60
  -8   0 -10   46.40    4.60
  -8   0  10   40.20    4.60
  -8   0  10   38.50    5.70
  -8  -1 -10   32.90    4.40
  -8   1  10   24.60    3.10
  -8  -1  10   33.90    5.00
  -9   0   0    2.10    1.30
  -9   0   0   -1.00    1.00
  -9  -1   0  112.99    5.00
   9  -1   0  117.09    4.90
  -9  -1   0  114.59    5.00
   9   1   0  118.49    5.00
  -9   1   0  114.99    5.70
  -9  -1   0  117.79    5.90
  -9  -1   0  118.39    5.60
  -9   2   0  123.19    6.20
  -9  -2   0  126.89    6.80
  -9  -2   0  126.59    5.80
  -9  -2   0  122.09    5.30
  -9  -2   0  123.99    5.90
   9  -2   0  125.19    5.50
  -9  -3   0   37.20    2.80
  -9  -3   0   37.10    3.40
  -9  -3   0   35.60    4.30
   9   3   0   38.20    2.40
   9  -3   0   40.60    4.00
  -9   3   0   37.70    3.40
  -9  -4   0   37.90    3.90
  -9  -4   0   32.30    4.80
  -9   4   0   34.50    3.50
   9  -4   0   34.50    4.50
   9   0  -1  260.37   10.50
   9   0  -1  218.98   10.20
  -9   0  -1  249.08   10.70
  -9   0  -1  270.67   10.30
  -9   0   1  250.37   10.60
  -9   0   1  240.88   10.50
  -9   1   1  105.69    5.10
  -9   1   1  111.29    5.60
  -9  -1  -1  114.19    5.50
   9   1  -1  110.39    5.10
  -9  -1  -1  118.59    4.60
  -9  -1  -1  109.79    5.00
   9  -1   1  120.89    5.30
  -9  -1   1  112.89    5.70
  -9  -1   1  109.69    5.20
   9  -1  -1  110.29    5.00
  -9   1  -1  110.89    5.50
  -9  -1   1  107.49    5.10
  -9  -1   1  112.29    4.70
   9  -2   1    5.60    0.70
  -9   2   1    3.30    1.50
   9  -2   1    4.40    0.80
   9  -2   1    7.00    1.80
  -9  -2  -1    5.40    1.40
  -9  -2  -1    7.20    1.30
  -9   2   1    4.20    1.40
   9   2   1    4.40    1.00
   9  -2  -1    3.00    1.10
  -9  -2   1    3.20    1.80
  -9  -2   1    4.20    0.50
  -9   2  -1    5.10    1.70
  -9  -2   1    4.10    1.10
  -9  -2   1    2.80    1.40
  -9  -3  -1   21.40    2.30
   9  -3   1   19.40    3.10
  -9  -3  -1   18.60    2.40
  -9   3   1   17.60    2.50
   9  -3   1   19.00    2.00
  -9  -3   1   18.80    1.80
   9   3   1   19.90    1.90
  -9  -3   1   19.10    3.30
  -9  -3   1   17.80    2.70
  -9  -4  -1   44.10    4.00
   9  -4   1   43.10    4.70
  -9  -4  -1   31.60    3.00
  -9   4   1   30.60    3.50
   9  -4  -1   41.10    5.10
  -9   4  -1   40.40    3.60
  -9  -4   1   35.90    4.10
  -9  -4   1   39.30    4.90
  -9   0  -2   -0.80    1.20
   9   0   2    0.00    0.40
  -9   0   2   -0.20    1.10
  -9   0   2    0.00    1.20
  -9   1   2    7.50    1.60
  -9  -1  -2    8.60    0.60
   9   1  -2   10.90    1.30
  -9  -1  -2    9.00    0.60
  -9  -1  -2   10.20    1.70
  -9   1   2    9.30    1.40
  -9   1   2    9.40    1.50
   9  -1   2    8.40    1.30
  -9   1  -2    8.20    1.60
  -9  -1   2    7.50    1.70
  -9  -1   2    8.90    0.80
  -9  -1   2    7.30    1.20
  -9  -1   2    8.50    1.60
  -9   2   2    9.10    1.70
  -9  -2  -2    5.10    1.20
   9  -2   2    8.00    1.80
  -9  -2  -2    4.60    1.50
   9  -2   2    4.40    0.40
   9   2   2    8.20    1.40
  -9  -2   2    8.50    1.10
  -9   2  -2    7.70    1.60
  -9  -2   2    7.70    2.10
  -9  -2   2    6.00    1.80
  -9  -3  -2   16.10    2.30
  -9   3   2   14.70    2.30
  -9  -3  -2   20.10    2.50
   9  -3   2   19.10    1.70
   9  -3   2   16.50    2.80
  -9  -3   2   14.20    3.00
   9   3   2   15.40    2.00
  -9  -3   2   12.80    1.40
  -9   3  -2   16.80    2.20
  -9  -3   2   13.50    2.70
  -9  -4  -2    3.40    1.80
  -9   4   2    2.40    2.10
  -9  -4  -2    5.70    2.20
   9  -4   2    3.10    2.40
  -9  -4   2    0.70    2.30
   9  -4  -2   -1.70    2.60
   9   4   2    1.90    1.50
  -9  -4   2    0.20    2.50
  -9   4  -2    3.60    2.10
  -9   0   3   97.69    5.30
  -9   0  -3  105.29    4.40
  -9   0  -3   97.39    5.20
  -9   0   3  103.39    5.10
   9   0   3  101.39    4.40
  -9   0   3  101.69    4.60
   9  -1   3  100.69    4.90
   9   1  -3  103.09    4.80
  -9  -1  -3  102.49    5.40
  -9   1   3  106.29    5.50
  -9  -1  -3   96.99    4.30
  -9   1   3  107.69    5.00
  -9   1  -3  102.29    4.20
   9   1   3  102.79    5.00
  -9   1  -3  106.59    5.30
  -9  -1   3  100.89    4.20
  -9  -1   3  104.09    5.40
  -9  -1   3  104.89    4.80
  -9  -1   3  101.19    5.60
   9  -2   3   26.70    2.70
  -9   2   3   32.80    2.80
  -9  -2  -3   32.60    3.00
   9  -2   3   29.80    1.50
  -9  -2  -3   29.60    2.30
   9   2  -3   31.30    1.70
  -9  -2   3   29.00    3.10
  -9   2  -3   29.60    2.80
   9   2   3   30.80    2.50
  -9  -2   3   30.70    1.80
  -9  -2   3   31.20    3.40
  -9  -3  -3   18.80    2.50
   9  -3   3   19.80    3.00
   9  -3   3   20.00    2.00
  -9  -3  -3   17.60    2.60
  -9   3   3   14.60    2.40
  -9  -3   3   12.00    2.90
  -9   3  -3   19.00    2.30
  -9  -3   3   11.40    2.90
   9   3   3   18.90    2.30
  -9  -4  -3   25.60    3.30
  -9  -4  -3   32.00    3.70
  -9   4   3   25.00    3.30
   9  -4   3   34.10    4.30
   9   4   3   26.00    2.90
  -9  -4   3   31.40    4.40
  -9  -4   3   28.10    4.10
  -9   4  -3   26.50    3.30
  -9   0  -4   -0.10    0.80
  -9   0   4    1.40    0.80
  -9   0  -4    1.00    1.30
  -9   0   4   -0.80    1.40
   9   0   4    0.50    0.80
  -9  -1  -4  115.59    6.00
  -9   1   4  119.69    5.70
  -9  -1  -4  116.19    5.00
  -9   1   4  120.29    6.30
   9  -1   4  129.19    5.70
  -9   1  -4  120.49    5.90
  -9  -1   4   98.79    6.00
  -9  -1   4  113.89    4.80
  -9   1  -4  110.99    5.10
  -9  -1   4  110.39    6.40
   9   1   4  116.99    5.70
   9  -2   4   59.19    3.90
   9  -2   4   56.09    2.70
  -9  -2  -4   50.99    4.10
  -9   2   4   49.20    3.70
  -9   2  -4   51.89    3.70
  -9  -2   4   46.90    4.30
  -9  -2   4   54.19    4.20
   9   2   4   53.99    3.60
   9  -3   4   49.80    4.40
  -9   3   4   45.00    3.80
  -9  -3  -4   40.70    3.60
  -9  -3  -4   46.70    4.00
   9   3   4   45.60    3.50
  -9  -3   4   47.10    4.40
  -9   3  -4   46.00    3.30
  -9  -3   4   48.90    4.50
   9  -4   4   12.90    3.10
  -9   4   4   14.80    2.90
  -9  -4  -4   13.10    2.90
  -9  -4   4   14.30    3.40
  -9  -4   4   14.10    3.60
   9   4   4   10.60    2.50
  -9   0  -5  214.98    9.90
  -9   0   5  209.38    9.10
  -9   0   5  214.68   10.30
   9  -1   5   97.49    5.30
  -9  -1  -5   98.89    4.70
  -9  -1  -5   98.29    5.80
  -9   1   5   99.79    6.10
  -9   1   5   97.49    5.10
  -9  -1   5   98.29    5.90
  -9  -1   5  107.39    4.40
   9   1   5  101.99    5.40
  -9   1  -5  102.19    5.50
  -9  -1   5   94.99    6.10
   9  -2   5   52.79    4.00
   9  -2   5   48.30    2.90
  -9   2   5   49.20    3.70
  -9  -2  -5   40.40    4.00
  -9   2  -5   48.00    3.60
  -9  -2   5   57.79    4.40
  -9  -2   5   58.49    4.50
   9   2   5   47.20    3.60
  -9   3   5   24.40    3.20
  -9  -3  -5   33.80    3.70
  -9  -3  -5   28.80    3.40
   9  -3   5   37.20    4.20
  -9  -3   5   30.70    4.10
  -9  -3   5   31.30    4.20
   9   3   5   32.10    3.30
   9  -4   5   14.80    3.50
  -9  -4  -5   11.80    3.00
  -9   4   5   19.80    3.20
  -9  -4   5   15.60    3.60
  -9  -4   5   19.30    4.10
   9   4   5   13.40    2.60
  -9   0   6    0.90    2.20
  -9   0  -6    0.70    1.90
  -9   0   6   -0.40    1.00
   9  -1   6   31.30    3.00
  -9  -1  -6   28.10    3.40
  -9   1   6   29.50    2.70
  -9   1   6   31.80    3.90
   9   1   6   30.60    3.00
  -9  -1   6   26.40    3.70
  -9   1  -6   32.00    3.30
  -9  -1   6   27.20    2.00
  -9  -1   6   31.20    3.80
   9  -2   6    9.70    2.40
  -9   2   6    9.30    2.10
  -9  -2  -6   10.60    2.50
  -9  -2   6   10.40    2.80
  -9   2  -6    8.90    2.00
  -9  -2   6    5.90    2.60
   9   2   6    7.30    2.00
  -9   3   6    6.20    2.20
  -9  -3  -6    5.80    2.40
   9  -3   6    5.10    2.30
  -9  -3   6    2.90    2.70
  -9  -3   6    8.90    2.80
   9   3   6    5.20    2.10
  -9  -4  -6   11.80    3.00
   9  -4   6    6.60    2.80
  -9   4   6    9.30    2.70
  -9  -4   6    7.70    3.30
   9   4   6   10.70    2.70
  -9  -4   6   10.20    3.60
  -9   0  -7  118.69    6.80
  -9   0   7  118.89    7.50
  -9   0   7  119.89    5.90
   9  -1   7   58.29    4.00
  -9   1   7   55.29    3.80
  -9  -1  -7   51.29    4.60
  -9   1   7   45.00    4.90
   9   1   7   51.69    4.00
  -9  -1   7   50.39    2.90
  -9  -1   7   46.80    4.70
  -9  -1   7   45.00    4.80
  -9   1  -7   50.19    3.90
   9  -2   7   18.10    3.00
  -9  -2  -7   18.80    3.10
  -9   2   7   14.00    2.50
   9   2   7   14.80    2.60
  -9  -2   7   17.00    3.50
  -9   2  -7   12.20    2.20
  -9  -2   7   15.80    3.40
   9  -3   7    2.40    2.20
  -9  -3  -7    4.50    2.40
  -9   3   7   -1.30    1.70
  -9  -3   7    3.50    2.70
   9   3   7    0.90    2.00
  -9  -3   7    2.80    3.10
  -9   0   8   -1.20    1.20
  -9   0   8    1.20    2.50
  -9   0  -8   -0.30    2.00
  -9  -1  -8   54.59    4.70
  -9   1   8   39.60    3.60
   9  -1   8   42.80    4.00
  -9   1  -8   43.20    3.80
  -9  -1   8   44.50    4.90
   9  -2   8   39.10    4.30
  -9   2   8   27.50    3.30
  -9  -2  -8   33.10    4.10
  -9  -2   8   29.20    4.50
   9   2   8   40.10    3.90
  -9  -2   8   27.00    4.50
  -9  -3  -8   12.70    3.10
   9  -3   8   10.90    2.90
  -9   3   8   12.70    2.70
   9   3   8    8.20    2.50
  -9  -3   8   11.80    3.40
  -9  -3   8    8.50    3.60
  -9   0  -9   29.00    3.80
  -9   0   9   29.30    4.60
  -9   0   9   37.10    3.10
  -9  -1  -9   -0.50    2.30
  -9   1   9   -1.40    1.40
   9  -1   9    3.40    2.20
  -9  -1   9    3.70    3.00
  -9   1  -9    1.90    2.20
   9  -2   9   90.89    6.30
  -9   2   9   88.19    5.80
  -9  -2  -9   80.79    6.40
  -9  -2   9   71.39    6.80
   9   2   9   89.89    6.00
  -9  -2   9   82.59    6.90
  -9   0 -10    2.60    2.70
  -9   0  10   -4.50    2.60
  -9  -1 -10   84.49    6.60
  -9  -1  10   94.89    7.60
 -10   0   0 1045.30   39.90
  10   0   0  969.80   39.60
 -10   0   0 1031.70   40.20
 -10  -1   0    0.90    0.80
  10  -1   0    1.10    0.60
  10   1   0    1.20    0.60
 -10  -1   0    0.50    1.40
 -10  -1   0    2.00    1.30
 -10   1   0    1.80    1.40
 -10  -1   0    0.40    0.70
 -10  -2   0  149.09    6.80
 -10  -2   0  144.99    6.20
  10  -2   0  150.38    6.30
 -10  -2   0  150.98    6.80
 -10   2   0  146.39    7.20
 -10  -2   0  140.09    7.70
 -10  -3   0   29.60    3.00
 -10   3   0   24.40    2.80
  10  -3   0   24.80    3.50
 -10  -3   0   25.90    3.90
 -10  -3   0   24.00    2.40
  10   3   0   26.50    1.90
  10  -4   0   37.30    4.80
 -10   4   0   34.30    3.70
 -10  -4   0   48.30    4.20
 -10  -4   0   36.70    5.20
  10   0  -1   -0.10    0.90
 -10   0   1   -1.20    1.00
 -10   0   1   -1.30    1.20
 -10   0  -1    1.10    1.00
  10   0  -1    0.00    0.90
 -10   0  -1   -0.20    1.00
 -10  -1  -1  429.66   16.90
  10  -1   1  430.66   17.50
 -10   1   1  419.76   17.90
 -10   1   1  439.66   17.40
  10   1  -1  436.16   17.40
 -10  -1  -1  403.76   17.70
 -10  -1   1  418.56   18.00
 -10   1  -1  430.76   17.90
 -10  -1   1  436.96   17.00
 -10  -1   1  453.05   17.40
 -10  -1   1  442.06   17.60
  10  -1  -1  427.16   17.30
 -10   2   1  227.88   10.70
 -10   2   1  233.68   10.50
  10  -2   1  238.08    9.40
 -10  -2  -1  243.38   10.50
 -10  -2  -1  248.38   10.10
  10  -2   1  240.88    9.40
  10  -2   1  233.88   10.70
 -10  -2   1  239.58   10.10
 -10  -2   1  236.38    9.40
 -10   2  -1  235.68   10.60
  10   2   1  237.28    9.90
  10  -2  -1  229.58   10.10
 -10  -2   1  226.78   11.10
 -10  -2   1  243.38   10.40
 -10   3   1   17.70    2.50
  10  -3   1   16.40    1.80
 -10  -3  -1   14.60    2.10
  10  -3   1   15.20    2.90
 -10  -3  -1   16.40    2.40
 -10  -3   1   13.50    2.50
 -10  -3   1   20.80    3.40
 -10  -3   1   19.50    1.90
  10   3   1   16.50    1.80
 -10   3  -1   12.50    2.40
 -10  -4  -1    9.50    3.70
 -10   4   1    4.70    2.10
 -10  -4  -1   10.70    2.60
  10  -4   1   11.70    3.00
 -10  -4   1    4.60    2.20
  10  -4  -1    3.20    2.90
 -10   4  -1    7.80    2.30
 -10  -4   1    5.20    2.90
 -10   0  -2  362.66   15.20
  10   0   2  354.26   14.20
 -10   0   2  374.96   15.10
 -10   0   2  358.16   15.20
  10  -1   2  358.36   14.00
 -10  -1  -2  329.97   14.30
 -10   1   2  351.06   14.20
 -10   1   2  325.97   14.00
 -10   1   2  332.37   14.40
 -10  -1   2  337.57   14.20
 -10  -1   2  334.47   14.60
 -10  -1   2  333.67   13.90
 -10   1  -2  340.57   14.30
  10   2  -2   39.20    2.20
  10  -2   2   28.30    2.80
 -10  -2  -2   32.70    2.30
 -10   2   2   39.20    2.80
 -10  -2  -2   36.70    3.00
 -10  -2   2   39.50    3.20
 -10  -2   2   37.30    3.50
 -10  -2   2   39.00    2.40
 -10   2  -2   31.60    3.20
  10   2   2   31.50    2.50
 -10  -3  -2  104.89    5.80
 -10   3   2  114.29    6.10
  10  -3   2  106.09    6.30
  10  -3   2  103.69    5.20
 -10  -3  -2   99.19    5.60
  10   3   2  101.79    5.40
 -10   3  -2  113.79    5.80
 -10  -3   2  114.69    6.40
 -10  -3   2  113.39    6.90
  10  -4   2   45.10    4.60
 -10  -4  -2   41.10    3.90
 -10   4   2   46.10    4.20
 -10  -4  -2   38.10    3.70
  10  -4  -2   42.60    5.30
 -10  -4   2   42.40    5.20
 -10   4  -2   42.40    4.00
 -10  -4   2   43.50    4.20
 -10   0   3   -0.10    1.30
 -10   0   3    1.90    1.20
  10   0   3    0.70    0.50
 -10   0   3   -0.60    0.70
 -10   0  -3   -0.70    1.20
 -10   1   3   73.29    4.50
 -10  -1  -3   79.99    4.50
 -10   1   3   71.39    3.90
  10  -1   3   79.99    3.90
 -10   1  -3   81.59    4.40
 -10  -1   3   71.99    3.20
 -10  -1   3   74.49    4.40
 -10  -1   3   70.19    4.50
 -10  -1   3   74.39    3.90
  10  -2   3  144.59    7.20
 -10  -2  -3  143.19    7.20
 -10   2   3  143.29    7.00
 -10  -2  -3  147.29    6.40
  10   2  -3  141.99    6.20
 -10  -2   3  136.29    6.20
  10   2   3  153.68    6.80
 -10   2  -3  156.48    7.20
 -10  -2   3  137.49    7.70
 -10  -2   3  139.29    7.30
 -10   3   3   88.29    5.50
 -10  -3  -3   87.69    5.00
  10  -3   3   95.89    5.80
 -10  -3  -3   87.49    5.40
 -10   3  -3   90.89    5.20
  10   3   3   89.19    5.00
 -10  -3   3   94.29    6.30
 -10  -3   3   98.49    6.00
 -10   4   3   36.20    3.90
 -10  -4  -3   32.70    3.60
  10  -4   3   35.60    4.40
  10   4   3   36.90    3.50
 -10  -4   3   35.60    4.40
 -10  -4   3   35.70    4.80
  10   0   4   62.19    3.00
 -10   0   4   57.09    4.20
 -10   0  -4   54.79    3.70
 -10   0  -4   61.09    3.00
 -10   0   4   61.29    3.20
  10  -1   4   10.40    1.60
 -10  -1  -4   11.20    2.10
 -10   1   4   10.50    1.80
 -10   1   4   10.60    2.20
 -10  -1  -4    9.40    1.00
 -10  -1   4   14.10    2.40
 -10  -1   4   13.10    1.00
 -10   1  -4    9.40    1.90
 -10   1  -4   11.20    1.20
 -10  -1   4   13.90    2.50
  10  -2   4   52.99    3.80
 -10   2   4   49.10    3.60
 -10  -2  -4   53.09    4.00
 -10  -2  -4   49.10    3.00
 -10  -2   4   38.50    4.10
 -10  -2   4   53.09    4.20
 -10   2  -4   49.99    3.60
  10   2   4   52.99    3.70
 -10  -3  -4   38.90    3.40
 -10   3   4   40.40    3.90
 -10  -3  -4   47.30    4.30
  10  -3   4   45.00    4.00
 -10  -3   4   51.79    4.70
 -10  -3   4   47.20    4.60
  10   3   4   45.00    3.60
 -10   3  -4   40.90    3.40
 -10   4   4   48.80    4.50
 -10  -4  -4   45.90    4.60
  10  -4   4   49.80    5.10
 -10  -4   4   55.59    5.40
 -10  -4   4   51.59    5.00
 -10   0  -5   -0.70    1.50
 -10   0  -5    1.10    1.00
 -10   0   5   -0.80    0.90
 -10   0   5    0.40    1.80
 -10  -1  -5   36.90    3.50
 -10   1   5   30.10    2.60
  10  -1   5   32.10    2.70
 -10   1   5   34.30    3.60
 -10   1  -5   31.60    3.10
 -10  -1   5   33.60    3.70
 -10  -1   5   31.60    1.90
 -10  -1   5   29.40    3.70
 -10   2   5    0.30    1.40
 -10  -2  -5    0.20    1.80
  10  -2   5    1.00    1.70
 -10  -2   5    0.80    2.00
  10   2   5    0.80    1.50
 -10   2  -5    0.30    1.50
 -10  -2   5    0.20    2.10
 -10   3   5    5.20    2.10
 -10  -3  -5    3.40    2.20
  10  -3   5    8.00    2.40
 -10  -3   5    7.10    2.80
 -10  -3   5    6.10    2.60
  10   3   5    3.30    1.90
 -10  -4  -5   11.20    2.80
  10  -4   5   13.50    3.20
 -10   4   5   15.40    3.00
  10   4   5    8.70    2.50
 -10  -4   5    9.00    3.50
 -10  -4   5   10.60    3.30
 -10   0   6  162.18    7.10
 -10   0   6  144.59    8.50
 -10   0  -6  162.28    8.20
 -10   1   6   31.30    3.90
  10  -1   6   27.90    2.90
 -10  -1  -6   30.10    3.60
 -10   1   6   32.40    2.90
 -10  -1   6   32.50    4.00
 -10  -1   6   30.40    2.00
 -10   1  -6   35.60    3.30
 -10  -1   6   35.50    4.00
 -10  -2  -6   17.20    3.00
  10  -2   6   18.70    2.80
 -10   2   6   13.10    2.40
  10   2   6   21.00    2.70
 -10  -2   6   13.80    3.10
 -10   2  -6   12.20    2.20
 -10  -2   6   14.30    3.20
  10  -3   6    3.50    2.10
 -10  -3  -6    2.90    2.30
 -10   3   6    4.70    2.10
 -10  -3   6    5.60    2.90
 -10  -3   6    3.90    2.60
  10   3   6    2.10    1.90
 -10   0  -7    0.30    1.90
 -10   0   7    0.10    1.10
 -10   0   7    2.80    2.10
 -10   1   7   27.90    2.80
  10  -1   7   28.40    3.00
 -10   1   7   32.20    4.30
 -10  -1  -7   29.30    3.60
 -10  -1   7   33.00    4.30
 -10  -1   7   29.30    2.30
 -10   1  -7   31.40    3.30
 -10   2   7   32.50    3.40
 -10  -2  -7   31.50    3.90
  10  -2   7   34.10    3.80
 -10  -2   7   32.00    4.40
 -10  -2   7   30.50    4.50
  10   2   7   30.50    3.40
 -10   2  -7   34.30    3.50
  10  -3   7   16.10    3.20
 -10  -3  -7   11.00    3.00
 -10   3   7    7.90    2.50
 -10  -3   7   11.30    3.50
 -10  -3   7   14.40    3.50
  10   3   7   17.40    3.00
 -10   0   8   21.90    2.40
 -10   0   8   19.00    3.70
 -10   0  -8   22.50    3.30
  10  -1   8    8.60    2.40
 -10   1   8    6.40    3.10
 -10  -1  -8    6.60    2.50
 -10   1   8    4.60    1.70
 -10  -1   8    9.80    3.20
 -10   1  -8    5.30    2.40
  10  -2   8   13.70    3.10
 -10   2   8   11.30    2.50
 -10  -2  -8   13.70    3.10
 -10  -2   8   13.00    3.70
 -10  -2   8   10.80    3.40
  10   2   8   10.50    2.60
  10  -3   8  103.09    7.20
 -10  -3  -8  117.09    7.60
 -10   3   8  112.19    7.10
  10   3   8  101.99    6.90
 -10  -3   8  119.69    8.30
 -10  -3   8  105.19    8.00
 -10   0   9    0.00    1.40
 -10   0  -9   -0.90    2.10
 -10   0   9   -3.90    2.30
  10  -1   9    3.70    2.40
 -10  -1  -9    1.80    2.40
 -10   1   9    6.00    2.10
 -10   1  -9    0.60    2.30
 -10  -1   9    7.00    3.40
 -10   2   9  103.09    6.30
  10  -2   9   90.69    6.40
 -10  -2  -9   86.59    6.80
  10   2   9   95.79    6.40
 -10  -2   9   96.09    7.60
 -10  -2   9  109.89    7.80
 -10   0 -10   64.09    5.70
 -10   0  10   51.89    6.30
 -10  -1 -10   47.00    5.10
 -10   1  10   36.50    3.90
 -10  -1  10   39.80    5.60
 -11   0   0    0.80    1.40
 -11   0   0   -0.80    1.00
  11   0   0   -0.20    0.70
 -11  -1   0  281.97   11.50
 -11  -1   0  277.97   12.10
 -11  -1   0  293.87   12.40
 -11   1   0  275.67   12.30
 -11   1   0  289.77   11.40
 -11  -1   0  269.67   11.50
  11  -1   0  304.57   11.40
  11   1   0  271.67   11.40
 -11  -2   0    5.20    0.90
  11  -2   0    4.30    0.80
 -11  -2   0    6.10    1.60
 -11  -2   0    5.60    1.40
 -11   2   0    2.30    1.70
 -11  -2   0    5.10    2.30
  11  -3   0  133.99    7.60
 -11  -3   0  125.69    6.80
 -11   3   0  134.89    7.10
 -11  -3   0  133.39    8.10
 -11  -3   0  138.79    6.50
 -11   4   0    0.30    2.00
 -11  -4   0    0.60    3.00
 -11  -4   0    4.40    2.10
  11  -4   0    1.10    2.60
 -11   0   1  279.77   11.50
  11   0  -1  257.37   11.20
 -11   0  -1  274.47   11.70
 -11   0   1  266.67   11.60
 -11   0  -1  258.77   11.10
  11   0  -1  281.07   11.50
 -11   1   1  155.88    6.80
  11   1  -1  143.39    6.60
 -11  -1  -1  154.98    7.20
 -11   1   1  149.69    7.40
  11  -1   1  159.18    6.90
 -11  -1   1  152.78    6.40
 -11  -1   1  151.58    7.00
  11  -1  -1  154.18    6.70
 -11   1  -1  156.18    7.30
 -11  -1   1  158.88    6.80
 -11  -1   1  151.28    7.40
 -11  -2  -1    4.20    1.20
 -11   2   1    6.20    1.90
 -11  -2  -1    5.60    1.70
  11  -2   1    4.10    1.90
 -11  -2   1    6.10    1.60
 -11  -2   1    6.40    2.20
 -11   2  -1    6.00    1.80
 -11  -2   1    5.60    1.40
  11  -2  -1    7.60    1.20
 -11  -2   1    5.80    0.70
  11  -3   1   66.89    4.80
 -11  -3  -1   66.89    4.00
 -11   3   1   59.89    4.20
  11  -3   1   60.39    3.20
 -11  -3  -1   64.99    4.10
 -11  -3   1   51.69    5.00
 -11   3  -1   66.69    4.50
  11   3   1   62.49    3.50
 -11  -3   1   56.99    4.20
 -11  -3   1   57.89    3.50
 -11   4   1   57.59    4.60
 -11  -4  -1   62.39    4.50
  11  -4   1   54.29    5.10
 -11  -4  -1   55.09    6.40
 -11  -4   1   61.19    5.70
 -11  -4   1   61.19    4.80
 -11   4  -1   50.39    4.40
  11  -4  -1   63.79    5.70
 -11   0   2   -0.40    1.10
 -11   0  -2    0.80    1.40
  11   0   2    0.20    0.20
 -11   0   2   -0.70    1.30
  11  -1   2   25.20    2.10
 -11  -1  -2   26.00    2.60
 -11   1   2   29.40    2.40
 -11   1   2   28.10    2.80
 -11   1   2   29.80    2.30
 -11  -1   2   29.80    2.90
 -11  -1   2   30.60    2.40
 -11   1  -2   29.60    2.70
 -11  -1   2   29.90    2.60
 -11   2   2  221.58   10.00
  11  -2   2  217.58   10.10
 -11  -2  -2  221.98   10.20
 -11  -2  -2  226.28    9.40
 -11  -2   2  228.38   10.20
 -11   2  -2  232.18   10.30
 -11  -2   2  222.08   10.90
  11   2   2  232.28    9.70
 -11  -2   2  217.68    9.50
 -11   3   2    9.20    2.20
  11  -3   2   19.30    3.00
 -11  -3  -2   18.20    2.60
 -11  -3  -2   19.30    2.30
 -11   3  -2   18.10    2.60
 -11  -3   2   11.20    2.90
 -11  -3   2   12.20    2.60
  11   3   2   17.60    2.00
  11  -4   2   14.10    3.30
 -11   4   2    8.00    2.40
 -11  -4  -2   10.70    2.40
 -11  -4   2   11.40    3.40
 -11  -4   2    9.20    2.80
  11  -4  -2    1.40    3.20
 -11   4  -2   12.10    2.80
 -11   0   3  470.95   18.90
 -11   0   3  442.76   19.10
  11   0   3  445.36   17.80
 -11   0  -3  458.95   19.00
 -11   0   3  457.75   18.30
 -11   1   3    5.80    1.80
 -11  -1  -3    2.30    1.60
 -11   1   3    5.40    1.30
 -11   1   3    6.00    1.80
  11  -1   3    5.40    1.30
 -11  -1   3    4.70    1.70
 -11  -1   3    6.00    1.40
 -11  -1   3    6.40    0.70
 -11   1  -3    3.30    1.60
 -11  -1   3    4.50    1.80
 -11  -2  -3   14.50    2.40
 -11   2   3   12.90    2.00
 -11  -2  -3   20.10    1.70
  11  -2   3   20.60    2.50
 -11  -2   3   14.10    1.50
  11   2   3   17.70    2.00
 -11   2  -3   16.40    2.50
 -11  -2   3   14.60    2.80
 -11  -2   3   13.20    2.40
 -11  -3  -3   29.20    2.80
 -11   3   3   27.00    3.10
 -11  -3  -3   27.60    3.30
  11  -3   3   25.60    3.50
 -11  -3   3   27.80    3.90
 -11   3  -3   34.60    3.20
 -11  -3   3   26.10    3.50
  11   3   3   31.90    2.90
 -11  -4  -3   31.20    3.60
 -11   4   3   30.90    3.70
  11  -4   3   32.00    4.30
 -11  -4   3   27.10    4.10
 -11  -4   3   32.70    4.60
  11   4   3   33.00    3.30
  11   0   4   -0.70    0.60
 -11   0  -4   -0.60    1.10
 -11   0   4   -1.50    0.80
 -11   0   4    0.20    1.70
 -11   0  -4   -1.90    0.80
 -11  -1  -4  162.48    6.80
 -11   1   4  172.98    8.50
 -11   1   4  169.28    7.90
  11  -1   4  176.58    7.80
 -11  -1  -4  180.18    8.50
 -11   1  -4  179.08    8.40
 -11  -1   4  176.68    8.50
 -11   1  -4  168.78    7.00
 -11  -1   4  171.18    7.00
 -11  -1   4  169.58    8.80
 -11   2   4   75.49    4.80
  11  -2   4   80.49    4.80
 -11  -2  -4   86.19    5.30
 -11  -2  -4   78.49    3.90
 -11  -2   4   80.89    5.50
  11   2   4   82.29    4.70
 -11  -2   4   82.49    5.50
 -11   3   4    5.80    2.10
  11  -3   4    8.60    2.40
 -11  -3  -4    9.30    2.40
 -11  -3   4    6.30    2.60
 -11  -3   4    6.20    2.50
 -11   3  -4    9.80    1.90
  11   3   4    7.90    1.90
 -11  -4  -4   10.20    2.70
  11  -4   4    9.70    3.10
 -11   4   4   10.70    2.60
  11   4   4    7.30    2.10
 -11  -4   4    3.60    2.70
 -11  -4   4    7.30    3.00
 -11   0   5   24.10    2.10
 -11   0  -5   25.20    2.40
 -11   0   5   30.40    3.50
 -11   0  -5   27.80    3.00
  11  -1   5   87.69    4.70
 -11  -1  -5   88.29    5.50
 -11   1   5   81.39    4.60
 -11   1   5   89.99    5.70
 -11  -1   5   82.09    5.60
 -11   1  -5   97.89    5.30
 -11  -1   5   85.89    3.90
 -11  -1   5   78.69    5.40
 -11  -2  -5   42.40    4.00
 -11   2   5   40.00    3.40
  11  -2   5   43.20    3.50
 -11  -2   5   47.30    4.50
  11   2   5   37.60    3.30
 -11   2  -5   41.80    3.50
 -11  -2   5   38.40    4.00
  11  -3   5   86.89    5.80
 -11  -3  -5   83.49    5.80
 -11   3   5   87.89    5.50
 -11  -3   5   87.79    6.40
  11   3   5   81.09    5.30
 -11  -3   5   85.99    6.20
 -11   4   5    1.70    2.30
  11  -4   5    1.10    2.40
 -11  -4  -5    0.70    2.20
 -11  -4   5    2.00    2.90
  11   4   5    1.50    2.00
 -11  -4   5    2.90    3.00
 -11   0   6    0.80    1.10
 -11   0   6   -0.50    2.10
 -11   0  -6   -0.10    1.80
 -11  -1  -6    1.00    2.00
 -11   1   6    0.30    1.40
  11  -1   6   -0.30    1.30
 -11   1   6   -1.50    2.20
 -11  -1   6   -0.30    0.70
 -11   1  -6    0.50    1.70
 -11  -1   6   -0.40    2.10
 -11  -1   6   -1.20    2.10
 -11   2   6   93.29    5.50
  11  -2   6   91.89    5.70
 -11  -2  -6   89.49    6.10
 -11   2  -6   94.59    5.70
  11   2   6   99.89    5.60
 -11  -2   6  104.69    6.70
 -11  -2   6   92.59    6.70
 -11   3   6   21.50    3.10
 -11  -3  -6   17.20    3.30
  11  -3   6   18.90    3.30
  11   3   6   25.40    3.10
 -11  -3   6   14.30    3.50
 -11  -3   6   19.70    3.90
 -11   0  -7   36.10    3.90
 -11   0   7   28.20    4.20
 -11   0   7   34.80    2.70
  11  -1   7   41.20    3.40
 -11  -1  -7   38.00    4.20
 -11   1   7   37.30    3.30
 -11   1   7   35.00    4.60
 -11  -1   7   35.40    4.50
 -11   1  -7   42.00    4.00
  11  -2   7    1.40    1.90
 -11  -2  -7    3.50    2.40
 -11   2   7    1.90    1.70
 -11  -2   7    4.40    2.60
  11   2   7   -0.70    1.60
 -11  -2   7    1.20    2.80
 -11   2  -7   -1.70    1.80
 -11   3   7    2.20    2.10
 -11  -3  -7    4.60    2.60
  11  -3   7    4.90    2.40
 -11  -3   7    5.20    3.10
  11   3   7    4.10    2.10
 -11  -3   7    2.30    2.80
 -11   0  -8    0.40    2.10
 -11   0   8   -1.60    1.20
 -11   0   8    2.40    2.70
  11  -1   8   19.40    2.90
 -11   1   8   22.10    2.70
 -11  -1  -8   20.80    3.50
 -11   1   8   16.70    3.90
 -11   1  -8   16.10    3.00
 -11  -1   8   20.70    3.90
 -11  -2  -8    7.80    2.80
 -11   2   8    5.10    2.00
  11  -2   8    4.70    2.40
 -11  -2   8    7.70    3.70
  11   2   8    7.20    2.30
 -11  -2   8    2.30    2.80
 -11   0  -9    8.40    2.90
 -11   0   9    5.90    3.40
 -11   0   9    5.20    2.00
 -11   1   9   21.60    2.90
 -11  -1  -9   25.40    4.00
 -11   1  -9   23.10    3.50
 -11  -1   9   24.20    4.40
 -11   2   9    9.70    2.50
 -11  -2  -9   11.80    3.30
  11  -2   9   15.50    3.30
 -11  -2   9   15.60    3.90
 -11  -2   9    6.70    3.80
 -11   0  10   -1.90    3.00
 -11   0 -10    2.50    2.50
  12   0   0  401.86   16.10
 -12   0   0  401.66   16.40
 -12   0   0  400.96   16.80
  12   1   0    0.80    0.60
 -12   1   0    0.40    0.70
 -12  -1   0   -0.60    1.20
  12  -1   0    0.00    0.60
 -12   1   0    2.60    1.50
 -12  -1   0    0.70    1.40
  12  -2   0    1.10    0.60
 -12  -2   0    0.20    2.10
 -12  -2   0    1.20    1.20
 -12  -2   0    0.00    1.40
 -12  -2   0    1.10    0.70
 -12   2   0    0.10    1.70
 -12   3   0    3.10    1.90
 -12  -3   0    0.00    2.60
 -12  -3   0    1.60    1.50
  12  -3   0    2.40    2.30
 -12  -3   0    2.80    1.70
 -12  -4   0    6.30    3.40
 -12  -4   0    9.80    2.50
  12  -4   0    7.00    3.00
 -12   4   0    5.90    2.30
 -12   0  -1    1.30    1.00
 -12   0  -1    2.00    1.40
 -12   0   1    0.30    1.20
  12   0   1   -0.10    0.50
  12   0  -1   -0.80    0.80
 -12   0   1    0.00    1.30
 -12  -1  -1   84.49    4.60
  12  -1   1   78.59    3.90
 -12  -1  -1   73.09    4.30
 -12   1   1   73.69    3.80
  12   1  -1   69.09    3.60
 -12   1   1   70.89    4.40
 -12  -1   1   69.89    3.80
 -12  -1   1   68.59    3.40
 -12  -1   1   78.39    4.70
 -12  -1   1   69.99    4.20
 -12   1  -1   79.09    4.50
  12  -1  -1   66.79    3.60
 -12   2   1   66.29    4.60
 -12  -2  -1   69.09    3.60
  12  -2   1   70.79    4.50
 -12  -2  -1   68.29    4.30
 -12  -2   1   71.69    4.90
  12  -2  -1   68.89    3.60
 -12   2  -1   65.79    4.50
 -12  -2   1   68.09    3.10
 -12  -2   1   73.49    4.00
 -12  -2   1   71.19    4.10
 -12   3   1   17.30    2.60
  12  -3   1   14.90    2.90
 -12  -3  -1   14.60    2.10
 -12  -3  -1   15.50    2.40
 -12   3  -1   17.00    2.60
 -12  -3   1   20.10    2.10
 -12  -3   1   23.30    3.60
 -12  -3   1   21.40    2.80
 -12   4   1   37.50    3.90
 -12  -4  -1   41.40    5.60
  12  -4   1   44.20    5.00
 -12  -4   1   38.70    4.00
 -12  -4   1   36.10    5.00
  12  -4  -1   35.60    5.00
 -12   4  -1   50.59    4.20
 -12   0  -2   11.20    2.00
 -12   0   2   10.90    1.80
 -12   0   2   10.10    1.80
 -12  -1  -2   57.59    4.00
 -12   1   2   68.79    4.20
  12  -1   2   59.99    3.40
 -12   1   2   65.39    3.70
 -12   1   2   63.29    3.70
 -12   1  -2   58.19    4.10
 -12  -1   2   59.99    3.70
 -12  -1   2   64.69    3.80
 -12  -1   2   62.39    4.20
 -12  -2  -2   45.10    2.50
 -12   2   2   41.80    3.80
 -12  -2  -2   46.00    3.50
 -12   2   2   43.50    3.30
  12  -2   2   48.20    3.50
 -12  -2   2   37.40    3.90
 -12  -2   2   42.80    3.40
 -12  -2   2   38.90    2.90
 -12   2  -2   48.10    3.70
 -12  -3  -2   96.89    5.70
 -12   3   2   99.09    5.90
  12  -3   2  101.29    6.20
 -12  -3  -2  104.89    5.30
 -12  -3   2  100.49    6.80
 -12  -3   2   98.59    5.90
  12   3   2  103.09    5.30
 -12   3  -2  109.19    5.90
 -12  -4  -2   36.20    3.70
  12  -4   2   34.10    4.50
 -12   4   2   33.00    3.80
  12  -4  -2   35.50    5.10
 -12  -4   2   30.80    4.60
 -12  -4   2   45.40    4.40
 -12   4  -2   29.50    3.60
 -12   0   3    0.90    0.90
 -12   0  -3    0.00    1.50
 -12   0   3   -0.20    1.30
 -12   0   3   -0.80    1.20
 -12   1   3   40.70    3.50
  12  -1   3   45.40    2.80
 -12   1   3   43.10    3.50
 -12   1   3   44.70    2.90
 -12  -1  -3   37.80    3.20
 -12  -1   3   38.50    3.20
 -12  -1   3   42.10    2.10
 -12  -1   3   40.40    3.70
 -12  -1   3   44.00    3.00
 -12   1  -3   38.00    3.40
 -12   2   3  130.19    6.90
 -12  -2  -3  135.29    7.20
  12  -2   3  137.29    6.90
 -12  -2  -3  140.49    5.90
 -12  -2   3  145.59    7.30
 -12   2  -3  135.49    7.10
 -12  -2   3  140.89    6.30
 -12  -2   3  144.59    7.80
 -12   3   3   46.00    4.30
  12  -3   3   58.89    4.60
 -12  -3  -3   53.19    4.20
 -12  -3   3   56.09    4.50
 -12   3  -3   58.59    4.20
  12   3   3   53.39    3.80
 -12  -3   3   47.90    4.80
  12  -4   3   46.90    4.70
 -12  -4  -3   33.90    3.90
 -12   4   3   26.20    3.70
 -12  -4   3   34.60    4.20
 -12  -4   3   31.30    4.90
 -12   0  -4  225.78   10.50
 -12   0   4  227.88    9.60
 -12   0   4  226.48   10.70
 -12   1   4   72.09    4.90
 -12   1   4   74.69    4.20
  12  -1   4   72.19    4.00
 -12  -1  -4   73.89    4.90
 -12   1  -4   85.49    5.10
 -12   1  -4   72.79    3.10
 -12  -1   4   74.79    4.20
 -12  -1   4   69.49    5.10
 -12  -1   4   84.79    5.10
 -12  -1   4   72.59    3.30
 -12  -2  -4   50.09    4.00
 -12   2   4   35.20    3.30
  12  -2   4   44.20    3.40
  12   2   4   39.60    3.40
 -12   2  -4   45.80    3.90
 -12  -2   4   41.00    3.80
 -12  -2   4   44.00    4.30
 -12   3   4   30.90    3.50
  12  -3   4   32.40    3.90
 -12  -3  -4   27.60    3.50
 -12  -3   4   30.20    4.00
  12   3   4   32.60    3.10
 -12   3  -4   28.10    3.00
 -12  -3   4   35.60    4.40
  12  -4   4   10.60    3.10
 -12   4   4    9.80    2.50
 -12  -4  -4    9.40    2.80
  12   4   4    9.30    2.30
 -12  -4   4   13.00    3.30
 -12  -4   4   11.30    3.30
 -12   0  -5    1.10    1.80
 -12   0   5    1.60    2.10
 -12   0   5    0.40    1.00
  12  -1   5  219.18    9.50
 -12   1   5  212.48   10.50
 -12   1   5  210.58    9.50
 -12  -1  -5  198.98   10.20
 -12  -1   5  215.98    8.70
 -12  -1   5  205.48   10.70
 -12  -1   5  211.98   10.30
 -12   1  -5  220.58   10.10
  12  -2   5    7.10    1.90
 -12   2   5    5.00    1.70
 -12  -2  -5    5.00    1.90
 -12  -2   5    4.80    2.50
 -12   2  -5    5.70    2.00
 -12  -2   5    2.70    2.40
  12   2   5    7.20    1.90
 -12   3   5    9.80    2.40
  12  -3   5   12.40    2.70
 -12  -3  -5   12.50    2.70
 -12  -3   5    9.90    3.20
 -12  -3   5   12.70    3.10
  12   3   5    9.90    2.20
  12  -4   5    7.00    2.70
 -12   4   5    4.20    2.50
 -12  -4  -5    2.10    2.30
  12   4   5    0.90    1.90
 -12  -4   5    3.30    3.10
 -12  -4   5    2.80    2.80
 -12   0   6  192.08    8.20
 -12   0  -6  181.38    9.20
 -12   0   6  174.28    9.70
 -12  -1  -6   25.60    3.50
 -12   1   6   31.20    4.10
 -12   1   6   33.70    2.80
  12  -1   6   30.30    2.80
 -12  -1   6   29.40    3.80
 -12   1  -6   33.20    3.60
 -12  -1   6   31.70    2.00
 -12   2   6   24.80    2.90
 -12  -2  -6   28.40    3.60
  12  -2   6   24.80    3.20
 -12   2  -6   26.80    3.20
  12   2   6   21.30    2.90
 -12  -2   6   23.90    3.90
 -12  -2   6   22.60    3.80
 -12   3   6    5.30    2.10
 -12  -3  -6    8.40    2.70
  12  -3   6    6.70    2.40
  12   3   6    6.80    2.30
 -12  -3   6    9.10    3.10
 -12  -3   6   10.20    3.20
 -12   0   7   -2.30    2.20
 -12   0   7    0.30    1.20
 -12   0  -7    0.80    2.10
 -12   1   7   25.80    4.20
 -12  -1  -7   20.70    3.40
 -12   1   7   17.40    2.30
  12  -1   7   23.10    2.70
 -12  -1   7   19.40    3.80
 -12   1  -7   25.40    3.30
 -12   2   7   63.69    4.50
 -12  -2  -7   57.99    5.00
  12  -2   7   62.19    4.70
 -12   2  -7   50.99    4.50
 -12  -2   7   61.59    5.70
 -12  -2   7   51.09    5.40
  12   2   7   51.29    4.30
  12  -3   7   19.60    3.50
 -12  -3  -7   24.00    3.70
 -12   3   7   27.40    3.50
  12   3   7   22.60    3.30
 -12  -3   7   26.80    4.50
 -12  -3   7   21.30    4.30
 -12   0  -8    3.70    2.40
 -12   0   8    1.70    1.40
 -12   0   8    8.60    3.10
 -12   1   8    7.90    3.30
 -12   1   8    7.40    2.00
  12  -1   8    5.50    2.20
 -12  -1  -8    5.30    2.60
 -12  -1   8   10.10    3.30
 -12   1  -8    8.10    2.50
  12  -2   8   29.00    3.70
 -12   2   8   33.60    3.70
 -12  -2  -8   37.20    4.50
 -12  -2   8   34.80    5.00
 -12  -2   8   31.90    4.90
 -12   0   9   -1.70    2.50
 -12   0  -9   -1.10    2.40
 -12   1   9    9.10    2.10
 -12  -1  -9   10.20    3.30
 -12   1  -9   10.10    3.00
 -12  -1   9   11.70    3.70
 -13   0   0    0.10    1.10
  13   0   0   -0.10    0.70
 -13   0   0    1.00    1.40
 -13   1   0    2.10    1.70
 -13   1   0    2.10    0.80
  13  -1   0   -0.10    0.80
 -13  -1   0    1.80    1.60
  13   1   0    1.80    0.70
 -13  -1   0    1.90    1.50
 -13  -2   0   60.69    4.90
 -13  -2   0   65.29    4.20
 -13   2   0   64.69    4.60
  13  -2   0   64.39    3.00
 -13  -2   0   65.69    3.60
  13  -3   0   39.50    4.30
 -13   3   0   40.30    3.90
 -13  -3   0   43.90    3.50
 -13  -3   0   42.10    3.40
 -13  -3   0   42.40    4.90
 -13   3   0   30.60    3.50
  13  -4   0   11.20    3.30
 -13  -4   0   10.40    3.70
 -13   4   0   12.20    2.70
 -13   0  -1    4.70    1.20
  13   0   1    5.70    0.70
 -13   0  -1    5.70    1.70
  13   0  -1    6.60    1.20
 -13   0   1    5.10    1.40
 -13   0   1    5.10    1.60
 -13   1   1   37.10    3.30
  13  -1   1   37.90    2.60
  13   1  -1   35.40    2.30
 -13  -1  -1   36.10    3.10
 -13   1   1   36.30    2.50
 -13  -1  -1   42.30    3.40
 -13   1  -1   34.00    3.20
 -13  -1   1   40.30    3.00
 -13  -1   1   35.10    3.20
  13  -1  -1   38.10    2.40
  13  -2   1   49.90    3.80
 -13   2   1   44.60    3.90
 -13  -2  -1   52.29    3.80
 -13  -2  -1   51.59    2.80
 -13  -2  -1   49.20    4.60
  13  -2  -1   43.10    2.70
 -13  -2   1   47.80    3.30
 -13  -2   1   45.30    2.30
 -13  -2   1   44.10    4.10
 -13   2  -1   55.49    4.00
 -13  -2   1   47.50    3.30
 -13  -3  -1   82.39    4.80
  13  -3   1   80.99    5.40
 -13   3   1   58.99    4.70
 -13  -3  -1   75.99    4.30
 -13  -3  -1   76.29    6.30
 -13   3  -1   84.09    5.10
 -13  -3   1   62.19    4.60
 -13  -3   1   69.69    4.20
 -13  -3   1   70.29    5.70
 -13  -4  -1   87.59    7.80
  13  -4   1   99.39    6.90
 -13   4   1   96.99    6.20
 -13   4  -1   90.79    6.30
 -13  -4   1  103.79    6.40
  13  -4  -1   90.09    7.10
 -13  -4   1  108.69    7.80
 -13   0  -2   -1.20    1.10
 -13   0   2    1.60    1.40
 -13   0  -2   -0.80    1.50
 -13   0   2   -0.20    1.30
 -13   1   2   46.60    3.30
 -13  -1  -2   53.79    3.80
 -13   1   2   41.50    3.70
  13  -1   2   50.99    3.00
 -13  -1   2   48.30    3.40
 -13  -1   2   49.90    3.40
 -13   1  -2   49.10    3.80
 -13  -1   2   52.69    3.90
  13  -2   2   43.30    3.40
 -13   2   2   36.30    3.20
 -13  -2  -2   44.20    3.60
 -13  -2  -2   45.00    2.30
 -13   2   2   34.70    3.70
 -13  -2   2   38.40    2.90
 -13  -2   2   32.50    3.90
 -13   2  -2   47.40    3.80
 -13  -2   2   41.10    3.40
  13  -3   2   67.29    4.80
 -13  -3  -2   63.09    4.60
 -13   3   2   60.29    4.50
 -13   3  -2   62.29    4.50
 -13  -3   2   50.99    5.10
 -13  -3   2   63.09    4.70
 -13  -4  -2    8.60    2.50
  13  -4   2   13.90    3.30
 -13   4   2   13.10    2.80
 -13  -4   2   17.30    3.80
 -13  -4   2   14.10    3.10
  13  -4  -2   11.20    3.90
 -13   4  -2   11.90    2.80
 -13   0   3  184.78    8.90
 -13   0  -3  191.18    9.20
 -13   0   3  197.58    9.20
 -13   0   3  198.88    8.30
  13  -1   3   81.59    4.10
 -13   1   3   69.99    4.80
 -13  -1  -3   79.49    4.90
 -13   1   3   74.89    4.60
 -13   1   3   77.19    4.40
 -13  -1   3   75.19    3.50
 -13  -1   3   79.29    4.80
 -13  -1   3   79.89    4.40
 -13  -1   3   71.19    5.00
 -13   1  -3   78.39    4.90
  13  -2   3   45.10    3.40
 -13   2   3   34.00    3.40
 -13  -2  -3   47.20    3.90
 -13  -2   3   46.80    4.30
 -13  -2   3   43.80    2.90
 -13   2  -3   49.20    3.90
 -13  -2   3   47.50    3.90
 -13  -3  -3   11.30    2.50
  13  -3   3   13.70    2.70
 -13   3   3   14.20    2.50
 -13  -3   3    9.00    2.50
  13   3   3   13.00    2.10
 -13  -3   3   12.40    3.20
 -13   3  -3   15.60    2.60
 -13  -4  -3    0.50    2.20
  13  -4   3    5.80    2.60
 -13   4   3    1.10    2.20
 -13  -4   3    6.00    3.10
 -13  -4   3    1.60    2.60
 -13   0   4    0.70    1.50
 -13   0   4   -1.50    0.90
 -13   0  -4    0.20    1.80
 -13   0   4    1.30    2.00
 -13  -1  -4  127.19    7.40
 -13   1   4  144.99    6.80
  13  -1   4  146.99    6.60
 -13   1   4  146.59    7.60
 -13  -1   4  136.39    7.80
 -13  -1   4  140.09    5.90
 -13  -1   4  143.09    6.80
 -13   1  -4  137.19    7.40
 -13  -1   4  146.89    7.40
 -13   2   4   64.99    4.30
  13  -2   4   67.09    4.30
 -13  -2  -4   68.69    4.90
 -13   2  -4   62.09    4.60
 -13  -2   4   67.69    5.30
 -13  -2   4   70.39    4.90
 -13   3   4    2.20    1.80
  13  -3   4    1.60    2.00
 -13  -3  -4   -1.90    1.90
 -13  -3   4   -0.70    2.20
 -13  -3   4    2.60    2.40
 -13   3  -4    5.80    2.00
  13   3   4    1.60    1.60
 -13   4   4    4.70    2.30
  13  -4   4    8.20    2.80
 -13  -4  -4    0.40    2.40
 -13  -4   4    7.10    2.90
 -13  -4   4    2.80    2.80
 -13   0  -5  211.68   10.20
 -13   0   5  209.08   10.50
 -13   0   5  211.78    9.20
 -13   1   5   59.89    3.80
 -13  -1  -5   53.69    4.60
  13  -1   5   63.39    3.70
 -13   1   5   59.39    5.00
 -13  -1   5   58.59    5.00
 -13   1  -5   60.59    4.50
 -13  -1   5   60.89    2.90
  13  -2   5   18.20    2.70
 -13  -2  -5   18.20    3.00
 -13   2   5   23.10    2.80
 -13  -2   5   23.40    3.70
 -13   2  -5   15.60    2.70
 -13  -2   5   24.60    3.60
 -13  -3  -5   24.60    3.60
  13  -3   5   28.80    3.60
 -13   3   5   25.30    3.30
 -13  -3   5   25.50    4.10
 -13  -3   5   29.20    4.20
  13   3   5   25.00    3.00
 -13   0  -6   -0.30    1.90
 -13   0   6   -1.20    2.10
 -13   0   6    0.50    1.10
  13  -1   6   40.70    3.10
 -13   1   6   40.30    4.40
 -13  -1  -6   38.70    4.20
 -13   1   6   37.90    3.30
 -13   1  -6   37.00    4.00
 -13  -1   6   38.60    4.10
 -13  -2  -6   86.59    6.10
 -13   2   6   92.79    5.40
  13  -2   6   88.09    5.50
 -13   2  -6   83.69    5.70
 -13  -2   6   92.49    6.40
 -13  -2   6   85.49    6.60
 -13   3   6   26.60    3.40
 -13  -3  -6   19.80    3.40
  13  -3   6   22.10    3.40
 -13  -3   6   28.10    4.40
  13   3   6   21.00    3.10
 -13  -3   6   24.80    4.10
 -13   0  -7   10.60    2.60
 -13   0   7   11.00    3.20
 -13   0   7   13.80    1.80
 -13  -1  -7   12.90    3.10
  13  -1   7   16.20    2.40
 -13   1   7   13.10    3.50
 -13   1   7   16.30    2.30
 -13   1  -7   12.90    2.80
 -13  -1   7   12.50    3.50
 -13  -2  -7    1.50    2.40
  13  -2   7    2.40    1.80
 -13   2   7    0.30    1.80
 -13  -2   7    3.30    2.70
 -13   2  -7   -0.70    2.10
 -13  -2   7    5.00    3.40
  13  -3   7   22.00    3.70
 -13   3   7   26.50    3.50
 -13  -3  -7   29.10    4.20
 -13  -3   7   31.30    5.10
 -13  -3   7   25.10    4.60
  13   3   7   29.00    3.50
 -13   0  -8   -1.80    2.20
 -13   0   8    3.20    2.70
 -13   0   8    0.40    1.40
 -13  -1  -8   14.30    3.40
 -13   1   8   14.90    2.30
 -13   1   8   13.30    3.70
 -13   1  -8    9.20    2.70
 -13  -1   8   12.20    3.50
 -13   2   8   18.90    2.90
  13  -2   8   21.70    3.50
 -13  -2  -8   24.00    3.90
 -13  -2   8   23.40    4.40
 -13  -2   8   16.60    4.00
 -13   0  -9   39.60    4.70
 -13   0   9   34.80    5.10
 -13  -1  -9   32.20    4.70
 -13   1   9   26.80    3.00
 -13  -1   9   20.10    4.50
 -13   1  -9   26.40    3.90
  14   0   0  178.98    8.00
 -14   0   0  192.38    9.00
 -14   0   0  200.28    8.50
  14   1   0  127.79    5.50
 -14  -1   0  125.49    6.60
 -14  -1   0  128.49    6.80
 -14   1   0  139.49    6.90
 -14   1   0  125.79    5.60
 -14  -2   0   31.90    2.40
 -14   2   0   32.20    3.50
 -14  -2   0   33.70    3.00
 -14  -2   0   34.40    3.90
  14  -2   0   33.90    2.20
 -14   3   0    3.40    2.00
 -14  -3   0    7.70    1.90
 -14   3   0    3.30    2.20
 -14  -3   0    3.70    2.80
  14  -3   0    1.60    2.60
 -14  -3   0    4.60    1.90
 -14  -4   0  270.57   14.80
 -14   4   0  291.27   13.50
  14  -4   0  290.47   14.30
 -14   0   1   -0.40    1.50
 -14   0   1    0.10    1.30
 -14   0  -1   -0.60    1.00
  14   0   1   -0.10    0.50
 -14   0  -1   -0.80    1.60
 -14   1   1  145.39    6.60
  14   1  -1  138.39    6.40
 -14   1   1  149.99    7.40
 -14  -1  -1  146.39    7.30
 -14  -1  -1  156.68    7.50
  14  -1   1  143.59    6.70
  14  -1  -1  138.39    6.50
 -14  -1   1  146.09    7.10
 -14  -1   1  142.89    7.40
 -14   1  -1  151.88    7.50
 -14   2   1  114.49    6.50
 -14  -2  -1  115.19    5.10
 -14  -2  -1  114.59    7.00
  14  -2   1  108.19    6.20
 -14  -2  -1  124.19    6.40
 -14  -2   1  116.29    5.90
 -14  -2   1  109.49    6.70
 -14   2  -1  115.79    6.50
 -14  -2   1  106.59    5.70
 -14  -3  -1  150.08    9.20
 -14   3   1  143.89    7.80
  14  -3   1  129.79    7.90
 -14  -3  -1  164.88    7.70
 -14  -3   1  156.88    7.20
 -14   3  -1  157.58    8.00
 -14  -3   1  149.09    7.60
 -14  -3   1  135.99    8.70
  14  -4   1   11.20    3.10
 -14  -4  -1    3.60    3.80
 -14   4   1   13.20    2.80
 -14   4  -1    8.80    2.70
 -14  -4   1    8.50    3.50
  14  -4  -1    7.90    3.40
 -14   0  -2  322.47   13.20
 -14   0  -2  310.17   14.00
 -14   0   2  342.67   14.00
 -14   0   2  297.07   13.80
 -14   1   2  170.68    7.90
 -14  -1  -2  171.08    8.40
 -14   1   2  172.38    8.40
  14  -1   2  163.08    7.40
 -14  -1   2  165.08    8.40
 -14  -1   2  165.78    8.00
 -14   1  -2  173.88    8.40
  14  -2   2  328.57   14.80
 -14   2   2  338.17   14.90
 -14   2   2  355.36   15.50
 -14  -2  -2  354.36   15.20
 -14   2  -2  345.37   15.20
 -14  -2   2  349.77   14.50
 -14  -2   2  336.07   14.80
 -14  -2   2  342.47   15.70
  14  -3   2  108.79    6.60
 -14  -3  -2  104.59    6.30
 -14   3   2  104.99    6.40
 -14  -3   2  115.29    7.50
 -14  -3   2  116.09    6.50
 -14   3  -2  111.39    6.60
 -14   4   2    3.70    2.30
 -14  -4  -2   -7.30    3.30
  14  -4   2   -0.10    2.30
 -14  -4   2    4.70    2.60
  14  -4  -2    1.10    3.20
 -14  -4   2    2.30    2.70
 -14   4  -2   -3.00    2.10
 -14   0   3   -1.20    0.90
 -14   0  -3    0.60    1.80
 -14   0   3    0.70    1.70
 -14   0   3    0.00    1.50
 -14   1   3  690.63   28.60
 -14   1   3  697.13   28.20
  14  -1   3  697.63   27.90
 -14  -1  -3  711.33   28.90
 -14   1   3  681.63   28.80
 -14  -1   3  684.43   29.00
 -14  -1   3  716.83   27.40
 -14  -1   3  702.63   28.30
 -14   1  -3  695.53   28.70
 -14   2   3   68.59    4.40
 -14  -2  -3   74.39    4.90
  14  -2   3   67.49    4.30
 -14  -2   3   59.19    5.00
 -14   2  -3   72.79    4.80
 -14  -2   3   67.89    4.50
 -14  -2   3   61.49    3.80
 -14  -3  -3   18.90    2.90
 -14   3   3   27.00    3.20
  14  -3   3   16.20    3.00
 -14   3  -3   18.50    2.80
 -14  -3   3   21.90    3.20
 -14  -3   3   20.20    3.70
  14  -4   3   25.30    3.80
 -14  -4  -3   21.50    3.40
 -14   4   3   24.50    3.70
 -14  -4   3   30.30    4.20
 -14  -4   3   22.10    4.20
 -14   0  -4 1105.79   44.20
 -14   0   4 1095.79   44.30
 -14   0   4 1083.19   43.10
 -14   0   4 1093.19   43.90
 -14  -1  -4   74.19    5.20
 -14   1   4   80.99    4.50
  14  -1   4   79.79    4.20
 -14   1   4   85.19    5.20
 -14  -1   4   83.09    4.60
 -14  -1   4   76.29    5.50
 -14   1  -4   82.59    5.30
 -14  -1   4   74.79    3.60
 -14  -2  -4   58.49    4.70
 -14   2   4   56.89    4.10
  14  -2   4   57.59    4.00
 -14  -2   4   58.49    4.60
 -14   2  -4   56.29    4.50
 -14  -2   4   61.89    3.40
 -14  -2   4   57.19    5.00
 -14  -3  -4   19.80    3.20
 -14   3   4   20.10    3.00
  14  -3   4   19.80    3.10
 -14  -3   4   25.00    4.10
 -14  -3   4   20.30    3.50
 -14   3  -4   19.00    2.80
 -14   4   4   16.30    3.20
 -14  -4  -4   11.70    3.20
  14  -4   4   15.30    3.40
 -14  -4   4   16.00    3.80
 -14  -4   4   17.00    3.50
 -14   0   5   -0.60    2.00
 -14   0  -5    1.10    2.00
 -14   0   5   -0.60    1.00
  14  -1   5  138.89    7.10
 -14  -1  -5  150.98    8.30
 -14   1   5  163.78    7.50
 -14   1   5  161.18    8.40
 -14  -1   5  157.78    6.50
 -14  -1   5  159.28    8.80
 -14   1  -5  151.78    8.10
 -14  -2  -5  232.58   11.10
  14  -2   5  217.78   10.40
 -14   2   5  228.08   10.50
 -14  -2   5  232.68   11.30
 -14   2  -5  216.48   10.60
 -14  -2   5  199.18   11.40
  14  -3   5   16.60    3.00
 -14  -3  -5   16.00    3.20
 -14   3   5   16.00    2.90
 -14  -3   5   14.70    3.50
 -14   3  -5   15.10    3.80
 -14  -3   5   21.10    3.80
 -14   0  -6   13.30    2.80
 -14   0   6   15.60    3.30
 -14   0   6   11.60    1.70
 -14   1   6   29.80    4.20
 -14   1   6   29.10    2.90
  14  -1   6   29.70    2.60
 -14  -1  -6   32.70    3.90
 -14  -1   6   26.60    4.00
 -14   1  -6   29.90    3.70
  14  -2   6   65.59    4.60
 -14  -2  -6   66.39    5.30
 -14   2   6   62.39    4.50
 -14  -2   6   57.99    5.70
 -14  -2   6   51.49    5.50
 -14   2  -6   55.79    4.60
 -14   3   6  108.29    6.80
 -14  -3  -6  109.69    7.40
  14  -3   6  116.39    6.90
 -14  -3   6  113.29    7.70
 -14  -3   6  108.19    7.90
 -14   0   7    1.00    1.20
 -14   0  -7   -2.00    2.20
 -14   0   7   -2.00    2.50
 -14   1   7   28.80    4.40
 -14  -1  -7   35.70    4.30
 -14   1   7   30.20    3.00
 -14   1  -7   24.00    3.50
 -14  -1   7   27.30    4.40
  14  -2   7   19.60    3.00
 -14   2   7   20.80    3.00
 -14  -2  -7   21.00    3.80
 -14  -2   7   17.80    3.90
 -14  -2   7   24.00    4.40
 -14   2  -7   13.70    3.00
  14  -3   7  124.29    7.50
 -14   3   7  108.39    6.90
 -14  -3  -7  116.49    7.80
 -14  -3   7  120.19    8.50
 -14  -3   7  103.49    8.30
 -14   0  -8   28.60    4.00
 -14   0   8   32.20    4.70
 -14   1   8   31.00    4.90
 -14  -1  -8   31.90    4.40
 -14   1   8   36.30    3.20
 -14   1  -8   29.80    3.90
 -14  -1   8   30.50    4.80
 -14   2   8   10.30    2.40
 -14  -2  -8    9.50    3.20
 -14  -2   8   13.10    3.80
 -14   0  -9   -4.60    2.70
 -14   0   9    3.30    3.20
 -14   1   9   13.00    2.30
 -14  -1  -9   10.30    3.50
 -14  -1   9   10.10    3.70
 -14   1  -9    8.80    3.20
  15   0   0   -0.30    0.70
 -15   0   0    4.30    1.80
 -15   0   0    0.50    1.20
  15   1   0    3.20    0.70
 -15  -1   0    3.80    1.80
 -15   1   0    1.70    0.90
 -15  -1   0    4.00    1.80
 -15   1   0    0.30    1.80
 -15   2   0   22.10    3.20
 -15  -2   0   21.60    2.10
 -15  -2   0   22.80    2.80
 -15  -2   0   23.70    3.50
 -15  -3   0  137.99    7.30
  15  -3   0  141.39    8.10
 -15  -3   0  148.49    8.90
 -15   3   0  150.18    8.10
 -15  -4   0   11.60    3.70
 -15   4   0    5.90    2.50
  15  -4   0    5.70    3.10
  15   0   1  270.57   10.80
  15   0   1  256.07   10.80
 -15   0  -1  285.07   12.30
 -15   0  -1  268.67   11.40
 -15   0   1  272.27   11.80
 -15   0   1  272.87   12.10
 -15  -1  -1    9.80    2.20
  15  -1   1    8.80    1.60
 -15   1   1    4.70    1.40
 -15   1   1    8.00    2.20
 -15  -1  -1    7.50    2.20
 -15   1  -1    8.20    2.00
 -15  -1   1    7.30    2.20
 -15  -1   1    9.30    2.00
  15  -1  -1    9.70    1.50
 -15  -2  -1   84.39    4.80
 -15  -2  -1  102.19    6.90
 -15  -2  -1   99.19    5.80
  15  -2   1   95.79    5.60
 -15   2   1  115.89    6.40
 -15  -2   1  102.39    5.30
 -15  -2   1  108.09    5.60
 -15   2  -1   98.79    6.10
 -15  -2   1  114.99    6.60
 -15  -3  -1   83.89    5.20
 -15   3   1   86.79    5.60
 -15  -3  -1   79.79    6.70
  15  -3   1   72.59    5.50
 -15  -3   1   85.59    6.50
 -15   3  -1   83.89    5.80
 -15  -3   1   89.39    4.90
 -15  -3   1   89.49    5.20
 -15  -4  -1   89.79    8.00
 -15   4   1  105.89    6.80
  15  -4   1  104.49    7.10
  15  -4  -1  109.39    7.90
 -15   4  -1   93.09    6.70
 -15  -4   1   96.49    7.70
 -15   0   2   -0.40    1.50
 -15   0  -2    0.00    1.10
 -15   0   2    0.20    1.40
 -15   0  -2   -1.30    1.70
  15  -1   2  110.09    5.10
 -15   1   2   96.99    6.10
 -15  -1  -2  115.29    6.10
 -15   1   2  102.49    5.60
 -15  -1  -2  103.49    6.20
 -15  -1   2  112.79    6.20
 -15  -1   2  106.09    5.70
 -15   1  -2  102.69    6.20
 -15   2   2  104.49    5.70
  15  -2   2   95.39    5.40
 -15   2   2   89.79    6.10
 -15  -2  -2   93.99    5.80
 -15  -2   2   98.99    5.50
 -15   2  -2  100.39    6.00
 -15  -2   2  101.69    5.30
 -15  -2   2   99.59    6.40
 -15   3   2   88.89    5.70
  15  -3   2   84.69    5.80
 -15  -3  -2   85.99    5.70
 -15  -3   2   90.99    6.60
 -15  -3   2   89.59    5.60
 -15   3  -2   85.29    5.70
 -15  -4  -2    1.10    4.00
  15  -4   2    9.60    2.90
 -15   4   2    9.60    2.80
  15  -4  -2    1.40    3.60
 -15   4  -2   -1.90    2.60
 -15  -4   2    5.40    3.20
 -15   0   3  328.47   13.80
 -15   0  -3  345.57   13.90
 -15   0   3  322.07   14.50
 -15   0  -3  316.17   14.70
 -15   0   3  343.07   14.70
  15  -1   3   53.29    3.20
 -15  -1  -3   51.89    4.30
 -15   1   3   58.99    3.60
 -15   1   3   51.49    4.20
 -15   1   3   59.09    4.20
 -15  -1   3   52.89    2.80
 -15  -1   3   55.69    4.50
 -15  -1   3   51.79    3.80
 -15   1  -3   59.69    4.50
 -15   2   3   40.50    3.50
 -15  -2  -3   34.00    3.80
  15  -2   3   41.60    3.30
 -15  -2   3   45.20    4.00
 -15   2  -3   38.20    3.90
 -15  -2   3   42.50    4.40
 -15  -2   3   44.20    3.00
  15  -3   3   65.79    4.90
 -15  -3  -3   60.39    4.80
 -15   3   3   63.19    4.70
 -15  -3   3   58.19    4.90
 -15   3  -3   63.29    4.90
 -15  -3   3   64.79    5.70
 -15  -4  -3   22.70    3.60
  15  -4   3   33.90    4.20
 -15   4   3   25.90    3.70
 -15  -4   3   26.90    4.60
 -15  -4   3   21.20    3.70
 -15   0   4   -0.10    2.00
 -15   0   4   -0.10    1.10
 -15   0  -4   -1.20    2.00
 -15   0   4    2.30    1.80
 -15  -1  -4  129.49    7.30
 -15   1   4  133.19    6.60
  15  -1   4  129.09    6.20
 -15   1   4  135.49    7.30
 -15   1  -4  133.19    7.40
 -15  -1   4  134.89    5.70
 -15  -1   4  140.79    7.80
 -15  -1   4  128.39    6.60
 -15  -2  -4  123.19    7.10
 -15   2   4  110.99    6.20
  15  -2   4  117.39    6.20
 -15   2  -4  116.09    6.70
 -15  -2   4  115.19    5.60
 -15  -2   4  117.19    6.90
 -15  -2   4  103.29    7.20
 -15  -3  -4    3.90    2.30
 -15   3   4    3.00    2.10
  15  -3   4    2.80    1.90
 -15   3  -4    2.30    1.90
 -15  -3   4    7.00    2.90
 -15  -3   4    2.70    2.50
 -15   0   5    1.20    2.20
 -15   0  -5    3.60    2.30
 -15   0   5    4.50    1.30
 -15   1   5  176.48    9.50
 -15   1   5  177.38    8.60
 -15  -1  -5  182.58    9.50
  15  -1   5  187.18    8.30
 -15  -1   5  187.58   10.00
 -15   1  -5  191.88    9.40
 -15  -2  -5   41.70    4.40
 -15   2   5   45.90    4.00
  15  -2   5   51.19    3.80
 -15  -2   5   48.30    4.60
 -15  -2   5   42.00    4.80
 -15   2  -5   52.29    4.40
 -15  -3  -5   48.20    4.80
 -15   3   5   42.50    4.20
  15  -3   5   46.30    4.30
 -15  -3   5   45.50    4.80
 -15  -3   5   42.20    5.30
 -15   3  -5   39.20    4.70
 -15   0  -6    0.20    2.20
 -15   0   6    1.30    2.50
 -15   0   6    2.20    1.20
 -15   1   6    2.90    1.60
 -15  -1  -6    0.80    2.40
 -15   1   6    3.50    2.50
 -15   1  -6    3.70    2.60
 -15  -1   6    3.10    2.60
 -15   2   6   88.59    5.70
 -15  -2  -6   99.99    6.70
  15  -2   6  101.79    5.80
 -15   2  -6   91.79    6.10
 -15  -2   6   95.59    6.70
 -15  -2   6  102.79    7.30
  15  -3   6   58.79    4.90
 -15   3   6   59.99    4.80
 -15  -3  -6   58.89    5.40
 -15  -3   6   52.59    5.60
 -15  -3   6   54.89    5.80
 -15   0  -7   22.60    3.60
 -15   0   7   15.00    3.80
 -15   0   7   21.30    2.30
 -15   1   7   31.90    3.10
 -15  -1  -7   35.00    4.30
 -15   1   7   33.60    4.70
 -15   1  -7   29.00    3.90
 -15  -1   7   30.30    4.60
 -15  -2  -7    3.10    2.60
 -15   2   7   -1.60    1.80
 -15  -2   7    2.60    2.80
 -15   2  -7   -2.40    2.10
 -15  -2   7    4.80    3.40
 -15   0  -8   -2.20    2.50
 -15   0   8    4.10    3.20
 -15  -1  -8   12.70    3.40
 -15   1   8   11.20    3.70
 -15   1   8    9.60    2.10
 -15   1  -8   12.40    3.10
 -15  -1   8   11.10    3.60
 -15   2   8   30.40    3.50
 -15  -2  -8   32.80    4.60
 -15  -2   8   22.80    4.60
 -15   0   9   61.09    6.30
 -15   0  -9   53.19    5.80
 -16   0   0  417.96   17.50
 -16   0   0  407.16   16.90
  16   0   0  392.96   16.30
 -16  -1   0  431.06   17.90
 -16   1   0  414.96   18.10
  16   1   0  410.56   16.60
 -16   1   0  416.36   16.80
 -16  -1   0  414.06   17.90
 -16  -2   0    1.40    1.20
 -16  -2   0    3.40    2.30
 -16   2   0    2.00    2.20
 -16  -2   0    4.10    1.90
 -16  -3   0   95.19    7.10
  16  -3   0   97.29    6.50
 -16  -3   0   97.29    5.70
 -16   3   0  110.59    6.80
 -16  -4   0   -0.20    3.00
 -16   4   0    2.30    2.50
  16  -4   0   -0.10    2.60
 -16   0  -1    0.60    1.90
 -16   0   1    0.70    1.80
 -16   0  -1   -0.60    1.10
  16   0   1   -0.20    0.60
 -16   0   1    0.00    1.50
  16   0   1    0.20    0.50
 -16   1   1  156.58    8.20
  16  -1   1  147.39    7.10
 -16  -1  -1  166.58    8.10
 -16   1   1  150.98    7.20
 -16  -1  -1  162.08    8.10
 -16  -1   1  157.98    8.00
 -16   1  -1  151.08    8.10
 -16  -1   1  165.58    7.80
 -16  -2  -1  225.48   10.60
 -16   2   1  216.68   10.90
  16  -2   1  219.98   10.30
 -16  -2  -1  238.48   11.30
 -16  -2   1  220.08   10.20
 -16  -2   1  214.08    9.90
 -16   2  -1  218.38   10.80
 -16  -2   1  224.88   11.20
 -16  -3  -1   10.40    3.70
 -16  -3  -1   19.90    2.90
 -16   3   1   12.70    2.70
  16  -3   1   20.60    3.40
 -16  -3   1   16.10    3.60
 -16  -3   1   13.70    2.30
 -16   3  -1   17.30    3.00
  16  -4   1   36.10    4.50
 -16  -4  -1   25.20    5.00
 -16   4   1   27.10    3.80
  16  -4  -1   29.90    4.90
 -16   4  -1   28.80    3.90
 -16  -4   1   29.90    4.90
 -16   0  -2  142.09    6.50
 -16   0   2  143.59    7.30
 -16   0   2  132.19    7.10
 -16   0  -2  139.89    7.50
 -16   1   2   11.40    2.00
 -16   1   2   10.40    2.50
  16  -1   2   10.80    1.60
 -16  -1  -2    9.50    2.50
 -16  -1  -2    8.50    2.40
 -16   1  -2   10.10    2.60
 -16  -1   2   11.70    2.50
 -16  -1   2    9.70    2.20
 -16   2   2  101.59    5.70
 -16   2   2  104.29    6.40
 -16  -2  -2   88.19    6.50
  16  -2   2   91.29    5.40
 -16  -2  -2   95.19    6.20
 -16  -2   2  106.09    5.50
 -16  -2   2  101.89    5.60
 -16   2  -2   94.09    6.10
 -16  -2   2   99.69    6.50
  16  -3   2   97.99    6.00
 -16  -3  -2   86.99    5.90
 -16  -3  -2   92.79    7.30
 -16   3   2   94.09    5.90
 -16  -3   2   87.19    5.60
 -16   3  -2   89.79    6.20
 -16  -3   2   83.89    6.70
 -16  -4  -2   33.60    6.00
 -16   4   2   35.40    4.20
  16  -4   2   46.50    5.30
 -16   4  -2   37.00    4.30
 -16  -4   2   44.70    5.90
  16  -4  -2   38.80    5.60
 -16   0   3   -0.30    1.90
 -16   0   3    0.00    1.10
 -16   0  -3   -0.10    1.40
 -16   0   3    0.40    1.70
 -16   0  -3   -1.10    1.90
  16  -1   3   65.19    3.30
 -16  -1  -3   47.50    4.40
 -16   1   3   52.79    3.60
 -16   1   3   55.89    4.40
 -16   1   3   60.09    4.30
 -16  -1   3   49.80    3.90
 -16   1  -3   46.80    4.50
 -16  -1   3   58.49    4.60
 -16  -1   3   59.19    3.00
 -16   2   3    9.00    2.10
 -16  -2  -3    4.60    2.30
  16  -2   3   10.70    2.00
 -16   2  -3    4.20    2.30
 -16  -2   3    8.90    1.70
 -16  -2   3    8.20    2.70
 -16  -2   3   10.80    2.50
 -16   3   3   20.30    3.10
 -16  -3  -3   20.60    3.30
  16  -3   3   19.20    3.00
 -16  -3   3   19.90    3.30
 -16   3  -3   17.20    3.20
 -16  -3   3   19.90    3.80
  16  -4   3   34.80    4.30
 -16   4   3   24.90    3.70
 -16  -4  -3   20.20    4.10
 -16  -4  -3   18.00    5.50
 -16  -4   3   32.00    5.00
 -16   0  -4   39.30    4.10
 -16   0   4   42.70    3.70
 -16   0   4   42.40    2.80
 -16   0   4   40.90    4.30
 -16   1   4    6.20    1.70
 -16   1   4    5.50    2.20
  16  -1   4    8.60    1.40
 -16  -1  -4    8.70    2.60
 -16  -1   4    4.50    1.60
 -16   1  -4    9.60    2.80
 -16  -1   4    7.80    2.60
 -16  -1   4    5.90    0.90
 -16   2   4   17.10    2.60
 -16  -2  -4   16.10    3.00
  16  -2   4   14.50    2.30
 -16  -2   4   18.70    3.50
 -16   2  -4   13.00    3.00
 -16  -2   4   17.80    2.00
 -16  -2   4   13.60    3.00
  16  -3   4   21.70    3.20
 -16  -3  -4   21.10    3.40
 -16   3   4   16.10    3.10
 -16   3  -4   15.20    2.80
 -16  -3   4   20.10    3.50
 -16  -3   4   15.50    3.60
 -16   0   5    1.60    2.30
 -16   0  -5   -2.60    2.00
 -16   0   5    2.20    1.20
 -16   1   5    4.20    1.70
 -16  -1  -5    6.30    2.50
 -16   1   5    5.80    2.50
 -16   1  -5    7.90    2.70
 -16  -1   5    4.40    2.60
 -16   2   5    2.50    1.80
  16  -2   5    1.00    1.40
 -16  -2  -5   -1.40    2.30
 -16  -2   5    0.80    2.40
 -16  -2   5    0.10    2.50
 -16   2  -5    1.80    2.30
  16  -3   5   66.39    5.10
 -16  -3  -5   66.49    5.50
 -16   3   5   67.09    5.20
 -16  -3   5   58.59    5.80
 -16  -3   5   67.59    6.20
 -16   3  -5   61.89    5.60
 -16   0  -6   41.40    4.60
 -16   0   6   46.20    3.20
 -16   0   6   47.70    4.90
 -16   1   6   28.10    4.00
 -16   1   6   26.80    2.80
 -16  -1  -6   24.60    3.80
 -16  -1   6   23.50    4.00
 -16   1  -6   24.00    3.70
 -16   2   6   43.70    3.80
 -16  -2  -6   47.90    5.00
 -16  -2   6   39.90    4.80
 -16   2  -6   41.20    4.50
 -16  -2   6   35.40    4.90
  16  -3   6   16.00    2.90
 -16   3   6   15.00    3.10
 -16  -3  -6   12.40    3.50
 -16  -3   6    8.60    3.60
 -16  -3   6   17.60    4.10
 -16   0   7   -0.20    1.40
 -16   0  -7    0.00    2.50
 -16   0   7    2.10    2.90
 -16  -1  -7    9.60    3.10
 -16   1   7    9.80    3.70
 -16   1   7   13.10    2.30
 -16   1  -7   10.30    3.20
 -16  -1   7   11.70    3.50
 -16   2   7   31.20    3.50
 -16  -2  -7   31.30    4.40
 -16   2  -7   26.90    4.00
 -16  -2   7   35.90    5.10
 -16   0  -8   74.09    6.30
 -16   0   8   86.09    7.10
 -16  -1  -8   -1.10    2.60
 -16   1   8    0.50    3.10
 -16   1   8    1.30    1.70
 -16  -1   8    2.50    3.10
 -16   1  -8   -1.30    2.70
  17   0   0    1.20    0.80
 -17   0   0    1.00    1.90
 -17   0   0    0.60    1.30
 -17  -1   0    9.90    2.40
 -17  -1   0    7.90    2.20
 -17   1   0    6.40    2.40
 -17   1   0    7.70    1.20
 -17  -2   0   25.20    3.10
 -17   2   0   25.40    3.50
 -17  -2   0   25.00    3.70
 -17   3   0   11.50    2.90
 -17  -3   0   11.30    3.50
  17  -3   0   14.90    3.30
 -17  -3   0   12.50    2.60
 -17   4   0    1.40    2.30
  17  -4   0   -2.20    2.40
 -17  -4   0    6.10    3.40
  17   0   1  169.88    7.10
 -17   0   1  178.38    8.70
 -17   0  -1  168.08    8.80
  17   0   1  170.38    7.10
 -17   0   1  182.68    8.30
 -17   0  -1  170.98    7.90
 -17   1   1  120.69    6.00
  17  -1   1  124.29    6.00
 -17  -1  -1  126.19    7.00
 -17  -1  -1  123.19    6.70
 -17   1   1  125.19    7.00
 -17  -1   1  128.69    6.90
 -17  -1   1  129.69    6.90
 -17   1  -1  124.19    7.10
 -17  -2  -1   16.20    3.30
  17  -2   1    8.80    2.30
 -17   2   1    8.70    2.60
 -17  -2  -1    9.60    2.40
 -17  -2   1    9.20    2.20
 -17   2  -1   11.80    2.70
 -17  -2   1   12.20    3.00
 -17  -2   1    8.70    1.80
 -17  -3  -1    8.90    3.60
 -17   3   1   10.80    2.80
  17  -3   1    6.70    2.50
 -17  -3  -1    4.40    2.40
 -17  -3   1   14.10    3.40
 -17   3  -1   15.90    3.10
  17  -4   1    4.20    2.70
 -17   4   1   -1.10    2.30
 -17  -4  -1   -2.00    3.30
  17  -4  -1   -1.70    2.80
 -17   4  -1    2.50    2.60
 -17  -4   1    6.10    3.20
 -17   0   2   -0.20    1.60
 -17   0  -2   -0.70    1.10
 -17   0   2   -0.20    1.80
 -17   0  -2   -1.40    1.50
 -17  -1  -2  113.09    6.70
 -17  -1  -2  113.19    6.40
 -17   1   2  117.29    6.00
 -17   1   2  110.79    6.70
  17  -1   2  120.19    5.50
 -17  -1   2  115.89    6.70
 -17   1  -2   99.29    6.60
 -17  -1   2  116.39    6.30
 -17   2   2  115.49    6.30
  17  -2   2  111.99    6.10
 -17  -2  -2  111.99    6.70
 -17  -2  -2  121.49    7.60
 -17   2   2  114.29    7.00
 -17  -2   2  113.79    7.20
 -17  -2   2  111.79    6.10
 -17   2  -2  109.29    6.80
 -17  -2   2  112.69    6.20
 -17  -3  -2   30.30    3.70
  17  -3   2   25.90    3.40
 -17   3   2   24.70    3.30
 -17  -3  -2   19.40    4.50
 -17  -3   2   25.50    4.20
 -17   3  -2   31.60    3.90
  17  -4   2   14.30    3.30
  17  -4  -2    7.00    4.00
 -17   0   3  145.39    7.70
 -17   0  -3  136.99    6.70
 -17   0   3  147.49    6.80
 -17   0   3  152.48    7.80
 -17   0  -3  142.29    8.00
  17  -1   3   13.40    1.60
 -17  -1  -3   14.10    2.80
 -17   1   3    7.80    1.80
 -17   1   3   12.50    2.50
 -17   1   3   11.60    2.60
 -17  -1   3   11.20    2.20
 -17   1  -3   12.50    2.80
 -17  -1   3   11.30    1.30
 -17  -1   3   10.80    2.80
  17  -2   3   46.30    3.40
 -17  -2  -3   48.40    4.70
 -17   2   3   38.30    3.60
 -17  -2   3   45.60    3.40
 -17  -2   3   43.50    4.60
 -17   2  -3   40.60    4.40
 -17  -2   3   37.80    3.90
 -17  -3  -3   56.59    5.00
  17  -3   3   60.39    4.80
 -17   3   3   68.09    5.00
 -17   3  -3   72.89    5.50
 -17  -3   3   67.49    6.00
 -17   0  -4   -3.50    1.50
 -17   0   4    0.30    1.60
 -17   0  -4    2.90    2.30
 -17   0   4    0.00    1.10
 -17   0   4   -1.90    2.00
  17  -1   4   63.79    3.80
 -17  -1  -4   65.99    5.20
 -17   1   4   69.39    4.80
 -17   1   4   66.19    4.10
 -17  -1   4   67.79    4.40
 -17  -1   4   61.19    5.20
 -17   1  -4   62.59    5.10
  17  -2   4   21.00    2.60
 -17  -2  -4   17.60    3.30
 -17   2   4   23.20    2.80
 -17  -2   4   18.20    3.50
 -17  -2   4   18.60    3.30
 -17   2  -4   23.00    3.60
 -17  -2   4   23.30    2.40
 -17   3   4    7.00    2.40
  17  -3   4    8.80    2.20
 -17  -3  -4    6.10    2.90
 -17  -3   4    4.90    3.00
 -17   3  -4    8.70    2.50
 -17  -3   4    6.40    3.10
 -17   0  -5   39.30    4.40
 -17   0   5   47.60    4.50
 -17   0   5   46.90    3.10
 -17   1   5    8.90    2.70
 -17  -1  -5    6.60    2.80
 -17   1   5   11.70    2.00
 -17  -1   5    5.60    2.70
 -17   1  -5    7.90    2.80
 -17   2   5   -0.40    1.70
  17  -2   5    2.40    1.50
 -17  -2  -5   -0.40    2.50
 -17  -2   5    1.80    2.50
 -17  -2   5    0.30    2.70
 -17   2  -5   -1.60    2.30
 -17   3   5   19.90    3.10
  17  -3   5   19.90    3.20
 -17  -3  -5   13.80    3.40
 -17  -3   5   15.70    3.50
 -17  -3   5   20.80    4.20
 -17   3  -5   19.70    3.60
 -17   0   6    2.10    1.30
 -17   0   6   -1.20    2.30
 -17   0  -6   -0.80    2.30
 -17   1   6    5.20    1.80
 -17   1   6    5.20    2.70
 -17  -1  -6    2.50    2.70
 -17   1  -6    4.20    2.60
 -17  -1   6    5.60    3.00
 -17   2   6    6.60    2.00
 -17  -2  -6    8.60    3.10
 -17   2  -6    3.60    2.90
 -17  -2   6   11.90    3.40
 -17   0  -7   62.69    5.60
 -17   0   7   60.79    5.90
 -17  -1  -7   21.60    4.00
 -17   1   7   24.60    4.50
 -17   1   7   27.50    3.10
 -17   1  -7   24.40    4.10
 -17  -1   7   25.30    4.70
 -17   2   7    1.90    1.80
 -17  -2  -7    3.30    3.00
 -17   2  -7   -1.80    2.70
 -17  -2   7    3.20    3.00
 -17   0  -8   -1.80    2.80
 -17   0   8   -1.10    2.90
 -17   1   8   29.30    4.80
 -17  -1  -8   29.50    4.60
 -17   1   8   29.80    3.40
 -17  -1   8   35.10    5.20
 -17   1  -8   29.00    4.40
 -18   0   0  492.95   20.50
 -18   0   0  497.85   21.20
 -18   1   0   59.59    4.80
 -18  -1   0   64.39    4.90
 -18   1   0   47.30    4.00
 -18  -1   0   71.99    4.80
 -18   2   0    0.70    2.30
 -18  -2   0    2.50    2.50
 -18  -2   0    0.20    1.80
 -18  -3   0    0.50    2.80
  18  -3   0    0.60    2.60
 -18   3   0    3.10    2.60
 -18  -3   0    1.90    2.10
 -18   0  -1   -0.60    2.10
 -18   0   1    1.30    1.60
 -18   0   1   -0.60    1.90
  18   0   1   -0.10    0.50
 -18   0  -1    0.90    1.20
  18  -1   1  117.59    5.90
 -18   1   1  125.99    7.20
 -18   1   1  114.89    6.00
 -18  -1  -1  129.39    7.30
 -18  -1  -1  128.19    6.90
 -18  -1   1  121.49    6.80
 -18   1  -1  124.49    7.20
 -18  -1   1  130.69    7.10
 -18   2   1   75.99    5.70
 -18  -2  -1   77.49    5.80
 -18  -2  -1   73.39    5.40
  18  -2   1   72.79    4.80
 -18  -2   1   69.19    5.60
 -18   2  -1   79.59    5.60
 -18  -2   1   81.89    5.10
 -18   3   1   10.30    2.90
  18  -3   1    5.10    2.40
 -18  -3  -1    3.90    3.10
 -18   3   1    4.40    2.20
 -18  -3  -1    1.90    2.30
 -18   3  -1    4.50    2.40
 -18  -3   1    5.60    3.00
 -18   0   2    6.20    2.20
 -18   0   2    4.60    1.90
 -18   0  -2    4.90    1.40
 -18   0  -2    2.60    2.20
 -18   1   2   20.70    3.30
  18  -1   2   21.10    2.00
 -18  -1  -2   23.40    3.30
 -18   1   2   20.80    2.60
 -18  -1  -2   18.60    3.00
 -18  -1   2   21.70    3.00
 -18   1  -2   20.70    3.30
 -18  -1   2   21.40    3.30
 -18  -2  -2   46.50    4.50
 -18   2   2   44.10    4.50
 -18  -2  -2   50.69    5.00
 -18   2   2   51.59    4.20
  18  -2   2   54.09    3.80
 -18  -2   2   43.80    4.60
 -18   2  -2   42.70    4.50
 -18  -2   2   47.30    3.80
 -18   3   2   43.00    4.40
 -18  -3  -2   52.09    6.10
  18  -3   2   59.49    4.60
 -18  -3  -2   48.70    4.50
 -18  -3   2   43.20    5.50
 -18   3  -2   51.79    4.70
 -18   0   3   -0.40    1.20
 -18   0  -3    0.30    1.20
 -18   0  -3   -2.20    1.90
 -18   0   3    1.70    1.90
 -18   0   3    1.50    1.90
 -18  -1  -3   -2.80    2.10
 -18  -1  -3    1.00    2.30
 -18   1   3    2.30    2.00
 -18   1   3    0.90    1.70
 -18   1   3   -0.10    1.50
  18  -1   3    1.40    0.90
 -18  -1   3   -0.10    2.10
 -18  -1   3    0.00    1.70
 -18   1  -3   -1.20    2.30
 -18  -1   3    0.90    0.90
 -18  -2  -3    6.60    2.60
 -18   2   3   12.00    2.50
  18  -2   3   11.90    2.10
 -18  -2   3   10.50    2.00
 -18   2  -3    9.20    2.80
 -18  -2   3    9.40    2.90
 -18  -3  -3   41.30    5.90
 -18   3   3   37.40    4.20
  18  -3   3   50.99    4.10
 -18  -3  -3   42.70    4.70
 -18   3  -3   51.89    4.90
 -18  -3   3   49.10    5.30
 -18   0   4    4.80    2.00
 -18   0  -4    6.60    2.60
 -18   0   4    5.30    1.40
 -18   0   4    4.70    2.60
 -18   1   4   32.30    3.80
 -18   1   4   31.30    3.10
 -18  -1  -4   36.60    4.20
 -18   1   4   30.00    3.70
 -18   1  -4   23.20    3.70
 -18  -1   4   29.00    4.20
 -18  -1   4   34.60    3.30
 -18  -2  -4    4.90    2.50
 -18   2   4    3.10    1.80
  18  -2   4    3.70    1.50
 -18   2  -4    4.90    2.80
 -18  -2   4    6.90    2.80
 -18   3   4    4.60    2.30
 -18  -3  -4    0.60    2.60
  18  -3   4    7.70    2.20
 -18   3  -4    8.90    2.70
 -18  -3   4   -0.10    2.80
 -18  -3   4    7.50    3.20
 -18   0  -5   -3.50    2.10
 -18   0   5    0.80    1.20
 -18   0   5   -1.20    2.30
 -18  -1  -5   11.90    3.00
 -18   1   5   10.90    2.20
 -18   1   5   15.40    3.10
 -18  -1   5   16.20    3.50
 -18   1  -5   14.60    3.50
 -18   2   5   34.10    3.50
 -18  -2  -5   22.90    3.90
 -18   2  -5   30.80    3.90
 -18  -2   5   23.60    4.10
 -18   3   5    5.20    2.40
 -18  -3  -5   -1.00    2.90
 -18   3  -5    6.00    4.00
 -18  -3   5    6.90    3.40
 -18  -3   5    0.80    3.00
 -18   0  -6   29.20    4.10
 -18   0   6   34.40    4.60
 -18   0   6   29.00    2.70
 -18   1   6   10.20    3.20
 -18   1   6    5.10    1.80
 -18  -1  -6    7.20    3.00
 -18   1  -6    7.00    2.90
 -18  -1   6   13.20    3.40
 -18  -2  -6    7.80    3.10
 -18   2   6    6.40    2.00
 -18   2  -6    2.30    2.90
 -18  -2   6    6.80    3.20
 -18   0   7   -3.10    3.00
 -18   0  -7    1.50    2.90
 -18   1   7    0.40    2.90
 -18   1   7    6.60    1.90
 -18  -1  -7    3.10    3.10
 -18  -1   7    4.70    3.20
 -18   1  -7    6.50    2.90
 -18   2   7    8.10    2.40
 -18  -2  -7    9.30    3.30
 -18  -2   7   13.70    3.80
 -18   2  -7    6.80    3.10
 -18   0   8    3.00    3.30
 -18   0  -8    4.30    3.20
 -18   1   8   17.10    2.70
 -18   1   8   15.00    4.10
 -18  -1  -8   14.40    4.00
 -18  -1   8   14.40    4.20
 -18   1  -8   12.40    3.50
 -19   0   0    2.70    1.50
 -19   0   0    4.40    2.30
 -19   1   0    2.90    2.40
 -19  -1   0    8.40    2.50
 -19  -1   0    7.80    2.40
 -19  -2   0   25.10    3.80
 -19  -2   0   25.40    3.30
 -19   2   0   22.00    3.50
 -19   3   0    1.70    2.30
  19  -3   0   -0.80    2.20
 -19  -3   0   -1.80    2.00
 -19  -3   0    1.40    2.90
 -19   0   1    0.90    1.60
 -19   0  -1    1.90    1.30
 -19   0  -1    3.00    2.30
 -19   0   1   -2.10    1.90
 -19  -1  -1   34.20    3.60
 -19   1   1   31.40    2.70
 -19   1   1   30.30    3.80
  19  -1   1   27.60    2.50
 -19  -1  -1   32.20    3.80
 -19   1  -1   30.10    3.80
 -19  -1   1   27.30    3.40
 -19  -1   1   37.00    3.90
  19  -2   1    4.50    1.90
 -19  -2  -1    6.40    2.50
 -19   2   1    7.90    2.80
 -19  -2  -1    7.30    3.00
 -19   2  -1    7.70    2.70
 -19  -2   1    6.60    2.30
 -19  -2   1    6.20    2.80
 -19  -3  -1   23.80    4.30
 -19   3   1   23.80    3.80
 -19  -3  -1   19.90    3.30
  19  -3   1   18.80    3.30
 -19   3   1   16.30    3.00
 -19  -3   1   22.00    4.10
 -19   3  -1   20.30    3.40
 -19   0   2    1.60    1.90
 -19   0  -2    3.10    2.40
 -19   0  -2    1.60    1.20
 -19   0   2    0.90    1.60
  19  -1   2    9.70    1.50
 -19  -1  -2    9.00    2.40
 -19   1   2    9.60    2.00
 -19  -1  -2    5.90    2.60
 -19   1   2    8.50    2.60
 -19  -1   2    7.80    2.40
 -19  -1   2    9.30    2.50
 -19   1  -2    7.10    2.70
 -19  -2  -2   31.10    3.80
 -19   2   2   25.30    3.30
 -19  -2  -2   26.40    4.20
  19  -2   2   30.80    3.00
 -19   2   2   24.30    3.70
 -19   2  -2   31.60    4.00
 -19  -2   2   26.10    3.10
 -19  -2   2   26.00    3.90
 -19  -3  -2   20.90    3.60
 -19   3   2   23.20    3.30
  19  -3   2   24.00    3.40
 -19  -3  -2   12.90    4.20
 -19   3  -2   23.70    3.60
 -19  -3   2   21.00    4.00
 -19   0   3   32.90    3.60
 -19   0   3   23.70    2.50
 -19   0  -3   25.20    3.60
 -19   0   3   28.10    3.50
 -19   1   3    0.50    1.90
 -19   1   3    4.10    2.00
 -19  -1  -3   -0.80    2.30
 -19  -1  -3   -1.40    2.20
 -19   1   3    0.10    1.60
 -19  -1   3    3.50    2.40
 -19  -1   3    2.40    2.00
 -19   1  -3   -1.10    2.40
 -19  -1   3    0.80    0.90
  19  -2   3    8.40    1.80
 -19  -2  -3    4.70    2.60
 -19  -2  -3    0.50    2.90
 -19   2   3    3.40    2.00
 -19   2  -3    5.80    2.70
 -19  -2   3    5.60    2.80
 -19  -2   3    7.90    2.00
 -19  -3  -3    2.90    2.50
 -19   3   3    5.60    2.40
 -19  -3  -3  -10.50    3.70
  19  -3   3    5.90    2.00
 -19   3  -3    6.00    2.70
 -19  -3   3    4.40    2.90
 -19   0   4    0.20    2.10
 -19   0  -4   -1.80    2.20
 -19   0   4   -1.20    1.70
 -19   0   4    0.10    1.20
 -19   1   4    1.40    2.10
 -19   1   4    2.60    2.30
 -19  -1  -4    0.20    2.30
 -19   1   4    2.50    1.60
 -19  -1   4    2.20    2.40
 -19   1  -4   -1.50    2.30
 -19  -1   4    3.30    1.60
 -19  -2  -4   -1.90    2.40
 -19   2   4    4.90    2.10
 -19   2  -4    4.90    3.00
 -19  -2   4    3.00    2.60
 -19  -3  -4    3.30    3.00
 -19   3   4    3.40    2.20
 -19  -3   4    7.80    3.30
 -19   3  -4    6.80    2.70
 -19   0   5   24.50    3.70
 -19   0  -5   24.80    3.90
 -19   0   5   28.30    2.60
 -19   1   5    0.60    1.60
 -19   1   5    0.30    2.40
 -19  -1  -5   -0.50    2.40
 -19   1  -5   -1.80    2.50
 -19  -1   5   -0.10    2.40
 -19   2   5    0.90    2.10
 -19  -2  -5    2.50    2.70
 -19  -2   5    6.50    3.10
 -19   2  -5    2.10    2.80
 -19   0  -6   -3.00    2.40
 -19   0   6   -1.00    2.60
 -19   1   6    8.60    3.20
 -19  -1  -6    3.30    2.90
 -19   1   6    4.10    1.80
 -19   1  -6    3.30    2.90
 -19  -1   6    8.10    3.40
 -19   2   6   17.50    2.80
 -19  -2  -6   12.90    3.60
 -19   2  -6    8.60    3.30
 -19  -2   6   14.00    4.00
 -19   0   7   -1.00    2.90
 -19   0  -7   -2.40    2.90
 -19   1   7   13.60    3.80
 -19  -1  -7   22.20    4.10
 -19   1   7   20.70    2.90
 -19   1  -7   14.40    3.60
 -19  -1   7   20.20    4.20
 -20   0   0    2.10    1.50
 -20   0   0    0.20    2.20
 -20  -1   0    2.90    2.00
 -20  -1   0    1.60    2.30
 -20   1   0    2.20    2.00
 -20  -2   0    0.90    2.50
  20  -2   0   -2.40    1.90
 -20   2   0    0.80    2.40
 -20  -2   0   -2.00    2.00
 -20  -3   0    4.30    2.90
  20  -3   0   -4.60    2.00
 -20   3   0    5.50    2.60
 -20  -3   0   -3.30    2.10
 -20   0  -1    3.30    1.40
 -20   0   1   -1.50    2.10
 -20   0  -1    1.10    2.40
 -20   0   1    2.70    1.70
 -20  -1  -1   -0.10    1.80
  20  -1   1   -1.20    1.10
 -20   1   1    2.40    2.20
 -20  -1  -1   -1.30    2.10
 -20   1  -1   -3.00    2.20
 -20  -1   1    1.90    2.00
 -20  -1   1    3.30    2.10
 -20   2   1    2.30    2.40
  20  -2   1    5.70    2.00
 -20  -2  -1    5.90    2.70
 -20  -2  -1    3.10    2.40
 -20  -2   1    2.00    2.10
 -20   2  -1    5.10    2.50
 -20  -2   1    8.70    3.00
 -20  -3  -1    5.90    2.50
 -20  -3  -1    2.50    3.00
 -20   3   1    8.60    3.20
  20  -3   1    6.60    2.50
 -20   3   1    4.10    2.70
 -20   3  -1    3.80    2.60
 -20  -3   1    8.20    3.30
  20  -3  -1   -1.90    2.80
 -20   0   2    4.10    2.30
 -20   0  -2    2.60    2.50
 -20   0   2    1.50    1.90
 -20  -1  -2    4.70    2.20
 -20   1   2    4.00    1.70
 -20  -1  -2    7.00    2.70
 -20   1   2    1.10    2.30
 -20   1  -2    4.10    2.60
 -20  -1   2    2.60    2.30
 -20  -1   2    5.10    2.10
 -20  -2  -2   -0.30    2.60
  20  -2   2    1.00    1.40
 -20   2   2   -1.20    1.80
 -20   2   2    4.30    2.50
 -20  -2  -2   -2.30    2.40
 -20  -2   2    3.70    2.60
 -20   2  -2    2.60    2.70
 -20  -2   2    1.30    1.70
  20  -3   2    6.00    2.20
 -20   3   2    0.40    2.10
 -20  -3  -2    1.20    2.50
 -20  -3  -2    1.50    3.40
 -20   3  -2    6.00    2.90
 -20  -3   2    5.80    3.10
 -20   0   3    0.20    2.20
 -20   0  -3   -0.10    2.40
 -20   0   3   -1.60    2.00
 -20   0   3   -0.40    1.20
 -20   1   3    0.90    2.10
 -20  -1  -3   -0.80    2.30
 -20   1   3   -2.50    1.50
 -20   1   3    3.90    2.00
 -20  -1  -3   -0.80    2.10
 -20   1  -3   -2.00    2.30
 -20  -1   3    2.20    2.30
 -20  -1   3    1.70    1.80
 -20  -2  -3   -2.20    2.80
 -20  -2  -3    3.80    2.70
 -20   2   3    5.70    2.10
 -20   2   3    9.40    2.80
 -20  -2   3    5.10    2.70
 -20  -2   3    6.30    2.00
 -20   2  -3    5.00    2.80
 -20   3   3    4.00    2.50
 -20  -3  -3    2.80    3.00
 -20  -3  -3   -5.80    3.70
 -20   3  -3   11.00    3.00
 -20  -3   3    7.60    3.20
 -20   0   4    0.50    1.90
 -20   0  -4   -1.20    1.90
 -20   0   4    1.90    1.30
 -20   0   4    0.50    2.20
 -20   1   4    5.90    1.80
 -20  -1  -4   -0.70    2.50
 -20   1   4    7.20    2.50
 -20  -1  -4    4.50    2.90
 -20   1   4    7.20    2.60
 -20   1  -4    2.60    2.80
 -20  -1   4    7.60    2.00
 -20  -1   4    5.20    2.60
 -20  -2  -4    9.10    3.70
 -20  -2  -4   16.50    3.50
 -20   2   4   17.40    2.70
 -20   2  -4   14.30    3.60
 -20  -2   4   18.30    3.70
 -20  -3  -4    3.00    4.30
 -20  -3  -4   15.20    3.50
 -20   3   4   17.40    3.20
 -20  -3   4   21.00    4.20
 -20   3  -4   18.60    3.30
 -20   0   5    0.40    1.20
 -20   0   5   -0.80    2.30
 -20   0  -5    1.30    2.70
 -20  -1  -5   17.40    3.70
 -20   1   5   18.10    2.70
 -20   1   5   15.80    3.20
 -20   1  -5   12.10    3.40
 -20  -1   5   22.10    4.10
 -20  -2  -5   11.30    3.50
 -20   2   5   13.60    2.70
 -20  -2   5   14.40    3.80
 -20   2  -5   12.70    3.70
 -20   0  -6   46.00    5.30
 -20   0   6   59.19    5.90
 -20   1   6   13.70    3.40
 -20  -1  -6   14.20    3.70
 -20   1   6   11.70    2.10
 -20  -1   6   11.00    3.40
 -20   1  -6   12.10    3.70
 -20   2   6   12.30    2.50
 -20  -2  -6    6.40    3.30
 -20   2  -6    4.20    3.00
 -20  -2   6   10.00    3.80
 -20   0  -7   -2.10    3.00
 -20   0   7   -0.70    2.90
 -20  -1  -7   25.60    4.50
 -20   1   7   21.50    2.80
 -20   1   7   16.10    4.30
 -20   1  -7   11.30    3.60
 -20  -1   7   30.40    4.80
 -21   0   0   -1.50    2.20
 -21   0   0    1.70    1.50
 -21  -1   0   32.80    3.50
 -21   1   0   31.20    4.10
 -21  -1   0   33.00    3.90
 -21  -2   0    1.20    2.50
  21  -2   0    0.80    2.00
 -21  -2   0    7.40    2.90
 -21   2   0    2.70    2.60
  21  -3   0   33.80    4.30
 -21  -3   0   46.20    5.70
 -21   3   0   28.30    3.90
 -21   3   0   32.30    4.40
 -21   0  -1   24.60    3.70
 -21   0   1   22.00    2.80
 -21   0   1   19.10    3.20
 -21  -1  -1    6.70    2.20
 -21  -1  -1    4.00    2.60
 -21   1   1    6.40    2.70
 -21  -1   1    6.50    2.30
 -21  -1   1    4.60    2.40
 -21   1  -1    6.30    2.80
 -21  -2  -1   44.60    4.70
  21  -2   1   39.10    3.50
 -21  -2  -1   43.70    4.50
 -21   2   1   47.80    4.90
 -21  -2   1   42.20    4.70
 -21  -2   1   43.50    4.40
 -21   2  -1   54.59    5.10
 -21  -3  -1    1.20    3.00
 -21   3   1    4.30    2.50
 -21   3   1   11.80    3.10
  21  -3   1    4.50    2.30
 -21  -3  -1   -2.50    2.40
 -21  -3   1    5.90    3.30
 -21   3  -1    6.80    2.80
  21  -3  -1   -3.90    2.70
 -21   0  -2   -2.40    2.30
 -21   0   2    1.40    1.90
 -21   0   2   -1.40    1.80
 -21  -1  -2   49.40    5.00
 -21   1   2   50.09    4.80
 -21  -1  -2   51.99    4.30
 -21   1  -2   49.60    5.10
 -21  -1   2   52.49    4.60
 -21  -1   2   50.79    4.40
 -21  -2  -2   -1.70    2.30
 -21   2   2   -0.80    1.80
 -21   2   2   -0.80    2.30
 -21  -2  -2    0.90    2.70
 -21  -2   2    2.50    2.50
 -21  -2   2    0.80    1.70
 -21   2  -2    2.20    2.70
  21  -3   2   32.70    5.80
 -21  -3  -2   22.00    4.50
 -21   3   2   27.10    3.70
 -21  -3  -2   25.70    4.00
 -21   3  -2   31.60    4.30
 -21  -3   2   31.40    4.70
 -21   0   3  100.49    5.40
 -21   0   3  100.09    6.40
 -21   0   3   98.49    6.40
 -21   0  -3   99.79    6.90
 -21   1   3    6.10    2.40
 -21  -1  -3    3.80    2.20
 -21  -1  -3    2.90    2.50
 -21   1   3    5.00    2.40
 -21   1   3    1.90    1.70
 -21   1  -3   -1.00    2.70
 -21  -1   3    2.90    2.30
 -21  -1   3    6.50    2.30
 -21   2   3   27.60    3.50
 -21  -2  -3   25.30    4.20
 -21  -2  -3   25.30    4.50
 -21   2   3   25.90    4.00
 -21  -2   3   30.90    3.40
 -21  -2   3   30.10    4.60
 -21   2  -3   26.20    4.10
 -21   3   3    6.70    2.70
 -21  -3  -3    0.10    2.70
 -21  -3  -3    2.70    3.80
 -21   3  -3   13.40    3.30
 -21  -3   3    9.10    3.40
 -21   0  -4   -2.20    2.40
 -21   0   4   -0.80    2.20
 -21   0   4   -0.10    1.30
 -21   0   4    1.20    2.00
 -21   1   4   58.59    4.90
 -21   1   4   66.39    4.30
 -21   1   4   61.19    5.20
 -21  -1  -4   43.10    5.30
 -21   1  -4   57.89    5.60
 -21  -1   4   77.49    6.10
 -21  -1   4   61.79    4.50
 -21   2   4    3.70    2.00
 -21  -2  -4    2.20    2.80
 -21  -2  -4   -6.20    2.80
 -21  -2   4    6.60    3.10
 -21   2  -4    5.00    3.20
 -21   0   5   39.40    4.80
 -21   0  -5   33.60    4.60
 -21   1   5   11.60    3.20
 -21   1   5   12.60    2.40
 -21  -1  -5   11.60    3.50
 -21   1  -5    8.60    3.20
 -21  -1   5    9.20    3.10
 -21   2   5   83.99    5.70
 -21  -2  -5   75.89    6.50
 -21  -2   5   87.89    7.20
 -21   2  -5   88.09    7.00
 -21   0   6    1.30    2.80
 -21   0  -6   -2.20    3.00
 -21  -1  -6   60.79    6.10
 -21   1   6   50.59    5.80
 -21   1   6   59.49    4.30
 -21  -1   6   62.29    6.10
 -21   1  -6   55.69    5.70
 -21   0  -7   83.39    7.20
 -21   0   7   95.29    7.40
 -22   0   0   10.60    2.90
 -22   1   0    8.80    3.00
 -22  -1   0    8.60    2.80
 -22  -1   0   10.10    2.60
 -22  -2   0   -4.00    2.40
 -22   2   0   -1.30    2.50
 -22  -2   0    1.10    2.50
  22  -2   0   -3.70    1.90
 -22   3   0   10.10    3.20
 -22  -3   0   11.40    3.50
  22  -3   0   10.70    3.00
 -22   3   0    5.40    2.80
 -22   0   1   -0.30    2.30
 -22   0  -1   -1.60    2.30
 -22   0   1   -0.90    1.60
 -22  -1  -1   -1.00    2.50
 -22   1   1    5.40    2.20
 -22  -1  -1    5.10    2.20
 -22  -1   1    5.10    2.20
 -22  -1   1    1.50    2.50
 -22   1  -1    3.00    2.70
 -22  -2  -1    5.40    2.70
 -22  -2  -1   12.90    3.30
 -22   2   1   11.40    3.20
 -22  -2   1    5.20    2.60
 -22  -2   1   12.00    3.00
 -22   2  -1    6.90    3.10
 -22   3   1    2.40    2.40
 -22  -3  -1    6.40    3.50
 -22  -3  -1   -0.40    2.70
  22  -3  -1   -6.60    2.60
 -22   3  -1    8.10    3.10
 -22  -3   1    8.90    3.40
 -22   0   2   22.10    3.10
 -22   0   2   24.30    3.50
 -22   0  -2   19.80    3.80
 -22  -1  -2   25.00    3.30
 -22  -1  -2   25.20    3.90
 -22   1   2   25.50    3.80
 -22  -1   2   24.70    3.70
 -22   1  -2   20.80    3.80
 -22  -1   2   28.40    3.60
 -22   2   2   23.70    3.90
 -22  -2  -2   20.00    3.80
 -22  -2  -2   16.10    3.50
 -22   2   2   18.60    3.10
 -22  -2   2   19.10    3.00
 -22   2  -2   14.60    3.50
 -22  -2   2   22.80    4.10
 -22   0   3    2.30    2.20
 -22   0   3    2.10    2.10
 -22   0  -3    3.30    2.90
 -22   0   3   -0.90    1.30
 -22   1   3   46.10    4.50
 -22  -1  -3   41.70    4.90
 -22   1   3   38.90    3.50
 -22   1  -3   31.30    4.50
 -22  -1   3   43.60    4.80
 -22  -1   3   40.40    4.00
 -22   2   3   19.50    3.70
 -22  -2  -3   11.50    3.60
 -22  -2  -3   11.90    3.40
 -22   2   3   18.50    3.10
 -22  -2   3   19.80    3.80
 -22   2  -3   14.70    3.60
 -22   0  -4   57.59    5.70
 -22   0   4   64.89    4.00
 -22   0   4   60.19    5.30
 -22   0   4   61.29    5.00
 -22   1   4    1.80    1.60
 -22   1   4    7.10    2.80
 -22  -1  -4   -1.80    2.80
 -22   1  -4   -0.50    2.90
 -22  -1   4    4.30    1.90
 -22  -1   4    2.30    2.90
 -22  -2  -4   30.60    4.70
 -22  -2  -4   40.00    5.00
 -22   2   4   41.30    4.10
 -22   2  -4   35.40    5.00
 -22  -2   4   43.50    5.30
 -22   0   5    3.10    2.80
 -22   0  -5   -4.30    3.00
 -22  -1  -5   62.49    6.10
 -22   1   5   60.39    5.50
 -22   1   5   61.39    4.50
 -22  -1   5   64.19    5.80
 -22   1  -5   57.29    6.00
 -22  -2  -5    4.00    3.30
 -22   2   5    7.10    2.40
 -22   2  -5    2.90    3.10
 -22  -2   5    8.50    3.50
 -22   0   6  102.39    7.60
 -22   0  -6  107.99    7.70
 -22  -1  -6   27.70    4.70
 -22   1   6   26.70    3.10
 -22   1   6   24.10    4.50
 -22   1  -6   18.30    4.10
 -22  -1   6   28.50    4.70
 -23   0   0   -0.30    2.40
 -23  -1   0    7.90    2.80
 -23  -1   0    7.80    2.40
 -23   1   0    6.60    2.90
 -23  -2   0    8.60    2.80
 -23  -2   0    4.10    2.90
 -23   2   0    9.20    3.30
 -23   0   1   70.49    5.90
 -23   0  -1   67.99    5.80
 -23   1   1    8.40    2.90
 -23  -1  -1    5.90    2.20
 -23  -1  -1    2.20    2.70
 -23   1  -1    5.10    2.90
 -23  -1   1    4.10    2.40
 -23  -1   1    3.60    2.10
 -23   2   1    9.80    3.20
 -23  -2  -1    7.60    2.90
 -23  -2  -1    2.40    2.70
 -23  -2   1    7.60    2.90
 -23  -2   1    4.20    2.50
 -23   2  -1    7.00    3.00
 -23   0   2    1.90    2.00
 -23   0  -2   -1.50    2.60
 -23   0   2   -1.10    2.10
 -23   1   2   13.20    2.60
 -23   1   2   18.10    3.50
 -23  -1  -2   18.50    3.70
 -23  -1   2   19.20    3.30
 -23   1  -2   13.70    3.70
 -23  -1   2   16.20    3.00
 -23   2   2    0.50    2.30
 -23  -2  -2    7.40    2.90
 -23  -2  -2   -0.60    2.70
 -23   2   2    3.90    2.80
 -23  -2   2    3.20    2.20
 -23   2  -2    1.70    2.80
 -23  -2   2    4.90    2.80
 -23   0   3   17.20    3.50
 -23   0  -3   12.10    3.40
 -23   0   3   13.20    3.00
 -23   0   3   11.10    2.10
 -23   1   3    5.40    2.50
 -23  -1  -3    1.10    3.20
 -23   1   3    3.70    1.90
 -23  -1   3    1.80    2.40
 -23  -1   3    5.00    2.40
 -23   1  -3   -2.30    2.70
 -23  -2  -3    3.40    3.10
 -23  -2  -3    7.90    3.10
 -23   2   3    7.40    3.10
 -23   2   3    3.90    2.20
 -23  -2   3    5.60    2.90
 -23   2  -3    2.50    3.20
 -23   0  -4   -1.40    2.80
 -23   0   4    3.40    2.50
 -23   0   4    3.00    2.40
 -23   1   4    3.50    2.40
 -23   1   4   -0.10    1.70
 -23  -1  -4   -2.20    2.90
 -23  -1   4    1.70    2.60
 -23  -1   4    3.20    2.00
 -23   1  -4   -2.50    2.80
 -23   2   4   20.30    3.20
 -23  -2  -4   19.70    4.40
 -23  -2   4   27.20    4.40
 -23   2  -4   23.50    4.40
 -23   0  -5   11.60    3.70
 -23   0   5   13.10    3.50
 -23  -1  -5    7.80    3.90
 -23   1   5    9.20    2.30
 -23   1  -5    8.20    3.70
 -23  -1   5   14.60    3.60
 -24   0   0   13.20    3.30
 -24   1   0   40.60    4.80
 -24  -1   0   26.80    5.10
 -24  -1   0   32.40    4.30
 -24  -2   0   13.90    3.10
 -24   2   0   15.40    3.60
 -24  -2   0    8.70    3.00
 -24   0  -1   -2.20    2.50
 -24   0   1    0.60    2.70
 -24   1   1    1.70    2.60
 -24  -1  -1   -2.10    2.60
 -24  -1   1    2.70    2.20
 -24   1  -1    3.80    3.00
 -24  -1   1    0.90    2.40
 -24   2   1   19.70    3.80
 -24  -2  -1   18.20    3.40
 -24  -2  -1    9.00    3.30
 -24   2  -1   18.50    3.80
 -24  -2   1   17.10    3.50
 -24  -2   1   12.20    3.00
 -24   0   2    9.40    3.00
 -24   0  -2    7.00    3.20
 -24   1   2    7.50    2.90
 -24  -1  -2    1.50    3.30
 -24   1   2   -1.20    2.00
 -24   1  -2    0.60    2.80
 -24  -1   2    6.30    2.60
 -24  -1   2    5.20    2.40
 -24  -2  -2    6.00    2.90
 -24  -2  -2    5.90    3.10
 -24   2   2   10.70    3.20
 -24   2   2    2.70    2.30
 -24  -2   2    7.60    2.80
 -24   2  -2    3.60    3.10
 -24  -2   2    6.00    2.50
 -24   0  -3    0.50    3.00
 -24   0   3    1.20    2.30
 -24   0   3   -1.10    1.40
 -24  -1  -3    3.70    3.30
 -24   1   3    8.60    3.00
 -24   1   3    3.90    1.90
 -24  -1   3   14.60    3.40
 -24   1  -3    9.10    3.50
 -24  -1   3    8.20    2.60
 -24   2   3    1.20    2.10
 -24   2   3    5.60    2.80
 -24  -2  -3    1.10    3.10
 -24  -2   3    8.40    3.30
 -24   2  -3    8.60    3.60
 -24   0   4   17.80    3.40
 -24   0   4   13.60    3.10
 -24   0  -4   10.30    3.80
 -24  -1  -4   -1.30    2.90
 -24   1   4    7.50    2.80
 -24   1   4    2.20    1.80
 -24  -1   4    3.10    2.70
 -24   1  -4   -4.40    3.00
 -24  -1   4   10.10    2.40
 -24   0  -5   -2.70    3.00
 -24   0   5   -4.10    2.60
 -25   0   0   -2.10    2.60
 -25  -1   0    2.40    2.80
 -25   1   0    5.20    2.80
 -25   2   0   20.60    4.00
 -25  -2   0   11.60    3.50
 -25  -2   0   21.20    3.50
 -25   0   1   -0.10    2.70
 -25   0  -1    0.30    2.80
 -25  -1  -1   19.60    3.90
 -25   1   1   22.10    4.10
 -25  -1   1   17.60    3.50
 -25   1  -1   17.20    3.90
 -25   2   1    6.50    3.00
 -25  -2  -1    2.20    3.00
 -25  -2  -1   10.30    3.40
 -25   2   1    1.50    2.40
 -25  -2   1    9.70    3.30
 -25  -2   1    4.60    2.70
 -25   2  -1    9.00    3.40
 -25   0  -2   -3.00    2.70
 -25   0   2    2.80    2.50
 -25   1   2    0.60    2.70
 -25   1   2   -1.60    2.00
 -25  -1  -2    2.50    3.10
 -25   1  -2   -0.10    3.10
 -25  -1   2    4.20    2.60
 -25  -1   2    3.10    2.30
 -25   0   3    1.70    2.70
 -25   0  -3    1.70    3.30
 -25  -1  -3    6.20    3.40
 -25   1   3   10.20    3.10
 -25   1   3    5.20    2.20
 -25  -1   3    7.60    3.00
 -25   1  -3    4.50    3.40
 -25  -1   3   11.20    2.80
 -25   0   4    4.40    2.50
 -25   0  -4   -2.10    3.30
 -25  -1  -4    4.30    3.60
 -25   1  -4    8.60    3.70
 -26   0   0    3.20    3.00
 -26   1   0   36.00    5.00
 -26  -1   0   32.20    4.50
 -26   0  -1   -2.50    2.60
 -26   0   1    1.80    2.90
 -26  -1  -1   43.70    5.20
 -26   1   1   41.20    5.20
 -26   1  -1   37.70    5.20
 -26  -1   1   44.20    5.00
 -26   0  -2  131.69    9.10
 -26   0   2  156.48    9.00
 -26  -1  -2   -1.80    3.00
 -26   1   2   -2.70    1.90
 -26   1   2    2.10    2.80
 -26   1  -2    4.10    3.40
 -26  -1   2    6.40    2.50
 -26   0   3    1.30    2.50
 -26   0  -3   -5.90    2.90
 -27   0   0    0.00    3.00
 -27   0  -1  111.99    8.30
 -27   0   1  127.09    8.40

_computing_structure_solution     'SHELXT 2014/4 (Sheldrick, 2014)'
;
_shelx_hkl_checksum              68517
loop_
_space_group_symop_operation_xyz
'x, y, z'
'-x+1/2, -y, z+1/2'
'x+1/2, -y, z+1/2'
'-x, y, z'
loop_
_atom_site_label
_atom_site_type_symbol
_atom_site_fract_x
_atom_site_fract_y
_atom_site_fract_z
_atom_site_U_iso_or_equiv
_atom_site_adp_type
_atom_site_occupancy
_atom_site_site_symmetry_order
_atom_site_calc_flag
_atom_site_refinement_flags_posn
_atom_site_refinement_flags_adp
_atom_site_refinement_flags_occupancy
_atom_site_disorder_assembly
_atom_site_disorder_group
C1 C 0.43869(11) 0.3788(5) 0.7633(2) 0.0178(4) Uani 1 1 d . . . . .
H1 H 0.3969 0.3330 0.8240 0.021 Uiso 1 1 calc R U . . .
N2 N 0.5000 0.3150(7) 0.8427(3) 0.0194(5) Uani 1 2 d S T P . .
C3A C 0.43517(10) 0.5100(5) 0.5945(3) 0.0149(3) Uani 1 1 d . . . . .
C3B C 0.38810(11) 0.6285(5) 0.4558(3) 0.0151(4) Uani 1 1 d . . . . .
C3C C 0.5000 0.5621(7) 0.5250(4) 0.0153(5) Uani 1 2 d S T P . .
C4 C 0.31675(11) 0.6519(5) 0.4376(3) 0.0188(4) Uani 1 1 d . . . A 1
H4 H 0.2877 0.5808 0.5303 0.023 Uiso 1 1 calc R U . A 1
C11 C 0.28746(10) 0.7760(5) 0.2882(3) 0.0221(4) Uani 0.5 1 d . . P A 1
H11 H 0.2386 0.7899 0.2769 0.027 Uiso 0.5 1 calc R U P A 1
C6 C 0.32990(11) 0.8802(5) 0.1547(3) 0.0215(4) Uani 1 1 d . . . A 1
H6 H 0.3087 0.9644 0.0518 0.026 Uiso 1 1 calc R U . A 1
N5 N 0.28746(10) 0.7760(5) 0.2882(3) 0.0221(4) Uani 0.5 1 d . . P B 2
C7 C 0.40193(11) 0.8699(5) 0.1610(3) 0.0173(4) Uani 1 1 d . . . . .
H7 H 0.4299 0.9462 0.0672 0.021 Uiso 1 1 calc R U . A 1
C7A C 0.43014(9) 0.7411(5) 0.3132(3) 0.0139(4) Uani 1 1 d . . . . .
N8 N 0.5000 0.6945(6) 0.3610(3) 0.0150(5) Uani 1 2 d S T P . .
loop_
_atom_site_aniso_label
_atom_site_aniso_U_11
_atom_site_aniso_U_22
_atom_site_aniso_U_33
_atom_site_aniso_U_23
_atom_site_aniso_U_13
_atom_site_aniso_U_12
C1 0.0250(11) 0.0155(8) 0.0130(9) 0.0020(7) 0.0024(7) 0.0004(7)
N2 0.0302(13) 0.0159(10) 0.0122(12) 0.0030(9) 0.000 0.000
C3A 0.0192(8) 0.0125(7) 0.0128(8) -0.0001(7) 0.0010(7) 0.0003(7)
C3B 0.0201(9) 0.0126(7) 0.0125(8) 0.0002(6) 0.0002(7) 0.0003(7)
C3C 0.0228(13) 0.0115(10) 0.0116(12) 0.0024(9) 0.000 0.000
C4 0.0188(9) 0.0194(9) 0.0183(10) -0.0013(7) 0.0042(8) 0.0001(8)
C11 0.0213(9) 0.0219(8) 0.0232(11) -0.0001(8) -0.0024(8) 0.0023(7)
C6 0.0264(11) 0.0177(9) 0.0205(10) -0.0018(8) -0.0074(9) 0.0046(7)
N5 0.0213(9) 0.0219(8) 0.0232(11) -0.0001(8) -0.0024(8) 0.0023(7)
C7 0.0240(10) 0.0136(8) 0.0142(9) 0.0018(7) -0.0030(8) -0.0001(7)
C7A 0.0164(8) 0.0122(7) 0.0132(9) -0.0008(6) -0.0007(7) 0.0008(6)
N8 0.0167(11) 0.0170(10) 0.0114(10) 0.0038(9) 0.000 0.000
loop_
_atom_type_symbol
_atom_type_description
_atom_type_scat_dispersion_real
_atom_type_scat_dispersion_imag
_atom_type_scat_source
C C 0.0033 0.0016 'International Tables Vol C Tables 4.2.6.8 and 6.1.1.4'
H H 0.0000 0.0000 'International Tables Vol C Tables 4.2.6.8 and 6.1.1.4'
N N 0.0061 0.0033 'International Tables Vol C Tables 4.2.6.8 and 6.1.1.4'
loop_
_geom_angle_atom_site_label_1
_geom_angle_atom_site_label_2
_geom_angle_atom_site_label_3
_geom_angle
_geom_angle_site_symmetry_1
_geom_angle_site_symmetry_3
N2 C1 C3A 121.9(2) . .
N2 C1 H1 119.0 . .
C3A C1 H1 119.0 . .
C1 N2 C1 121.7(3) 4_655 .
C3C C3A C1 111.8(2) . .
C3C C3A C3B 103.45(19) . .
C1 C3A C3B 144.7(2) . .
C4 C3B C7A 117.71(18) . .
C4 C3B C3A 134.78(19) . .
C7A C3B C3A 107.51(17) . .
N8 C3C C3A 114.58(13) . .
N8 C3C C3A 114.58(13) . 4_655
C3A C3C C3A 130.8(3) . 4_655
C11 C4 C3B 121.14(19) . .
C11 C4 H4 119.4 . .
C3B C4 H4 119.4 . .
C4 C11 C6 119.07(18) . .
C4 C11 H11 120.5 . .
C6 C11 H11 120.5 . .
C11 C6 C7 124.1(2) . .
C11 C6 H6 118.0 . .
C7 C6 H6 118.0 . .
C7A C7 C6 115.62(19) . .
C7A C7 H7 122.2 . .
C6 C7 H7 122.2 . .
C7 C7A N8 130.0(2) . .
C7 C7A C3B 122.38(18) . .
N8 C7A C3B 107.63(19) . .
C3C N8 C7A 106.83(13) . 4_655
C3C N8 C7A 106.83(13) . .
C7A N8 C7A 146.3(3) 4_655 .
loop_
_geom_bond_atom_site_label_1
_geom_bond_atom_site_label_2
_geom_bond_distance
_geom_bond_site_symmetry_2
C1 N2 1.356(2) .
C1 C3A 1.400(3) .
C1 H1 0.9500 .
N2 C1 1.356(2) 4_655
C3A C3C 1.377(2) .
C3A C3B 1.476(3) .
C3B C4 1.388(3) .
C3B C7A 1.435(3) .
C3C N8 1.365(3) .
C3C C3A 1.377(2) 4_655
C4 C11 1.370(3) .
C4 H4 0.9500 .
C11 C6 1.377(3) .
C11 H11 0.9500 .
C6 C7 1.393(3) .
C6 H6 0.9500 .
C7 C7A 1.387(3) .
C7 H7 0.9500 .
C7A N8 1.410(2) .
N8 C7A 1.410(2) 4_655
