#------------------------------------------------------------------------------
#$Date: 2016-12-06 02:19:15 +0200 (Tue, 06 Dec 2016) $
#$Revision: 188931 $
#$URL: file:///home/coder/svn-repositories/cod/cif/2/10/80/2108008.cif $
#------------------------------------------------------------------------------
#
# This file is available in the Crystallography Open Database (COD),
# http://www.crystallography.net/. The original data for this entry
# were provided by IUCr Journals, http://journals.iucr.org/.
#
# The file may be used within the scientific community so long as
# proper attribution is given to the journal article from which the
# data were obtained.
#
data_2108008
loop_
_publ_author_name
'Perdih, Franc'
_publ_section_title
;
 Cu^II^ and Zn^II^ \b-diketonate coordination polymers based on
 pyrimidin-2-amine, pyrazine and 1,2-bis(4-pyridyl)ethane
;
_journal_coeditor_code           EB5048
_journal_issue                   6
_journal_name_full               'Acta Crystallographica Section B'
_journal_page_first              828
_journal_page_last               835
_journal_paper_doi               10.1107/S2052520616014566
_journal_volume                  72
_journal_year                    2016
_chemical_formula_moiety         'C32 H22 Cu F6 N2 O4'
_chemical_formula_sum            'C32 H22 Cu F6 N2 O4'
_chemical_formula_weight         676.05
_space_group_crystal_system      triclinic
_space_group_IT_number           2
_space_group_name_Hall           '-P 1'
_space_group_name_H-M_alt        'P -1'
_symmetry_space_group_name_Hall  '-P 1'
_symmetry_space_group_name_H-M   'P -1'
_atom_sites_solution_hydrogens   geom
_audit_creation_method           SHELXL-2014/7
_cell_angle_alpha                65.711(5)
_cell_angle_beta                 78.619(4)
_cell_angle_gamma                88.191(4)
_cell_formula_units_Z            1
_cell_length_a                   8.6460(4)
_cell_length_b                   9.6246(4)
_cell_length_c                   9.6615(5)
_cell_measurement_reflns_used    2665
_cell_measurement_temperature    293(2)
_cell_measurement_theta_max      30.2224
_cell_measurement_theta_min      3.0059
_cell_volume                     717.29(7)
_computing_cell_refinement       'CrysAlis PRO (Agilent, 2013)'
_computing_data_collection       'CrysAlis PRO (Agilent, 2013)'
_computing_data_reduction        'CrysAlis PRO (Agilent, 2013)'
_computing_structure_refinement  'SHELXL-2014/7 (Sheldrick, 2015)'
_computing_structure_solution    'SHELXS-97 (Sheldrick, 2008)'
_diffrn_ambient_temperature      293(2)
_diffrn_detector_area_resol_mean 10.4933
_diffrn_measured_fraction_theta_full 0.998
_diffrn_measured_fraction_theta_max 0.998
_diffrn_measurement_device_type  'SuperNova, Dual, Cu at zero, Atlas'
_diffrn_measurement_method       '\w scans'
_diffrn_radiation_type           MoK\a
_diffrn_radiation_wavelength     0.71073
_diffrn_reflns_av_R_equivalents  0.0310
_diffrn_reflns_limit_h_max       11
_diffrn_reflns_limit_h_min       -11
_diffrn_reflns_limit_k_max       12
_diffrn_reflns_limit_k_min       -12
_diffrn_reflns_limit_l_max       12
_diffrn_reflns_limit_l_min       -12
_diffrn_reflns_number            6726
_diffrn_reflns_theta_full        25.242
_diffrn_reflns_theta_max         27.484
_diffrn_reflns_theta_min         3.012
_exptl_absorpt_coefficient_mu    0.842
_exptl_absorpt_correction_T_max  1.00000
_exptl_absorpt_correction_T_min  0.84134
_exptl_absorpt_correction_type   multi-scan
_exptl_absorpt_process_details   'CrysAlis Pro; Oxford Diffraction, 2013'
_exptl_crystal_colour            green
_exptl_crystal_density_diffrn    1.565
_exptl_crystal_description       plate
_exptl_crystal_F_000             343
_exptl_crystal_size_max          0.200
_exptl_crystal_size_mid          0.100
_exptl_crystal_size_min          0.030
_refine_diff_density_max         0.614
_refine_diff_density_min         -0.235
_refine_ls_extinction_method     none
_refine_ls_goodness_of_fit_ref   1.032
_refine_ls_hydrogen_treatment    constr
_refine_ls_matrix_type           full
_refine_ls_number_parameters     205
_refine_ls_number_reflns         3286
_refine_ls_number_restraints     0
_refine_ls_restrained_S_all      1.032
_refine_ls_R_factor_all          0.0622
_refine_ls_R_factor_gt           0.0457
_refine_ls_shift/su_max          0.000
_refine_ls_shift/su_mean         0.000
_refine_ls_structure_factor_coef Fsqd
_refine_ls_weighting_details
'w=1/[\s^2^(Fo^2^)+(0.0536P)^2^+0.0947P] where P=(Fo^2^+2Fc^2^)/3'
_refine_ls_weighting_scheme      calc
_refine_ls_wR_factor_gt          0.1031
_refine_ls_wR_factor_ref         0.1132
_reflns_number_gt                2634
_reflns_number_total             3286
_reflns_threshold_expression     'I > 2\s(I)'
_cod_data_source_file            eb5048sup1.cif
_cod_data_source_block           5
_cod_depositor_comments
'Adding full bibliography for 2108003--2108008.cif.'
_cod_original_cell_volume        717.29(6)
_cod_database_code               2108008
_cod_database_fobs_code          2108008
_shelx_space_group_comment
;
The symmetry employed for this shelxl refinement is uniquely defined
by the following loop, which should always be used as a source of
symmetry information in preference to the above space-group names.
They are only intended as comments.
;
_shelx_estimated_absorpt_t_min   0.850
_shelx_estimated_absorpt_t_max   0.975
_shelx_hkl_file
;
 -11  -2  -8 153.078 98.5860   1
 -11  -2  -7-38.3827 55.5132   1
 -11  -2  -6-35.2936 68.4743   1
 -11  -2  -5 134.011 64.9898   1
 -11  -1  -7 120.975 95.5911   1
 -11  -1  -6 182.439 76.7178   1
 -11  -1  -5 357.550 103.904   1
 -11  -1  -4 40.9147 46.3025   1
 -11   0  -6 37.7943 70.5178   1
 -11   0  -5 619.844 141.895   1
 -11   1  -6 48.9076 71.4600   1
 -10  -4  -9 360.620 129.926   1
 -10  -4  -8 36.3247 50.0490   1
 -10  -4  -7 233.689 83.2482   1
 -10  -3  -9 78.0746 60.7235   1
 -10  -3  -8-78.5462 54.8263   1
 -10  -3  -7-21.2298 46.3338   1
 -10  -3  -6 82.9570 58.7388   1
 -10  -3  -5 70.6141 51.4100   1
 -10  -3  -4 317.842 76.6890   1
 -10  -2  -9 245.008 115.546   1
 -10  -2  -8 122.969 75.4731   1
 -10  -2  -7 242.588 100.147   1
 -10  -2  -6 172.379 72.0558   1
 -10  -2  -5-59.8988 44.3045   1
 -10  -2  -4 72.9036 51.4489   1
 -10  -1  -8 118.101 88.6037   1
 -10  -1  -7 235.285 105.206   1
 -10  -1  -6 232.695 86.0042   1
 -10  -1  -5 202.432 90.6236   1
 -10   0  -8-70.6015 82.5746   1
 -10   0  -7 230.920 99.6654   1
 -10   0  -6 216.696 94.5657   1
 -10   0  -5 109.052 64.3295   1
 -10   1  -7 275.813 113.658   1
 -10   1  -6 436.256 121.059   1
 -10   2  -6 1018.52 200.974   1
  -9  -5 -11-118.467 94.8837   1
  -9  -5 -10 501.627 149.689   1
  -9  -5  -9-71.8430 71.3978   1
  -9  -5  -8-111.003 67.7626   1
  -9  -5  -7-11.0248 40.6170   1
  -9  -4 -10 511.998 136.135   1
  -9  -4  -9 392.228 128.542   1
  -9  -4  -8 441.632 121.140   1
  -9  -4  -7 191.376 72.9209   1
  -9  -4  -6 179.559 69.9039   1
  -9  -4  -5 562.461 99.6527   1
  -9  -4  -4 674.345 102.145   1
  -9  -3 -10 324.230 132.738   1
  -9  -3  -9 351.215 115.551   1
  -9  -3  -8 383.541 111.412   1
  -9  -3  -7 367.084 97.6319   1
  -9  -3  -6 222.923 78.3731   1
  -9  -3  -5 393.323 92.2329   1
  -9  -3  -4 53.8239 35.8893   1
  -9  -3  -3 618.114 94.7506   1
  -9  -2 -10 672.641 174.555   1
  -9  -2  -9 292.823 116.907   1
  -9  -2  -8 302.882 96.5716   1
  -9  -2  -7 55.1772 52.8886   1
  -9  -2  -6 66.0289 41.4573   1
  -9  -2  -5 89.4836 55.7009   1
  -9  -2  -4 437.308 96.6462   1
  -9  -1  -9 148.930 86.0762   1
  -9  -1  -8 817.894 173.419   1
  -9  -1  -7 395.439 109.030   1
  -9  -1  -6 51.4879 57.5696   1
  -9  -1  -5 45.8047 60.0526   1
  -9   0  -9 409.107 143.656   1
  -9   0  -8 141.545 76.0213   1
  -9   0  -7 688.750 155.150   1
  -9   0  -6 99.0190 66.4337   1
  -9   0  -5 497.169 113.077   1
  -9   1  -8 244.873 113.305   1
  -9   1  -7 408.993 126.800   1
  -9   1  -6 331.438 111.017   1
  -9   2  -7 252.933 112.467   1
  -9   2  -6 220.709 103.673   1
  -9   3  -6 631.041 155.185   1
  -8  -6 -11 460.943 148.960   1
  -8  -6 -10 125.847 79.7160   1
  -8  -6  -9-41.2217 47.5209   1
  -8  -6  -8 38.8919 69.2371   1
  -8  -6  -7 663.302 119.136   1
  -8  -5 -11 149.446 112.174   1
  -8  -5 -10 38.1469 64.1968   1
  -8  -5  -9 32.3500 54.3141   1
  -8  -5  -8 5.64331 63.9654   1
  -8  -5  -7 447.776 109.593   1
  -8  -5  -6-10.8496 39.1608   1
  -8  -5  -5 231.243 60.9546   1
  -8  -5  -4 515.467 75.9673   1
  -8  -4 -11 196.254 111.209   1
  -8  -4 -10-71.9604 89.5145   1
  -8  -4  -9 467.322 125.203   1
  -8  -4  -8 991.679 169.105   1
  -8  -4  -7 538.633 110.494   1
  -8  -4  -6 238.760 79.4314   1
  -8  -4  -5 2051.59 180.496   1
  -8  -4  -4 1192.52 125.723   1
  -8  -4  -3 3520.71 191.442   1
  -8  -4  -2 65.3793 29.9743   1
  -8  -3 -11 691.742 181.447   1
  -8  -3 -10 205.811 102.757   1
  -8  -3  -9 286.195 105.291   1
  -8  -3  -8 383.428 111.977   1
  -8  -3  -7 703.475 134.794   1
  -8  -3  -6 524.500 112.219   1
  -8  -3  -5 514.271 102.496   1
  -8  -3  -4 1597.13 158.470   1
  -8  -3  -3 2280.30 171.986   1
  -8  -2 -10 113.800 97.7914   1
  -8  -2  -9 107.946 87.0165   1
  -8  -2  -8 135.931 65.9115   1
  -8  -2  -7 68.7822 69.1325   1
  -8  -2  -6 108.291 70.4874   1
  -8  -2  -5 102.612 41.4704   1
  -8  -2  -4 313.957 73.1597   1
  -8  -1 -10 262.398 123.937   1
  -8  -1  -9 586.023 148.712   1
  -8  -1  -8 657.642 148.009   1
  -8  -1  -7 968.323 164.895   1
  -8  -1  -6 274.429 84.9952   1
  -8  -1  -5 546.829 108.620   1
  -8   0  -9 143.339 88.2509   1
  -8   0  -8 53.0342 50.6591   1
  -8   0  -7 87.7880 52.3676   1
  -8   0  -6 272.046 96.0985   1
  -8   0  -5 40.0518 46.3296   1
  -8   0  -4 659.632 102.574   3
  -8   0  -3 1556.60 145.345   3
  -8   1  -9 122.803 77.3748   1
  -8   1  -8 202.324 96.4488   1
  -8   1  -7 43.7870 63.8774   1
  -8   1  -6 825.894 155.573   1
  -8   2  -8 122.111 77.1930   1
  -8   2  -7 55.1062 58.5131   1
  -8   2  -6 138.075 79.9173   1
  -8   2  -1 989.813 152.997   3
  -8   3  -7 360.775 121.079   1
  -8   3  -6 662.801 156.495   1
  -8   4  -6 163.349 94.8688   1
  -7  -7 -12 190.010 114.625   1
  -7  -7 -11 161.448 88.3109   1
  -7  -7 -10 219.291 110.059   1
  -7  -7  -9-14.0001 66.3018   1
  -7  -7  -8 266.048 91.4534   1
  -7  -7  -7 858.543 133.874   1
  -7  -6 -12-68.0190 83.2166   1
  -7  -6 -11 147.766 92.5579   1
  -7  -6 -10 677.867 156.417   1
  -7  -6  -9 161.870 89.3992   1
  -7  -6  -8 33.7562 50.4012   1
  -7  -6  -7 330.575 87.2813   1
  -7  -6  -6 2474.46 196.425   1
  -7  -6  -5 254.451 56.9991   1
  -7  -6  -4 472.987 57.4380   1
  -7  -5 -11 20.9938 79.9369   1
  -7  -5 -10 207.428 100.553   1
  -7  -5  -9 87.1981 70.1786   1
  -7  -5  -8 39.0505 58.7007   1
  -7  -5  -7-11.6042 40.2731   1
  -7  -5  -6 291.384 78.4109   1
  -7  -5  -5 107.341 46.6943   1
  -7  -5  -4 322.394 60.2653   1
  -7  -5  -3 464.046 55.8739   1
  -7  -4 -11 63.7935 79.8242   1
  -7  -4 -10-0.66602 60.5892   1
  -7  -4  -9 208.369 89.4550   1
  -7  -4  -8 174.449 69.8628   1
  -7  -4  -7 893.503 144.334   1
  -7  -4  -6 182.458 62.4505   1
  -7  -4  -6 145.812 37.9156   3
  -7  -4  -5 622.465 97.8851   1
  -7  -4  -4 1765.34 145.543   1
  -7  -4  -3 1605.91 123.135   1
  -7  -4  -2-6.02578 19.5161   1
  -7  -4  -1 435.936 54.9205   1
  -7  -4  -1 405.008 45.4060   1
  -7  -4   0 590.900 44.2371   1
  -7  -3 -11 112.279 102.361   1
  -7  -3 -10 674.996 169.057   1
  -7  -3  -9 26.8690 49.7247   1
  -7  -3  -8 444.069 114.626   1
  -7  -3  -7 852.528 142.175   1
  -7  -3  -6 6028.51 338.096   1
  -7  -3  -6 5558.47 222.204   3
  -7  -3  -5 195.687 66.3693   1
  -7  -3  -5 142.444 23.6649   3
  -7  -3  -4 3094.74 204.063   1
  -7  -3  -3 1317.94 123.839   1
  -7  -3  -1 4952.84 231.602   1
  -7  -3   0 591.252 82.1013   1
  -7  -2 -11 48.3654 84.7022   1
  -7  -2 -10 242.303 122.941   1
  -7  -2  -9 212.552 91.4437   1
  -7  -2  -8 93.6224 77.7302   1
  -7  -2  -7 553.932 123.966   1
  -7  -2  -6 1461.15 138.506   3
  -7  -2  -6 1495.88 179.237   1
  -7  -2  -5 2683.15 150.424   3
  -7  -2  -5 2795.66 223.764   1
  -7  -2  -4 884.258 120.260   1
  -7  -2  -4 496.554 53.0593   3
  -7  -2   0 1545.92 150.693   1
  -7  -2   1 238.848 67.3072   1
  -7  -1 -10 126.348 88.2934   1
  -7  -1  -9 509.486 144.324   1
  -7  -1  -8 294.762 100.013   1
  -7  -1  -7 534.647 126.264   1
  -7  -1  -6 566.786 122.797   1
  -7  -1  -5 345.888 69.2127   3
  -7  -1  -5 586.925 107.090   1
  -7  -1  -4 3160.71 174.537   3
  -7  -1  -3 200.882 53.0477   3
  -7  -1   1 920.394 133.514   1
  -7  -1   2 391.450 95.3408   1
  -7   0 -10 631.082 171.153   1
  -7   0  -9 155.955 101.647   1
  -7   0  -8 324.789 112.628   1
  -7   0  -7 254.138 100.946   1
  -7   0  -6 2848.64 264.168   1
  -7   0  -5 712.716 117.114   3
  -7   0  -5 848.150 137.909   1
  -7   0  -4 3496.14 215.644   3
  -7   0  -3 584.383 98.2837   3
  -7   0  -2 6070.62 262.029   3
  -7   0   1 4390.01 300.590   1
  -7   1  -9 412.554 135.440   1
  -7   1  -8 9.22455 56.1646   1
  -7   1  -7-172.918 98.5555   1
  -7   1  -6 28.5844 61.1991   1
  -7   1  -4 4201.66 266.497   3
  -7   1  -2 369.374 99.8166   3
  -7   1  -1 2348.89 196.040   3
  -7   2  -9 330.881 134.884   1
  -7   2  -8-89.8605 107.015   1
  -7   2  -7 23.4911 59.8829   1
  -7   2  -6 115.522 62.7584   1
  -7   2  -3 3936.93 273.223   3
  -7   2  -2 233.540 95.3542   3
  -7   2  -1 2265.68 218.116   3
  -7   2  -1 2197.60 189.585   2
  -7   2   0 847.663 118.571   2
  -7   3  -8 731.014 168.732   1
  -7   3  -7 125.123 78.6054   1
  -7   3  -6 263.002 86.8857   1
  -7   3  -2 810.220 110.822   2
  -7   3  -1 326.399 74.3850   2
  -7   3   0 143.533 44.3762   2
  -7   3   1 2675.86 201.857   2
  -7   4  -7 1735.80 255.348   1
  -7   4  -6 978.089 188.832   1
  -7   4  -2 10056.8 377.595   2
  -7   4  -1 2726.81 188.083   2
  -7   4   0 1722.70 146.133   2
  -7   5  -6 499.455 142.488   1
  -6  -8 -12-114.381 104.153   1
  -6  -8 -11 236.987 118.797   1
  -6  -8 -10 99.7275 76.5146   1
  -6  -8  -9 105.366 73.8225   1
  -6  -8  -8 288.870 91.5057   1
  -6  -8  -7 834.354 127.187   1
  -6  -7 -12 145.153 87.7066   1
  -6  -7 -11 556.441 152.521   1
  -6  -7 -10 489.777 135.269   1
  -6  -7  -9 224.200 89.4893   1
  -6  -7  -8 413.999 106.179   1
  -6  -7  -7 825.240 134.413   1
  -6  -7  -6 372.627 81.7014   1
  -6  -7  -5 146.320 43.7329   1
  -6  -6 -12 211.406 113.881   1
  -6  -6 -11 280.205 120.467   1
  -6  -6 -10 251.172 105.458   1
  -6  -6  -9 483.880 120.668   1
  -6  -6  -9 316.042 103.876   3
  -6  -6  -8 623.325 118.970   3
  -6  -6  -8 620.458 129.943   1
  -6  -6  -7 374.994 75.1121   3
  -6  -6  -7 477.386 105.814   1
  -6  -6  -6 429.967 55.4213   3
  -6  -6  -6 487.171 96.7578   1
  -6  -6  -5 511.638 80.6647   1
  -6  -6  -4 653.349 71.3200   1
  -6  -5 -12 69.3528 83.8267   1
  -6  -5 -11 641.725 177.063   1
  -6  -5 -10 190.995 91.7149   1
  -6  -5  -9 699.837 145.327   1
  -6  -5  -8 362.272 93.4270   1
  -6  -5  -7 1171.28 109.418   3
  -6  -5  -7 1460.77 172.389   1
  -6  -5  -7 1642.78 151.764   3
  -6  -5  -6-61.4332 44.7006   1
  -6  -5  -6-14.2351 36.7331   3
  -6  -5  -6 23.1539 23.3239   3
  -6  -5  -5 3304.80 207.069   1
  -6  -5  -4 2654.20 159.006   1
  -6  -5  -3 1411.17 90.4724   1
  -6  -4 -12 20.5862 91.5934   1
  -6  -4 -11 360.539 138.783   1
  -6  -4 -10 9.44895 57.5859   1
  -6  -4  -9-39.8567 72.5201   1
  -6  -4  -8 521.419 122.483   1
  -6  -4  -7 1152.30 114.474   3
  -6  -4  -7 1398.96 170.767   1
  -6  -4  -6 152.465 56.2188   1
  -6  -4  -6 230.889 47.2037   3
  -6  -4  -5 2363.89 89.6286   3
  -6  -4  -5 2067.27 90.0101   3
  -6  -4  -4 140.231 42.0047   1
  -6  -4  -3 736.204 78.8258   1
  -6  -4  -2 3509.63 136.403   1
  -6  -4  -1 96.5296 18.6176   1
  -6  -4  -1 75.4825 20.2458   1
  -6  -3 -11 384.327 125.422   1
  -6  -3 -10 437.144 134.639   1
  -6  -3  -9 267.217 107.770   1
  -6  -3  -8 842.541 146.209   1
  -6  -3  -7 4037.53 293.265   1
  -6  -3  -6 7548.89 271.300   3
  -6  -3  -6 7493.93 366.725   1
  -6  -3  -5 5087.62 180.586   3
  -6  -3  -5 4894.44 269.957   1
  -6  -3  -4 2291.70 169.175   1
  -6  -3  -3 4185.41 201.901   1
  -6  -3  -1 8713.45 268.007   1
  -6  -3   0 4951.09 195.388   1
  -6  -3   1 1360.10 105.531   1
  -6  -3   2 1174.22 103.881   1
  -6  -2 -11 339.290 138.955   1
  -6  -2 -10 55.3248 81.3290   1
  -6  -2  -9 892.427 172.147   1
  -6  -2  -8-47.8254 75.5619   1
  -6  -2  -7 3810.77 241.965   3
  -6  -2  -7 3707.31 290.730   1
  -6  -2  -6 692.379 124.109   1
  -6  -2  -6 723.700 95.8987   3
  -6  -2  -5 4849.36 279.483   1
  -6  -2  -5 4747.49 209.446   3
  -6  -2  -4 1804.91 157.001   1
  -6  -2  -4 1863.73 106.795   3
  -6  -2   0 5602.30 247.054   1
  -6  -2   1 277.839 66.7365   1
  -6  -2   2 22.8178 47.5034   1
  -6  -1 -11 433.370 137.195   1
  -6  -1 -10-115.650 83.0168   1
  -6  -1  -9-33.8777 63.9047   1
  -6  -1  -8 543.945 131.056   1
  -6  -1  -7 1569.57 196.332   1
  -6  -1  -6 1437.52 173.775   1
  -6  -1  -6 1286.51 138.326   3
  -6  -1  -5 206.072 66.3879   1
  -6  -1  -5 307.378 76.7619   3
  -6  -1  -4 1868.25 138.093   3
  -6  -1  -3 194.006 54.1916   3
  -6  -1   1 6532.03 306.523   1
  -6  -1   3 598.512 100.753   1
  -6   0 -10 2726.01 331.727   1
  -6   0  -9 742.241 173.085   1
  -6   0  -8 661.669 149.734   1
  -6   0  -7 1844.78 219.600   1
  -6   0  -6 2805.58 251.895   1
  -6   0  -5 5756.54 335.632   1
  -6   0  -4 3481.67 218.722   3
  -6   0  -3 197.888 65.9817   3
  -6   0  -2 1472.04 128.908   3
  -6   0  -2 1314.62 143.406   2
  -6   0  -1 338.823 76.0187   2
  -6   0   0 8217.02 357.801   2
  -6   0   2 10010.0 410.260   1
  -6   0   3 595.424 122.245   1
  -6   1 -10-13.2823 75.2203   1
  -6   1  -9 652.037 168.723   1
  -6   1  -8 26.7073 57.9554   1
  -6   1  -7 694.533 137.353   1
  -6   1  -6 35.8119 57.6020   1
  -6   1  -5 1786.59 197.222   1
  -6   1  -4 2606.73 209.971   3
  -6   1  -3 425.299 92.6868   2
  -6   1  -2 3166.92 218.625   2
  -6   1  -2 3697.45 224.330   3
  -6   1  -1 3570.85 221.014   3
  -6   1  -1 3210.97 214.679   2
  -6   1   0 2913.93 205.737   2
  -6   1   1 18224.0 571.883   1
  -6   1   1 17561.5 520.177   2
  -6   1   2 789.767 129.436   1
  -6   2  -9-14.9911 58.9817   1
  -6   2  -8 748.643 168.493   1
  -6   2  -7 88.7721 76.6508   1
  -6   2  -6 285.311 95.7519   1
  -6   2  -3 97.2039 62.5270   3
  -6   2  -3 84.9811 40.9078   2
  -6   2  -2 2447.12 184.892   2
  -6   2  -1 9841.68 357.786   2
  -6   2   0 3656.75 217.935   2
  -6   2   1 4096.68 237.930   2
  -6   3  -9-26.0777 70.3827   1
  -6   3  -8 109.256 70.3484   1
  -6   3  -7 1090.78 190.217   1
  -6   3  -6 177.527 89.8230   1
  -6   3  -3 549.622 83.8050   2
  -6   3  -2 4435.63 244.173   2
  -6   3  -1 1347.83 176.266   3
  -6   3  -1 1282.23 122.482   2
  -6   3   0 8403.65 411.685   3
  -6   3   0 7759.46 298.012   2
  -6   3   1 3464.92 206.101   2
  -6   3   1 4333.06 311.346   3
  -6   4  -8 74.0762 61.9935   1
  -6   4  -7 1221.53 208.905   1
  -6   4  -6 1984.34 249.891   1
  -6   4  -3-112.118 75.0387   2
  -6   4  -2 4482.93 235.525   2
  -6   4  -1 1699.10 139.973   2
  -6   4   0 1200.58 111.698   2
  -6   5  -7 418.498 130.978   1
  -6   5  -6 522.475 137.077   1
  -6   5  -3 231.651 52.7293   2
  -6   5  -2 714.112 94.7068   2
  -6   5  -1 13052.8 351.106   2
  -6   5   0 2171.38 133.393   2
  -6   6  -6 68.1286 89.9244   1
  -6   7  -5 141.449 103.596   1
  -6   8   6 1164.70 170.534   4
  -6   8   7 990.048 172.204   4
  -6   8   8-124.477 101.959   4
  -6   8   9 663.794 162.363   4
  -5  -9 -12 141.770 113.852   1
  -5  -9 -11 405.435 151.432   1
  -5  -9 -10 57.0312 68.9554   1
  -5  -9  -9 240.918 101.741   1
  -5  -9  -8 472.952 114.708   1
  -5  -9  -7 1057.16 146.301   3
  -5  -9  -6 693.408 109.491   3
  -5  -9  -5 148.448 61.1645   3
  -5  -9  -4 134.602 49.3481   3
  -5  -8 -12 260.946 141.692   1
  -5  -8 -11 115.978 104.967   1
  -5  -8 -11 75.5214 94.6937   3
  -5  -8 -10 147.597 91.7383   3
  -5  -8 -10 104.684 65.9518   1
  -5  -8  -9 28.5943 65.6000   3
  -5  -8  -9-4.32198 58.7886   1
  -5  -8  -8-3.87978 60.3872   1
  -5  -8  -8 211.976 80.0583   3
  -5  -8  -7 460.760 100.189   1
  -5  -8  -7 433.738 96.8116   3
  -5  -8  -6 783.413 111.863   1
  -5  -8  -6 1103.85 132.813   3
  -5  -8  -5 611.640 89.2160   3
  -5  -8  -4 2865.45 176.768   3
  -5  -8  -3 829.072 98.4807   3
  -5  -7 -12 328.607 139.064   1
  -5  -7 -11 80.2584 97.6768   1
  -5  -7 -11 146.736 111.291   3
  -5  -7 -10 860.076 173.231   1
  -5  -7 -10 1034.17 191.745   3
  -5  -7  -9 834.111 152.320   3
  -5  -7  -9 688.423 146.957   1
  -5  -7  -8 1657.49 190.948   3
  -5  -7  -8 1546.22 192.340   1
  -5  -7  -7 995.065 149.529   1
  -5  -7  -7 1028.07 133.260   3
  -5  -7  -6 1666.42 144.278   3
  -5  -7  -6 1851.85 170.694   1
  -5  -7  -5 79.2174 41.4477   1
  -5  -7  -5 8.60146 33.9900   3
  -5  -7  -4 733.704 81.7535   3
  -5  -7  -3 195.247 48.1528   3
  -5  -6 -12 361.132 133.336   1
  -5  -6 -11-2.16020 87.2765   1
  -5  -6 -10 304.942 117.070   1
  -5  -6  -9 737.945 142.938   1
  -5  -6  -8 951.044 153.800   1
  -5  -6  -8 1132.53 161.399   3
  -5  -6  -7 1217.58 157.274   1
  -5  -6  -7 1233.66 154.010   3
  -5  -6  -6 1950.25 155.205   3
  -5  -6  -6 1670.79 164.033   1
  -5  -6  -5 1647.04 115.711   3
  -5  -6  -5 1819.11 151.285   1
  -5  -6  -4 1070.37 95.4896   1
  -5  -6  -4 1092.17 80.9068   3
  -5  -6  -3 319.382 42.9333   3
  -5  -5 -12 95.1788 105.437   1
  -5  -5 -11 69.5902 70.9293   1
  -5  -5 -10 238.728 111.582   1
  -5  -5  -9 1170.56 185.837   1
  -5  -5  -8 1721.19 206.705   1
  -5  -5  -7 1094.08 149.713   1
  -5  -5  -6 197.391 81.1199   3
  -5  -5  -6 96.0949 62.4629   1
  -5  -5  -5 1141.48 97.3979   3
  -5  -5  -5 1021.92 117.550   1
  -5  -5  -4 2405.95 91.8493   3
  -5  -5  -4 3431.66 178.754   1
  -5  -5  -3 1378.46 87.3071   1
  -5  -4 -12 804.209 218.074   1
  -5  -4 -11 139.219 100.105   1
  -5  -4 -10 43.5521 55.7681   1
  -5  -4  -9 311.222 112.317   1
  -5  -4  -8 967.325 158.822   1
  -5  -4  -7 80.5161 44.2966   1
  -5  -4  -6 2391.18 197.901   1
  -5  -4  -5 285.575 64.2296   3
  -5  -4  -5 223.856 59.1132   1
  -5  -4  -4 111.093 18.8018   3
  -5  -4  -4 86.1254 20.0544   3
  -5  -4  -4 122.717 39.8948   1
  -5  -4  -3 47.9549 27.0591   1
  -5  -4  -2 3050.78 111.505   1
  -5  -3 -12 304.758 118.746   1
  -5  -3 -11 184.396 99.0023   1
  -5  -3 -10 363.805 115.616   1
  -5  -3  -9 416.741 123.816   1
  -5  -3  -8 519.521 121.520   1
  -5  -3  -7 2015.96 169.388   3
  -5  -3  -7 2016.36 202.602   1
  -5  -3  -6 1754.74 172.630   1
  -5  -3  -6 1820.65 139.533   3
  -5  -3  -5 6451.25 216.336   3
  -5  -3  -5 6521.19 302.452   1
  -5  -3  -4 643.585 90.7833   1
  -5  -3  -4 472.894 45.6787   3
  -5  -3  -3 2340.02 142.641   1
  -5  -3  -2 5588.64 186.532   1
  -5  -3   0 2425.16 114.263   1
  -5  -3   1 207.029 39.2033   1
  -5  -3   2 31.2547 25.2572   1
  -5  -3   3 5497.01 226.496   1
  -5  -2 -11 39.5342 60.9800   1
  -5  -2 -10-16.8380 67.2898   1
  -5  -2  -9 993.806 180.931   1
  -5  -2  -8 1580.52 203.890   1
  -5  -2  -7 130.307 53.2178   3
  -5  -2  -7 174.352 81.7374   1
  -5  -2  -6 2495.58 215.478   1
  -5  -2  -5 9756.50 385.201   1
  -5  -2  -5 9697.89 296.656   3
  -5  -2  -4 16094.0 444.425   1
  -5  -2  -4 16600.8 323.451   3
  -5  -2  -3 1111.40 57.7073   3
  -5  -2  -3 1447.69 120.956   1
  -5  -2   0 13800.4 337.524   1
  -5  -2   1 7488.78 257.572   1
  -5  -2   2 56.1349 34.4390   1
  -5  -2   3 2074.94 158.904   1
  -5  -1 -11 57.1640 85.1003   1
  -5  -1 -10 306.751 115.162   1
  -5  -1  -9-72.8313 85.0571   1
  -5  -1  -8 2648.29 267.431   1
  -5  -1  -7 987.456 157.571   1
  -5  -1  -6 1616.16 160.371   3
  -5  -1  -6 1443.58 172.705   1
  -5  -1  -5 4075.14 262.644   1
  -5  -1  -5 4249.09 224.499   3
  -5  -1  -4 2777.14 196.189   1
  -5  -1  -4 2681.40 159.219   3
  -5  -1  -4 3050.60 222.833   2
  -5  -1  -3 14702.7 455.968   2
  -5  -1  -3 13610.2 300.101   3
  -5  -1  -2 789.684 109.594   2
  -5  -1  -2 721.334 63.3668   3
  -5  -1  -1 2980.65 205.437   2
  -5  -1   0 4632.37 257.049   2
  -5  -1   1 442.968 79.5325   1
  -5  -1   1 541.514 96.4082   2
  -5  -1   2 864.467 112.206   1
  -5  -1   4 2164.75 188.978   1
  -5   0 -11 424.525 156.624   1
  -5   0 -10 961.645 208.233   1
  -5   0  -9 855.296 171.861   1
  -5   0  -8 2348.77 267.205   1
  -5   0  -7 1421.99 196.028   1
  -5   0  -6 871.144 135.287   1
  -5   0  -5 691.373 118.268   1
  -5   0  -4 2413.18 174.715   3
  -5   0  -4 2627.68 207.248   2
  -5   0  -3 402.183 77.8250   3
  -5   0  -3 225.785 50.1175   2
  -5   0  -2 8174.22 252.811   3
  -5   0  -2 8893.38 336.490   2
  -5   0  -1 22.5702 34.7892   2
  -5   0  -1 76.9160 39.7765   3
  -5   0   0 13157.0 410.678   2
  -5   0   1 937.548 122.406   1
  -5   0   1 948.639 119.051   2
  -5   0   4 203.716 64.9916   1
  -5   1 -10 74.4654 79.0678   1
  -5   1  -9 1174.49 205.172   1
  -5   1  -8 2148.80 262.255   1
  -5   1  -7 611.853 133.806   1
  -5   1  -6 183.841 72.8388   1
  -5   1  -5 4097.39 285.501   1
  -5   1  -5 4579.44 286.488   3
  -5   1  -4 670.750 111.620   2
  -5   1  -3 14033.6 438.799   2
  -5   1  -3 13991.6 430.106   3
  -5   1  -2 18.7411 46.0614   3
  -5   1  -2 35.1771 42.1690   2
  -5   1  -1 8445.40 312.464   3
  -5   1  -1 8467.21 311.294   2
  -5   1   0 6438.15 268.114   2
  -5   1   0 6694.56 285.177   3
  -5   1   1 5289.71 255.137   2
  -5   1   3 9817.04 417.698   1
  -5   2 -10 68.4996 94.2643   1
  -5   2  -9 428.692 135.256   1
  -5   2  -8 1830.04 241.909   1
  -5   2  -7 685.734 145.713   1
  -5   2  -6 507.210 123.275   1
  -5   2  -5 43.0116 52.6667   1
  -5   2  -4 382.259 99.4704   2
  -5   2  -4 306.762 86.2355   3
  -5   2  -3 2676.34 193.597   2
  -5   2  -3 2830.10 221.836   3
  -5   2  -2 16332.9 434.043   2
  -5   2  -1 8935.07 304.786   2
  -5   2  -1 9614.75 372.939   3
  -5   2   0 47939.0 831.716   3
  -5   2   0 44908.7 672.300   2
  -5   2   1 1926.29 144.066   2
  -5   2   2 12777.7 476.172   1
  -5   3  -9 61.3282 70.8165   1
  -5   3  -8 146.101 108.366   1
  -5   3  -7 1063.62 176.340   1
  -5   3  -6 1257.28 192.623   1
  -5   3  -5 2041.19 221.960   1
  -5   3  -4 197.167 80.2849   2
  -5   3  -3 1518.78 148.289   2
  -5   3  -2 9061.07 318.057   2
  -5   3  -2 9473.66 409.018   3
  -5   3  -1 8017.04 372.980   3
  -5   3  -1 7107.16 262.160   2
  -5   3   0 7857.98 262.734   2
  -5   3   1 6006.57 233.880   2
  -5   3   1 6742.94 356.141   3
  -5   4  -8 921.873 193.167   1
  -5   4  -7 349.757 120.375   1
  -5   4  -6 2270.21 262.326   1
  -5   4  -5 2899.52 277.880   1
  -5   4  -4 1.89945 74.8767   2
  -5   4  -3 3111.52 209.454   2
  -5   4  -2 2585.85 165.389   2
  -5   4  -1 11714.8 315.733   2
  -5   4   0 791.202 77.9990   2
  -5   4   1 4355.65 305.215   3
  -5   5  -8 171.452 89.3664   1
  -5   5  -7 536.876 151.555   1
  -5   5  -6 1816.76 244.397   1
  -5   5  -5 8697.00 497.009   1
  -5   5  -3 1332.88 137.320   2
  -5   5  -2 2670.53 166.230   2
  -5   5  -1 8922.38 261.180   2
  -5   5   0 33465.0 437.713   2
  -5   5   4 526.606 100.077   4
  -5   5   5 2625.71 235.115   4
  -5   5   6 3643.71 296.886   4
  -5   5   7 660.408 145.037   4
  -5   5   8 341.209 107.996   4
  -5   5   9 198.908 86.6431   4
  -5   6  -7 74.2447 63.9888   1
  -5   6  -6 250.470 98.7650   1
  -5   6  -5 552.123 140.680   1
  -5   6  -2 49.1583 30.7737   2
  -5   6  -1 481.333 56.3418   2
  -5   6   0 21.2775 11.8288   2
  -5   6   3 1465.29 135.352   4
  -5   6   4 271.234 72.0706   4
  -5   6   5 849.740 132.295   4
  -5   6   6 6334.18 384.864   4
  -5   6   7 642.504 144.306   4
  -5   6   8 1865.75 250.208   4
  -5   6   9 164.944 104.928   4
  -5   6  10 737.426 195.742   4
  -5   7  -6 269.280 108.229   1
  -5   7  -5 1043.65 188.427   1
  -5   7   3 1006.58 108.042   4
  -5   7   4 482.275 88.0179   4
  -5   7   5 27.7732 49.6322   4
  -5   7   6 7160.20 409.184   4
  -5   7   7 2661.35 274.096   4
  -5   7   8 2996.47 311.238   4
  -5   7   9 1804.85 263.312   4
  -5   7  10-36.9114 110.650   4
  -5   8  -5 1292.47 216.602   1
  -5   8   3 5487.69 241.775   4
  -5   8   4 697.093 111.051   4
  -5   8   5 1175.16 151.694   4
  -5   8   6 223.550 93.2779   4
  -5   8   7 1889.98 226.994   4
  -5   8   8 450.932 136.488   4
  -5   8   9 287.630 122.346   4
  -5   8  10-5.23234 97.4234   4
  -5   9  -4-48.0053 60.9990   1
  -5   9   5 233.917 85.8399   4
  -5   9   6 2039.96 224.173   4
  -5   9   7-106.668 76.0517   4
  -5   9   8 1921.85 249.978   4
  -5   9   9 44.5777 89.9122   4
  -5   9  10 8.02655 90.9884   4
  -4 -10 -12 91.8119 88.4071   1
  -4 -10 -11 72.7322 110.224   1
  -4 -10 -10 499.303 154.374   3
  -4 -10 -10 511.585 152.344   1
  -4 -10  -9 353.191 118.653   3
  -4 -10  -9 449.347 138.841   1
  -4 -10  -8 339.145 106.750   3
  -4 -10  -7 37.8408 64.4348   3
  -4 -10  -6 56.4731 59.9727   3
  -4 -10  -5 607.766 120.145   3
  -4 -10  -4 360.975 94.0826   3
  -4 -10  -3 49.4402 55.7389   3
  -4 -10  -2 428.221 100.631   3
  -4 -10  -1 160.037 81.6748   3
  -4  -9 -12 115.938 125.352   3
  -4  -9 -12 389.611 149.677   1
  -4  -9 -11 287.231 137.912   1
  -4  -9 -11 230.975 120.156   3
  -4  -9 -10 250.616 102.164   1
  -4  -9 -10 148.552 107.920   3
  -4  -9  -9 568.384 138.252   1
  -4  -9  -9 701.840 162.458   3
  -4  -9  -8 699.806 142.081   3
  -4  -9  -8 885.291 154.547   1
  -4  -9  -7 711.150 124.284   1
  -4  -9  -7 580.442 126.024   3
  -4  -9  -6 200.032 80.4067   3
  -4  -9  -5 2519.26 225.084   3
  -4  -9  -4 834.957 128.978   3
  -4  -9  -3 1271.96 156.492   3
  -4  -9  -2 332.047 86.6356   3
  -4  -9  -1 1059.08 149.009   3
  -4  -8 -13-99.8853 111.533   3
  -4  -8 -12 377.502 155.468   3
  -4  -8 -12 3.75467 98.2653   1
  -4  -8 -11 76.6684 71.5550   1
  -4  -8 -11-96.7978 118.872   3
  -4  -8 -10 333.154 133.416   3
  -4  -8 -10 393.821 124.957   1
  -4  -8  -9 282.260 113.644   3
  -4  -8  -9 104.149 94.0934   1
  -4  -8  -8 1498.35 201.581   3
  -4  -8  -8 1488.53 194.008   1
  -4  -8  -7 233.899 88.8229   1
  -4  -8  -7 275.248 90.4817   3
  -4  -8  -6 28.9525 51.2156   3
  -4  -8  -6 39.7616 48.4627   1
  -4  -8  -5 779.531 118.527   3
  -4  -8  -4 2837.37 205.782   3
  -4  -8  -3 1372.81 144.095   3
  -4  -8  -2 2380.28 193.546   3
  -4  -8  -1 98.5147 55.4094   3
  -4  -7 -12-50.7515 79.0157   1
  -4  -7 -11 50.2492 90.4551   1
  -4  -7 -11-15.0870 96.7781   3
  -4  -7 -10 461.818 122.428   1
  -4  -7 -10 325.952 144.389   3
  -4  -7  -9 982.632 169.075   1
  -4  -7  -9 894.056 176.054   3
  -4  -7  -8 1949.52 224.992   3
  -4  -7  -8 2124.19 231.702   1
  -4  -7  -7 1696.59 189.630   1
  -4  -7  -7 1603.32 185.046   3
  -4  -7  -6 168.905 75.5527   3
  -4  -7  -6 34.1595 48.4116   1
  -4  -7  -5 2396.19 173.696   1
  -4  -7  -5 2282.81 179.155   3
  -4  -7  -4 2840.55 187.528   3
  -4  -7  -3 5397.61 251.054   3
  -4  -7  -2 4609.99 234.472   3
  -4  -7  -1 563.928 92.3604   3
  -4  -6 -12 479.326 153.473   1
  -4  -6 -11 99.8482 79.5343   1
  -4  -6 -10 171.149 91.1264   1
  -4  -6  -9 1602.19 218.960   1
  -4  -6  -8 4840.44 344.020   3
  -4  -6  -8 4819.66 339.065   1
  -4  -6  -7 5104.95 317.675   3
  -4  -6  -7 4966.83 316.919   1
  -4  -6  -6-51.8452 54.8647   1
  -4  -6  -6-36.9188 61.7137   3
  -4  -6  -5 1535.32 143.490   1
  -4  -6  -5 1570.53 140.449   3
  -4  -6  -4 290.475 64.9641   3
  -4  -6  -4 249.975 54.8354   1
  -4  -6  -3 427.839 68.0799   3
  -4  -6  -2 3953.23 188.774   3
  -4  -6  -1 734.315 93.9773   3
  -4  -5 -12 279.265 115.780   1
  -4  -5 -11 213.614 102.849   1
  -4  -5 -10 52.2852 72.2601   1
  -4  -5  -9 303.586 85.3369   1
  -4  -5  -8 2624.84 248.418   1
  -4  -5  -7 4772.34 310.402   1
  -4  -5  -6 76.4738 69.1721   3
  -4  -5  -6 138.877 58.5790   1
  -4  -5  -5 1005.52 112.272   3
  -4  -5  -5 1017.93 115.670   1
  -4  -5  -4 101.024 44.7199   1
  -4  -5  -4 106.784 41.1639   3
  -4  -5  -4 69.2630 58.5711   2
  -4  -5  -3 3279.56 140.818   3
  -4  -5  -3 3368.57 140.460   1
  -4  -5  -3 3323.36 233.711   2
  -4  -5  -2 6061.01 187.670   3
  -4  -5  -2 6165.30 310.286   2
  -4  -4 -12 56.0815 78.5281   1
  -4  -4 -11 178.822 105.849   1
  -4  -4 -10 542.637 149.899   1
  -4  -4  -9 142.386 82.5512   1
  -4  -4  -8 1798.40 214.621   1
  -4  -4  -7 2532.44 228.735   1
  -4  -4  -6 2137.47 189.213   1
  -4  -4  -5 325.653 64.5274   1
  -4  -4  -4 2203.40 149.979   1
  -4  -4  -4 2394.67 196.870   2
  -4  -4  -4 2202.06 127.796   3
  -4  -4  -3 767.579 54.5606   3
  -4  -4  -3 1073.04 87.0455   1
  -4  -4  -2 25457.7 291.908   1
  -4  -4  -2 25643.4 259.980   3
  -4  -4  -1 936.434 120.919   2
  -4  -3 -12 40.8311 72.0675   1
  -4  -3 -11 477.182 159.306   1
  -4  -3 -10 189.991 109.579   1
  -4  -3  -9 799.193 158.523   1
  -4  -3  -8 518.318 121.719   1
  -4  -3  -7 1993.16 203.782   1
  -4  -3  -6 403.415 88.0648   1
  -4  -3  -5 6414.71 290.662   1
  -4  -3  -4 10683.3 329.934   1
  -4  -3  -3 7915.98 243.692   1
  -4  -3  -3 6504.43 132.435   3
  -4  -3  -3 7087.34 123.757   3
  -4  -3  -2 1089.99 74.9960   1
  -4  -3  -1 20233.0 239.703   1
  -4  -3   0 1029.24 52.8462   1
  -4  -3   1 725.699 54.7419   1
  -4  -3   2 543.053 58.8514   1
  -4  -3   3 1968.23 132.562   1
  -4  -2 -12 269.464 136.849   1
  -4  -2 -11-15.3580 83.1819   1
  -4  -2 -10 271.153 110.717   1
  -4  -2  -9 983.064 174.296   1
  -4  -2  -8 2783.11 263.267   1
  -4  -2  -7 1150.88 160.247   1
  -4  -2  -7 1353.06 152.316   3
  -4  -2  -6 2989.43 228.871   1
  -4  -2  -5 16013.2 389.537   3
  -4  -2  -5 15747.0 471.936   1
  -4  -2  -4 34707.0 627.431   1
  -4  -2  -4 35408.7 477.942   3
  -4  -2  -3 25694.9 307.012   3
  -4  -2  -3 25181.1 470.887   1
  -4  -2   0 18810.6 331.358   1
  -4  -2   1 12418.4 287.938   1
  -4  -2   2 20529.4 407.770   1
  -4  -2   3 1888.98 139.614   1
  -4  -2   5 1191.79 137.552   1
  -4  -1 -11 111.747 78.5981   1
  -4  -1 -10 227.253 123.640   1
  -4  -1  -9 805.128 168.024   1
  -4  -1  -8 1298.51 187.757   1
  -4  -1  -7 2675.54 245.462   1
  -4  -1  -6 2694.65 222.976   1
  -4  -1  -6 2761.18 202.092   3
  -4  -1  -5 3936.23 262.456   2
  -4  -1  -5 3386.14 199.567   3
  -4  -1  -5 3404.55 230.978   1
  -4  -1  -4 5735.89 221.810   3
  -4  -1  -4 5572.45 265.940   1
  -4  -1  -3 392.677 52.8661   3
  -4  -1  -2 21675.4 288.530   3
  -4  -1   1 54.5937 26.5826   1
  -4  -1   2 15451.8 398.839   1
  -4  -1   3 353.161 73.1838   1
  -4  -1   5 754.373 113.819   1
  -4   0 -11 113.625 107.184   1
  -4   0 -10 180.292 101.872   1
  -4   0  -9 1028.80 188.827   1
  -4   0  -8 7.49690 63.6403   1
  -4   0  -7 843.215 145.689   1
  -4   0  -6 2390.56 220.497   1
  -4   0  -5 5214.18 297.787   1
  -4   0  -5 5440.13 298.916   2
  -4   0  -4 600.396 89.3933   3
  -4   0  -4 607.935 100.053   1
  -4   0  -4 826.624 122.911   2
  -4   0  -3 1588.53 139.901   2
  -4   0  -3 1570.29 122.190   3
  -4   0  -2 5164.20 193.764   3
  -4   0  -2 5137.87 233.573   2
  -4   0  -1 10536.5 259.273   3
  -4   0  -1 10501.1 323.886   2
  -4   0   0 4831.44 220.787   2
  -4   0   1 2211.23 160.893   1
  -4   0   1 2405.97 165.747   2
  -4   0   2 6013.83 266.338   1
  -4   0   3 7702.59 321.985   1
  -4   0   4-10.2557 49.9029   1
  -4   1 -10 360.917 132.029   1
  -4   1  -9 3942.31 363.629   1
  -4   1  -8 5594.22 402.169   1
  -4   1  -7 4303.58 329.910   1
  -4   1  -6 1239.46 165.581   1
  -4   1  -5 5338.94 302.222   3
  -4   1  -5 5540.33 306.950   2
  -4   1  -5 4995.80 307.585   1
  -4   1  -4 5886.31 292.594   2
  -4   1  -3 10337.8 353.684   2
  -4   1  -3 9685.16 341.952   3
  -4   1  -2 12319.1 352.425   2
  -4   1  -2 12145.2 354.811   3
  -4   1  -1 6486.51 243.907   3
  -4   1  -1 6569.14 240.705   2
  -4   1   0 385.188 74.0265   3
  -4   1   0 310.192 54.4293   2
  -4   1   1 14929.9 378.321   2
  -4   1   2 14384.5 440.829   1
  -4   1   4 11902.7 450.846   1
  -4   2 -10-181.920 117.186   1
  -4   2  -9 55.3812 88.2451   1
  -4   2  -8 79.4454 56.8696   1
  -4   2  -7 191.350 86.4381   1
  -4   2  -6 1333.82 178.937   1
  -4   2  -5 34.6013 54.3393   1
  -4   2  -4 884.025 128.790   3
  -4   2  -4 857.834 116.380   2
  -4   2  -3 1366.44 133.816   2
  -4   2  -2 12857.7 416.253   3
  -4   2  -2 12667.7 352.835   2
  -4   2  -1 8102.43 310.836   3
  -4   2  -1 7656.13 247.883   2
  -4   2   0 11461.8 378.491   3
  -4   2   0 10222.5 278.305   2
  -4   2   1 275.149 80.7677   3
  -4   2   1 285.721 48.6401   2
  -4   2   3 17327.2 540.045   1
  -4   2   4 5523.31 322.134   1
  -4   3  -9 347.111 121.933   1
  -4   3  -8-29.6908 62.1926   1
  -4   3  -7 432.493 119.578   1
  -4   3  -6 1643.50 207.827   1
  -4   3  -5 1463.03 179.824   1
  -4   3  -4 899.739 122.274   2
  -4   3  -3 2713.41 183.608   2
  -4   3  -3 2985.22 243.474   3
  -4   3  -2 6041.00 241.889   2
  -4   3  -2 5870.42 316.276   3
  -4   3  -1 22228.9 406.401   2
  -4   3   0 11133.1 264.628   2
  -4   3   1 3842.83 158.073   2
  -4   3   3 283.936 82.2236   1
  -4   3   3 192.935 58.0124   4
  -4   3   4 22553.8 599.463   4
  -4   3   5 23252.8 671.628   4
  -4   3   6 9971.54 478.144   4
  -4   3   7 130.492 75.1270   4
  -4   3   8 523.430 136.202   4
  -4   4  -9 612.633 170.268   1
  -4   4  -8 618.450 154.189   1
  -4   4  -7 97.6994 76.5878   1
  -4   4  -6 691.878 138.651   1
  -4   4  -5 2301.75 239.029   1
  -4   4  -4 1898.94 178.589   2
  -4   4  -3 3098.54 198.070   2
  -4   4  -2 2573.25 164.345   2
  -4   4  -1 18980.3 370.132   2
  -4   4  -1 19541.1 597.796   3
  -4   4   0 11852.8 461.696   3
  -4   4   0 10721.9 233.786   2
  -4   4   1 1483.22 173.096   3
  -4   4   2 5091.62 320.080   3
  -4   4   2 4358.82 201.343   4
  -4   4   3 7908.38 311.694   4
  -4   4   4 842.131 127.121   4
  -4   4   5 10229.9 438.735   4
  -4   4   6 1795.12 208.164   4
  -4   4   7 3144.50 293.565   4
  -4   4   8-179.079 94.6649   4
  -4   4   9 627.113 158.363   4
  -4   4  10 26.6500 86.5029   4
  -4   5  -8 180.725 107.641   1
  -4   5  -7 370.931 123.482   1
  -4   5  -6 1605.05 219.574   1
  -4   5  -5 695.524 140.120   1
  -4   5  -4 8371.46 365.692   2
  -4   5  -3 1899.96 162.464   2
  -4   5  -2 7458.10 270.791   2
  -4   5  -1 1193.11 86.5066   2
  -4   5   0 12370.3 217.901   2
  -4   5   2 3067.78 162.319   4
  -4   5   3 597.724 95.0715   4
  -4   5   4 1391.88 149.840   4
  -4   5   5 6764.20 358.395   4
  -4   5   6 1670.20 200.641   4
  -4   5   7 295.645 101.007   4
  -4   5   8 713.288 163.809   4
  -4   5   9 97.6612 106.247   4
  -4   5  10 1943.83 284.578   4
  -4   6  -8 566.090 156.200   1
  -4   6  -7 593.543 170.271   1
  -4   6  -6 999.863 182.509   1
  -4   6  -5 217.984 89.3145   1
  -4   6  -3 4135.97 231.612   2
  -4   6  -2 376.847 71.1122   2
  -4   6  -1 5764.16 188.057   2
  -4   6   2 3317.20 166.317   4
  -4   6   3 169.618 55.1424   4
  -4   6   4 700.139 111.595   4
  -4   6   5 13467.5 494.791   4
  -4   6   6 4288.18 314.569   4
  -4   6   7 1975.42 232.411   4
  -4   6   8 486.027 135.185   4
  -4   6   9 180.039 126.056   4
  -4   6  10 280.872 132.190   4
  -4   7  -7 402.385 140.216   1
  -4   7  -6 384.813 122.571   1
  -4   7  -5-10.3530 75.8474   1
  -4   7  -1 19.3311 24.7202   2
  -4   7   1 1795.58 78.0186   4
  -4   7   2 4658.00 193.002   4
  -4   7   3 1469.49 131.196   4
  -4   7   4 120.721 53.6639   4
  -4   7   5 3261.40 243.541   4
  -4   7   6 40.6478 55.3474   4
  -4   7   7 3176.82 291.326   4
  -4   7   8 1225.30 196.696   4
  -4   7   9 1934.57 263.151   4
  -4   7  10 1479.58 245.695   4
  -4   8  -6 476.772 133.708   1
  -4   8  -5 30.2943 53.1093   1
  -4   8  -4 222.517 92.3245   1
  -4   8   2 303.165 50.4188   4
  -4   8   3 1714.87 141.226   4
  -4   8   4 1275.19 138.873   4
  -4   8   5 10247.6 432.893   4
  -4   8   6 2592.62 239.990   4
  -4   8   7 1079.84 174.007   4
  -4   8   8 1251.65 200.501   4
  -4   8   9-102.927 82.4109   4
  -4   8  10 139.882 100.917   4
  -4   9  -5-85.0202 91.5125   1
  -4   9  -4 360.402 116.285   1
  -4   9   3 405.987 75.9112   4
  -4   9   4 2838.57 207.509   4
  -4   9   5 2921.70 234.204   4
  -4   9   6 1400.41 185.657   4
  -4   9   7 618.674 143.463   4
  -4   9   8 702.663 156.454   4
  -4   9   9 208.951 99.6196   4
  -4   9  10 244.077 125.995   4
  -4  10   6 808.621 140.894   4
  -4  10   7 1091.98 167.237   4
  -4  10   8-46.6549 98.0980   4
  -4  10   9 664.494 153.675   4
  -4  10  10 729.174 178.422   4
  -3 -12  -8 240.740 119.044   3
  -3 -12  -7 244.442 112.695   3
  -3 -12  -6 293.089 106.515   3
  -3 -12  -5 184.532 91.6278   3
  -3 -12  -4 235.989 102.155   3
  -3 -11 -11 503.876 170.299   3
  -3 -11 -11 825.561 183.959   1
  -3 -11 -10 413.743 148.611   3
  -3 -11  -9 107.606 101.812   3
  -3 -11  -8 24.8673 73.8037   3
  -3 -11  -7 1087.29 197.655   3
  -3 -11  -6 2595.19 275.399   3
  -3 -11  -5 732.733 152.013   3
  -3 -11  -4 44.7653 66.6501   3
  -3 -11  -3 114.135 74.6031   3
  -3 -11  -2 476.641 134.848   3
  -3 -11  -1 427.343 127.285   3
  -3 -11   0 319.849 115.232   3
  -3 -10 -12 138.531 134.378   3
  -3 -10 -12 76.7744 91.3550   1
  -3 -10 -11 660.622 190.332   1
  -3 -10 -11 299.218 149.334   3
  -3 -10 -10 347.783 158.765   3
  -3 -10 -10 331.207 127.126   1
  -3 -10  -9 203.915 117.215   1
  -3 -10  -9 423.761 135.451   3
  -3 -10  -8-30.8473 67.4520   3
  -3 -10  -7 663.040 139.609   3
  -3 -10  -6 254.159 106.666   3
  -3 -10  -5 501.359 123.323   3
  -3 -10  -4 249.639 84.6051   3
  -3 -10  -3-106.532 84.3039   3
  -3 -10  -2 83.8408 69.7521   3
  -3 -10  -1-46.6040 53.1898   3
  -3 -10   0 219.368 97.7431   3
  -3  -9 -13-95.7411 160.995   3
  -3  -9 -12 240.128 130.953   1
  -3  -9 -12 248.950 161.969   3
  -3  -9 -11 681.088 178.056   1
  -3  -9 -11 536.198 167.571   3
  -3  -9 -10-78.6584 109.263   3
  -3  -9 -10 216.230 117.649   1
  -3  -9  -9 570.339 158.174   1
  -3  -9  -9 337.651 124.350   3
  -3  -9  -8 712.705 143.146   1
  -3  -9  -8 586.776 148.147   3
  -3  -9  -7 76.6686 68.3886   3
  -3  -9  -7-18.6799 54.7409   1
  -3  -9  -6 694.389 132.551   3
  -3  -9  -5 2091.71 213.703   3
  -3  -9  -4 647.966 119.420   3
  -3  -9  -3 1331.74 173.505   3
  -3  -9  -2 264.020 79.1641   3
  -3  -9  -1 312.575 96.0178   3
  -3  -9   0 628.144 127.385   3
  -3  -8 -13-335.899 184.010   3
  -3  -8 -12-146.039 152.092   3
  -3  -8 -12 292.389 131.109   1
  -3  -8 -11 789.299 209.957   3
  -3  -8 -11 747.965 184.958   1
  -3  -8 -10 881.186 201.086   3
  -3  -8 -10 851.135 182.604   1
  -3  -8  -9 476.536 145.131   3
  -3  -8  -9 530.929 139.733   1
  -3  -8  -8 782.704 146.220   1
  -3  -8  -8 757.436 164.858   3
  -3  -8  -7-31.6983 63.7986   1
  -3  -8  -7 145.787 91.9360   3
  -3  -8  -6 4176.84 291.781   3
  -3  -8  -6 3892.08 267.393   1
  -3  -8  -5 1453.27 170.653   3
  -3  -8  -4 4392.06 281.630   3
  -3  -8  -3 1587.23 168.923   3
  -3  -8  -2 1748.59 178.189   3
  -3  -8  -1 212.769 73.2030   3
  -3  -8   0 1592.50 185.474   3
  -3  -7 -12 485.259 176.613   1
  -3  -7 -11 195.942 116.495   1
  -3  -7 -10 310.005 145.686   3
  -3  -7 -10 78.1225 116.120   1
  -3  -7  -9 2019.35 252.416   3
  -3  -7  -9 1362.52 208.320   1
  -3  -7  -8 644.043 152.846   3
  -3  -7  -8 453.499 112.493   1
  -3  -7  -7 1125.14 161.036   1
  -3  -7  -7 877.576 152.731   3
  -3  -7  -6 642.971 140.672   3
  -3  -7  -6 317.827 80.3069   1
  -3  -7  -5 2308.97 187.527   1
  -3  -7  -5 2399.33 202.240   3
  -3  -7  -4 2024.68 178.167   3
  -3  -7  -4 2165.20 183.692   2
  -3  -7  -3 10678.3 401.160   2
  -3  -7  -3 10187.7 384.317   3
  -3  -7  -2 5519.24 284.512   3
  -3  -7  -1 3155.04 221.261   3
  -3  -7   0-6.27063 48.1857   3
  -3  -6 -12 925.478 217.489   1
  -3  -6 -11 1321.82 236.734   1
  -3  -6 -10 662.226 154.334   1
  -3  -6  -9 2725.68 284.141   1
  -3  -6  -8 4766.20 353.265   3
  -3  -6  -8 5104.54 352.452   1
  -3  -6  -7 1339.90 186.381   3
  -3  -6  -7 1530.24 179.985   1
  -3  -6  -6 5467.02 315.172   3
  -3  -6  -6 5404.02 306.985   1
  -3  -6  -5 7751.87 327.734   1
  -3  -6  -5 8254.92 346.493   3
  -3  -6  -5 8638.55 366.585   2
  -3  -6  -4 1079.91 111.143   1
  -3  -6  -4 1172.80 137.507   2
  -3  -6  -4 1083.77 122.318   3
  -3  -6  -3 4271.50 244.875   2
  -3  -6  -3 4206.22 221.072   3
  -3  -6  -2 68.3393 37.5198   2
  -3  -6  -2 65.6582 39.6847   3
  -3  -6  -1 1646.07 146.706   3
  -3  -6  -1 1509.21 160.671   2
  -3  -6   0 343.715 80.9261   3
  -3  -5 -12 180.526 103.491   1
  -3  -5 -11 1044.79 203.737   1
  -3  -5 -10 940.379 180.485   1
  -3  -5  -9 1537.29 212.156   1
  -3  -5  -8 3924.68 308.488   1
  -3  -5  -7 162.344 72.2940   1
  -3  -5  -6 5737.43 308.528   1
  -3  -5  -6 5959.55 328.008   3
  -3  -5  -5 1740.42 164.513   3
  -3  -5  -5 1758.31 155.915   1
  -3  -5  -5 1806.89 165.914   2
  -3  -5  -4 9851.06 320.126   3
  -3  -5  -4 9516.61 314.629   1
  -3  -5  -3 3785.76 159.848   1
  -3  -5  -3 3688.45 183.202   3
  -3  -5  -2 7980.74 259.572   3
  -3  -5  -1 897.991 93.5378   3
  -3  -5  -1 895.439 114.297   2
  -3  -5   0 4005.95 208.773   3
  -3  -4 -12-114.422 117.337   1
  -3  -4 -11 252.815 121.567   1
  -3  -4 -10 540.333 141.798   1
  -3  -4  -9 2030.47 241.851   1
  -3  -4  -8 3231.03 280.677   1
  -3  -4  -7 181.791 80.4391   1
  -3  -4  -6 3713.19 249.013   1
  -3  -4  -5 2271.08 175.922   1
  -3  -4  -5 2188.67 184.050   2
  -3  -4  -4 192.021 59.7300   3
  -3  -4  -4 141.907 49.1012   1
  -3  -4  -3 12386.2 278.642   3
  -3  -4  -3 12961.5 299.655   1
  -3  -4  -2 1564.41 93.7982   3
  -3  -4  -2 1492.14 73.9071   1
  -3  -4  -1 6385.74 196.169   3
  -3  -3 -12 116.940 82.1038   1
  -3  -3 -11 571.805 145.880   1
  -3  -3 -10 536.845 153.548   1
  -3  -3  -9 2807.50 291.122   1
  -3  -3  -8 510.006 125.638   1
  -3  -3  -7 1297.44 165.533   1
  -3  -3  -6 489.760 97.8145   1
  -3  -3  -5 9201.86 352.424   1
  -3  -3  -4 1395.72 122.248   1
  -3  -3  -3 6770.28 221.660   1
  -3  -3  -3 6950.06 199.545   3
  -3  -3  -2 1297.65 75.9026   1
  -3  -3  -2 1190.16 60.6315   3
  -3  -3  -1 3550.53 107.068   3
  -3  -3   1 6648.52 141.235   1
  -3  -3   2 4259.35 154.679   1
  -3  -3   3 3301.26 167.764   1
  -3  -3   4 3922.56 208.012   1
  -3  -3   5 3131.68 210.646   1
  -3  -2 -12 142.203 106.839   1
  -3  -2 -11 227.049 131.614   1
  -3  -2 -10 484.218 144.456   1
  -3  -2  -9 883.262 169.760   1
  -3  -2  -8 8970.98 477.966   1
  -3  -2  -7-18.4545 60.6088   1
  -3  -2  -6 3797.11 253.755   1
  -3  -2  -5 151.868 57.3790   1
  -3  -2  -4 16135.8 412.510   1
  -3  -2  -3 36232.6 534.272   1
  -3  -2  -2 16876.3 299.784   1
  -3  -2   0 4940.72 129.859   1
  -3  -2   1 23657.9 329.790   1
  -3  -2   2 1080.22 85.8674   1
  -3  -2   3 4075.40 191.396   1
  -3  -2   5 4380.87 252.653   1
  -3  -1 -11 113.504 107.663   1
  -3  -1 -10 195.223 116.257   1
  -3  -1  -9 354.330 106.646   1
  -3  -1  -8 4403.49 338.947   1
  -3  -1  -7 1463.72 180.122   1
  -3  -1  -6 2860.11 209.435   3
  -3  -1  -6 2920.32 230.345   1
  -3  -1  -5 141.693 62.1352   1
  -3  -1  -5 2.53602 32.6034   3
  -3  -1  -4 3440.19 201.587   1
  -3  -1  -4 3479.63 173.431   3
  -3  -1  -3 92994.3 727.044   3
  -3  -1  -3 91237.4 903.943   1
  -3  -1  -2 56414.1 435.143   3
  -3  -1   1 23521.3 387.390   1
  -3  -1   2 55230.8 667.960   1
  -3  -1   3 1189.43 113.001   1
  -3  -1   5 93.3666 50.2914   1
  -3   0 -11 184.608 125.912   1
  -3   0 -10 110.030 63.6909   1
  -3   0  -9 1382.21 212.756   1
  -3   0  -8 959.645 166.451   1
  -3   0  -7 2279.70 229.412   1
  -3   0  -6 2337.30 216.453   1
  -3   0  -5 13506.0 447.530   2
  -3   0  -5 11939.8 434.726   1
  -3   0  -4 1311.36 121.083   3
  -3   0  -4 1356.88 133.925   1
  -3   0  -4 1475.37 143.163   2
  -3   0  -3 37849.3 624.481   2
  -3   0  -3 38105.0 555.283   3
  -3   0  -2 6844.96 204.527   3
  -3   0  -2 6617.46 239.588   2
  -3   0  -1 55226.7 503.605   3
  -3   0  -1 55385.1 643.335   2
  -3   0   0 3619.02 165.174   2
  -3   0   1 12323.0 323.276   1
  -3   0   1 11679.5 316.154   2
  -3   0   2 395.545 64.4744   1
  -3   0   3 11501.2 365.335   1
  -3   0   5 6364.93 320.195   1
  -3   1 -11 232.324 106.295   1
  -3   1 -10 478.285 158.150   1
  -3   1  -9 146.005 90.5448   1
  -3   1  -8 5981.15 416.758   1
  -3   1  -7 1890.74 218.817   1
  -3   1  -6 11704.5 486.762   1
  -3   1  -5 5.94067 37.0840   1
  -3   1  -5 152.566 71.3198   2
  -3   1  -5 75.2754 53.9195   3
  -3   1  -4 1660.65 156.280   1
  -3   1  -4 1897.75 159.780   2
  -3   1  -3 610.157 85.8942   2
  -3   1  -3 566.943 83.6228   3
  -3   1  -2 22929.7 434.156   2
  -3   1  -2 22931.1 454.534   3
  -3   1  -1 261.275 51.6316   3
  -3   1  -1 195.534 41.6224   2
  -3   1   0 1278.41 87.4140   2
  -3   1   0 1485.71 114.673   3
  -3   1   1 1862.35 114.974   2
  -3   1   2 11710.8 356.698   1
  -3   1   3 607.584 98.7201   1
  -3   1   4 8819.35 366.833   4
  -3   1   5 500.402 109.809   4
  -3   1   5 502.614 105.753   1
  -3   1   6 2751.55 251.267   4
  -3   2 -10 318.140 127.623   1
  -3   2  -9 128.602 87.1892   1
  -3   2  -8 894.888 167.615   1
  -3   2  -7 2756.26 270.219   1
  -3   2  -6 2583.52 243.430   1
  -3   2  -5 2859.90 233.787   1
  -3   2  -5 2934.89 225.755   2
  -3   2  -4 511.890 93.0443   2
  -3   2  -4 340.387 79.7962   1
  -3   2  -4 312.200 84.9689   3
  -3   2  -3 21068.2 474.558   2
  -3   2  -2 5736.93 261.736   3
  -3   2  -2 5525.77 215.176   2
  -3   2  -1 20725.3 465.434   3
  -3   2  -1 19908.2 357.920   2
  -3   2   0 2154.63 156.304   3
  -3   2   0 2078.46 103.622   2
  -3   2   1 5031.87 168.885   2
  -3   2   1 5755.90 258.314   3
  -3   2   2 297.817 57.0957   4
  -3   2   3 1512.35 140.365   4
  -3   2   4 18141.1 515.043   4
  -3   2   4 19568.9 565.617   1
  -3   2   5 3165.78 247.649   4
  -3   2   5 3163.26 241.399   1
  -3   2   6 338.890 102.086   4
  -3   2   7 175.820 63.8988   4
  -3   2   8 1504.39 216.993   4
  -3   2   9 2239.57 280.412   4
  -3   3 -10 578.447 174.338   1
  -3   3  -9 177.662 84.8043   1
  -3   3  -8 0.31270 60.3454   1
  -3   3  -7-19.9766 51.3742   1
  -3   3  -6 2423.14 177.970   4
  -3   3  -6 2285.56 235.860   1
  -3   3  -5 3659.57 188.139   4
  -3   3  -5 3542.75 272.845   1
  -3   3  -4 154.694 65.6708   2
  -3   3  -4 2.23984 45.8612   1
  -3   3  -3 336.948 73.3676   2
  -3   3  -3 254.257 88.7691   3
  -3   3  -2 2135.06 138.255   2
  -3   3  -1 5618.34 187.286   2
  -3   3   0 10920.4 210.516   2
  -3   3   1 51489.1 517.392   4
  -3   3   2 63022.5 714.142   4
  -3   3   3 12322.9 372.726   4
  -3   3   4 8731.21 355.962   4
  -3   3   5 15503.4 521.163   4
  -3   3   6 18559.3 633.033   4
  -3   3   7 14062.0 585.755   4
  -3   3   8 832.503 165.508   4
  -3   3   9 1487.41 227.716   4
  -3   3  10 799.745 189.900   4
  -3   3  11 1092.59 234.752   4
  -3   4  -9 72.4883 76.2011   1
  -3   4  -8 358.550 121.930   1
  -3   4  -7 227.827 99.2635   1
  -3   4  -6 117.266 51.6744   4
  -3   4  -6 160.233 75.7850   1
  -3   4  -5 1972.93 138.093   4
  -3   4  -5 2080.01 215.876   1
  -3   4  -4 1829.13 170.816   2
  -3   4  -4 1946.29 114.357   4
  -3   4  -3 8736.77 329.307   2
  -3   4  -2 3750.26 187.837   2
  -3   4  -1 9196.26 237.974   2
  -3   4   0 51.5362 19.0434   2
  -3   4   1 22271.2 329.544   4
  -3   4   2 1944.25 125.621   4
  -3   4   3 8244.14 296.190   4
  -3   4   4 3979.84 237.544   4
  -3   4   5 1121.23 144.528   4
  -3   4   6-8.07587 64.0961   4
  -3   4   7 315.782 116.811   4
  -3   4   8 136.437 98.8162   4
  -3   4   9 257.579 113.428   4
  -3   4  10 454.709 161.100   4
  -3   4  11 194.616 104.794   4
  -3   5  -9 229.080 126.096   1
  -3   5  -8 795.010 188.513   1
  -3   5  -7 495.824 130.902   1
  -3   5  -6 1460.52 202.375   1
  -3   5  -5 1034.95 159.356   1
  -3   5  -4 3819.17 252.370   2
  -3   5  -4 3855.87 293.614   1
  -3   5  -4 4092.80 165.707   4
  -3   5  -3 3259.08 112.715   4
  -3   5  -3 3721.39 224.727   2
  -3   5  -2 10394.1 316.062   2
  -3   5  -1 2679.30 132.263   2
  -3   5   0 3665.31 99.4005   2
  -3   5   1 2376.52 109.849   4
  -3   5   2 13087.1 323.296   4
  -3   5   3 689.576 88.9209   4
  -3   5   4 18798.0 512.772   4
  -3   5   5 461.374 105.049   4
  -3   5   6 1355.41 176.222   4
  -3   5   7 283.241 88.8532   4
  -3   5   8 3442.19 314.217   4
  -3   5   9 417.904 149.498   4
  -3   5  10 152.194 101.200   4
  -3   5  11 289.780 144.574   4
  -3   6  -8 9.07416 64.2515   1
  -3   6  -7 314.087 104.211   1
  -3   6  -6 129.832 86.1711   1
  -3   6  -5 2884.59 276.495   1
  -3   6  -4 1148.13 169.170   1
  -3   6  -3 10386.2 378.640   2
  -3   6  -3 9421.16 198.341   4
  -3   6  -2 4337.55 212.114   2
  -3   6  -1 6146.89 203.879   2
  -3   6   0 76.4981 19.9038   4
  -3   6   1 19330.1 327.680   4
  -3   6   2 14996.6 353.072   4
  -3   6   3 9379.96 328.016   4
  -3   6   4 2594.92 193.976   4
  -3   6   5 1237.25 158.365   4
  -3   6   6 289.677 108.785   4
  -3   6   7 2781.54 260.197   4
  -3   6   8 293.656 98.0809   4
  -3   6   9 1515.36 234.183   4
  -3   6  10 566.590 154.999   4
  -3   6  11 235.236 134.045   4
  -3   7  -7 450.518 136.295   1
  -3   7  -6 501.058 140.004   1
  -3   7  -5-9.70332 56.2041   1
  -3   7  -4-34.6605 59.4776   1
  -3   7  -2 2755.48 177.759   2
  -3   7  -1 1202.01 92.8021   2
  -3   7  -1 1327.86 94.1840   2
  -3   7   0 152.154 29.2589   4
  -3   7   1 2733.26 133.339   4
  -3   7   2 1486.42 120.747   4
  -3   7   3 1189.52 125.040   4
  -3   7   4 9314.19 367.555   4
  -3   7   5 792.078 127.553   4
  -3   7   6 79.7959 58.1311   4
  -3   7   7 1100.77 170.680   4
  -3   7   8 1750.50 233.786   4
  -3   7   9 2104.92 272.058   4
  -3   7  10 823.144 190.045   4
  -3   7  11 655.038 188.793   4
  -3   8  -6 179.354 96.1817   1
  -3   8  -5 319.941 108.768   1
  -3   8  -4 202.156 88.6479   1
  -3   8  -2 710.045 89.3927   2
  -3   8  -1 3792.02 151.491   2
  -3   8   0 870.848 66.3679   4
  -3   8   1 1344.11 97.8494   4
  -3   8   2 1305.94 117.991   4
  -3   8   3 2843.18 189.089   4
  -3   8   4 19426.0 545.011   4
  -3   8   5 1080.24 148.691   4
  -3   8   6 1351.45 182.888   4
  -3   8   7 184.829 86.3111   4
  -3   8   8 2899.06 289.385   4
  -3   8   9 1971.52 263.548   4
  -3   8  10 1664.58 258.777   4
  -3   8  11 276.848 127.934   4
  -3   9  -5 33.1078 58.6039   1
  -3   9  -4 331.495 108.370   1
  -3   9   2 512.207 80.9673   4
  -3   9   3 65.2645 43.0385   4
  -3   9   4 4932.16 276.538   4
  -3   9   5 6235.36 344.005   4
  -3   9   6 1407.23 182.391   4
  -3   9   7 785.965 155.934   4
  -3   9   8 10.7795 66.7226   4
  -3   9   9 935.324 194.898   4
  -3   9  10-33.8435 96.4070   4
  -3  10  -3 53.2641 51.5413   1
  -3  10   4 4247.28 268.845   4
  -3  10   5 2115.79 206.584   4
  -3  10   6 2063.55 226.718   4
  -3  10   7 748.979 149.223   4
  -3  10   8 87.5348 68.0735   4
  -3  10   9 195.669 111.295   4
  -3  10  10 533.342 164.482   4
  -3  11   7 471.029 126.150   4
  -3  11   8-39.2324 74.7262   4
  -3  11   9 77.7086 94.9630   4
  -3  11  10 573.667 170.243   4
  -2 -13  -8 225.781 143.926   3
  -2 -13  -7 251.985 132.217   3
  -2 -13  -6-111.912 93.8779   3
  -2 -13  -5 144.005 100.144   3
  -2 -13  -4 68.4827 92.6227   3
  -2 -13  -3 156.789 94.0895   3
  -2 -12 -10 311.188 145.713   3
  -2 -12  -9 203.175 115.298   3
  -2 -12  -8 305.234 111.580   3
  -2 -12  -7 779.796 180.694   3
  -2 -12  -6 205.790 115.062   3
  -2 -12  -5 200.181 101.755   3
  -2 -12  -4 56.9317 73.2706   3
  -2 -12  -3 203.296 102.427   3
  -2 -12  -2 329.363 113.194   3
  -2 -12  -1 207.086 114.556   3
  -2 -12   0 277.123 127.134   3
  -2 -11 -11 127.031 108.050   1
  -2 -11 -11 569.302 193.014   3
  -2 -11 -10 657.847 187.997   3
  -2 -11  -9 855.341 198.064   3
  -2 -11  -8 294.480 125.207   3
  -2 -11  -7 678.809 168.011   3
  -2 -11  -6 3248.24 322.557   3
  -2 -11  -5 2613.23 287.374   3
  -2 -11  -4 672.593 148.186   3
  -2 -11  -3 168.795 87.0022   3
  -2 -11  -2 45.9781 66.2989   3
  -2 -11  -1 895.453 180.160   3
  -2 -11   0 413.884 133.889   3
  -2 -11   1 298.868 134.998   3
  -2 -10 -12 216.655 186.783   3
  -2 -10 -12-24.6222 90.3167   1
  -2 -10 -11 79.4419 114.182   3
  -2 -10 -11 144.192 108.929   1
  -2 -10 -10 404.732 158.550   3
  -2 -10 -10 62.6610 79.9362   1
  -2 -10  -9 596.794 157.255   1
  -2 -10  -9 854.115 188.980   3
  -2 -10  -8 261.908 114.294   3
  -2 -10  -7 173.573 102.944   3
  -2 -10  -6 21.5551 76.2135   3
  -2 -10  -5 296.375 126.708   3
  -2 -10  -4 103.882 62.5464   3
  -2 -10  -3 533.014 128.752   3
  -2 -10  -2 70.8413 73.9852   3
  -2 -10  -1 325.485 117.747   3
  -2 -10   0 155.587 93.2183   3
  -2 -10   1 450.187 134.674   3
  -2  -9 -12 1010.97 239.515   3
  -2  -9 -12 1217.70 256.419   1
  -2  -9 -11 463.030 160.114   1
  -2  -9 -11 370.801 161.934   3
  -2  -9 -10 155.234 98.2740   1
  -2  -9 -10 188.690 125.115   3
  -2  -9  -9 745.101 181.588   3
  -2  -9  -9 714.735 157.466   1
  -2  -9  -8 712.652 149.854   1
  -2  -9  -8 986.137 195.236   3
  -2  -9  -7 1734.09 220.213   3
  -2  -9  -6 362.226 116.425   3
  -2  -9  -5 347.398 88.6509   3
  -2  -9  -5 333.173 78.1248   2
  -2  -9  -4 2215.00 180.404   2
  -2  -9  -4 2063.05 225.060   3
  -2  -9  -3 292.488 94.4202   3
  -2  -9  -2 465.782 118.071   3
  -2  -9  -1-26.4253 60.6635   3
  -2  -9   0 997.096 165.128   3
  -2  -9   1 771.626 145.984   3
  -2  -8 -12 150.832 159.369   3
  -2  -8 -12 160.428 102.350   1
  -2  -8 -11 333.577 137.685   1
  -2  -8 -11 471.216 172.524   3
  -2  -8 -10 640.417 168.501   1
  -2  -8 -10 788.278 195.229   3
  -2  -8  -9 567.740 147.616   1
  -2  -8  -9 393.922 151.468   3
  -2  -8  -8 59.9633 58.5458   1
  -2  -8  -8-14.5259 94.2042   3
  -2  -8  -7 1005.86 174.031   3
  -2  -8  -7 1164.85 174.029   1
  -2  -8  -6 3641.68 298.931   3
  -2  -8  -6 3293.02 259.324   1
  -2  -8  -6 3953.05 246.221   2
  -2  -8  -5 548.950 91.3438   2
  -2  -8  -5 664.000 135.908   3
  -2  -8  -4 1555.10 192.160   3
  -2  -8  -4 1499.99 144.031   2
  -2  -8  -3 3033.33 248.141   3
  -2  -8  -3 2995.85 203.633   2
  -2  -8  -2 1611.31 183.674   3
  -2  -8  -1 3342.22 266.125   3
  -2  -8   0 354.091 103.997   3
  -2  -8   1 4266.11 319.327   3
  -2  -7 -12 429.505 155.761   1
  -2  -7 -11 192.508 127.604   1
  -2  -7 -11-216.043 141.797   3
  -2  -7 -10 120.247 106.230   3
  -2  -7 -10 287.853 122.766   1
  -2  -7  -9 341.921 142.284   3
  -2  -7  -9 18.3393 73.8189   1
  -2  -7  -8 53.6279 100.481   3
  -2  -7  -8 54.5072 62.1010   1
  -2  -7  -7 3558.52 310.613   3
  -2  -7  -7 3463.17 284.254   1
  -2  -7  -6 949.201 117.025   2
  -2  -7  -6 1111.73 151.955   1
  -2  -7  -6 792.359 149.416   3
  -2  -7  -5 3539.47 266.045   3
  -2  -7  -5 4164.69 262.729   1
  -2  -7  -5 4136.12 237.229   2
  -2  -7  -4 642.719 117.393   3
  -2  -7  -3 3538.89 251.472   3
  -2  -7  -2 2269.69 199.479   3
  -2  -7  -1 3740.90 255.762   3
  -2  -7   0 2893.93 237.595   3
  -2  -7   1 543.932 115.781   3
  -2  -6 -12 1729.54 291.726   1
  -2  -6 -11 1223.18 239.941   1
  -2  -6 -10 913.846 177.700   1
  -2  -6  -9 1403.95 210.026   1
  -2  -6  -8 18.7030 60.7976   1
  -2  -6  -7 4740.19 326.591   1
  -2  -6  -7 4601.55 350.258   3
  -2  -6  -6 8288.07 354.521   2
  -2  -6  -6 7359.36 368.006   1
  -2  -6  -6 7483.29 399.120   3
  -2  -6  -5 5318.34 287.503   1
  -2  -6  -5 4931.77 292.403   3
  -2  -6  -4 7200.25 322.318   3
  -2  -6  -4 7162.00 296.788   1
  -2  -6  -3 3356.97 219.498   3
  -2  -6  -3 3394.84 197.982   2
  -2  -6  -2 6059.47 266.558   2
  -2  -6  -2 5883.82 282.411   3
  -2  -6  -1 8434.93 342.357   3
  -2  -6   0 1500.77 157.134   3
  -2  -6   1 5200.63 296.704   3
  -2  -5 -12 553.987 168.028   1
  -2  -5 -11 1321.82 238.900   1
  -2  -5 -10 3469.24 346.217   1
  -2  -5  -9 496.957 125.133   1
  -2  -5  -8-20.8385 74.8926   1
  -2  -5  -7 1940.83 206.415   1
  -2  -5  -6 30875.4 670.490   2
  -2  -5  -6 29316.8 750.103   3
  -2  -5  -6 27794.8 702.862   1
  -2  -5  -5 4573.69 258.630   1
  -2  -5  -5 4452.43 276.760   3
  -2  -5  -4 12772.4 407.099   3
  -2  -5  -4 12757.3 373.478   2
  -2  -5  -4 12698.9 376.557   1
  -2  -5  -3 99.6852 41.4445   2
  -2  -5  -3 185.823 59.9712   3
  -2  -5  -3 113.016 42.2933   1
  -2  -5  -2 61.8811 47.7275   3
  -2  -5  -2 47.5518 38.5822   2
  -2  -5  -1 438.066 75.5821   2
  -2  -5  -1 343.360 67.4119   3
  -2  -5   0 2057.86 160.951   3
  -2  -5   1 1354.79 140.541   3
  -2  -4 -12 69.4443 89.1477   1
  -2  -4 -11 585.719 183.159   1
  -2  -4 -10 937.114 188.060   1
  -2  -4  -9 6964.64 447.227   1
  -2  -4  -8 2335.38 247.190   1
  -2  -4  -7 4096.26 293.437   1
  -2  -4  -6 164.978 64.7040   2
  -2  -4  -6 148.056 49.4301   1
  -2  -4  -5 28433.0 625.149   1
  -2  -4  -4 156.241 47.4495   2
  -2  -4  -4 97.8377 43.9933   1
  -2  -4  -4 175.139 70.5864   3
  -2  -4  -3 14352.5 362.288   3
  -2  -4  -3 13951.4 360.213   2
  -2  -4  -3 14143.6 333.798   1
  -2  -4  -2 7.82187 41.7763   3
  -2  -4  -2 93.5795 30.4915   1
  -2  -4  -2 4.57718 28.1448   2
  -2  -4  -1 9038.21 289.763   2
  -2  -4  -1 9386.27 273.005   3
  -2  -4   0 52.0676 37.9259   3
  -2  -4   1 7010.32 275.513   3
  -2  -3 -12 463.345 167.807   1
  -2  -3 -11 184.683 106.624   1
  -2  -3 -10 1227.51 210.442   1
  -2  -3  -9 3704.84 323.956   1
  -2  -3  -8 141.097 85.2860   1
  -2  -3  -7 82.0030 76.2505   1
  -2  -3  -6 6345.91 312.389   2
  -2  -3  -6 5971.03 318.258   1
  -2  -3  -5 66.1499 56.2766   1
  -2  -3  -4 35545.2 603.868   1
  -2  -3  -3 75.5117 37.7668   1
  -2  -3  -3 60.2115 41.5077   3
  -2  -3  -2 18222.5 290.105   1
  -2  -3  -2 17712.4 301.752   3
  -2  -3  -1-1.44633 19.5325   3
  -2  -3   0 3499.23 148.641   3
  -2  -2 -12 206.242 126.626   1
  -2  -2 -11 189.847 104.213   1
  -2  -2 -10 1688.89 252.509   1
  -2  -2  -9 1946.87 245.284   1
  -2  -2  -8 92.8517 85.2088   1
  -2  -2  -7 200.780 85.8453   1
  -2  -2  -6-8.80982 46.0862   1
  -2  -2  -5 244.955 65.2515   1
  -2  -2  -4 13759.8 382.141   1
  -2  -2  -3 12628.0 306.843   1
  -2  -2  -2 32210.9 387.054   1
  -2  -2  -1 14290.1 175.925   3
  -2  -2  -1 14655.3 169.408   1
  -2  -2   1 18379.3 242.187   1
  -2  -2   2 35572.8 454.119   1
  -2  -2   3 65.1664 30.7380   1
  -2  -2   4 6430.08 267.097   1
  -2  -2   5 196.393 58.0245   1
  -2  -1 -11 21.9962 90.2395   1
  -2  -1 -10 173.632 98.4237   1
  -2  -1  -9 3713.27 339.446   1
  -2  -1  -8 148.284 91.3582   1
  -2  -1  -7 8793.67 436.046   1
  -2  -1  -6 5467.75 312.348   1
  -2  -1  -5 4873.53 261.428   1
  -2  -1  -4 13433.7 384.117   1
  -2  -1  -3 71686.4 766.461   1
  -2  -1  -2 342526. 1372.77   1
  -2  -1   1 45.1834 20.0024   1
  -2  -1   2 72401.7 686.538   1
  -2  -1   3 37014.5 574.469   1
  -2  -1   4 13713.6 396.030   1
  -2  -1   5 3048.74 207.488   1
  -2   0 -11 260.629 142.841   1
  -2   0 -10 129.487 89.6457   1
  -2   0  -9 3260.16 325.788   1
  -2   0  -8 27.6165 61.7103   1
  -2   0  -7 1439.52 182.461   1
  -2   0  -6 4048.93 273.907   1
  -2   0  -6 4505.98 249.587   4
  -2   0  -5 4494.02 225.050   4
  -2   0  -5 4181.71 252.417   1
  -2   0  -4 17263.6 456.128   1
  -2   0  -3 8460.79 279.222   1
  -2   0   2 2590.20 143.260   1
  -2   0   3 13035.1 356.611   1
  -2   0   4 2319.30 185.228   4
  -2   0   4 2480.50 174.848   1
  -2   0   5 1878.86 187.105   4
  -2   0   5 2222.49 180.640   1
  -2   0   6 85.6344 68.7742   4
  -2   1 -11 122.780 122.303   1
  -2   1 -10 845.036 191.563   1
  -2   1  -9 1154.21 197.858   1
  -2   1  -8 1573.82 218.709   1
  -2   1  -7-4.55298 53.3282   1
  -2   1  -6 3726.81 268.086   1
  -2   1  -6 3909.81 234.095   4
  -2   1  -5 140.138 48.7673   4
  -2   1  -5 185.958 73.0794   1
  -2   1  -5 70.8418 53.8099   2
  -2   1  -4 28203.4 587.538   2
  -2   1  -4 29124.2 486.829   4
  -2   1  -4 27520.6 601.355   1
  -2   1  -3 2210.24 148.046   2
  -2   1  -3 2110.41 151.147   1
  -2   1  -2 9575.92 260.416   2
  -2   1  -1 128.626 41.5698   2
  -2   1   0 54572.3 445.762   2
  -2   1   2 6415.19 230.640   4
  -2   1   3 3097.08 182.426   4
  -2   1   4 32722.1 646.177   1
  -2   1   4 32150.2 660.241   4
  -2   1   5 1055.49 138.039   4
  -2   1   5 1265.94 142.845   1
  -2   1   6 325.875 98.9360   4
  -2   1   7 852.845 149.042   4
  -2   1   8 2621.29 274.032   4
  -2   1   9 1678.30 239.846   4
  -2   2 -10 393.327 162.421   1
  -2   2  -9 3538.66 352.452   1
  -2   2  -8 164.890 89.1470   1
  -2   2  -7 12857.7 562.963   1
  -2   2  -6 5771.49 284.935   4
  -2   2  -6 5773.32 350.874   1
  -2   2  -5 7040.76 352.453   1
  -2   2  -5 7419.21 289.830   4
  -2   2  -4 3526.01 214.675   2
  -2   2  -4 3549.26 227.777   1
  -2   2  -4 3648.12 177.481   4
  -2   2  -3 13242.2 368.830   2
  -2   2  -3 13426.4 275.380   4
  -2   2  -2 15224.3 213.622   4
  -2   2  -2 15260.0 336.283   2
  -2   2  -1 8478.02 202.969   2
  -2   2   0 18891.9 228.578   2
  -2   2   1 14523.5 253.431   4
  -2   2   2 1115.36 89.9648   4
  -2   2   3 12.3483 34.7635   4
  -2   2   4 4570.17 245.196   4
  -2   2   5 22020.4 600.097   1
  -2   2   5 20602.0 582.671   4
  -2   2   6 2159.04 214.486   4
  -2   2   7 734.665 147.526   4
  -2   2   8 1059.60 181.465   4
  -2   2   9 1945.29 251.498   4
  -2   2  10 1367.05 239.029   4
  -2   2  11-151.887 108.651   4
  -2   3 -10 253.458 131.687   1
  -2   3  -9 882.825 184.084   1
  -2   3  -8 37.6980 82.8820   1
  -2   3  -7 1202.49 187.733   1
  -2   3  -6 82.5336 68.6417   1
  -2   3  -6-13.7238 42.2737   4
  -2   3  -5 243.816 63.8941   4
  -2   3  -5 294.252 79.5363   1
  -2   3  -4 7222.57 254.218   4
  -2   3  -4 7477.02 345.421   1
  -2   3  -3 504.637 61.2214   4
  -2   3  -2 1191.82 100.704   2
  -2   3  -2 1098.41 63.8932   4
  -2   3  -1 220.547 40.4879   2
  -2   3   0 4235.09 104.602   2
  -2   3   1 49951.7 463.311   4
  -2   3   2 4479.23 177.720   4
  -2   3   3 26200.4 506.096   4
  -2   3   4 3759.84 221.941   4
  -2   3   5 15411.6 494.031   4
  -2   3   6 1492.77 175.820   4
  -2   3   7 6564.19 389.254   4
  -2   3   8 428.685 125.027   4
  -2   3   9 2097.72 270.517   4
  -2   3  10 60.2965 83.3926   4
  -2   3  11 1052.02 213.443   4
  -2   4  -9 610.831 164.668   1
  -2   4  -8 610.466 140.440   1
  -2   4  -7 960.436 169.940   1
  -2   4  -6 142.693 63.0518   4
  -2   4  -6 261.479 102.194   1
  -2   4  -5 375.266 98.0161   1
  -2   4  -5 401.943 80.8085   4
  -2   4  -4 4783.60 293.074   1
  -2   4  -4 5008.74 220.543   4
  -2   4  -3 7391.24 226.819   4
  -2   4  -2 6435.97 171.925   4
  -2   4  -1 103.728 21.0229   4
  -2   4  -1 129.493 35.5877   2
  -2   4   0 28627.4 288.235   2
  -2   4   1 10883.6 228.852   4
  -2   4   2 49567.9 606.422   4
  -2   4   3 2774.72 169.643   4
  -2   4   4 15032.8 442.230   4
  -2   4   5 669.527 117.456   4
  -2   4   6 15400.8 540.939   4
  -2   4   7 9906.62 476.094   4
  -2   4   8 9044.10 493.652   4
  -2   4   9 300.712 111.715   4
  -2   4  10 198.242 105.673   4
  -2   4  11 686.399 174.043   4
  -2   5  -9 200.387 123.453   1
  -2   5  -8 335.555 120.847   1
  -2   5  -7 1382.86 204.746   1
  -2   5  -6 1500.70 201.376   1
  -2   5  -5 94.4428 52.4725   4
  -2   5  -5 92.7514 60.7491   1
  -2   5  -4 2859.66 176.851   4
  -2   5  -4 2822.90 236.641   1
  -2   5  -3 6688.26 231.658   4
  -2   5  -2 10316.5 247.281   4
  -2   5  -1 119.221 38.7017   2
  -2   5   0 6315.33 150.036   2
  -2   5   1 22654.5 363.583   4
  -2   5   2 4670.58 271.960   1
  -2   5   2 4869.80 198.473   4
  -2   5   3 12525.1 366.952   4
  -2   5   3 13284.5 470.488   1
  -2   5   4 3320.31 214.406   4
  -2   5   4 3657.27 260.380   1
  -2   5   5 9493.10 393.067   4
  -2   5   6 494.563 117.126   4
  -2   5   7-7.77565 70.7729   4
  -2   5   8 290.885 109.895   4
  -2   5   9 2266.14 268.645   4
  -2   5  10 55.7724 105.838   4
  -2   5  11-109.755 114.004   4
  -2   6  -8-109.159 82.6808   1
  -2   6  -7 274.108 107.326   1
  -2   6  -6 533.164 122.681   1
  -2   6  -5 667.654 133.309   1
  -2   6  -4 1254.54 123.033   4
  -2   6  -4 1173.98 161.583   1
  -2   6  -3 6735.23 250.331   4
  -2   6  -2 7433.61 234.812   4
  -2   6   0 1993.87 89.1044   2
  -2   6   0 1871.71 93.9548   2
  -2   6   2 4926.03 291.627   1
  -2   6   2 4593.68 204.279   4
  -2   6   3 9472.56 326.807   4
  -2   6   3 9960.93 429.382   1
  -2   6   4 753.645 118.091   4
  -2   6   5 91.3880 63.3672   4
  -2   6   6 768.330 139.824   4
  -2   6   7 1851.72 211.769   4
  -2   6   8 997.637 173.207   4
  -2   6   9 957.544 184.261   4
  -2   6  10-53.2897 73.5779   4
  -2   6  11 452.590 127.856   4
  -2   7  -7 528.539 142.595   1
  -2   7  -6 1124.99 186.046   1
  -2   7  -5 260.982 88.4295   1
  -2   7  -4 1073.77 164.679   1
  -2   7  -2 3249.35 168.902   4
  -2   7  -1 487.446 66.6219   2
  -2   7   0 2717.55 121.235   2
  -2   7   0 3019.95 117.117   2
  -2   7   2 4701.55 222.139   4
  -2   7   3 10015.6 358.797   4
  -2   7   4 2829.51 206.198   4
  -2   7   5 1752.25 185.738   4
  -2   7   6 831.869 152.781   4
  -2   7   7 2854.59 265.350   4
  -2   7   8 3079.05 297.955   4
  -2   7   9 3064.88 312.526   4
  -2   7  10 733.710 176.507   4
  -2   7  11 450.719 145.427   4
  -2   8  -6 412.333 115.663   1
  -2   8  -5 170.057 74.7626   1
  -2   8  -4 264.934 99.9235   1
  -2   8  -3 60.2619 41.4259   2
  -2   8  -3 143.325 66.1571   1
  -2   8  -2 416.278 75.2666   2
  -2   8  -1 244.936 50.0611   2
  -2   8   0 2040.44 109.291   2
  -2   8   0 2267.54 105.044   2
  -2   8   2 1405.49 129.652   4
  -2   8   3 16.4497 52.1256   4
  -2   8   4 3379.17 235.561   4
  -2   8   5 1734.06 186.120   4
  -2   8   6 1142.35 167.387   4
  -2   8   7 145.547 85.5889   4
  -2   8   8 1255.27 193.327   4
  -2   8   9 1630.03 239.170   4
  -2   8  10 2138.08 290.915   4
  -2   8  11 1907.96 288.410   4
  -2   9  -4 199.947 86.4114   1
  -2   9  -3 786.734 147.665   1
  -2   9   2 3335.16 206.968   4
  -2   9   3 8209.92 346.998   4
  -2   9   4 68.8710 52.7450   4
  -2   9   5 3044.01 245.351   4
  -2   9   6 2172.96 228.314   4
  -2   9   7 4694.69 349.456   4
  -2   9   8 531.454 136.413   4
  -2   9   9 1630.90 234.935   4
  -2   9  10 36.9691 90.2694   4
  -2   9  11 469.775 172.655   4
  -2  10   2 2317.29 183.175   4
  -2  10   3 4418.57 266.071   4
  -2  10   4 2875.63 228.003   4
  -2  10   5 659.591 131.593   4
  -2  10   6 2048.08 227.307   4
  -2  10   7 465.265 120.591   4
  -2  10   8 1127.58 190.709   4
  -2  10   9 97.5406 98.1578   4
  -2  10  10 604.086 176.713   4
  -2  11   5 305.715 98.8940   4
  -2  11   6 568.407 132.573   4
  -2  11   7 1187.58 192.770   4
  -2  11   8 825.601 170.477   4
  -2  11   9 100.189 81.3055   4
  -2  11  10-42.2606 86.2434   4
  -2  12   8 89.5645 78.7489   4
  -2  12   9 193.259 109.462   4
  -1 -13  -8 137.434 134.618   3
  -1 -13  -7 236.786 123.154   3
  -1 -13  -6 601.419 174.065   3
  -1 -13  -5-79.0404 107.417   3
  -1 -13  -4 232.174 127.517   3
  -1 -13  -3 250.255 112.768   3
  -1 -13  -2 326.250 146.526   3
  -1 -12 -10 416.701 185.129   3
  -1 -12  -9 279.795 157.814   3
  -1 -12  -8 87.0759 100.825   3
  -1 -12  -7 734.597 189.573   3
  -1 -12  -6 1383.21 238.862   3
  -1 -12  -5 58.6680 80.0932   3
  -1 -12  -4 107.181 92.2884   3
  -1 -12  -3 231.232 95.2199   3
  -1 -12  -2 653.167 168.718   3
  -1 -12  -1 109.485 111.588   3
  -1 -12   0 17.7690 75.2327   3
  -1 -11 -11 493.118 177.298   3
  -1 -11 -10 553.826 181.679   3
  -1 -11  -9 1017.34 211.190   3
  -1 -11  -8 443.141 145.997   3
  -1 -11  -7-160.535 122.095   3
  -1 -11  -6 1188.32 209.695   3
  -1 -11  -5 766.250 187.054   3
  -1 -11  -4 671.142 158.776   3
  -1 -11  -3 202.758 95.7875   3
  -1 -11  -2 498.112 150.726   3
  -1 -11  -1 291.346 119.455   3
  -1 -11   0 292.611 121.084   3
  -1 -11   1 143.618 105.877   3
  -1 -10 -11 227.417 113.745   1
  -1 -10 -11-33.7949 119.604   3
  -1 -10 -10 463.018 151.300   1
  -1 -10 -10 346.364 166.244   3
  -1 -10  -9 1744.63 274.816   3
  -1 -10  -8 738.001 181.958   3
  -1 -10  -7 1611.51 236.900   3
  -1 -10  -6 1010.86 184.693   3
  -1 -10  -5 3585.93 338.205   3
  -1 -10  -4 1810.73 231.926   3
  -1 -10  -3 1095.57 184.839   3
  -1 -10  -2 951.633 177.004   3
  -1 -10  -1 328.599 106.565   3
  -1 -10   0 627.142 151.042   3
  -1 -10   1 710.824 171.478   3
  -1 -10   2 317.725 134.565   3
  -1  -9 -12 366.957 157.852   1
  -1  -9 -12 398.597 179.901   3
  -1  -9 -11 612.832 193.111   3
  -1  -9 -11 473.335 165.665   1
  -1  -9 -10 450.794 152.123   1
  -1  -9 -10 692.434 190.022   3
  -1  -9  -9 36.8444 99.8892   3
  -1  -9  -9 169.095 103.877   1
  -1  -9  -8 1344.06 212.065   1
  -1  -9  -8 1442.18 241.870   3
  -1  -9  -7 260.900 114.925   3
  -1  -9  -6 798.800 161.161   3
  -1  -9  -5 3218.91 292.916   3
  -1  -9  -4-29.2042 37.4042   2
  -1  -9  -4 27.3439 67.1423   3
  -1  -9  -3-87.8078 83.8712   3
  -1  -9  -2 2918.50 278.379   3
  -1  -9  -1-101.223 76.9488   3
  -1  -9   0 74.5359 69.7513   3
  -1  -9   1 244.965 96.0790   3
  -1  -9   2 223.694 110.758   3
  -1  -8 -12 462.252 210.308   3
  -1  -8 -12 79.8659 87.6364   1
  -1  -8 -11 112.419 134.591   3
  -1  -8 -11 40.9946 73.3970   1
  -1  -8 -10 868.219 212.516   3
  -1  -8 -10 661.181 161.692   1
  -1  -8  -9 793.195 174.579   1
  -1  -8  -9 1315.41 249.886   3
  -1  -8  -8 387.227 148.156   3
  -1  -8  -8 181.347 99.1991   1
  -1  -8  -7 1597.12 205.281   1
  -1  -8  -7 1653.81 159.584   2
  -1  -8  -7 1244.19 209.505   3
  -1  -8  -6 2734.22 262.638   3
  -1  -8  -5 7349.91 403.153   3
  -1  -8  -5 6359.45 267.371   2
  -1  -8  -4-121.171 94.7362   3
  -1  -8  -4-4.39874 24.8520   2
  -1  -8  -3 2309.85 158.060   2
  -1  -8  -3 2213.31 231.931   3
  -1  -8  -2 2693.33 244.366   3
  -1  -8  -1 6739.92 388.878   3
  -1  -8   0 1258.07 180.365   3
  -1  -8   1 2211.53 237.760   3
  -1  -8   2 275.643 98.5797   3
  -1  -7 -12 541.441 167.061   1
  -1  -7 -11-134.311 130.922   3
  -1  -7 -11 162.825 86.7551   1
  -1  -7 -10 357.051 126.610   3
  -1  -7 -10 443.395 151.356   1
  -1  -7  -9 1036.53 190.157   1
  -1  -7  -9 981.172 210.304   3
  -1  -7  -8 516.850 145.990   3
  -1  -7  -8 487.257 120.054   1
  -1  -7  -7 2526.13 207.759   2
  -1  -7  -7 2420.19 267.860   3
  -1  -7  -7 2443.41 248.023   1
  -1  -7  -6 3463.65 302.219   3
  -1  -7  -6 3777.53 283.936   1
  -1  -7  -5 3703.15 266.529   1
  -1  -7  -5 3432.18 281.767   3
  -1  -7  -5 3751.47 204.263   2
  -1  -7  -4 3383.47 260.848   3
  -1  -7  -4 3338.05 183.269   2
  -1  -7  -3 25.6065 26.3458   2
  -1  -7  -3 38.2085 71.1418   3
  -1  -7  -2 14023.6 508.472   3
  -1  -7  -1 3945.94 275.005   3
  -1  -7   0 5998.21 348.123   3
  -1  -7   1 4164.94 299.412   3
  -1  -7   2-24.2712 54.8506   3
  -1  -6 -12 68.0337 106.912   1
  -1  -6 -11 181.152 87.3305   1
  -1  -6 -10 158.067 102.310   1
  -1  -6  -9 876.566 173.203   1
  -1  -6  -8 1178.46 201.850   3
  -1  -6  -8 1393.55 204.080   1
  -1  -6  -7 576.666 156.912   3
  -1  -6  -7 923.337 131.965   2
  -1  -6  -7 976.470 159.606   1
  -1  -6  -6 6526.74 388.338   3
  -1  -6  -6 6432.67 354.793   1
  -1  -6  -5 180.271 81.2750   1
  -1  -6  -5 61.6595 36.1296   2
  -1  -6  -5 121.077 81.1099   3
  -1  -6  -4 2165.85 181.429   1
  -1  -6  -4 2134.19 197.875   3
  -1  -6  -4 2276.17 147.998   2
  -1  -6  -3 119.346 30.6635   2
  -1  -6  -3 148.817 54.4307   3
  -1  -6  -2 4752.05 204.013   2
  -1  -6  -2 4483.20 266.052   3
  -1  -6  -1 21299.8 579.329   3
  -1  -6   0 13518.4 470.381   3
  -1  -6   1 12545.4 474.281   3
  -1  -6   2 1133.82 162.969   3
  -1  -5 -12 290.679 141.896   1
  -1  -5 -11 703.741 193.467   1
  -1  -5 -10 6998.63 496.927   1
  -1  -5  -9 2267.96 262.809   1
  -1  -5  -8 2106.40 243.912   1
  -1  -5  -7 4452.78 276.258   2
  -1  -5  -7 5045.44 341.413   1
  -1  -5  -6 14949.1 528.939   1
  -1  -5  -6 15180.8 565.796   3
  -1  -5  -5 41251.0 672.501   2
  -1  -5  -5 40743.5 793.174   1
  -1  -5  -5 39304.3 843.849   3
  -1  -5  -4 15169.7 491.366   3
  -1  -5  -4 15807.0 385.008   2
  -1  -5  -4 14833.8 439.835   1
  -1  -5  -3 2836.23 170.886   1
  -1  -5  -3 3101.04 158.786   2
  -1  -5  -3 3049.58 196.384   3
  -1  -5  -2 2819.91 145.105   2
  -1  -5  -2 2619.04 182.942   3
  -1  -5  -1 643.113 100.779   3
  -1  -5   0 6376.10 291.092   3
  -1  -5   1 9301.31 370.380   3
  -1  -5   2 577.372 106.968   3
  -1  -4 -12 181.494 118.011   1
  -1  -4 -11 193.995 101.190   1
  -1  -4 -10 164.903 119.939   1
  -1  -4  -9 2965.31 295.202   1
  -1  -4  -8 526.632 119.409   1
  -1  -4  -7 10537.9 475.477   1
  -1  -4  -6 742.348 108.723   2
  -1  -4  -6 708.738 121.133   1
  -1  -4  -5 10119.3 338.007   2
  -1  -4  -5 10668.6 399.799   1
  -1  -4  -4 7550.66 269.527   2
  -1  -4  -4 7576.94 305.217   1
  -1  -4  -4 7365.61 330.234   3
  -1  -4  -3 2017.88 124.466   2
  -1  -4  -3 2306.42 145.903   1
  -1  -4  -3 2025.22 153.535   3
  -1  -4  -2 3730.04 157.368   2
  -1  -4  -2 3743.81 187.458   3
  -1  -4  -1 4448.94 174.681   2
  -1  -4  -1 4533.06 214.247   3
  -1  -4   0 6684.00 263.114   3
  -1  -4   1 57862.8 819.619   3
  -1  -4   2 2266.10 179.517   3
  -1  -3 -12 752.233 195.996   1
  -1  -3 -11-1.58234 74.4593   1
  -1  -3 -10 1626.23 241.777   1
  -1  -3  -9 836.067 169.050   1
  -1  -3  -8 7021.52 422.671   1
  -1  -3  -7-51.8909 66.4123   1
  -1  -3  -6 13829.2 444.390   2
  -1  -3  -6 12973.1 477.431   1
  -1  -3  -5 26.3542 34.1207   2
  -1  -3  -5 23.7495 47.2347   1
  -1  -3  -4 19604.7 421.867   2
  -1  -3  -4 18625.7 457.035   1
  -1  -3  -3 352.389 73.6978   3
  -1  -3  -3 425.106 65.8624   1
  -1  -3  -3 501.629 69.0342   2
  -1  -3  -2 1277.42 109.172   3
  -1  -3  -2 1314.75 93.2301   1
  -1  -3  -2 1371.62 90.0576   2
  -1  -3  -1 115.746 44.5589   3
  -1  -3  -1 50.0200 24.9503   2
  -1  -3   0 2961.77 149.119   3
  -1  -3   1 46888.4 648.280   3
  -1  -2 -12 369.871 124.723   1
  -1  -2 -11 590.079 174.194   1
  -1  -2 -10 1685.19 255.607   1
  -1  -2  -9 520.869 132.793   1
  -1  -2  -8 143.231 86.0300   1
  -1  -2  -7 10471.4 468.901   1
  -1  -2  -6 1407.75 163.431   1
  -1  -2  -6 1246.52 139.822   4
  -1  -2  -5 745.700 109.623   1
  -1  -2  -4 123.354 51.5307   1
  -1  -2  -3 26425.8 455.854   1
  -1  -2  -2 25067.8 357.422   1
  -1  -2  -1 57206.3 459.605   3
  -1  -2  -1 55949.0 379.489   1
  -1  -2   0 6361.73 169.332   3
  -1  -2   1 75059.0 690.996   3
  -1  -2   2 43530.6 505.559   1
  -1  -2   3 1567.14 115.857   1
  -1  -2   4 5290.70 243.278   1
  -1  -2   5 837.747 112.831   1
  -1  -1 -11 66.1612 72.8839   1
  -1  -1 -10 134.162 95.8509   1
  -1  -1  -9 185.315 104.649   1
  -1  -1  -8 99.0501 93.6518   1
  -1  -1  -7 5083.35 337.906   1
  -1  -1  -6 14654.4 466.615   4
  -1  -1  -6 14555.9 508.610   1
  -1  -1  -5 9860.36 341.744   4
  -1  -1  -5 9433.42 370.716   1
  -1  -1  -4 11135.1 350.606   1
  -1  -1  -4 11451.7 324.548   4
  -1  -1  -3 3134.65 158.528   1
  -1  -1  -2 18033.5 299.543   1
  -1  -1   2 9768.81 231.702   1
  -1  -1   3 56027.7 672.460   1
  -1  -1   4 221.308 55.3601   1
  -1  -1   5 4002.79 233.798   1
  -1   0 -11-34.2173 101.686   1
  -1   0 -10 2270.92 295.528   1
  -1   0  -9 484.776 141.264   1
  -1   0  -8 513.094 136.313   1
  -1   0  -7 361.970 93.5552   1
  -1   0  -6 7559.10 376.184   1
  -1   0  -6 8031.80 340.800   4
  -1   0  -5 13588.7 400.524   4
  -1   0  -5 12433.5 428.672   1
  -1   0  -4 4967.09 214.528   4
  -1   0  -4 4512.50 227.002   1
  -1   0  -3 6205.94 229.858   1
  -1   0  -3 6503.06 208.934   4
  -1   0  -2 19286.0 331.420   1
  -1   0  -2 18978.5 281.272   4
  -1   0   2 24893.1 412.290   4
  -1   0   3 4370.27 207.010   4
  -1   0   4 64594.8 836.703   1
  -1   0   4 61917.6 883.756   4
  -1   0   5 899.430 126.156   4
  -1   0   6 6249.69 348.026   4
  -1   0   7 46.6072 64.4698   4
  -1   0   8 399.785 115.679   4
  -1   0   9 61.7637 73.5118   4
  -1   1 -11-51.3527 110.821   1
  -1   1 -10 1660.06 257.215   1
  -1   1  -9 223.576 106.309   1
  -1   1  -8 329.665 105.564   1
  -1   1  -7 3757.71 302.354   1
  -1   1  -6 1227.63 155.648   1
  -1   1  -6 1164.95 141.639   4
  -1   1  -5 10259.5 399.086   1
  -1   1  -5 10970.6 362.085   4
  -1   1  -4 27130.3 507.089   4
  -1   1  -4 26212.6 569.225   1
  -1   1  -3 14413.6 370.691   1
  -1   1  -3 15118.3 320.006   4
  -1   1  -2 14718.8 320.323   1
  -1   1  -2 14725.2 247.680   4
  -1   1  -1 37183.2 370.987   2
  -1   1   1 123791. 657.851   4
  -1   1   2 3008.88 139.515   4
  -1   1   3 412.253 66.5964   4
  -1   1   4 1757.75 148.562   4
  -1   1   5 1532.60 156.873   4
  -1   1   6 1214.23 162.202   4
  -1   1   7 4585.09 317.830   4
  -1   1   8 2174.49 248.765   4
  -1   1   9 1188.44 196.660   4
  -1   1  10 1166.50 214.825   4
  -1   1  11 278.398 115.860   4
  -1   2 -11 611.738 160.705   1
  -1   2 -10 1940.03 288.310   1
  -1   2  -9 929.496 195.199   1
  -1   2  -8 252.912 101.506   1
  -1   2  -7 1839.42 219.503   1
  -1   2  -6 4950.32 319.702   1
  -1   2  -6 5426.92 296.769   4
  -1   2  -5 11991.2 445.462   1
  -1   2  -5 12194.8 397.640   4
  -1   2  -4 10640.5 326.460   4
  -1   2  -4 10202.6 373.738   1
  -1   2  -3 4956.36 193.419   4
  -1   2  -3 4667.34 225.956   1
  -1   2  -2 45.6039 21.7855   4
  -1   2  -1 2831.40 85.9307   4
  -1   2   1 51832.6 425.054   4
  -1   2   2 645.694 71.1150   4
  -1   2   3 19204.1 408.632   4
  -1   2   4 1811.94 150.113   4
  -1   2   5 601.005 106.578   4
  -1   2   6 8553.69 397.025   4
  -1   2   7 1464.61 187.543   4
  -1   2   8 2867.67 275.536   4
  -1   2   9 66.6071 77.5416   4
  -1   2  10 1161.60 216.405   4
  -1   2  11 718.137 187.232   4
  -1   3 -10 1456.78 254.927   1
  -1   3  -9-26.7796 93.3102   1
  -1   3  -8 770.104 159.994   1
  -1   3  -7 271.258 91.4166   1
  -1   3  -6 173.911 74.8907   1
  -1   3  -5 5744.03 281.420   4
  -1   3  -5 5807.28 326.230   1
  -1   3  -4 1950.10 175.666   1
  -1   3  -4 1869.28 147.920   4
  -1   3  -3 11376.2 309.774   4
  -1   3  -3 12287.5 386.993   1
  -1   3  -2 1335.70 93.5851   4
  -1   3   2 9544.39 252.851   4
  -1   3   3 5115.87 216.721   4
  -1   3   4 2398.17 174.460   4
  -1   3   5 294.523 81.4436   4
  -1   3   6 5066.87 299.754   4
  -1   3   7 12643.9 519.384   4
  -1   3   8 121.841 83.0537   4
  -1   3   9 96.2410 68.7148   4
  -1   3  10 263.870 111.850   4
  -1   3  11 2156.03 298.717   4
  -1   4 -10 185.866 106.998   1
  -1   4  -9 420.964 139.572   1
  -1   4  -8 719.919 157.191   1
  -1   4  -7 72.9879 61.3163   1
  -1   4  -6 457.512 104.309   1
  -1   4  -5 92.8019 64.2438   1
  -1   4  -5 50.8907 44.9347   4
  -1   4  -4 8805.17 380.747   1
  -1   4  -4 8932.15 330.371   4
  -1   4  -3 808.389 109.771   1
  -1   4  -3 738.146 88.4777   4
  -1   4  -2 6411.99 221.468   4
  -1   4   2 52455.4 625.515   4
  -1   4   2 51904.4 759.537   1
  -1   4   3 63304.4 784.108   4
  -1   4   3 66846.7 912.698   1
  -1   4   4 68848.9 918.461   4
  -1   4   5 107.140 59.2336   4
  -1   4   6 7773.10 375.829   4
  -1   4   7 8282.79 427.862   4
  -1   4   8 29826.4 875.429   4
  -1   4   9 1031.08 181.049   4
  -1   4  10 1341.45 224.090   4
  -1   4  11-46.1698 86.7553   4
  -1   4  12 1044.22 228.425   4
  -1   5  -9-73.8514 103.969   1
  -1   5  -8 28.2822 59.7848   1
  -1   5  -7 754.221 152.254   1
  -1   5  -6 483.694 119.645   1
  -1   5  -5 1171.86 159.359   1
  -1   5  -5 1090.55 144.406   4
  -1   5  -4 88.4353 59.6626   4
  -1   5  -4 27.8805 43.9018   1
  -1   5  -3 7943.88 351.303   1
  -1   5  -3 7726.24 294.487   4
  -1   5  -2 1993.94 140.608   4
  -1   5  -1 42545.2 865.382   3
  -1   5   0 342.486 41.5421   2
  -1   5   1 21390.0 232.624   2
  -1   5   2 214.451 64.9370   1
  -1   5   3 20535.3 467.309   4
  -1   5   3 21744.6 554.305   1
  -1   5   4 2274.54 178.289   4
  -1   5   4 2224.35 191.625   1
  -1   5   5 2264.89 205.641   1
  -1   5   5 2392.52 200.078   4
  -1   5   6 503.626 120.523   4
  -1   5   7 894.790 153.463   4
  -1   5   8-75.3160 78.6976   4
  -1   5   9 230.330 101.011   4
  -1   5  10-20.6176 74.7955   4
  -1   5  11 380.667 159.322   4
  -1   5  12-6.03352 89.6618   4
  -1   6  -8 16.0696 71.5746   1
  -1   6  -7 504.267 119.601   1
  -1   6  -6 511.215 126.386   1
  -1   6  -5 2154.21 222.007   1
  -1   6  -4 2309.63 214.942   1
  -1   6  -4 2125.08 182.908   4
  -1   6  -3 2054.54 166.434   4
  -1   6  -3 1878.53 184.317   1
  -1   6  -2 5671.83 249.404   4
  -1   6  -1 5015.92 218.082   2
  -1   6   0 17371.4 326.880   2
  -1   6   1 467.399 43.9707   2
  -1   6   1 610.451 126.988   3
  -1   6   2 10992.5 457.608   3
  -1   6   2 10597.8 395.439   1
  -1   6   3 2315.84 196.392   1
  -1   6   3 2521.74 235.116   3
  -1   6   3 2353.85 167.575   4
  -1   6   4 15938.9 471.573   4
  -1   6   4 16797.9 543.702   1
  -1   6   5 1153.39 144.903   4
  -1   6   6 1329.11 173.396   4
  -1   6   7 1713.65 207.909   4
  -1   6   8 1337.95 202.001   4
  -1   6   9 630.908 163.815   4
  -1   6  10 652.480 166.187   4
  -1   6  11 389.602 139.006   4
  -1   6  12 187.547 154.535   4
  -1   7  -7 228.329 90.3224   1
  -1   7  -6 48.9168 65.1973   1
  -1   7  -5 513.916 119.093   1
  -1   7  -4 1653.17 191.269   1
  -1   7  -3 1790.47 167.700   4
  -1   7  -3 1724.54 180.537   1
  -1   7  -2 2054.61 173.380   2
  -1   7  -2 1928.90 158.410   4
  -1   7  -1 8581.58 301.481   2
  -1   7   0 5147.76 193.146   2
  -1   7   1 3463.87 126.420   2
  -1   7   2 420.976 35.3407   2
  -1   7   2 559.435 108.714   1
  -1   7   3 13466.9 491.785   1
  -1   7   4 11634.5 421.105   4
  -1   7   5 1805.29 186.437   4
  -1   7   6 941.094 158.580   4
  -1   7   7 637.851 140.524   4
  -1   7   8 5467.49 384.576   4
  -1   7   9 68.8173 71.6230   4
  -1   7  10 779.124 174.292   4
  -1   7  11 373.172 132.691   4
  -1   8  -6 386.294 133.612   2
  -1   8  -5 705.714 141.148   2
  -1   8  -5 854.612 156.434   1
  -1   8  -4 833.121 142.749   2
  -1   8  -4 707.793 131.301   1
  -1   8  -3 267.985 75.1569   2
  -1   8  -3 325.718 87.5443   1
  -1   8  -2 213.835 62.5545   2
  -1   8  -1 15.0236 27.8653   2
  -1   8   0 1699.41 119.155   2
  -1   8   1 951.853 73.8350   2
  -1   8   2 14.4704 13.4961   2
  -1   8   4-21.6909 54.8210   4
  -1   8   5 830.670 133.089   4
  -1   8   6 2544.84 242.786   4
  -1   8   7 795.922 150.059   4
  -1   8   8 968.303 186.002   4
  -1   8   9 1000.76 195.197   4
  -1   8  10 671.009 161.030   4
  -1   8  11 885.081 197.596   4
  -1   9  -3 1014.33 157.326   1
  -1   9  -2 167.149 68.7311   1
  -1   9  -2 145.568 58.3981   2
  -1   9  -1 653.998 93.3864   2
  -1   9   0 803.990 87.8203   2
  -1   9   1 2571.49 124.429   2
  -1   9   4 1685.77 178.229   4
  -1   9   5 4118.85 296.698   4
  -1   9   6 2032.35 221.800   4
  -1   9   7 3400.39 300.289   4
  -1   9   8 1552.79 232.831   4
  -1   9   9 731.284 165.343   4
  -1   9  10 1243.02 230.656   4
  -1   9  11 822.356 192.499   4
  -1  10   4 1169.14 161.902   4
  -1  10   5 7.36779 61.9664   4
  -1  10   6 1550.56 202.176   4
  -1  10   7 1899.99 239.151   4
  -1  10   8 3382.95 327.959   4
  -1  10   9 308.338 125.226   4
  -1  10  10 477.179 160.237   4
  -1  10  11 218.855 121.827   4
  -1  11   4 1187.89 160.942   4
  -1  11   5 1482.24 195.909   4
  -1  11   6 369.836 110.573   4
  -1  11   7 778.607 162.117   4
  -1  11   8 1186.65 209.289   4
  -1  11   9 646.382 173.024   4
  -1  11  10 362.576 145.833   4
  -1  12   6 19.7113 60.9368   4
  -1  12   7 114.377 88.1078   4
  -1  12   8 319.168 130.180   4
  -1  12   9 388.936 135.364   4
  -1  12  10 283.381 135.804   4
   0 -13  -7-126.468 116.206   3
   0 -13  -6 137.904 116.084   3
   0 -13  -5 21.2596 105.083   3
   0 -13  -4 1031.48 236.325   3
   0 -13  -3 720.795 192.054   3
   0 -12  -9 521.388 169.403   3
   0 -12  -8 78.1827 101.605   3
   0 -12  -7 361.759 145.881   3
   0 -12  -6 160.584 120.454   3
   0 -12  -5 536.473 171.308   3
   0 -12  -4-8.20372 91.7776   3
   0 -12  -3 45.8387 76.2646   3
   0 -12  -2-42.8446 75.1105   3
   0 -12  -1 396.932 146.155   3
   0 -12   0 313.303 147.056   3
   0 -11 -10 466.970 190.064   3
   0 -11  -9 356.467 153.132   3
   0 -11  -8 772.287 202.409   3
   0 -11  -7 1670.86 263.241   3
   0 -11  -6 526.478 154.386   3
   0 -11  -5 1509.73 237.065   3
   0 -11  -4 796.016 181.934   3
   0 -11  -3 1428.54 230.744   3
   0 -11  -2 580.799 154.637   3
   0 -11  -1 861.148 188.164   3
   0 -11   0 1303.45 224.861   3
   0 -11   1-25.0100 74.1608   3
   0 -10 -11-3.46007 93.8752   1
   0 -10 -11-162.345 175.977   3
   0 -10 -10 257.629 148.481   3
   0 -10  -9 1842.24 283.227   3
   0 -10  -8 2020.10 287.340   3
   0 -10  -7 2883.95 327.373   3
   0 -10  -6 211.795 81.4553   3
   0 -10  -5 709.393 157.324   3
   0 -10  -4 6105.94 430.546   3
   0 -10  -3 4921.11 393.157   3
   0 -10  -2 646.442 142.978   3
   0 -10  -1 66.5996 70.5246   3
   0 -10   0 1212.18 205.892   3
   0 -10   1 584.845 159.025   3
   0 -10   2 894.348 197.319   3
   0  -9 -11 613.754 214.877   3
   0  -9 -11 78.0658 109.931   1
   0  -9 -10 619.099 174.256   1
   0  -9 -10 617.502 199.768   3
   0  -9  -9 370.658 146.471   1
   0  -9  -9 149.037 118.356   3
   0  -9  -8 688.192 187.653   3
   0  -9  -7 2200.69 272.906   3
   0  -9  -6 2239.05 260.805   3
   0  -9  -5 213.188 43.5827   2
   0  -9  -5 190.880 90.8906   3
   0  -9  -4 1240.11 198.294   3
   0  -9  -3 497.897 133.938   3
   0  -9  -2 647.007 147.175   3
   0  -9  -1 622.477 143.632   3
   0  -9   0 822.487 163.604   3
   0  -9   1 150.567 84.3053   3
   0  -9   2 445.199 135.841   3
   0  -9   3 339.696 126.852   3
   0  -8 -12 169.573 145.642   3
   0  -8 -12 320.720 166.690   1
   0  -8 -11 1048.97 234.790   3
   0  -8 -11 924.676 207.113   1
   0  -8 -10 986.658 219.951   3
   0  -8 -10 891.359 192.476   1
   0  -8  -9 1648.60 244.585   1
   0  -8  -9 1500.92 259.454   3
   0  -8  -8 243.031 114.246   1
   0  -8  -8 21.9269 97.8556   3
   0  -8  -7 6512.98 415.543   1
   0  -8  -7 6159.34 446.620   3
   0  -8  -6 951.366 104.675   2
   0  -8  -6 1066.18 197.743   3
   0  -8  -5 4727.22 341.911   3
   0  -8  -5 4667.15 199.318   2
   0  -8  -4 83.3398 31.2308   2
   0  -8  -4-77.1915 104.740   3
   0  -8  -3 4967.41 343.113   3
   0  -8  -2 3045.75 269.946   3
   0  -8  -1 893.630 148.619   3
   0  -8   0 2465.11 252.294   3
   0  -8   1 62.2361 59.8928   3
   0  -8   2 1156.07 187.782   3
   0  -8   3 940.198 181.047   3
   0  -7 -12 456.666 184.549   3
   0  -7 -12 354.482 161.664   1
   0  -7 -11 127.779 129.881   3
   0  -7 -11 256.015 141.307   1
   0  -7 -10 1210.83 236.212   3
   0  -7 -10 966.670 193.209   1
   0  -7  -9 517.266 164.286   3
   0  -7  -9 471.147 140.858   1
   0  -7  -8 1651.61 220.149   1
   0  -7  -8 1637.62 245.271   3
   0  -7  -7 643.558 107.231   2
   0  -7  -7 763.177 160.342   1
   0  -7  -7 863.523 182.755   3
   0  -7  -6 2848.00 260.413   1
   0  -7  -6 2748.68 181.527   2
   0  -7  -6 2723.07 274.582   3
   0  -7  -5 360.632 64.8986   2
   0  -7  -5 482.543 139.999   3
   0  -7  -4 3363.47 153.920   2
   0  -7  -4 3400.59 271.632   3
   0  -7  -3 2748.38 245.027   3
   0  -7  -3 3054.34 138.652   2
   0  -7  -2 2439.07 228.280   3
   0  -7  -1 8930.17 425.223   3
   0  -7   0 6043.68 363.000   3
   0  -7   1 4291.14 312.997   3
   0  -7   2 761.780 142.232   3
   0  -7   3 2963.62 288.378   3
   0  -6 -12 46.0603 96.5094   1
   0  -6 -11 362.951 127.925   1
   0  -6 -10 851.519 179.366   1
   0  -6  -9 885.782 180.283   1
   0  -6  -8 133.603 98.4769   3
   0  -6  -8 79.4301 71.7438   1
   0  -6  -7 1604.78 237.501   3
   0  -6  -7 1580.63 201.867   1
   0  -6  -7 1609.94 156.728   2
   0  -6  -6 5952.09 359.253   1
   0  -6  -6 6047.38 394.144   3
   0  -6  -5 3333.81 180.746   2
   0  -6  -5 3303.15 247.275   1
   0  -6  -5 3302.25 275.313   3
   0  -6  -4 138.804 41.8753   2
   0  -6  -4 184.840 104.856   3
   0  -6  -3 13265.1 275.621   2
   0  -6  -3 12186.6 446.006   3
   0  -6  -2 9109.93 387.690   3
   0  -6  -1 1178.89 145.527   3
   0  -6   0 22259.4 629.344   3
   0  -6   1 167.011 80.7579   3
   0  -6   2 8339.20 418.979   3
   0  -6   3 150.831 88.1522   3
   0  -5 -12-9.18803 115.406   1
   0  -5 -11 481.188 166.127   1
   0  -5 -10 1335.52 228.005   1
   0  -5  -9 7746.47 495.074   1
   0  -5  -8 1155.16 182.165   1
   0  -5  -7 10128.9 488.719   1
   0  -5  -7 10253.4 396.492   2
   0  -5  -6 1210.46 192.469   3
   0  -5  -6 1172.51 158.644   1
   0  -5  -5 12192.3 346.343   2
   0  -5  -5 11914.8 450.043   1
   0  -5  -5 12227.5 495.101   3
   0  -5  -4 2638.01 144.387   2
   0  -5  -4 2533.06 198.528   1
   0  -5  -4 2642.17 220.462   3
   0  -5  -3 23756.6 573.404   3
   0  -5  -3 24168.4 362.958   2
   0  -5  -2 15590.6 267.850   2
   0  -5  -2 14835.2 450.512   3
   0  -5  -1 10228.0 374.716   3
   0  -5   0 13390.8 442.843   3
   0  -5   1 6197.54 316.714   3
   0  -5   2 270.703 85.6630   3
   0  -5   3 8591.22 414.754   3
   0  -4 -12 152.708 121.651   1
   0  -4 -11 277.323 143.932   1
   0  -4 -10 805.107 185.163   1
   0  -4  -9 1709.76 232.894   1
   0  -4  -8 6502.02 417.760   1
   0  -4  -7 1718.14 208.065   1
   0  -4  -6 12377.2 486.164   1
   0  -4  -5 4996.71 227.324   2
   0  -4  -5 4865.20 286.652   1
   0  -4  -4 10579.9 287.580   2
   0  -4  -4 10529.5 378.518   1
   0  -4  -4 10276.7 410.762   3
   0  -4  -3 25469.0 379.806   2
   0  -4  -3 26269.9 532.781   1
   0  -4  -3 24454.9 578.926   3
   0  -4  -2 9649.30 195.248   2
   0  -4  -2 8683.51 313.725   3
   0  -4  -1 3371.07 193.952   3
   0  -4   0 456.525 80.3690   3
   0  -4   1 4315.51 238.046   3
   0  -4   2 2041.76 173.846   3
   0  -4   3 542.664 109.944   3
   0  -3 -12 798.352 205.451   1
   0  -3 -11 372.115 138.379   1
   0  -3 -10 1011.04 200.583   1
   0  -3  -9 133.914 69.5087   1
   0  -3  -8 4344.65 341.806   1
   0  -3  -7 10024.0 470.505   1
   0  -3  -6 3659.31 231.507   2
   0  -3  -6 3540.10 261.356   1
   0  -3  -5 2251.40 159.153   2
   0  -3  -5 2394.34 195.802   1
   0  -3  -4 4803.84 202.675   2
   0  -3  -4 4603.33 241.560   1
   0  -3  -3 17718.3 322.844   2
   0  -3  -3 18957.1 430.558   1
   0  -3  -3 17211.5 466.892   3
   0  -3  -2 16798.6 251.183   2
   0  -3  -2 17467.4 360.422   1
   0  -3  -2 16908.2 394.564   3
   0  -3  -1 3555.30 175.046   3
   0  -3  -1 3840.68 105.988   2
   0  -3   0 126971. 1038.43   3
   0  -3   1 6503.85 255.247   3
   0  -3   2 2721.11 183.070   3
   0  -2 -12 224.406 154.967   1
   0  -2 -11 1345.33 253.625   1
   0  -2 -10-80.0526 94.9752   1
   0  -2  -9 2554.67 284.852   1
   0  -2  -8 170.214 88.9684   1
   0  -2  -7 7508.37 407.469   1
   0  -2  -6 6496.07 347.507   1
   0  -2  -5 722.429 107.283   1
   0  -2  -4 411.542 74.6364   1
   0  -2  -3 1794.46 128.243   1
   0  -2  -2 40352.7 510.337   1
   0  -2  -2 40617.0 559.934   3
   0  -2  -1 7046.16 200.642   3
   0  -2   0 119540. 824.967   3
   0  -2   1 2188.20 129.073   3
   0  -2   2 218.062 55.2491   3
   0  -1 -11 506.050 152.948   1
   0  -1 -10 334.183 121.185   1
   0  -1  -9 56.9421 68.9302   1
   0  -1  -8 1415.20 196.563   1
   0  -1  -7 889.787 144.809   1
   0  -1  -6 3562.79 235.245   4
   0  -1  -6 3199.08 245.409   1
   0  -1  -5 5304.36 282.700   1
   0  -1  -4 20023.2 480.344   1
   0  -1  -3 18521.2 397.873   1
   0  -1  -2 16373.2 305.139   1
   0  -1   1 868.714 66.7530   3
   0  -1   2 4087.76 156.073   4
   0  -1   3 22513.0 433.495   4
   0  -1   4 4920.18 242.425   4
   0  -1   4 5512.75 246.316   1
   0  -1   5 5629.38 287.943   4
   0  -1   5 5927.50 288.079   1
   0  -1   6 1884.01 188.580   4
   0  -1   7 2426.56 236.414   4
   0  -1   8 308.211 91.0381   4
   0   0 -11 178.606 95.6307   1
   0   0 -10 100.589 108.363   1
   0   0  -9 40.2847 61.4007   1
   0   0  -8 496.369 113.975   1
   0   0  -7 1120.68 166.935   1
   0   0  -6 8754.13 410.022   1
   0   0  -6 8809.21 375.167   4
   0   0  -5 24709.7 610.626   1
   0   0  -5 25779.3 576.901   4
   0   0  -4 39125.3 676.150   1
   0   0  -4 40088.9 646.545   4
   0   0  -3 4274.18 191.114   1
   0   0  -2 36719.4 448.945   1
   0   0   2 36650.4 434.913   4
   0   0   3 3851.25 184.737   4
   0   0   4 38857.7 641.268   4
   0   0   5 25687.2 599.497   4
   0   0   6 8690.95 389.786   4
   0   0   7 1116.82 162.019   4
   0   0   8 614.969 137.792   4
   0   0   9 210.105 93.6595   4
   0   0  10 89.6074 77.5750   4
   0   1 -11 624.217 173.814   1
   0   1 -10-99.7203 99.8372   1
   0   1  -9 1076.03 200.081   1
   0   1  -8 317.517 114.928   1
   0   1  -7 2814.31 262.159   1
   0   1  -6 1686.50 185.439   1
   0   1  -5 6276.67 314.233   1
   0   1  -5 5702.33 289.344   4
   0   1  -4 5362.37 252.702   1
   0   1  -4 5576.28 246.777   4
   0   1  -3 23906.1 459.029   1
   0   1  -3 23370.6 438.401   4
   0   1  -2 4510.47 166.689   1
   0   1  -2 4098.61 154.369   4
   0   1  -1 907.360 56.6062   1
   0   1   2 16596.1 298.260   4
   0   1   3 19715.6 391.675   4
   0   1   4 20286.5 462.768   4
   0   1   5 5003.80 260.908   4
   0   1   6 3385.91 233.838   1
   0   1   6 3305.57 235.192   4
   0   1   7 843.047 135.233   4
   0   1   8 1866.90 215.890   4
   0   1   9 98.9355 86.0971   4
   0   1  10 443.466 134.345   4
   0   1  11 358.453 124.560   4
   0   1  12 92.8060 92.9224   4
   0   2 -11 67.4783 93.8852   1
   0   2 -10 185.429 125.047   1
   0   2  -9 95.0488 73.1308   1
   0   2  -8 2375.95 268.832   1
   0   2  -7 727.247 148.117   1
   0   2  -6 3305.54 262.365   1
   0   2  -5 4855.52 282.998   1
   0   2  -5 5408.56 284.089   4
   0   2  -4 2885.97 192.799   4
   0   2  -4 2819.75 189.368   1
   0   2  -3 18022.2 411.917   4
   0   2  -3 17725.0 418.415   1
   0   2  -2 169.379 41.7090   4
   0   2  -2 141.548 35.8391   1
   0   2   0 114813. 586.239   2
   0   2   1 7522.44 127.976   2
   0   2   2 39271.0 475.221   4
   0   2   3 1758.34 127.628   4
   0   2   4 271.321 63.7239   4
   0   2   5 703.953 105.672   4
   0   2   6 6349.47 329.091   4
   0   2   7 8543.56 416.038   4
   0   2   8 101.789 77.0430   4
   0   2   9 2747.12 289.911   4
   0   2  10 15.4365 71.4762   4
   0   2  11 1609.27 251.691   4
   0   2  12 26.4857 91.6572   4
   0   3 -10 32.4653 82.4405   1
   0   3  -9 1239.66 224.504   1
   0   3  -8 1038.83 186.028   1
   0   3  -7 2234.71 243.973   1
   0   3  -6 3018.09 256.580   1
   0   3  -5 16382.2 505.760   4
   0   3  -5 16104.6 531.528   1
   0   3  -4 14216.8 444.623   1
   0   3  -4 14930.2 447.103   4
   0   3  -3 3872.62 207.939   4
   0   3  -3 3996.99 243.301   3
   0   3  -3 4087.48 213.961   1
   0   3  -2 2503.57 147.957   4
   0   3  -2 2708.99 152.180   1
   0   3   0 118825. 733.119   2
   0   3   1 3664.20 105.126   2
   0   3   2 16225.2 250.597   2
   0   3   2 16407.5 352.553   1
   0   3   3 18113.0 413.242   1
   0   3   3 17457.4 395.682   4
   0   3   4 4657.05 231.863   4
   0   3   5 2114.68 176.893   4
   0   3   6 3757.16 257.952   4
   0   3   7 9918.78 453.660   4
   0   3   8 4921.83 344.067   4
   0   3   9-29.4552 78.0797   4
   0   3  10 935.067 180.505   4
   0   3  11 548.658 151.292   4
   0   3  12 614.786 175.898   4
   0   4 -10-160.978 114.536   1
   0   4  -9-13.8618 63.3973   1
   0   4  -8 984.876 188.764   1
   0   4  -7 73.9604 58.3982   1
   0   4  -6 196.954 78.3536   1
   0   4  -5 3836.16 265.490   1
   0   4  -4 124.091 58.3020   1
   0   4  -4 99.8148 51.6354   4
   0   4  -3 610.258 89.2315   1
   0   4  -3 571.452 91.2206   4
   0   4  -2 2211.17 188.269   3
   0   4  -2 2100.91 146.576   1
   0   4  -1 4150.09 241.464   3
   0   4   0 553.879 60.5392   2
   0   4   0 433.173 70.1911   3
   0   4   1 2953.42 112.132   2
   0   4   1 3215.25 188.010   3
   0   4   2 9283.68 199.999   2
   0   4   2 9237.39 337.035   3
   0   4   2 9330.78 286.511   1
   0   4   3 25897.7 389.739   2
   0   4   3 25867.1 525.458   1
   0   4   4 10403.3 357.922   4
   0   4   4 10454.5 363.066   1
   0   4   5 5194.70 277.729   1
   0   4   5 5116.67 278.835   4
   0   4   6 12447.4 465.208   1
   0   4   6 12059.4 459.277   4
   0   4   7 1767.56 205.228   4
   0   4   8 7166.07 420.277   4
   0   4   9 1989.74 246.393   4
   0   4  10 525.923 143.079   4
   0   4  11-24.3770 90.3277   4
   0   4  12-12.7847 78.3571   4
   0   5  -9 162.681 91.5485   1
   0   5  -8-46.7982 77.0056   1
   0   5  -7 794.878 155.506   1
   0   5  -6 633.335 129.828   1
   0   5  -5 5565.46 334.412   1
   0   5  -4 50.8092 36.3563   1
   0   5  -4 41.7148 60.3065   4
   0   5  -3 8524.73 349.688   4
   0   5  -3 8588.85 346.507   1
   0   5  -2 340.512 69.2038   1
   0   5  -1 6447.95 257.767   2
   0   5  -1 6155.77 317.791   3
   0   5   0 12620.2 301.421   2
   0   5   0 12489.5 439.073   3
   0   5   1 10070.5 371.057   3
   0   5   1 9244.53 225.289   2
   0   5   2 15398.9 273.963   2
   0   5   2 14655.9 403.406   1
   0   5   2 16194.7 486.310   3
   0   5   3 23044.7 365.274   2
   0   5   3 24232.3 538.175   1
   0   5   3 25694.0 631.024   3
   0   5   4 2567.60 185.448   4
   0   5   4 2525.67 185.769   1
   0   5   5 12422.2 439.156   4
   0   5   5 11982.1 437.376   1
   0   5   6 1268.59 163.624   4
   0   5   7 10725.7 479.768   4
   0   5   8 960.059 169.203   4
   0   5   9 8745.46 495.163   4
   0   5  10 1745.26 244.232   4
   0   5  11 707.583 173.348   4
   0   5  12 80.0772 105.313   4
   0   6  -7 43.0918 57.9225   1
   0   6  -6 1838.00 222.621   1
   0   6  -5 916.083 146.205   1
   0   6  -4 3738.03 262.602   1
   0   6  -3 125.094 54.8159   4
   0   6  -3 183.960 61.5182   1
   0   6  -2 8356.32 331.726   1
   0   6  -2 8603.38 356.135   2
   0   6  -1 162.758 50.9011   2
   0   6   0 21634.3 429.100   2
   0   6   0 22811.9 644.095   3
   0   6   1 1026.29 84.3000   2
   0   6   1 1262.16 163.639   3
   0   6   2 8927.44 228.155   2
   0   6   2 8651.85 325.976   1
   0   6   2 9361.44 415.411   3
   0   6   3 12776.6 276.053   2
   0   6   3 12391.6 411.660   1
   0   6   3 12332.4 476.756   3
   0   6   4 76.4336 49.4538   1
   0   6   5 3379.47 240.734   4
   0   6   5 3081.43 231.608   1
   0   6   6 6311.68 353.313   4
   0   6   7 1783.91 211.503   4
   0   6   8 119.050 86.3333   4
   0   6   9 1286.20 204.815   4
   0   6  10 1040.08 201.714   4
   0   6  11 532.392 159.450   4
   0   6  12 98.1017 119.468   4
   0   7  -7 123.149 68.6753   2
   0   7  -6 42.1455 60.5612   1
   0   7  -5 309.503 96.5215   2
   0   7  -5 438.969 114.170   1
   0   7  -4 1013.24 142.114   1
   0   7  -4 948.239 151.840   2
   0   7  -3 3106.68 249.016   2
   0   7  -3 3325.76 241.250   1
   0   7  -2 841.181 121.409   2
   0   7  -2 947.774 119.320   1
   0   7  -1 4400.44 237.398   2
   0   7   0 5369.19 234.723   2
   0   7   1 8085.98 254.522   2
   0   7   2 2691.51 137.590   2
   0   7   2 2656.49 198.054   1
   0   7   3 2981.83 140.240   2
   0   7   3 3055.21 217.889   1
   0   7   4 3208.74 155.931   2
   0   7   4 3105.27 238.441   1
   0   7   5 202.438 77.5997   4
   0   7   5 308.827 90.3509   1
   0   7   6 2554.64 242.816   4
   0   7   7 466.053 124.032   4
   0   7   8 1471.00 205.485   4
   0   7   9 612.446 159.656   4
   0   7  10 1042.03 210.406   4
   0   7  11 249.753 122.078   4
   0   7  12 472.025 167.955   4
   0   8  -6 494.780 141.243   2
   0   8  -5 1089.10 179.223   2
   0   8  -4 1358.00 187.265   2
   0   8  -4 1309.33 167.943   1
   0   8  -3 1059.30 157.190   2
   0   8  -3 1049.53 143.036   1
   0   8  -2 1035.63 132.125   1
   0   8  -2 1267.75 151.323   2
   0   8  -1 45.1929 38.9476   2
   0   8   0 1804.00 146.790   2
   0   8   1 950.207 133.520   1
   0   8   1 1065.77 101.636   2
   0   8   2 3461.63 163.503   2
   0   8   2 3240.94 233.807   1
   0   8   3 4695.99 181.682   2
   0   8   3 4524.61 289.077   1
   0   8   4 122.932 68.8550   1
   0   8   4 98.7504 36.0130   2
   0   8   5 4480.54 299.166   4
   0   8   6 854.173 148.278   4
   0   8   7 6712.41 412.341   4
   0   8   8 6.70115 83.3916   4
   0   8   9 1646.53 239.562   4
   0   8  10 963.104 195.530   4
   0   8  11 1181.42 222.634   4
   0   9  -3 204.250 72.7821   2
   0   9  -2 612.332 103.139   1
   0   9  -2 523.806 103.725   2
   0   9  -1-53.8875 51.3020   2
   0   9   0 528.075 86.9554   2
   0   9   1 880.011 97.7808   2
   0   9   2 869.000 137.376   1
   0   9   2 612.148 77.6835   2
   0   9   3 435.656 100.236   1
   0   9   3 380.472 57.4008   2
   0   9   4 1235.84 96.3897   2
   0   9   5 283.078 91.3610   4
   0   9   6 2299.46 241.668   4
   0   9   7 2282.51 254.148   4
   0   9   8 585.849 147.155   4
   0   9   9 104.255 116.589   4
   0   9  10 622.603 170.428   4
   0   9  11 387.873 142.163   4
   0  10   5 1024.14 157.368   4
   0  10   6 345.210 105.897   4
   0  10   7 2926.37 289.939   4
   0  10   8 1987.16 262.048   4
   0  10   9 1604.75 250.203   4
   0  10  10 459.145 153.695   4
   0  10  11 64.3000 99.4214   4
   0  11   5 1595.28 205.006   4
   0  11   6 772.419 164.029   4
   0  11   7 1277.76 202.309   4
   0  11   8 337.995 123.398   4
   0  11   9 328.653 145.288   4
   0  11  10 236.703 141.295   4
   0  12   5 131.168 92.5803   4
   0  12   6 268.304 101.815   4
   0  12   7 654.641 161.514   4
   0  12   8 229.713 116.329   4
   0  12   9 816.079 193.196   4
   0  13   7 233.799 130.435   4
   0  13   8 98.6244 78.3929   4
   0  13   9 96.2854 98.6032   4
   1 -12  -8 261.360 142.801   3
   1 -12  -7 96.2996 109.708   3
   1 -12  -6 165.888 130.055   3
   1 -12  -5 239.100 134.960   3
   1 -12  -4 392.067 149.962   3
   1 -12  -3 687.638 188.820   3
   1 -12  -2 1174.42 231.979   3
   1 -12  -1 664.240 185.280   3
   1 -11 -10 639.576 225.581   3
   1 -11  -9 772.722 211.537   3
   1 -11  -8 951.997 227.825   3
   1 -11  -7 798.100 201.062   3
   1 -11  -6 316.702 137.090   3
   1 -11  -5 1743.48 259.867   3
   1 -11  -4 1272.50 225.614   3
   1 -11  -3 643.080 166.843   3
   1 -11  -2 1263.15 225.920   3
   1 -11  -1 1062.26 212.455   3
   1 -11   0 570.183 164.172   3
   1 -11   1-182.840 114.514   3
   1 -10 -10-137.191 151.434   3
   1 -10  -9 52.8781 126.054   3
   1 -10  -8 3283.82 362.025   3
   1 -10  -7 2105.43 285.557   3
   1 -10  -6 1341.20 230.154   3
   1 -10  -5-34.6945 110.878   3
   1 -10  -4 1200.42 215.268   3
   1 -10  -3 1380.21 233.890   3
   1 -10  -2 3488.16 344.364   3
   1 -10  -1 133.405 112.104   3
   1 -10   0 550.195 146.363   3
   1 -10   1 276.588 121.128   3
   1 -10   2 648.792 176.093   3
   1 -10   3 309.150 126.630   3
   1  -9 -11 878.035 214.822   1
   1  -9 -11 729.749 215.231   3
   1  -9 -10 987.089 207.501   1
   1  -9 -10 750.025 219.243   3
   1  -9  -9 613.407 204.381   3
   1  -9  -8 1756.37 281.108   3
   1  -9  -7 3752.24 367.190   3
   1  -9  -6 2324.07 277.070   3
   1  -9  -5 4908.31 395.764   3
   1  -9  -4 1387.60 210.991   3
   1  -9  -3 3887.39 343.029   3
   1  -9  -2 2454.92 274.604   3
   1  -9  -1 2735.28 288.135   3
   1  -9   0 813.262 164.279   3
   1  -9   1 902.361 180.173   3
   1  -9   2 36.1578 70.4042   3
   1  -9   3 1001.42 201.002   3
   1  -8 -11 536.144 195.859   3
   1  -8 -11 739.683 193.663   1
   1  -8 -10 741.475 214.663   3
   1  -8 -10 788.681 199.791   1
   1  -8  -9 973.377 199.547   1
   1  -8  -9 749.414 199.283   3
   1  -8  -8 877.490 183.259   1
   1  -8  -8 984.792 215.722   3
   1  -8  -7 779.613 168.984   3
   1  -8  -6 2751.45 292.515   3
   1  -8  -6 2504.29 146.843   2
   1  -8  -5 584.425 57.6644   2
   1  -8  -5 1070.77 180.469   3
   1  -8  -4-43.8639 81.8821   3
   1  -8  -3 4597.96 355.009   3
   1  -8  -2 148.325 102.619   3
   1  -8  -1 1161.64 180.109   3
   1  -8   0 1763.45 215.175   3
   1  -8   1 175.627 99.9647   3
   1  -8   2 182.643 96.0154   3
   1  -8   3 316.751 112.570   3
   1  -7 -11 221.877 143.222   1
   1  -7 -11 479.930 213.439   3
   1  -7 -10 769.060 188.667   1
   1  -7 -10 588.049 175.059   3
   1  -7  -9 175.956 138.066   3
   1  -7  -9 141.600 89.8167   1
   1  -7  -8 4710.59 386.108   1
   1  -7  -8 5259.08 434.455   3
   1  -7  -7 545.622 140.762   1
   1  -7  -7 528.372 153.101   3
   1  -7  -6 875.802 104.855   2
   1  -7  -6 854.708 179.516   3
   1  -7  -5 1589.89 107.362   2
   1  -7  -5 1705.28 232.284   3
   1  -7  -4 11203.4 214.569   2
   1  -7  -4 11146.1 506.313   3
   1  -7  -3 12620.1 521.379   3
   1  -7  -2 597.804 129.354   3
   1  -7  -1 3409.58 278.096   3
   1  -7   0 5187.48 345.951   3
   1  -7   1 7992.68 437.590   3
   1  -7   2 1609.68 206.923   3
   1  -7   3 1668.72 220.139   3
   1  -7   4 1892.75 251.976   3
   1  -6 -12-8.03449 91.5502   1
   1  -6 -11 345.035 151.938   1
   1  -6 -10 837.762 192.607   1
   1  -6  -9 297.267 101.987   3
   1  -6  -9 711.885 171.741   1
   1  -6  -8 1252.79 233.440   3
   1  -6  -8 1328.58 204.746   1
   1  -6  -7 1422.80 200.884   1
   1  -6  -7 1287.50 241.093   3
   1  -6  -7 1245.26 137.158   2
   1  -6  -6 1157.04 116.756   2
   1  -6  -6 1286.25 182.006   1
   1  -6  -6 1203.84 207.475   3
   1  -6  -5 1032.40 97.5985   2
   1  -6  -5 1062.80 154.921   1
   1  -6  -5 1037.00 180.803   3
   1  -6  -4 15959.0 291.952   2
   1  -6  -4 14821.6 562.498   3
   1  -6  -3 2183.13 77.1386   2
   1  -6  -3 2239.62 209.986   3
   1  -6  -2 10368.6 436.017   3
   1  -6  -1 438.450 106.711   3
   1  -6   0 17521.3 580.096   3
   1  -6   1 5087.51 322.680   3
   1  -6   2 5479.11 347.773   3
   1  -6   3 1646.95 206.762   3
   1  -6   4 2041.41 238.669   3
   1  -5 -12-20.2409 110.061   1
   1  -5 -11 527.949 175.740   1
   1  -5 -10 169.765 85.0513   1
   1  -5  -9 30.3166 101.439   1
   1  -5  -8-28.2871 72.7887   1
   1  -5  -7 680.010 149.081   1
   1  -5  -7 633.787 105.692   2
   1  -5  -6 230.422 107.004   3
   1  -5  -6 354.993 113.252   1
   1  -5  -5 2136.06 143.511   2
   1  -5  -5 2243.13 210.677   1
   1  -5  -5 2414.16 242.576   3
   1  -5  -4 2125.38 117.759   2
   1  -5  -4 2339.91 196.888   1
   1  -5  -4 2186.47 218.593   3
   1  -5  -3 20971.2 273.472   2
   1  -5  -3 20952.4 580.753   3
   1  -5  -2 171.526 63.3815   3
   1  -5  -1 24141.4 607.004   3
   1  -5   0 288.120 78.4320   3
   1  -5   1 40529.8 827.985   3
   1  -5   2 1998.18 195.827   3
   1  -5   3 7758.20 404.712   3
   1  -4 -12 1224.77 265.352   1
   1  -4 -11-55.6841 89.5513   1
   1  -4 -10 1189.54 209.238   1
   1  -4  -9 924.422 182.641   1
   1  -4  -8 27734.5 879.676   1
   1  -4  -7 8631.29 452.278   1
   1  -4  -6 7410.54 394.926   1
   1  -4  -5-2.36024 47.9738   1
   1  -4  -5 45.3585 41.9309   4
   1  -4  -4 68103.5 698.975   2
   1  -4  -4 68902.5 1105.25   3
   1  -4  -4 69251.5 1015.28   1
   1  -4  -3 62640.2 522.482   2
   1  -4  -3 62347.2 967.583   3
   1  -4  -2 44401.8 283.479   2
   1  -4  -2 49466.4 778.796   3
   1  -4  -1 1201.72 123.036   3
   1  -4   0 7688.03 316.432   3
   1  -4   1 12696.6 420.209   3
   1  -4   2 6083.39 307.745   3
   1  -4   3 663.416 117.247   3
   1  -3 -12 266.734 142.461   1
   1  -3 -11 1763.97 284.162   1
   1  -3 -10 104.210 97.3941   1
   1  -3  -9 275.571 105.449   1
   1  -3  -8 156.857 94.4110   1
   1  -3  -7 12034.7 535.079   1
   1  -3  -6 4917.12 316.780   1
   1  -3  -5 397.612 95.2899   1
   1  -3  -4 2225.97 178.534   1
   1  -3  -3 4849.46 236.564   1
   1  -3  -3 4988.92 263.224   3
   1  -3  -2 9363.75 156.654   2
   1  -3  -2 8905.12 319.644   3
   1  -3  -1 16218.4 387.479   3
   1  -3   0 899.857 101.537   3
   1  -3   1 10895.2 347.950   3
   1  -3   2 1517.72 141.306   3
   1  -3   3 11766.4 419.436   3
   1  -2 -11 950.536 220.377   1
   1  -2 -10 957.730 202.287   1
   1  -2  -9 276.588 107.337   1
   1  -2  -8 2238.60 255.452   1
   1  -2  -7 1436.47 187.040   1
   1  -2  -6 8515.30 412.222   1
   1  -2  -5 643.317 114.300   1
   1  -2  -4 1847.13 161.067   1
   1  -2  -3 18919.2 443.670   1
   1  -2  -2 519.866 87.1725   3
   1  -2  -2 623.859 79.6155   1
   1  -2  -1 51936.4 607.440   3
   1  -2   0 23153.3 402.768   3
   1  -2   1 2979.48 158.355   3
   1  -2   2 14.2367 33.0203   3
   1  -2   3 4738.46 242.458   3
   1  -2   4 10093.4 320.545   4
   1  -2   5 11150.4 383.569   4
   1  -2   6 5021.45 292.492   4
   1  -1 -11 278.203 124.139   1
   1  -1 -10 1322.39 234.116   1
   1  -1  -9 954.413 190.174   1
   1  -1  -8 2435.83 265.870   1
   1  -1  -7 4455.99 321.171   1
   1  -1  -6 1453.71 172.423   1
   1  -1  -5 1700.79 169.326   1
   1  -1  -4 2007.20 158.953   1
   1  -1  -3 404.304 69.0844   1
   1  -1  -2 3169.44 156.140   1
   1  -1  -1 128406. 793.530   1
   1  -1  -1 127913. 851.875   3
   1  -1   0 21111.6 291.050   3
   1  -1   1 37669.7 439.179   3
   1  -1   2 14539.3 247.582   4
   1  -1   2 14047.8 320.905   3
   1  -1   3 14442.7 316.855   4
   1  -1   4 25781.1 498.740   4
   1  -1   5 10387.7 373.583   4
   1  -1   6 1108.70 142.651   4
   1  -1   7 3724.54 278.204   4
   1  -1   8 250.488 86.6939   4
   1  -1   9 52.3434 56.6285   4
   1   0 -11 76.9208 89.9328   1
   1   0 -10 131.076 118.875   1
   1   0  -9-28.8350 66.1152   1
   1   0  -8 240.319 100.317   1
   1   0  -7 39.9399 70.0721   1
   1   0  -6 6211.00 344.472   1
   1   0  -5 995.760 126.526   1
   1   0  -5 1014.91 126.117   4
   1   0  -4 64391.8 892.544   1
   1   0  -3 4834.01 210.678   1
   1   0  -2 26232.6 409.056   1
   1   0  -1 31289.4 346.314   1
   1   0   1 53537.4 371.056   3
   1   0   2 19587.3 293.986   4
   1   0   3 6787.31 216.341   4
   1   0   4 4545.79 208.390   4
   1   0   5 12244.9 390.139   4
   1   0   6 7308.26 341.441   4
   1   0   7 441.531 102.890   4
   1   0   8 799.070 150.908   4
   1   0   9 296.880 111.135   4
   1   0  10 2093.72 256.985   4
   1   0  11 74.1377 96.0840   4
   1   1 -11 129.202 95.9484   1
   1   1 -10 48.4978 83.8227   1
   1   1  -9 750.332 167.640   1
   1   1  -8 868.762 169.501   1
   1   1  -7 2527.15 245.427   1
   1   1  -6 384.873 93.9146   1
   1   1  -5 4079.39 254.925   1
   1   1  -5 4112.71 255.033   4
   1   1  -4 248.508 66.5867   4
   1   1  -4 235.462 63.3095   1
   1   1  -3 55416.9 711.275   1
   1   1  -3 54698.2 750.405   4
   1   1  -2 10378.5 251.429   1
   1   1  -1 257347. 915.525   1
   1   1   0 169.171 20.4890   3
   1   1   0 210.131 30.1756   2
   1   1   1 54455.1 444.801   2
   1   1   2 18163.2 318.611   2
   1   1   3 3134.75 158.726   4
   1   1   4 11549.8 335.529   4
   1   1   5 9436.22 346.601   4
   1   1   6 13933.3 463.721   4
   1   1   7 5347.86 319.349   4
   1   1   8 6.51019 83.6946   4
   1   1   9-19.9541 81.3253   4
   1   1  10 152.657 88.2372   4
   1   1  11 251.274 102.419   4
   1   1  12 111.850 75.9216   4
   1   2 -11-28.1497 74.5374   1
   1   2 -10-64.3332 94.8297   1
   1   2  -9 178.490 98.9552   1
   1   2  -8 1488.66 214.831   1
   1   2  -7 1831.72 214.133   1
   1   2  -6 6074.57 351.032   1
   1   2  -5 711.008 118.715   1
   1   2  -4 5421.19 278.405   4
   1   2  -4 5300.92 288.363   3
   1   2  -4 5073.86 259.425   1
   1   2  -3 1703.71 144.792   4
   1   2  -3 1821.22 152.643   3
   1   2  -3 1560.75 123.657   1
   1   2  -2 43591.6 635.627   4
   1   2  -2 44185.9 637.591   3
   1   2  -2 44790.7 537.358   1
   1   2  -1 74447.7 515.438   1
   1   2  -1 74243.0 702.944   3
   1   2   0 5940.50 174.865   2
   1   2   0 6216.33 171.575   3
   1   2   1 55948.5 489.565   2
   1   2   1 56011.6 358.324   1
   1   2   1 55736.5 471.262   3
   1   2   2 23984.0 366.437   2
   1   2   2 23802.7 338.286   1
   1   2   3 26230.5 443.520   2
   1   2   4 108.381 45.5725   4
   1   2   5 629.088 98.5657   4
   1   2   6 1388.10 161.622   4
   1   2   7 10379.7 450.979   4
   1   2   8 116.321 82.3717   4
   1   2   9 471.533 125.923   4
   1   2  10 2022.80 257.781   4
   1   2  11 1059.13 208.783   4
   1   2  12 458.383 149.362   4
   1   3 -10 22.8068 91.9447   1
   1   3  -9 1252.41 220.430   1
   1   3  -8 1830.21 239.244   1
   1   3  -7 2082.51 237.424   1
   1   3  -6 3258.92 267.333   1
   1   3  -5 600.954 110.638   1
   1   3  -4 9438.04 359.890   1
   1   3  -4 9895.96 396.946   4
   1   3  -3 2365.37 189.081   3
   1   3  -3 2024.73 146.140   1
   1   3  -3 2154.59 177.801   4
   1   3  -2 192.060 54.2071   3
   1   3  -2 270.714 45.3181   1
   1   3  -1 48250.3 652.684   2
   1   3  -1 49295.9 480.834   1
   1   3  -1 47998.8 673.755   3
   1   3   0 2818.17 138.636   2
   1   3   0 3149.99 155.909   3
   1   3   1 32.4272 18.1582   1
   1   3   1 31.3272 24.9177   2
   1   3   1 59.0891 37.0289   3
   1   3   2 1335.15 93.8800   2
   1   3   2 1333.74 85.2498   1
   1   3   2 1370.43 106.465   3
   1   3   3 420.240 61.1650   1
   1   3   3 304.793 56.2655   2
   1   3   4 18588.9 420.103   2
   1   3   4 19245.4 460.120   4
   1   3   4 18980.3 439.334   1
   1   3   5 99.0708 57.5390   4
   1   3   5-20.7397 40.9257   1
   1   3   6 13272.9 470.755   4
   1   3   7 25.9539 59.1026   4
   1   3   8 8536.10 446.817   4
   1   3   9 997.707 175.414   4
   1   3  10 2039.57 254.029   4
   1   3  11-82.7511 98.5379   4
   1   3  12 673.418 179.667   4
   1   4  -9-59.4957 69.7235   1
   1   4  -8 607.506 132.249   1
   1   4  -7 1038.04 173.175   1
   1   4  -6 2261.66 229.990   1
   1   4  -5 1482.64 166.912   1
   1   4  -4 48.0996 43.2128   1
   1   4  -3 2617.55 205.128   4
   1   4  -3 2649.99 222.407   3
   1   4  -3 2651.36 171.762   1
   1   4  -2 2439.46 196.915   3
   1   4  -2 2696.65 151.470   1
   1   4  -1 60280.4 795.643   2
   1   4  -1 60798.6 870.471   3
   1   4  -1 60789.4 611.387   1
   1   4   0 6381.07 226.270   2
   1   4   0 6775.87 275.954   3
   1   4   1 4307.50 152.494   1
   1   4   1 4577.40 177.588   2
   1   4   1 4455.46 204.995   3
   1   4   2 3778.65 162.221   2
   1   4   2 3678.87 161.407   1
   1   4   2 3736.18 194.412   3
   1   4   3 2106.19 130.684   2
   1   4   3 2109.80 135.243   1
   1   4   4 7384.04 268.592   2
   1   4   4 7818.05 292.283   1
   1   4   5 10441.2 387.919   4
   1   4   5 10525.9 377.453   1
   1   4   6 649.575 107.368   1
   1   4   6 820.893 132.047   4
   1   4   7 10181.0 452.451   4
   1   4   8 665.833 146.287   4
   1   4   9 2938.24 288.803   4
   1   4  10 118.982 90.8105   4
   1   4  11 341.799 143.567   4
   1   4  12 24.6625 82.2441   4
   1   5  -8-75.5779 103.937   1
   1   5  -7 882.034 169.132   1
   1   5  -6 959.816 153.100   1
   1   5  -5 120.073 62.3458   1
   1   5  -4 86.2531 52.8544   1
   1   5  -3 257.062 63.4449   1
   1   5  -3 202.239 74.2787   4
   1   5  -2 496.296 93.3490   2
   1   5  -2 541.731 115.613   3
   1   5  -2 561.653 79.0355   1
   1   5  -1 9264.84 383.779   3
   1   5  -1 9283.16 266.054   1
   1   5  -1 8701.91 321.465   2
   1   5   0 6523.68 304.081   3
   1   5   0 6483.31 252.255   2
   1   5   1 748.198 76.2711   1
   1   5   1 727.678 80.6569   2
   1   5   1 780.925 103.044   3
   1   5   2 2935.37 158.114   1
   1   5   2 2669.92 142.890   2
   1   5   2 2590.93 188.574   3
   1   5   3 3210.47 164.729   2
   1   5   3 3158.20 176.428   1
   1   5   3 3245.59 220.629   3
   1   5   4 15364.3 385.268   2
   1   5   4 15120.6 421.447   1
   1   5   5 42335.2 695.303   2
   1   5   5 41398.1 760.217   1
   1   5   5 41022.2 798.630   4
   1   5   6 15116.3 526.249   4
   1   5   6 15134.1 503.072   1
   1   5   7 5136.43 335.611   4
   1   5   8 2361.40 251.960   4
   1   5   9 2758.07 279.981   4
   1   5  10 8195.01 503.167   4
   1   5  11 644.689 168.930   4
   1   5  12 70.2073 80.3154   4
   1   6  -6 463.998 116.772   1
   1   6  -5 1141.59 180.531   2
   1   6  -5 979.685 148.212   1
   1   6  -4 4295.21 270.631   1
   1   6  -4 5030.75 347.722   2
   1   6  -3 307.584 83.8928   2
   1   6  -3 221.093 64.1474   1
   1   6  -2 1451.87 158.439   2
   1   6  -2 1461.63 130.360   1
   1   6  -1 12325.2 408.447   2
   1   6  -1 12382.8 336.971   1
   1   6   0 13173.2 385.075   2
   1   6   0 14319.1 494.678   3
   1   6   1 20314.4 426.386   1
   1   6   1 20422.7 438.554   2
   1   6   1 21136.0 571.050   3
   1   6   2 4185.26 190.956   2
   1   6   2 4250.34 200.461   1
   1   6   2 4564.49 282.919   3
   1   6   3 114.706 83.7081   3
   1   6   3 176.427 54.9293   1
   1   6   3 234.169 63.6662   2
   1   6   4 2126.41 148.953   2
   1   6   4 2291.18 171.962   1
   1   6   5 75.6869 46.3208   2
   1   6   5 88.2840 56.5961   1
   1   6   6 6209.10 351.069   4
   1   6   6 6314.71 332.904   1
   1   6   7 1088.24 171.568   4
   1   6   8 1080.43 183.706   4
   1   6   9 697.380 159.555   4
   1   6  10 128.783 98.8168   4
   1   6  11-86.1415 90.1369   4
   1   6  12 174.714 143.101   4
   1   7  -7 341.644 134.380   2
   1   7  -6 171.102 86.4523   2
   1   7  -5 796.220 162.941   2
   1   7  -4 500.046 119.564   2
   1   7  -4 706.435 117.764   1
   1   7  -3 3538.88 280.392   2
   1   7  -3 3452.71 225.333   1
   1   7  -2 67.9991 51.4592   2
   1   7  -2 84.4908 47.8645   1
   1   7  -1 3708.43 240.231   2
   1   7  -1 3707.58 198.556   1
   1   7   0 6038.37 277.014   2
   1   7   1 4138.08 211.758   1
   1   7   1 3908.27 208.346   2
   1   7   2 12725.4 352.533   2
   1   7   2 13311.5 386.352   1
   1   7   2 13877.8 515.618   3
   1   7   3 3.70530 33.7166   1
   1   7   3 58.9961 48.1222   2
   1   7   3-10.5105 73.7680   3
   1   7   4 3259.29 183.751   2
   1   7   4 3063.47 261.698   3
   1   7   4 3365.60 218.041   1
   1   7   5 3475.21 204.777   2
   1   7   5 3551.55 243.514   1
   1   7   6 3353.64 268.480   4
   1   7   7 2755.22 267.976   4
   1   7   8 521.771 140.376   4
   1   7   9 1165.03 192.627   4
   1   7  10 529.366 146.835   4
   1   7  11 70.9567 107.913   4
   1   7  12 484.045 177.330   4
   1   8  -6 35.9576 64.0173   2
   1   8  -5 74.8823 64.7496   2
   1   8  -4 298.256 101.598   2
   1   8  -3 689.547 138.436   2
   1   8  -2 358.549 76.6556   1
   1   8  -2 333.299 90.0926   2
   1   8  -1 1796.06 147.692   1
   1   8  -1 2158.25 193.197   2
   1   8   0 1586.20 152.525   2
   1   8   1 6227.36 278.824   1
   1   8   1 6055.96 274.699   2
   1   8   2 2409.81 177.339   1
   1   8   2 2167.86 156.578   2
   1   8   3 2072.66 154.238   2
   1   8   3 2276.01 181.402   1
   1   8   4-9.27246 52.5656   1
   1   8   4 10.5158 44.4168   2
   1   8   5 6294.85 276.685   2
   1   8   5 6723.36 342.185   1
   1   8   6 2187.67 228.332   4
   1   8   7 1764.41 221.153   4
   1   8   8 307.433 106.947   4
   1   8   9 923.805 183.552   4
   1   8  10 692.246 177.372   4
   1   8  11 206.137 118.854   4
   1   8  12-18.0702 98.4386   4
   1   9  -4 745.554 150.151   2
   1   9  -3 1003.63 166.441   2
   1   9  -2-3.20513 37.9224   2
   1   9  -1 72.1473 45.1028   2
   1   9   0 18.4722 35.7778   2
   1   9   1 18.8048 38.5866   2
   1   9   2 2974.90 194.169   2
   1   9   2 2889.29 209.692   1
   1   9   3 19.0509 39.8098   1
   1   9   3 41.5516 44.9135   2
   1   9   4 9.91171 40.0268   2
   1   9   4-60.8328 58.7477   1
   1   9   5 3048.10 195.504   2
   1   9   7 282.474 105.847   4
   1   9   8 1496.09 226.390   4
   1   9   9 237.287 131.759   4
   1   9  10 568.709 168.533   4
   1   9  11 314.518 143.098   4
   1  10   0 648.049 109.092   2
   1  10   1 637.587 101.406   2
   1  10   2 998.144 122.793   2
   1  10   3 1403.11 136.415   2
   1  10   4 1691.00 144.259   2
   1  10   5 3451.45 205.184   2
   1  10   7 1295.81 199.625   4
   1  10   8 853.302 189.221   4
   1  10   9 1548.01 241.014   4
   1  10  10 593.763 172.786   4
   1  10  11 267.611 147.565   4
   1  11   7 99.1143 86.5444   4
   1  11   8 203.169 100.304   4
   1  11   9 519.666 163.084   4
   1  11  10 344.002 146.882   4
   1  12   6 1380.87 217.621   4
   1  12   7 637.580 153.763   4
   1  12   8-91.7781 100.412   4
   1  12   9 69.7395 125.053   4
   1  13   6 278.007 126.260   4
   1  13   7-19.7650 87.1966   4
   1  13   8 57.8919 88.6548   4
   2 -12  -7-33.4827 125.535   3
   2 -12  -6 57.4757 105.326   3
   2 -12  -5 91.7810 113.486   3
   2 -12  -4 518.201 176.132   3
   2 -12  -3 2116.92 315.940   3
   2 -12  -2 696.418 192.864   3
   2 -11  -9 279.712 151.014   3
   2 -11  -8 976.603 230.522   3
   2 -11  -7 1186.94 245.710   3
   2 -11  -6 696.774 180.950   3
   2 -11  -5 556.927 167.542   3
   2 -11  -4 685.058 184.769   3
   2 -11  -3 1373.47 236.053   3
   2 -11  -2 4.57044 91.0435   3
   2 -11  -1 302.054 108.109   3
   2 -11   0 406.273 149.108   3
   2 -11   1 159.729 88.0559   3
   2 -10 -10 660.967 236.290   3
   2 -10  -9 218.403 163.597   3
   2 -10  -8 570.439 185.623   3
   2 -10  -7 419.490 151.077   3
   2 -10  -6 1840.11 268.753   3
   2 -10  -5 628.010 159.938   3
   2 -10  -4 3070.18 340.470   3
   2 -10  -3 4602.61 399.853   3
   2 -10  -2 2609.97 306.605   3
   2 -10  -1 1146.87 212.767   3
   2 -10   0 1719.07 257.372   3
   2 -10   1 469.742 148.991   3
   2 -10   2 1081.12 220.745   3
   2  -9 -10 338.626 185.824   3
   2  -9  -9 1300.25 258.898   3
   2  -9  -8 613.383 199.370   3
   2  -9  -7 4470.50 408.243   3
   2  -9  -6 2488.06 301.963   3
   2  -9  -5 2857.88 309.472   3
   2  -9  -4-82.2513 111.346   3
   2  -9  -3 9034.50 526.273   3
   2  -9  -2 3186.42 317.868   3
   2  -9  -1 4412.69 376.392   3
   2  -9   0 138.911 83.0684   3
   2  -9   1 55.8285 82.9148   3
   2  -9   2 628.350 163.516   3
   2  -9   3 789.390 188.912   3
   2  -9   4 277.127 138.225   3
   2  -8 -11 1670.69 320.447   3
   2  -8 -11 1799.46 291.445   1
   2  -8 -10 1744.14 283.716   1
   2  -8 -10 1691.92 302.029   3
   2  -8  -9 1682.27 283.716   3
   2  -8  -8 804.415 198.498   3
   2  -8  -7 25.0311 114.037   3
   2  -8  -6 915.098 81.0955   2
   2  -8  -6 1468.74 244.543   3
   2  -8  -5 1733.57 230.902   3
   2  -8  -4 3451.98 314.776   3
   2  -8  -3-104.763 121.461   3
   2  -8  -2 1325.29 201.238   3
   2  -8  -1 134.175 90.2160   3
   2  -8   0 2127.67 251.059   3
   2  -8   1 134.172 102.945   3
   2  -8   2 474.202 137.851   3
   2  -8   3 156.308 103.101   3
   2  -8   4 376.851 138.686   3
   2  -7 -11 951.067 261.055   3
   2  -7 -11 294.916 140.018   1
   2  -7 -10 902.110 236.902   3
   2  -7 -10 507.903 155.732   1
   2  -7  -9 2460.96 335.153   3
   2  -7  -9 2995.27 336.577   1
   2  -7  -8 3132.48 324.301   1
   2  -7  -8 3053.44 352.942   3
   2  -7  -7 3019.84 328.206   3
   2  -7  -6 926.331 95.4648   2
   2  -7  -6 852.827 179.584   3
   2  -7  -5 1770.41 102.860   2
   2  -7  -5 2099.71 259.733   3
   2  -7  -4 3221.84 288.498   3
   2  -7  -3 10768.8 499.649   3
   2  -7  -2 5118.47 349.092   3
   2  -7  -1 2312.21 238.911   3
   2  -7   0 3156.00 283.470   3
   2  -7   1 357.129 109.276   3
   2  -7   2 3194.84 294.315   3
   2  -7   3 789.883 169.977   3
   2  -7   4 1158.77 199.333   3
   2  -6 -11 709.849 200.297   1
   2  -6 -11 395.255 182.929   3
   2  -6 -10 102.916 106.475   1
   2  -6 -10 10.2425 142.319   3
   2  -6  -9 1133.51 256.579   3
   2  -6  -9 1169.82 212.773   1
   2  -6  -8 1108.39 224.890   3
   2  -6  -8 889.033 178.409   1
   2  -6  -7 1938.48 266.655   3
   2  -6  -7 1725.86 159.696   2
   2  -6  -7 1784.38 233.680   1
   2  -6  -6 767.195 161.300   1
   2  -6  -6 629.432 88.8877   2
   2  -6  -6 795.162 178.166   3
   2  -6  -5 51.6708 38.1390   2
   2  -6  -5 44.2164 92.7831   3
   2  -6  -4 723.746 59.2567   2
   2  -6  -4 1112.70 191.455   3
   2  -6  -3 8913.29 429.148   3
   2  -6  -2 4432.43 297.693   3
   2  -6  -1 4868.48 314.217   3
   2  -6   0 2051.69 211.904   3
   2  -6   1 4959.87 337.284   3
   2  -6   2 7697.12 424.907   3
   2  -6   3 6652.49 412.041   3
   2  -6   4 1053.93 181.304   3
   2  -5 -11 5.19116 88.8778   1
   2  -5 -10-25.8806 85.5242   1
   2  -5  -9 2398.05 292.810   1
   2  -5  -8 217.989 120.831   1
   2  -5  -7 86.4433 114.105   3
   2  -5  -7 77.1856 100.211   1
   2  -5  -6 324.885 131.893   3
   2  -5  -6 249.393 94.6363   1
   2  -5  -5 9777.70 449.076   1
   2  -5  -5 9088.14 470.485   3
   2  -5  -4 3438.37 143.578   2
   2  -5  -4 3502.79 287.751   3
   2  -5  -3 11308.3 176.612   2
   2  -5  -3 12800.5 479.759   3
   2  -5  -2 4306.86 274.733   3
   2  -5  -1 21919.9 609.267   3
   2  -5   0 6686.68 341.844   3
   2  -5   1 151.504 69.6852   3
   2  -5   2 10452.3 453.064   3
   2  -5   3 5872.16 357.949   3
   2  -5   4 2499.14 247.598   3
   2  -4 -11 286.568 121.729   1
   2  -4 -10 194.782 113.338   1
   2  -4  -9 375.338 131.904   1
   2  -4  -8 8852.64 507.620   1
   2  -4  -7 9854.13 500.386   1
   2  -4  -6 13499.1 550.714   1
   2  -4  -5 629.745 146.851   3
   2  -4  -5 665.702 111.375   4
   2  -4  -5 721.712 137.434   1
   2  -4  -4 15385.5 504.233   1
   2  -4  -4 15252.8 548.531   3
   2  -4  -3 2871.35 227.033   3
   2  -4  -3 2856.40 164.090   4
   2  -4  -2 44925.2 789.432   3
   2  -4  -1 10146.9 372.288   3
   2  -4   0 28785.6 633.096   3
   2  -4   1 72.8277 57.6673   3
   2  -4   2 6119.44 322.835   3
   2  -4   3 7105.67 363.231   3
   2  -4   4 4810.42 319.298   3
   2  -3 -11 1237.28 253.783   1
   2  -3 -10 115.937 95.4959   1
   2  -3  -9 2097.43 276.893   1
   2  -3  -8 608.582 150.593   1
   2  -3  -7 6507.38 403.424   1
   2  -3  -6 1497.13 183.406   1
   2  -3  -5 16032.3 543.120   1
   2  -3  -5 15561.7 474.292   4
   2  -3  -4 3623.37 241.742   1
   2  -3  -3 26414.0 494.060   4
   2  -3  -3 25790.7 585.243   1
   2  -3  -3 26634.6 640.150   3
   2  -3  -2 4505.18 173.536   4
   2  -3  -2 4459.45 124.161   2
   2  -3  -2 4528.51 241.770   3
   2  -3  -1 48847.2 725.161   3
   2  -3   0 4087.43 215.201   3
   2  -3   1 247.990 63.6421   3
   2  -3   2 1183.39 131.358   3
   2  -3   3 551.408 104.965   3
   2  -3   4 6702.17 349.615   3
   2  -2 -11 55.7723 85.7742   1
   2  -2 -10 1660.14 263.967   1
   2  -2  -9 2004.97 271.375   1
   2  -2  -8 1071.94 187.970   1
   2  -2  -7 1062.97 171.345   1
   2  -2  -6 2209.58 222.934   1
   2  -2  -5 21179.5 612.066   1
   2  -2  -4 4985.32 272.949   1
   2  -2  -3 20.5492 42.8206   1
   2  -2  -2 1271.50 127.226   3
   2  -2  -2 1103.35 91.6493   4
   2  -2  -1 14099.4 207.237   2
   2  -2  -1 13886.2 242.024   4
   2  -2  -1 14667.3 360.122   3
   2  -2   0 18727.7 235.290   2
   2  -2   0 18803.7 397.096   3
   2  -2   1 8583.97 280.382   3
   2  -2   2 14551.9 207.880   4
   2  -2   2 14639.3 390.497   3
   2  -2   3 13323.6 280.183   4
   2  -2   3 11994.2 391.148   3
   2  -2   4 3254.28 168.058   4
   2  -2   5 6968.95 286.900   4
   2  -2   6 5723.75 290.952   4
   2  -2   7 12922.9 485.809   4
   2  -2   8 145.103 64.7467   4
   2  -1 -11 872.303 212.425   1
   2  -1 -10 117.975 106.884   1
   2  -1  -9 1629.62 243.473   1
   2  -1  -8 2254.07 258.793   1
   2  -1  -7 1041.54 171.028   1
   2  -1  -6 326.543 105.037   1
   2  -1  -5 1371.51 160.385   1
   2  -1  -4 32959.0 673.903   1
   2  -1  -3 3486.86 197.886   1
   2  -1  -2 7060.72 252.441   1
   2  -1  -1 6849.51 177.857   2
   2  -1  -1 7427.97 236.198   3
   2  -1   0 53165.5 537.865   3
   2  -1   0 53696.6 445.191   2
   2  -1   1 80.7516 36.3439   2
   2  -1   1 113.346 39.2333   3
   2  -1   2 9901.04 184.721   4
   2  -1   2 9722.42 276.461   3
   2  -1   3 2442.81 121.234   4
   2  -1   3 2229.20 150.328   3
   2  -1   4 28484.4 490.951   4
   2  -1   5 71.3895 45.5494   4
   2  -1   6 3582.98 232.052   4
   2  -1   7 41.6021 53.9153   4
   2  -1   8 1530.83 186.081   4
   2  -1   9 962.614 161.844   4
   2  -1  10 1064.01 189.329   4
   2   0 -11 52.3422 102.955   1
   2   0 -10 1.16854 76.6653   1
   2   0  -9 799.338 181.407   1
   2   0  -8 1798.62 231.017   1
   2   0  -7 1074.58 168.197   1
   2   0  -6 183.489 96.8246   1
   2   0  -5 2019.54 185.058   1
   2   0  -4 2545.27 191.412   1
   2   0  -3 12883.3 367.679   1
   2   0  -2 2527.15 141.845   1
   2   0  -1 15539.4 310.391   2
   2   0   0 2259.95 106.197   2
   2   0   0 2374.54 95.2835   3
   2   0   1 18475.2 309.666   2
   2   0   1 18203.2 244.372   3
   2   0   2 62.1133 27.8627   3
   2   0   2 46.2384 47.1901   2
   2   0   3 8793.13 242.299   4
   2   0   4 18020.7 402.294   4
   2   0   5 4471.73 229.221   4
   2   0   6 3900.44 238.937   4
   2   0   7 1166.02 150.294   4
   2   0   8 0.62552 73.6974   4
   2   0   9 3492.91 304.256   4
   2   0  10 149.161 94.1447   4
   2   0  11 318.452 116.856   4
   2   0  12 102.540 72.3535   4
   2   1 -11 319.505 155.438   1
   2   1 -10 10.3113 74.1079   1
   2   1  -9 577.149 155.709   1
   2   1  -8 70.6048 66.7736   1
   2   1  -7 1430.72 189.512   1
   2   1  -6 615.867 124.098   1
   2   1  -5 2875.27 223.942   1
   2   1  -4 13951.0 469.950   4
   2   1  -4 14283.1 434.114   1
   2   1  -3 36628.2 608.225   1
   2   1  -2 70002.5 721.760   1
   2   1  -1 78.9740 31.5219   2
   2   1  -1 106.260 31.5348   1
   2   1   0 22407.4 368.862   2
   2   1   1 102798. 774.346   2
   2   1   2 343795. 1545.37   2
   2   1   3 70302.8 786.321   2
   2   1   4 14245.0 370.646   4
   2   1   5 4937.11 253.766   4
   2   1   6 5716.45 291.938   4
   2   1   7 9414.45 415.369   4
   2   1   8 58.0773 78.5300   4
   2   1   9 3478.36 297.816   4
   2   1  10 131.486 70.2696   4
   2   1  11 153.575 115.347   4
   2   1  12 104.662 89.4042   4
   2   2 -10-156.202 107.925   1
   2   2  -9-0.34881 74.2242   1
   2   2  -8 1649.92 227.709   1
   2   2  -7 1761.52 214.949   1
   2   2  -6 1189.86 163.978   1
   2   2  -5 184.093 50.1067   1
   2   2  -4 6038.07 323.051   4
   2   2  -4 6501.03 321.810   3
   2   2  -4 6392.61 290.552   1
   2   2  -3 57.2669 50.3948   4
   2   2  -3 4.19868 27.0505   1
   2   2  -3 30.4483 35.6347   3
   2   2  -2 35579.0 489.373   1
   2   2  -2 35237.4 578.104   3
   2   2  -1 18487.4 266.038   1
   2   2  -1 18291.8 422.973   2
   2   2  -1 18359.2 347.035   3
   2   2   0 1092.56 94.4035   2
   2   2   0 1073.33 66.9380   3
   2   2   1 14951.6 315.968   2
   2   2   1 12991.7 180.616   3
   2   2   2 31683.1 492.918   2
   2   2   2 33047.3 387.157   1
   2   2   3 12179.6 328.501   2
   2   2   3 12824.0 300.887   1
   2   2   4 14207.6 396.230   2
   2   2   4 14414.0 372.359   1
   2   2   5 286.071 81.0010   4
   2   2   6 83.2997 70.6846   4
   2   2   7 378.475 110.989   4
   2   2   8 22.9352 89.8653   4
   2   2   9 2130.26 235.276   4
   2   2  10 1685.34 232.081   4
   2   2  11 129.809 101.315   4
   2   2  12 195.985 125.406   4
   2   3  -9 57.9599 68.2834   1
   2   3  -8 868.731 167.764   1
   2   3  -7 1672.28 214.688   1
   2   3  -6 1213.17 165.864   1
   2   3  -5 1618.48 169.220   1
   2   3  -4 2406.43 181.464   1
   2   3  -3 3446.79 226.518   3
   2   3  -3 3325.92 239.220   4
   2   3  -3 3374.81 187.509   1
   2   3  -2 20484.4 534.390   2
   2   3  -2 20420.2 373.897   1
   2   3  -2 20922.4 491.760   3
   2   3  -1 8482.06 305.489   2
   2   3  -1 8360.26 178.759   1
   2   3  -1 8930.91 282.837   3
   2   3   0 3271.83 171.162   2
   2   3   0 3326.41 151.167   3
   2   3   1 33.0806 23.3039   2
   2   3   1 55.5693 31.3145   3
   2   3   2 17853.2 386.450   2
   2   3   2 17445.2 266.208   1
   2   3   3 101.650 45.1804   2
   2   3   3 25.2850 21.8466   1
   2   3   4 34799.4 612.655   2
   2   3   4 35362.1 576.882   1
   2   3   5 28.2788 38.2769   1
   2   3   5 57.0921 46.5376   2
   2   3   5 69.2629 50.8242   4
   2   3   6 5900.00 312.225   4
   2   3   6 5758.53 295.395   1
   2   3   7 47.2173 61.6302   4
   2   3   8 199.648 98.2939   4
   2   3   9 3882.23 314.837   4
   2   3  10 1300.83 203.175   4
   2   3  11 463.565 139.943   4
   2   3  12 594.918 165.803   4
   2   4  -8 464.464 133.916   1
   2   4  -7 3296.78 293.311   1
   2   4  -6 206.480 77.3976   1
   2   4  -5 3108.80 236.499   1
   2   4  -4 2430.65 185.551   1
   2   4  -3 7377.75 281.420   1
   2   4  -3 7066.11 353.068   3
   2   4  -3 7310.49 370.212   2
   2   4  -2 18668.8 538.621   2
   2   4  -2 18523.8 368.995   1
   2   4  -2 16812.4 494.917   3
   2   4  -1 7381.71 310.231   2
   2   4  -1 7150.03 177.522   1
   2   4  -1 7147.23 293.359   3
   2   4   0 93.9943 44.7350   3
   2   4   0 20.3010 33.5961   2
   2   4   1 8041.00 277.639   2
   2   4   1 8421.14 258.031   3
   2   4   2 65.3774 19.0933   1
   2   4   2 23.1010 40.6030   2
   2   4   2 35.8579 39.1887   3
   2   4   3 13436.5 360.015   2
   2   4   3 13387.2 302.284   1
   2   4   4 100.591 52.0985   2
   2   4   4 64.5429 26.4403   1
   2   4   5 29011.1 614.700   2
   2   4   5 28415.2 585.803   1
   2   4   6 128.116 66.9818   4
   2   4   6 208.226 60.7494   1
   2   4   7 4747.62 312.627   4
   2   4   8 2257.14 243.547   4
   2   4   9 7493.94 447.148   4
   2   4  10 959.103 178.467   4
   2   4  11 641.287 167.551   4
   2   4  12 106.795 98.0330   4
   2   5  -7-12.4406 60.5131   2
   2   5  -6 1263.96 207.654   2
   2   5  -6 1106.32 162.123   1
   2   5  -5-33.5975 78.8546   2
   2   5  -5 11.8327 38.1355   1
   2   5  -4-38.9041 70.5203   2
   2   5  -4-35.9653 39.9669   1
   2   5  -3 10764.1 464.798   2
   2   5  -3 9780.89 332.719   1
   2   5  -2 3926.82 261.715   2
   2   5  -2 4281.46 187.046   1
   2   5  -2 4752.29 294.508   3
   2   5  -1 1275.19 139.190   2
   2   5  -1 1233.63 144.345   3
   2   5  -1 1426.72 87.3455   1
   2   5   0 2064.61 156.880   2
   2   5   0 2247.02 171.881   3
   2   5   0 1999.99 82.4738   1
   2   5   1 390.509 38.5217   1
   2   5   1 381.766 69.3666   2
   2   5   1 381.039 76.0225   3
   2   5   2-56.2373 51.6656   2
   2   5   2 34.7323 21.4559   1
   2   5   2-24.2567 48.4827   3
   2   5   3 64.5686 47.0877   3
   2   5   3 119.513 34.4611   1
   2   5   3 139.331 58.0161   2
   2   5   4 12147.4 375.851   2
   2   5   4 12616.7 354.672   1
   2   5   5 4393.29 251.417   2
   2   5   5 4271.97 233.197   1
   2   5   6 29621.6 677.771   2
   2   5   6 29122.4 731.166   4
   2   5   6 28363.3 651.731   1
   2   5   7 1782.65 209.109   4
   2   5   8 229.703 100.559   4
   2   5   9 396.696 121.424   4
   2   5  10 3480.59 340.982   4
   2   5  11 1366.87 223.661   4
   2   5  12 648.016 170.484   4
   2   6  -7 385.595 139.106   2
   2   6  -6 7.75900 52.1450   2
   2   6  -5 1253.32 197.587   2
   2   6  -5 1237.26 157.944   1
   2   6  -4 1198.41 178.652   2
   2   6  -4 1163.09 138.056   1
   2   6  -3 2815.31 251.275   2
   2   6  -3 2589.08 176.582   1
   2   6  -2 2889.53 239.301   2
   2   6  -2 2858.40 160.112   1
   2   6  -1 5448.30 303.194   2
   2   6  -1 5221.14 314.798   3
   2   6  -1 5230.61 181.598   1
   2   6   0 1401.71 141.856   2
   2   6   0 1515.79 85.1007   1
   2   6   0 1367.67 153.881   3
   2   6   1 7509.91 306.343   2
   2   6   1 7404.42 195.829   1
   2   6   1 7999.70 340.236   3
   2   6   2 5503.20 248.752   2
   2   6   2 5924.45 192.905   1
   2   6   2 5772.41 294.747   3
   2   6   3 3190.77 194.512   2
   2   6   3 3419.86 167.733   1
   2   6   3 3310.09 220.398   3
   2   6   4 6791.77 290.578   2
   2   6   4 6925.46 270.992   1
   2   6   5 5106.54 265.183   2
   2   6   5 5224.39 264.237   1
   2   6   6 7850.07 355.508   2
   2   6   6 7480.15 342.954   1
   2   6   7 5142.75 344.955   4
   2   6   8 16.8651 68.5133   4
   2   6   9 1485.89 223.443   4
   2   6  10 1160.18 206.076   4
   2   6  11 1436.36 234.912   4
   2   6  12 1803.27 282.922   4
   2   7  -6-121.771 86.2270   2
   2   7  -5-82.6592 67.9923   2
   2   7  -4 1300.09 195.051   2
   2   7  -3 36.8406 55.7242   2
   2   7  -3 62.7648 32.2917   1
   2   7  -2 4725.35 316.517   2
   2   7  -2 4315.07 207.075   1
   2   7  -1 457.561 59.7674   1
   2   7  -1 497.435 101.065   2
   2   7   0 2509.21 133.326   1
   2   7   0 2499.83 197.844   2
   2   7   0 2631.91 126.213   1
   2   7   1 3861.31 231.859   2
   2   7   1 3691.95 158.017   1
   2   7   1 3808.09 269.459   3
   2   7   2 2336.20 133.069   1
   2   7   2 2174.82 170.448   2
   2   7   2 2158.71 200.965   3
   2   7   3 3333.02 208.579   2
   2   7   3 3159.95 170.852   1
   2   7   3 3293.72 254.133   3
   2   7   4 483.538 90.8803   2
   2   7   4 679.021 90.1522   1
   2   7   5 3715.11 236.645   2
   2   7   5 4071.76 238.417   1
   2   7   6 1128.23 139.856   1
   2   7   6 952.072 134.497   2
   2   7   7 3560.00 298.870   4
   2   7   8 3.59437 79.7288   4
   2   7   9 292.144 109.781   4
   2   7  10 388.314 134.213   4
   2   7  11 117.870 105.528   4
   2   7  12 439.058 157.451   4
   2   8  -5 246.953 110.771   2
   2   8  -4 34.3294 53.4503   2
   2   8  -3 91.0554 70.5216   2
   2   8  -2 2064.83 218.427   2
   2   8  -1 3944.97 284.493   2
   2   8  -1 3568.60 169.617   1
   2   8   0 358.635 52.3845   1
   2   8   0 281.085 74.3683   2
   2   8   1 3294.59 230.220   2
   2   8   1 3598.08 169.397   1
   2   8   2 1158.34 132.399   2
   2   8   2 1418.20 111.415   1
   2   8   3 3004.58 208.052   2
   2   8   3 2982.41 176.580   1
   2   8   4 1413.95 148.134   2
   2   8   4 1425.01 136.425   1
   2   8   5 863.437 122.813   1
   2   8   5 599.071 105.476   2
   2   8   6 3501.37 240.113   2
   2   8   6 3495.67 248.499   1
   2   8   7 876.910 158.885   4
   2   8   8 112.480 90.7998   4
   2   8   9 616.861 156.858   4
   2   8  10 683.925 157.233   4
   2   8  11 627.643 183.801   4
   2   8  12 587.966 188.195   4
   2   9  -4 647.114 156.047   2
   2   9  -3 150.998 87.4250   2
   2   9  -2 1595.13 199.044   2
   2   9  -1 570.311 110.864   2
   2   9   0 939.492 136.506   2
   2   9   1 49.9069 51.6327   2
   2   9   2 191.501 61.1679   2
   2   9   3 214.889 53.1183   1
   2   9   3 210.546 67.7178   2
   2   9   4 2115.25 179.682   2
   2   9   4 2023.73 167.325   1
   2   9   5 270.312 81.5782   2
   2   9   5 367.993 82.3652   1
   2   9   6 669.448 115.232   2
   2   9   7 1750.49 184.172   2
   2   9   8 915.215 175.945   4
   2   9   9 593.036 163.595   4
   2   9  10 8.18581 91.0034   4
   2   9  11 380.004 147.702   4
   2  10  -2 107.403 66.0832   2
   2  10  -1 409.574 97.9086   2
   2  10   0 85.4039 61.4733   2
   2  10   1 585.124 115.363   2
   2  10   2-96.4679 67.4084   2
   2  10   3 583.340 104.526   2
   2  10   4 104.965 53.8935   2
   2  10   5 267.630 76.1635   2
   2  10   6 223.469 81.4496   2
   2  10   7 26.4202 50.5011   2
   2  10   8 260.903 111.860   4
   2  10   9 712.540 180.069   4
   2  10  10 154.729 107.325   4
   2  10  11 151.348 112.240   4
   2  11   8 23.4280 90.6138   4
   2  11   9 717.319 163.765   4
   2  11  10 771.841 204.651   4
   2  12   8 327.574 136.308   4
   2  12   9 139.030 113.968   4
   2  13   7-89.6021 105.101   4
   2  13   8 338.939 146.259   4
   3 -12  -5 84.6162 113.719   3
   3 -12  -4 141.313 142.484   3
   3 -12  -3-83.6935 86.2939   3
   3 -11  -8-155.062 117.678   3
   3 -11  -7 356.184 175.779   3
   3 -11  -6 955.482 206.258   3
   3 -11  -5 1114.29 253.085   3
   3 -11  -4 2020.10 302.822   3
   3 -11  -3 48.1920 85.2211   3
   3 -11  -2 456.773 165.688   3
   3 -11  -1 937.690 212.185   3
   3 -11   0 903.453 206.557   3
   3 -10  -9 420.921 176.146   3
   3 -10  -8 548.232 194.146   3
   3 -10  -7 604.469 177.996   3
   3 -10  -6 1643.01 260.553   3
   3 -10  -5 2146.31 296.918   3
   3 -10  -4 4634.48 423.272   3
   3 -10  -3 987.882 201.010   3
   3 -10  -2 556.869 155.265   3
   3 -10  -1 1334.86 223.972   3
   3 -10   0 1035.16 220.213   3
   3 -10   1 1401.93 245.186   3
   3 -10   2 343.540 156.520   3
   3  -9 -10-21.8372 144.257   3
   3  -9  -9 698.441 203.677   3
   3  -9  -8 198.909 133.073   3
   3  -9  -7 1147.45 237.760   3
   3  -9  -6 1336.36 241.068   3
   3  -9  -5 5737.67 443.194   3
   3  -9  -4 4359.02 384.097   3
   3  -9  -3 158.080 113.261   3
   3  -9  -2 411.776 133.898   3
   3  -9  -1 2650.59 302.856   3
   3  -9   0 1689.70 234.892   3
   3  -9   1 786.224 185.453   3
   3  -9   2 791.489 177.462   3
   3  -9   3 946.006 211.347   3
   3  -9   4 538.405 177.882   3
   3  -8 -10 2095.31 350.011   3
   3  -8  -9 2043.59 327.085   3
   3  -8  -8 2617.16 336.781   3
   3  -8  -7 280.427 164.564   3
   3  -8  -6 1080.25 77.0995   2
   3  -8  -6 1083.21 207.158   3
   3  -8  -5 1226.21 209.221   3
   3  -8  -4 19532.8 752.934   3
   3  -8  -3 2382.86 260.347   3
   3  -8  -2 1395.68 216.116   3
   3  -8  -1 1295.60 208.204   3
   3  -8   0 974.524 172.883   3
   3  -8   1 3994.21 352.973   3
   3  -8   2 650.414 153.925   3
   3  -8   3 391.087 129.723   3
   3  -8   4 205.756 126.619   3
   3  -7 -11 453.011 173.283   1
   3  -7 -10 477.258 180.123   3
   3  -7 -10 935.501 217.448   1
   3  -7  -9 1888.83 312.924   3
   3  -7  -8 1572.14 277.243   3
   3  -7  -7 1059.77 220.423   3
   3  -7  -6 61.9043 39.9215   2
   3  -7  -6-70.7631 106.740   3
   3  -7  -5 582.315 54.6402   2
   3  -7  -5 494.508 52.7104   2
   3  -7  -5 718.232 171.925   3
   3  -7  -4 8883.01 484.257   3
   3  -7  -3 1022.16 166.985   3
   3  -7  -2 1456.66 212.811   3
   3  -7  -1 2282.57 249.306   3
   3  -7   0 119.958 97.3623   3
   3  -7   1 1073.54 172.461   3
   3  -7   2 2697.17 275.608   3
   3  -7   3-25.1877 77.4415   3
   3  -7   4-40.2625 78.9913   3
   3  -6 -11 227.698 177.264   3
   3  -6 -11 210.561 133.770   1
   3  -6 -10 359.103 198.506   3
   3  -6 -10 563.742 167.362   1
   3  -6  -9 1729.13 298.450   3
   3  -6  -9 1681.64 264.489   1
   3  -6  -8 309.542 136.036   3
   3  -6  -8 403.042 133.312   1
   3  -6  -7 2284.12 296.530   3
   3  -6  -6 247.226 132.555   3
   3  -6  -5 1087.76 95.7940   2
   3  -6  -5 1025.59 182.139   3
   3  -6  -4 2261.15 98.0899   2
   3  -6  -4 2221.19 96.6632   2
   3  -6  -4 2463.17 257.242   3
   3  -6  -3 9661.05 463.853   3
   3  -6  -2 14083.3 549.394   3
   3  -6  -1 19360.7 642.947   3
   3  -6   0 301.306 111.700   3
   3  -6   1 6407.11 386.819   3
   3  -6   2 4349.40 326.625   3
   3  -6   3 11259.1 538.306   3
   3  -6   4 1190.38 195.371   3
   3  -6   5 2369.77 286.703   3
   3  -5 -11 56.9519 121.715   1
   3  -5 -10 291.775 144.619   1
   3  -5  -9 382.692 116.978   1
   3  -5  -8 3217.77 324.125   1
   3  -5  -8 3459.50 377.429   3
   3  -5  -7 330.397 156.702   3
   3  -5  -7 318.481 108.021   1
   3  -5  -6 1285.13 226.768   3
   3  -5  -6 1250.46 189.502   1
   3  -5  -5 346.272 86.1890   4
   3  -5  -5 431.536 140.377   3
   3  -5  -4 19393.8 362.339   2
   3  -5  -4 19089.2 661.977   3
   3  -5  -3 690.603 49.2055   2
   3  -5  -3 887.407 168.598   3
   3  -5  -2 11950.6 464.222   3
   3  -5  -1 2288.11 211.426   3
   3  -5   0 4001.92 280.452   3
   3  -5   1 2641.15 232.136   3
   3  -5   2 10484.5 464.664   3
   3  -5   3 3240.67 272.364   3
   3  -5   4 3442.92 296.443   3
   3  -4 -11 233.171 156.010   1
   3  -4 -10 409.476 145.371   1
   3  -4  -9 166.763 98.8370   1
   3  -4  -8 182.529 101.308   1
   3  -4  -7 281.067 107.875   1
   3  -4  -6 119.447 137.370   3
   3  -4  -6 47.2940 72.4919   1
   3  -4  -5 1186.26 193.485   3
   3  -4  -5 1214.50 169.229   1
   3  -4  -5 1120.59 141.595   4
   3  -4  -4 3729.66 289.555   3
   3  -4  -3 8341.05 292.110   4
   3  -4  -3 8437.43 221.474   2
   3  -4  -3 8687.74 406.952   3
   3  -4  -2 2031.50 83.2704   2
   3  -4  -2 1935.05 123.567   4
   3  -4  -2 1841.70 177.077   3
   3  -4  -1 20931.6 212.200   2
   3  -4  -1 20764.1 562.347   3
   3  -4   0 47.5880 52.0332   3
   3  -4   1 8732.90 377.204   3
   3  -4   2 3571.10 254.140   3
   3  -4   3 8143.58 396.120   3
   3  -4   4 1935.85 211.143   3
   3  -3 -11 637.695 185.425   1
   3  -3 -10 817.857 193.020   1
   3  -3  -9 1381.97 225.530   1
   3  -3  -8 908.842 181.529   1
   3  -3  -7 13515.4 601.426   1
   3  -3  -6 18297.4 650.061   1
   3  -3  -5 14843.8 553.617   1
   3  -3  -4 9275.34 401.989   1
   3  -3  -4 8361.54 418.655   3
   3  -3  -3 12189.9 358.070   4
   3  -3  -3 13251.8 324.483   2
   3  -3  -3 12362.1 465.079   3
   3  -3  -2 59381.9 692.412   4
   3  -3  -2 61555.0 569.772   2
   3  -3  -2 60843.1 941.388   3
   3  -3  -1 52028.4 457.052   2
   3  -3  -1 52273.2 510.409   4
   3  -3  -1 50175.2 790.028   3
   3  -3   0 10443.3 214.035   2
   3  -3   0 10711.5 369.820   3
   3  -3   1 5499.40 269.277   3
   3  -3   2 2091.35 177.030   3
   3  -3   3 451.415 99.6962   3
   3  -3   4 136.095 67.5024   3
   3  -2 -11-44.2627 101.459   1
   3  -2 -10 1123.48 227.564   1
   3  -2  -9 1789.28 256.798   1
   3  -2  -8 1589.02 224.611   1
   3  -2  -7 409.417 116.032   1
   3  -2  -6 319.305 100.774   1
   3  -2  -5 3294.08 258.998   1
   3  -2  -4 18390.6 554.586   1
   3  -2  -4 18054.8 499.002   4
   3  -2  -3 1720.86 141.217   4
   3  -2  -3 1800.41 179.444   3
   3  -2  -2 353.276 54.5623   2
   3  -2  -2 243.796 49.1320   4
   3  -2  -2 257.982 77.7450   3
   3  -2  -1 5268.46 171.352   2
   3  -2  -1 4926.66 174.414   4
   3  -2  -1 5233.06 238.665   3
   3  -2   0 2030.27 107.192   2
   3  -2   0 1988.90 83.7188   4
   3  -2   0 2140.40 143.390   3
   3  -2   1 19811.2 353.514   2
   3  -2   1 19723.9 445.699   3
   3  -2   2 4936.69 104.429   4
   3  -2   2 5475.14 248.011   3
   3  -2   3 20898.3 306.437   4
   3  -2   3 19427.7 506.614   3
   3  -2   4 327.427 53.6689   4
   3  -2   4 305.014 84.7561   3
   3  -2   5 2700.21 168.764   4
   3  -2   6 2790.73 198.232   4
   3  -2   7 3068.55 226.619   4
   3  -2   8 835.168 138.466   4
   3  -2   9 107.274 60.1715   4
   3  -1 -11-9.43645 90.1553   1
   3  -1 -10 721.867 184.748   1
   3  -1  -9 942.465 196.916   1
   3  -1  -8 2634.43 287.004   1
   3  -1  -7 345.655 118.307   1
   3  -1  -6 2756.75 253.375   1
   3  -1  -5 429.471 89.0823   1
   3  -1  -4 9021.63 378.412   1
   3  -1  -3 590.641 99.5887   1
   3  -1  -2 10903.0 328.531   4
   3  -1  -2 10304.3 302.042   2
   3  -1  -1 1825.35 116.377   4
   3  -1  -1 1769.62 110.373   2
   3  -1  -1 1827.30 136.744   3
   3  -1   0 1336.44 93.1582   2
   3  -1   0 1268.80 99.4682   3
   3  -1   1 417.707 66.3494   2
   3  -1   1 236.673 53.0168   3
   3  -1   2 22947.9 432.744   2
   3  -1   2 22343.7 433.680   3
   3  -1   3 503.386 71.2606   2
   3  -1   3 650.852 63.7798   4
   3  -1   3 547.099 86.0195   3
   3  -1   4 1821.28 123.018   4
   3  -1   5 33.7223 45.0920   4
   3  -1   6 11711.7 399.722   4
   3  -1   7 1970.58 184.380   4
   3  -1   8 6782.14 375.863   4
   3  -1   9 369.369 109.617   4
   3  -1  10 588.733 143.476   4
   3  -1  11 151.444 79.7019   4
   3   0 -11 821.290 198.147   1
   3   0 -10 447.017 147.134   1
   3   0  -9 1222.23 217.685   1
   3   0  -8 647.411 152.905   1
   3   0  -7 4302.17 339.034   1
   3   0  -6 530.841 126.452   1
   3   0  -5 5808.73 330.844   1
   3   0  -4 24.2920 45.1636   1
   3   0  -3 11334.1 368.188   1
   3   0  -2 431.380 72.0614   2
   3   0  -2 352.967 62.7963   1
   3   0  -1 11640.7 310.361   2
   3   0   0 3668.21 168.152   2
   3   0   0 3732.49 143.704   3
   3   0   1 54654.5 647.046   2
   3   0   1 54973.1 488.215   3
   3   0   2 6073.11 229.005   2
   3   0   2 6294.69 187.369   3
   3   0   3 36721.8 621.219   2
   3   0   4 1213.01 125.450   2
   3   0   4 1310.40 112.132   4
   3   0   5 12492.0 385.373   4
   3   0   6 2353.39 187.125   4
   3   0   7 2696.16 219.336   4
   3   0   8 1163.57 162.045   4
   3   0   9 1482.39 194.768   4
   3   0  10 227.422 107.804   4
   3   0  11 96.4516 90.8897   4
   3   0  12-121.271 106.924   4
   3   1 -10 265.099 135.264   1
   3   1  -9 113.008 103.762   1
   3   1  -8 913.884 179.356   1
   3   1  -7 479.350 128.541   1
   3   1  -6 1548.68 186.546   1
   3   1  -5 164.223 66.5737   1
   3   1  -4 4881.41 266.924   1
   3   1  -3 1207.66 137.217   2
   3   1  -3 1201.41 121.436   1
   3   1  -2 54549.2 679.095   1
   3   1  -2 54750.2 812.673   2
   3   1  -1 21637.9 466.292   2
   3   1   0 610.297 79.7645   2
   3   1   1 543.239 73.1504   2
   3   1   2 53457.3 690.601   2
   3   1   3 90006.9 961.935   2
   3   1   4 3501.89 209.696   2
   3   1   5 39.5464 51.1170   4
   3   1   6 3026.52 213.891   4
   3   1   7 1655.00 178.854   4
   3   1   8 4569.92 307.860   4
   3   1   9 315.072 101.806   4
   3   1  10 10.1412 66.9761   4
   3   1  11-103.707 80.7664   4
   3   1  12 83.8921 91.4124   4
   3   2  -9 171.909 103.404   1
   3   2  -8 318.855 116.996   1
   3   2  -7 860.350 163.286   1
   3   2  -6 1261.42 170.171   1
   3   2  -5 4793.37 294.047   1
   3   2  -4 327.733 84.2555   1
   3   2  -4 267.901 80.0193   3
   3   2  -3 4295.14 279.804   4
   3   2  -3 4422.72 220.015   1
   3   2  -3 4273.13 276.693   2
   3   2  -3 4346.63 241.819   3
   3   2  -2 1161.16 100.697   1
   3   2  -2 1247.02 134.203   2
   3   2  -2 1072.36 106.440   3
   3   2  -1 22336.0 504.310   2
   3   2  -1 22437.2 389.181   3
   3   2   0 4949.93 227.683   2
   3   2   0 5047.64 137.587   3
   3   2   1 7435.91 270.172   2
   3   2   2 16687.8 403.146   2
   3   2   3 36249.6 624.569   2
   3   2   4 16428.7 458.144   2
   3   2   5 231.466 70.1042   2
   3   2   5 182.543 54.8140   4
   3   2   5 271.761 63.6062   1
   3   2   6 4177.34 259.726   4
   3   2   6 3940.10 248.554   1
   3   2   7 42.2817 62.3684   4
   3   2   8 10522.3 474.855   4
   3   2   9 972.631 162.685   4
   3   2  10 379.873 128.462   4
   3   2  11 35.0374 78.4508   4
   3   2  12 0.73463 85.8889   4
   3   3  -8 335.614 110.423   1
   3   3  -7 225.589 90.9329   1
   3   3  -6 1420.13 179.989   1
   3   3  -5 3191.93 242.367   1
   3   3  -4 4407.43 250.589   1
   3   3  -4 4423.81 316.245   2
   3   3  -3 3204.57 186.859   1
   3   3  -3 2823.35 210.511   3
   3   3  -2 4348.36 175.646   1
   3   3  -2 4772.22 278.538   2
   3   3  -2 4296.10 226.274   3
   3   3  -1 7451.80 317.378   2
   3   3  -1 6805.75 245.799   3
   3   3   0 15977.3 432.536   2
   3   3   0 15650.6 310.489   3
   3   3   1 3517.72 193.612   2
   3   3   1 3122.29 108.545   3
   3   3   2 1156.64 115.188   2
   3   3   3 6496.47 278.806   2
   3   3   4 1347.34 137.462   2
   3   3   4 1455.59 118.513   1
   3   3   5 9269.49 372.074   2
   3   3   5 9281.94 337.796   1
   3   3   6 401.067 97.3760   2
   3   3   6 580.590 114.874   4
   3   3   6 453.147 89.5052   1
   3   3   7 1488.62 177.268   4
   3   3   8 559.439 125.814   4
   3   3   9 3019.93 281.212   4
   3   3  10 308.110 125.116   4
   3   3  11 842.364 171.438   4
   3   3  12 90.1181 98.9280   4
   3   4  -8 453.743 151.416   2
   3   4  -7 528.611 151.533   2
   3   4  -7 736.096 151.698   1
   3   4  -6 1052.46 156.491   1
   3   4  -6 1401.73 218.563   2
   3   4  -5 2888.48 227.479   1
   3   4  -5 3139.36 305.060   2
   3   4  -4 649.940 133.541   2
   3   4  -4 670.104 103.178   1
   3   4  -3 5981.37 358.317   2
   3   4  -3 5891.47 247.034   1
   3   4  -3 5522.95 315.037   3
   3   4  -2 2230.21 123.534   1
   3   4  -2 2116.28 196.387   2
   3   4  -2 2268.82 184.243   3
   3   4  -1 5036.55 272.334   2
   3   4  -1 4743.39 236.700   3
   3   4   0 161.726 47.4951   3
   3   4   0 98.0485 35.7922   2
   3   4   1 5848.87 269.610   2
   3   4   1 5808.32 198.563   3
   3   4   2 1147.87 114.567   2
   3   4   2 1468.77 101.824   3
   3   4   3 12243.7 384.487   2
   3   4   3 12456.1 276.728   1
   3   4   4 211.413 67.9073   2
   3   4   4 156.489 45.1055   1
   3   4   5 2348.29 189.382   2
   3   4   5 2130.99 160.171   1
   3   4   6 3907.44 264.621   2
   3   4   6 3769.71 235.862   1
   3   4   7 72.2382 76.5770   4
   3   4   8 3595.17 299.320   4
   3   4   9 1894.78 233.930   4
   3   4  10 565.319 141.910   4
   3   4  11 266.923 117.559   4
   3   4  12 176.571 124.351   4
   3   5  -7 101.641 69.2599   2
   3   5  -6 305.288 109.760   2
   3   5  -5 825.788 160.021   2
   3   5  -5 674.266 116.381   1
   3   5  -4 1888.11 163.500   1
   3   5  -4 1918.71 233.654   2
   3   5  -3 887.730 153.216   2
   3   5  -3 850.177 95.9721   1
   3   5  -2 515.012 110.860   2
   3   5  -2 491.104 59.3484   1
   3   5  -2 586.533 114.628   3
   3   5  -1 48.8371 58.7726   3
   3   5  -1 23.2026 43.7501   2
   3   5   0 3392.27 231.677   2
   3   5   0 3820.23 219.602   3
   3   5   1 823.980 110.637   2
   3   5   1 718.873 90.5151   3
   3   5   2 7303.93 310.498   2
   3   5   2 7378.45 264.337   3
   3   5   3 3766.06 226.444   2
   3   5   3 3563.89 142.621   1
   3   5   4 9094.30 357.335   2
   3   5   4 9726.01 290.195   1
   3   5   5 1652.77 173.175   2
   3   5   5 1737.47 143.322   1
   3   5   6 6338.09 337.746   2
   3   5   6 6289.75 304.047   1
   3   5   7 76.0146 71.0965   2
   3   5   7 81.2068 65.3009   4
   3   5   8 4377.56 330.736   4
   3   5   9 1849.22 229.164   4
   3   5  10 1424.85 215.555   4
   3   5  11 1015.78 210.760   4
   3   5  12 194.091 106.320   4
   3   6  -6 16.2882 78.4409   2
   3   6  -5 864.414 174.404   2
   3   6  -4 46.8379 60.0456   2
   3   6  -3 1766.88 221.106   2
   3   6  -3 1352.09 117.739   1
   3   6  -2-2.07663 38.1048   2
   3   6  -2 20.4413 22.5899   1
   3   6  -1 315.348 94.3185   3
   3   6  -1 130.471 63.8872   2
   3   6   0 43.7213 62.0925   3
   3   6   0 245.027 68.7754   2
   3   6   1 1346.69 150.614   2
   3   6   1 1641.13 156.456   3
   3   6   2 194.300 76.4102   2
   3   6   2 95.9239 51.5107   3
   3   6   3 3868.64 238.814   2
   3   6   3 3723.54 145.028   1
   3   6   3 3605.97 222.503   3
   3   6   4 1297.55 156.260   2
   3   6   4 1055.70 97.1067   1
   3   6   5 8058.49 361.084   2
   3   6   5 7493.07 294.556   1
   3   6   6 5115.97 308.189   2
   3   6   6 5085.52 271.160   1
   3   6   7 1310.97 170.045   2
   3   6   8 5406.93 375.395   4
   3   6   9 2417.74 267.742   4
   3   6  10 884.037 173.353   4
   3   6  11 1602.75 251.831   4
   3   6  12 968.168 217.186   4
   3   7  -6-220.748 105.829   2
   3   7  -5-62.3432 74.7929   2
   3   7  -4 263.244 97.0440   2
   3   7  -3 3531.30 308.636   2
   3   7  -2 3954.85 306.355   2
   3   7  -1 238.655 78.5894   2
   3   7   0-128.266 84.6119   3
   3   7   0 7.94062 42.9977   2
   3   7   1 3148.15 231.196   2
   3   7   1 3306.37 235.852   3
   3   7   2 5155.33 284.072   2
   3   7   2 5014.14 285.580   3
   3   7   3 9371.09 383.854   2
   3   7   3 9558.91 230.558   1
   3   7   3 10083.5 398.370   3
   3   7   4 2094.87 191.190   2
   3   7   4 2036.23 133.731   1
   3   7   5 2482.09 213.337   2
   3   7   5 2210.06 161.514   1
   3   7   6 241.740 83.5964   2
   3   7   6 332.382 73.9494   1
   3   7   7 1015.53 153.838   2
   3   7   8 514.250 137.153   4
   3   7   9 1691.72 242.901   4
   3   7  10-17.2639 71.1194   4
   3   7  11-49.9602 98.7545   4
   3   7  12 462.333 171.525   4
   3   8  -5 359.676 135.061   2
   3   8  -4-17.1840 67.3816   2
   3   8  -3 921.175 170.965   2
   3   8  -2 1116.32 173.379   2
   3   8  -1 1687.06 203.214   2
   3   8   0 1704.14 190.657   2
   3   8   1 288.884 89.7066   2
   3   8   2 1513.26 165.331   2
   3   8   2 1596.09 190.349   3
   3   8   3 1507.83 165.898   2
   3   8   3 1396.24 89.9025   1
   3   8   3 1462.27 171.968   3
   3   8   4 4083.22 268.744   2
   3   8   4 4069.38 190.141   1
   3   8   4 4507.49 299.693   3
   3   8   5 1520.49 167.907   2
   3   8   5 1384.70 131.726   1
   3   8   6 3757.97 268.848   2
   3   8   6 3628.56 235.822   1
   3   8   7-20.8894 59.1576   2
   3   8   8 706.477 136.518   2
   3   8   8 922.390 181.336   4
   3   8   9 775.372 173.112   4
   3   8  10 612.940 167.235   4
   3   8  11 775.883 190.132   4
   3   8  12 346.321 157.786   4
   3   9  -4 62.6671 83.4631   2
   3   9  -3 366.101 121.085   2
   3   9  -2 290.514 95.1005   2
   3   9  -1 250.408 91.3821   2
   3   9   0 794.919 138.275   2
   3   9   1 559.947 115.942   2
   3   9   2 182.858 63.5225   2
   3   9   3 1521.68 174.633   2
   3   9   4 888.052 134.946   2
   3   9   5 2101.42 201.471   2
   3   9   6 838.778 133.496   2
   3   9   7 77.5254 73.6776   2
   3   9   8 390.827 97.2888   2
   3   9   8 376.639 123.252   4
   3   9   9 337.739 149.628   4
   3   9  10 362.378 131.715   4
   3   9  11 698.087 191.445   4
   3  10  -2 519.356 138.994   2
   3  10  -1 485.208 127.993   2
   3  10   0 82.0950 59.7008   2
   3  10   1 188.557 79.6676   2
   3  10   2-38.5750 65.5922   2
   3  10   3 14.3876 55.7608   2
   3  10   4 439.098 110.694   2
   3  10   5 396.614 98.5606   2
   3  10   6 197.573 86.0207   2
   3  10   7 915.140 152.858   2
   3  10   8-67.0193 69.2281   2
   3  10   9 388.539 137.023   4
   3  10  10 305.422 149.805   4
   3  10  11 531.356 192.546   4
   3  11   4 391.869 108.512   2
   3  11   5 755.718 132.557   2
   3  11   6 2655.59 236.998   2
   3  11   7 689.782 137.179   2
   3  11   9 118.092 96.7254   4
   3  11  10 126.115 124.590   4
   4 -11  -6 346.430 188.685   3
   4 -11  -5-118.913 97.0716   3
   4 -11  -4 116.079 117.542   3
   4 -11  -3-19.4666 98.0597   3
   4 -11  -2 851.049 212.300   3
   4 -11  -1 1717.26 284.944   3
   4 -10  -8 113.987 122.237   3
   4 -10  -7 747.257 202.790   3
   4 -10  -6 1007.11 224.160   3
   4 -10  -5 6951.86 531.145   3
   4 -10  -4 343.545 154.701   3
   4 -10  -3 1421.04 256.457   3
   4 -10  -2 724.116 180.296   3
   4 -10  -1 404.482 147.146   3
   4 -10   0 170.038 135.860   3
   4 -10   1 851.821 205.521   3
   4 -10   2 447.592 153.816   3
   4  -9  -9 163.135 181.049   3
   4  -9  -8 1307.97 277.167   3
   4  -9  -7 635.373 210.165   3
   4  -9  -6 1382.31 254.145   3
   4  -9  -5 2590.98 312.134   3
   4  -9  -4 3064.33 334.469   3
   4  -9  -3 507.596 165.514   3
   4  -9  -2 4077.91 381.125   3
   4  -9  -1 2951.57 326.910   3
   4  -9   0 3751.33 370.303   3
   4  -9   1 2323.51 297.861   3
   4  -9   2 738.936 185.308   3
   4  -9   3 581.933 179.799   3
   4  -8 -10 12.3584 141.448   3
   4  -8  -9-121.015 122.154   3
   4  -8  -8 1093.23 246.213   3
   4  -8  -7 1556.17 276.319   3
   4  -8  -6 2469.12 306.350   3
   4  -8  -5 10353.9 589.988   3
   4  -8  -4 1386.71 215.046   3
   4  -8  -3 1584.15 215.502   3
   4  -8  -2 328.420 132.006   3
   4  -8  -1 3922.42 351.770   3
   4  -8   0 2837.84 304.164   3
   4  -8   1 2676.80 296.574   3
   4  -8   2 187.062 110.474   3
   4  -8   3 88.8874 73.4987   3
   4  -8   4 106.107 111.043   3
   4  -8   5 252.556 136.283   3
   4  -7 -10 1917.59 340.782   3
   4  -7  -9 1899.63 322.161   3
   4  -7  -8 1097.58 249.839   3
   4  -7  -7 2765.02 196.156   2
   4  -7  -7 2749.02 339.266   3
   4  -7  -6 45.1335 26.2188   2
   4  -7  -6-35.4943 115.733   3
   4  -7  -5 2787.99 122.784   2
   4  -7  -5 2858.21 123.640   2
   4  -7  -5 3574.67 337.001   3
   4  -7  -4 176.419 109.981   3
   4  -7  -3 1259.06 194.356   3
   4  -7  -2 4239.99 351.191   3
   4  -7  -1 2369.17 257.336   3
   4  -7   0 157.229 88.0983   3
   4  -7   1 147.831 83.9445   3
   4  -7   2 3191.63 309.457   3
   4  -7   3 806.560 172.047   3
   4  -7   4 51.9379 90.3927   3
   4  -7   5 36.4438 89.6466   3
   4  -6 -10 65.6671 152.439   3
   4  -6 -10 308.484 130.774   1
   4  -6  -9 367.108 167.896   3
   4  -6  -8 843.468 227.475   3
   4  -6  -7 1802.20 273.608   3
   4  -6  -6 3781.90 216.454   2
   4  -6  -6 3856.47 368.940   3
   4  -6  -5 12671.6 330.400   2
   4  -6  -5 13315.6 628.124   3
   4  -6  -4 753.762 64.4791   2
   4  -6  -4 1016.47 188.742   3
   4  -6  -3 187.429 107.611   3
   4  -6  -2 3017.95 272.742   3
   4  -6  -1 13067.9 555.363   3
   4  -6   0 3164.96 274.792   3
   4  -6   1 5789.93 374.599   3
   4  -6   2 410.622 116.280   3
   4  -6   3 4108.20 336.123   3
   4  -6   4 1150.22 198.169   3
   4  -6   5 390.002 137.451   3
   4  -5 -10 1743.85 328.575   3
   4  -5 -10 1897.75 295.439   1
   4  -5  -9 147.625 139.220   3
   4  -5  -9 114.085 99.4702   1
   4  -5  -8 731.449 193.552   3
   4  -5  -8 775.479 180.974   1
   4  -5  -7 479.560 168.744   3
   4  -5  -6 1679.79 250.463   3
   4  -5  -5 6412.74 268.147   2
   4  -5  -5 6332.67 424.774   3
   4  -5  -4 1433.31 108.956   2
   4  -5  -4 1360.14 142.328   4
   4  -5  -4 1404.98 205.490   3
   4  -5  -3 634.338 60.8542   2
   4  -5  -3 614.685 87.3506   4
   4  -5  -3 759.301 151.793   3
   4  -5  -2 2973.20 101.761   2
   4  -5  -2 3090.74 248.818   3
   4  -5  -1 813.710 139.400   3
   4  -5   0 13034.7 512.280   3
   4  -5   1 1397.72 178.539   3
   4  -5   2 7405.45 403.745   3
   4  -5   3 1781.16 212.205   3
   4  -5   4 7779.45 454.264   3
   4  -5   5 643.054 151.715   3
   4  -4 -10-99.9016 105.801   1
   4  -4  -9 526.919 166.608   1
   4  -4  -8 34.8029 76.2430   1
   4  -4  -7 2865.08 297.692   1
   4  -4  -7 2670.67 318.967   3
   4  -4  -6 1792.19 251.341   3
   4  -4  -5 10279.9 373.285   2
   4  -4  -5 10306.5 528.930   3
   4  -4  -4 914.235 100.469   2
   4  -4  -4 602.453 100.301   4
   4  -4  -4 767.497 168.294   3
   4  -4  -3 8228.88 305.304   4
   4  -4  -3 8405.68 256.353   2
   4  -4  -3 8233.13 411.614   3
   4  -4  -2 4759.58 166.353   2
   4  -4  -2 4598.61 198.995   4
   4  -4  -2 4431.34 285.998   3
   4  -4  -1 1537.62 93.0057   2
   4  -4  -1 1591.27 94.4512   4
   4  -4  -1 1432.91 154.155   3
   4  -4   0 10821.9 244.840   2
   4  -4   0 10936.7 432.649   3
   4  -4   1 18623.6 571.517   3
   4  -4   2 2403.62 215.790   3
   4  -4   3 2752.63 236.563   3
   4  -4   4 2015.07 215.734   3
   4  -4   5 2342.46 245.548   3
   4  -3 -11 444.343 196.112   1
   4  -3 -10 2696.55 346.160   1
   4  -3  -9 618.388 156.077   1
   4  -3  -8 526.327 144.132   1
   4  -3  -7 72.5478 79.7013   1
   4  -3  -6 9345.09 486.744   1
   4  -3  -5 22783.6 766.688   3
   4  -3  -4 23284.9 585.392   4
   4  -3  -4 22445.1 524.913   2
   4  -3  -4 23082.2 717.641   3
   4  -3  -3 205.048 51.7994   2
   4  -3  -3 225.927 99.5935   3
   4  -3  -2 7171.75 259.156   4
   4  -3  -2 7182.43 232.071   2
   4  -3  -2 7550.79 351.962   3
   4  -3  -1 3833.76 159.537   2
   4  -3  -1 4090.90 164.881   4
   4  -3  -1 3682.83 230.185   3
   4  -3   0 11075.0 272.277   2
   4  -3   0 11226.0 210.366   4
   4  -3   0 10779.2 388.294   3
   4  -3   1 22309.9 424.897   2
   4  -3   1 22209.9 566.190   3
   4  -3   2 5366.22 289.144   3
   4  -3   3 2523.86 211.425   3
   4  -3   4 1098.18 155.802   3
   4  -2 -11 331.458 151.867   1
   4  -2 -10 575.680 169.811   1
   4  -2  -9 634.000 155.064   1
   4  -2  -8 1417.54 219.807   1
   4  -2  -7 804.087 165.821   1
   4  -2  -6 367.673 118.566   1
   4  -2  -5 11274.8 492.986   1
   4  -2  -4 5183.26 288.325   4
   4  -2  -4 4596.74 257.498   2
   4  -2  -3 15991.6 427.178   2
   4  -2  -3 16151.9 539.724   3
   4  -2  -2 6777.62 266.175   4
   4  -2  -2 6667.10 247.944   2
   4  -2  -2 6920.83 323.169   3
   4  -2  -1 175.702 41.8052   4
   4  -2  -1 251.463 52.7230   2
   4  -2  -1 337.447 83.3309   3
   4  -2   0 10145.0 244.102   4
   4  -2   0 10239.1 284.171   2
   4  -2   0 9979.77 332.086   3
   4  -2   1 7468.62 254.491   2
   4  -2   1 7512.77 292.467   3
   4  -2   2 11686.2 340.522   2
   4  -2   2 11516.3 376.001   3
   4  -2   3 1198.33 73.4984   4
   4  -2   3 1017.81 119.735   3
   4  -2   4 878.292 80.2451   4
   4  -2   4 830.079 126.846   3
   4  -2   5 19.5927 36.5785   4
   4  -2   6 1507.15 138.626   4
   4  -2   7 148.154 55.9268   4
   4  -2   8-18.5089 53.2521   4
   4  -2   9 33.9563 50.0511   4
   4  -1 -10 47.4037 103.893   1
   4  -1  -9 892.073 181.915   1
   4  -1  -8 2183.68 271.019   1
   4  -1  -7 1845.15 237.244   1
   4  -1  -6-33.9246 61.3885   1
   4  -1  -5 1825.80 201.557   1
   4  -1  -4 11430.3 446.998   1
   4  -1  -4 11014.5 419.322   2
   4  -1  -3 5923.17 297.045   4
   4  -1  -3 5895.10 280.573   2
   4  -1  -2 12906.5 396.432   4
   4  -1  -2 12947.5 375.342   2
   4  -1  -2 12511.0 417.769   3
   4  -1  -1 15556.7 388.699   4
   4  -1  -1 14864.5 374.547   2
   4  -1  -1 15384.3 404.306   3
   4  -1   0 483.143 68.7247   2
   4  -1   0 438.181 66.6425   3
   4  -1   1 6043.21 238.566   2
   4  -1   1 6411.32 233.501   3
   4  -1   2 11159.3 338.804   2
   4  -1   2 11082.7 322.529   3
   4  -1   3 9440.66 336.208   2
   4  -1   3 9347.39 319.152   3
   4  -1   4 5751.49 214.363   4
   4  -1   4 5236.67 267.398   3
   4  -1   5 5118.14 232.299   4
   4  -1   6 1333.45 137.712   4
   4  -1   7 4278.28 258.484   4
   4  -1   8 5803.52 334.335   4
   4  -1   9 4196.31 310.955   4
   4  -1  10 436.277 114.404   4
   4   0 -10 1111.27 230.242   1
   4   0  -9 761.685 180.799   1
   4   0  -8 252.149 114.765   1
   4   0  -7 1324.41 194.202   1
   4   0  -6 695.995 134.450   1
   4   0  -5 2793.74 235.551   1
   4   0  -5 2283.33 225.874   2
   4   0  -4 10.1511 36.9613   2
   4   0  -4 181.090 75.6955   1
   4   0  -3 6155.56 305.984   2
   4   0  -2 5199.59 257.667   2
   4   0  -1 2138.04 155.364   2
   4   0  -1 2316.33 152.438   3
   4   0   0 4684.46 215.842   2
   4   0   0 4754.11 176.690   3
   4   0   1 9888.87 314.490   2
   4   0   1 10138.4 239.410   3
   4   0   2 4858.02 231.615   2
   4   0   2 4941.40 179.278   3
   4   0   3 1356.32 132.830   2
   4   0   3 1530.34 116.597   3
   4   0   4 532.410 97.8889   2
   4   0   5 5303.53 248.239   4
   4   0   6 2295.35 179.136   4
   4   0   7 997.680 135.477   4
   4   0   8 61.7767 64.9487   4
   4   0   9 914.954 146.998   4
   4   0  10 14.3671 80.6236   4
   4   0  11 277.683 116.412   4
   4   0  12 225.012 126.859   4
   4   1 -10 220.323 111.609   1
   4   1  -9 77.1097 80.9778   1
   4   1  -8 1010.73 193.096   1
   4   1  -7 411.415 114.849   1
   4   1  -6 753.242 138.366   1
   4   1  -6 690.941 144.746   2
   4   1  -5 699.669 122.734   1
   4   1  -5 562.003 126.117   2
   4   1  -4 619.335 116.508   2
   4   1  -4 728.411 119.075   1
   4   1  -3 308.364 78.1018   2
   4   1  -3 299.425 70.7790   1
   4   1  -2 13519.2 444.345   2
   4   1  -1 75.4301 43.8020   2
   4   1   0 7893.88 302.566   2
   4   1   0 7396.56 196.475   3
   4   1   1 189.715 64.5146   2
   4   1   1 103.510 20.4327   3
   4   1   2 21773.4 507.528   2
   4   1   3 334.468 74.1824   2
   4   1   4 5751.43 287.993   2
   4   1   5 3251.42 237.767   2
   4   1   5 3139.77 198.170   4
   4   1   6 2807.38 208.455   4
   4   1   7 2765.04 228.000   4
   4   1   8 1586.66 188.819   4
   4   1   9 686.411 133.944   4
   4   1  10 345.424 104.788   4
   4   1  11 22.1043 67.5344   4
   4   1  12 65.0290 82.0896   4
   4   2  -8-31.2157 68.4457   1
   4   2  -8-1.50003 68.5639   2
   4   2  -7 504.093 124.043   1
   4   2  -7 406.865 125.576   2
   4   2  -6-6.92849 51.4951   1
   4   2  -6 22.4886 61.1622   2
   4   2  -5 1271.54 158.780   1
   4   2  -5 1245.72 191.994   2
   4   2  -4 587.044 99.5033   1
   4   2  -4 793.314 139.410   2
   4   2  -3 1875.41 151.524   1
   4   2  -3 2030.95 203.314   2
   4   2  -2 19965.1 565.115   2
   4   2  -1 11839.0 403.225   2
   4   2   0 18484.0 487.753   2
   4   2   0 17822.9 264.461   3
   4   2   1 8916.68 327.546   2
   4   2   2 26983.5 579.348   2
   4   2   3 26622.2 588.249   2
   4   2   4 36230.2 718.329   2
   4   2   5 16124.0 514.569   2
   4   2   6 2667.77 229.710   2
   4   2   6 2707.32 208.468   4
   4   2   7 1455.28 173.712   4
   4   2   8 3361.41 269.018   4
   4   2   9 1184.87 175.795   4
   4   2  10 579.410 137.748   4
   4   2  11 7.19188 75.2851   4
   4   2  12-25.8935 101.864   4
   4   2  13-83.2476 99.5006   4
   4   3  -8-19.2768 87.9415   2
   4   3  -7 134.260 80.2418   2
   4   3  -7 569.984 128.767   1
   4   3  -6 1401.92 218.637   2
   4   3  -6 1534.59 188.937   1
   4   3  -5 1684.36 180.098   1
   4   3  -5 1888.05 238.632   2
   4   3  -4 1436.37 148.023   1
   4   3  -4 1487.62 198.009   2
   4   3  -3 1838.02 143.285   1
   4   3  -3 2018.21 207.849   2
   4   3  -3 1960.41 178.826   3
   4   3  -2 513.181 107.132   2
   4   3  -2 588.352 89.8554   3
   4   3  -1 813.621 122.102   2
   4   3  -1 655.043 80.2924   3
   4   3   0 1111.86 129.711   2
   4   3   0 1238.36 85.3410   3
   4   3   1 20150.3 518.890   2
   4   3   2 668.711 92.5809   2
   4   3   3 8066.36 339.824   2
   4   3   4 10710.3 405.519   2
   4   3   5 6559.38 330.285   2
   4   3   6 371.859 110.109   2
   4   3   7 1700.87 189.583   4
   4   3   8 406.814 118.862   4
   4   3   9 649.225 147.971   4
   4   3  10 79.5225 81.0710   4
   4   3  11 489.945 143.210   4
   4   3  12 37.9612 82.6536   4
   4   3  13 397.954 155.461   4
   4   4  -7 428.782 150.800   2
   4   4  -6 579.788 151.996   2
   4   4  -5 1481.95 162.285   1
   4   4  -5 1901.17 239.607   2
   4   4  -4 1948.77 166.520   1
   4   4  -4 2419.03 254.232   2
   4   4  -3 1043.42 104.581   1
   4   4  -3 1487.62 188.010   2
   4   4  -2 6175.11 349.116   2
   4   4  -2 6456.70 304.752   3
   4   4  -1 440.363 72.6808   3
   4   4  -1 587.152 114.269   2
   4   4   0 4765.83 277.918   2
   4   4   0 4562.24 193.517   3
   4   4   1 736.092 65.3057   3
   4   4   1 798.612 116.710   2
   4   4   2 26406.2 611.506   2
   4   4   3 890.822 118.544   2
   4   4   4 2235.64 194.874   2
   4   4   5 397.426 101.151   2
   4   4   6 2288.18 217.691   2
   4   4   6 2234.24 183.067   1
   4   4   7 2572.74 239.877   2
   4   4   7 2734.32 245.275   4
   4   4   8 1651.10 208.665   4
   4   4   9-13.8261 76.8275   4
   4   4  10 811.106 160.998   4
   4   4  11 314.301 126.305   4
   4   4  12 26.7933 88.7587   4
   4   5  -6 731.221 171.664   2
   4   5  -5 640.372 157.206   2
   4   5  -4 1295.21 202.344   2
   4   5  -4 1178.85 124.797   1
   4   5  -3 1158.89 177.369   2
   4   5  -3 1008.22 96.0754   1
   4   5  -2 3843.03 292.633   2
   4   5  -2 3782.89 259.363   3
   4   5  -1 2004.95 200.609   2
   4   5  -1 2095.15 178.393   3
   4   5   0 944.717 109.044   3
   4   5   0 889.191 127.567   2
   4   5   1 1957.41 184.855   2
   4   5   1 1731.59 122.142   3
   4   5   2 5534.64 293.338   2
   4   5   2 5487.76 198.898   3
   4   5   3 2834.59 218.107   2
   4   5   4 169.840 84.3024   2
   4   5   5 1014.43 146.793   2
   4   5   5 1139.14 115.740   1
   4   5   6 165.961 93.5807   2
   4   5   6 45.8365 46.2088   1
   4   5   7 4827.36 329.640   2
   4   5   8 2483.74 251.136   4
   4   5   9 409.587 125.779   4
   4   5  10 254.239 112.459   4
   4   5  11 123.935 90.7019   4
   4   5  12 413.556 153.761   4
   4   6  -6-103.331 99.5785   2
   4   6  -5 7.58526 72.3492   2
   4   6  -4 447.648 136.589   2
   4   6  -3 177.337 88.1269   2
   4   6  -2 243.629 94.8511   2
   4   6  -1 1425.34 176.533   2
   4   6  -1 1112.21 142.989   3
   4   6   0 25.1457 65.1023   3
   4   6   0 17.9069 43.4625   2
   4   6   1 786.767 126.816   2
   4   6   1 660.194 97.9155   3
   4   6   2 4217.16 274.492   2
   4   6   2 3992.31 208.555   3
   4   6   3 319.407 85.8842   2
   4   6   4 354.812 98.6700   2
   4   6   5 1320.66 161.852   2
   4   6   5 1594.15 133.939   1
   4   6   6 17.8888 45.7938   1
   4   6   6-60.0505 69.1139   2
   4   6   7 5190.93 340.840   2
   4   6   8 5096.65 359.701   2
   4   6   8 4921.48 358.843   4
   4   6   9 1832.74 242.653   4
   4   6  10 357.667 124.028   4
   4   6  11 204.214 116.263   4
   4   6  12 815.494 201.208   4
   4   7  -5 207.575 110.375   2
   4   7  -4 96.6170 93.1706   2
   4   7  -3 738.605 159.059   2
   4   7  -2 3193.81 296.165   2
   4   7  -1 2420.38 247.751   2
   4   7   0 416.837 92.1594   3
   4   7   0 467.453 112.955   2
   4   7   1 334.348 91.0405   2
   4   7   1 354.146 89.4999   3
   4   7   2 4385.28 289.194   2
   4   7   2 3908.41 239.609   3
   4   7   3 5279.49 318.084   2
   4   7   3 5206.17 270.590   3
   4   7   4 2521.10 231.460   2
   4   7   4 2670.08 132.816   1
   4   7   5 2173.66 211.904   2
   4   7   5 2480.50 161.121   1
   4   7   6-31.9643 42.6263   1
   4   7   6 119.693 79.7387   2
   4   7   7 1689.69 206.458   2
   4   7   8 1756.70 222.219   2
   4   7   9 1067.89 192.042   4
   4   7  10 433.206 134.739   4
   4   7  11 22.9732 78.4755   4
   4   7  12 66.7809 110.690   4
   4   8  -4 362.658 128.946   2
   4   8  -3-168.257 87.1754   2
   4   8  -2 475.580 126.159   2
   4   8  -1 292.920 101.197   2
   4   8   0 962.261 160.384   2
   4   8   1-16.8749 44.2612   2
   4   8   2 2516.03 229.060   2
   4   8   2 2117.79 196.429   3
   4   8   3 1063.09 139.929   3
   4   8   3 1351.09 169.415   2
   4   8   4 2440.40 236.141   2
   4   8   4 2263.53 110.228   1
   4   8   5 903.537 143.882   2
   4   8   5 864.004 92.1839   1
   4   8   6 76.8065 68.6622   2
   4   8   6-20.0123 31.9106   1
   4   8   7 193.222 94.4294   2
   4   8   8 1378.10 197.524   2
   4   8   9 151.439 100.323   4
   4   8  10 400.695 150.459   4
   4   8  11-66.2802 93.7966   4
   4   9  -3 230.781 103.418   2
   4   9  -2-113.406 92.1157   2
   4   9  -1 442.363 122.488   2
   4   9   0 679.666 146.667   2
   4   9   1 818.786 145.057   2
   4   9   2 75.3308 71.5720   2
   4   9   3 1135.97 162.910   2
   4   9   4 1036.88 165.260   2
   4   9   5 2448.84 237.039   2
   4   9   6 79.4585 72.2271   2
   4   9   7 503.556 129.657   2
   4   9   8 1077.76 180.664   2
   4   9   9 534.515 158.539   4
   4   9  10 112.117 88.4189   4
   4   9  11 469.405 181.659   4
   4  10  -2 265.780 108.148   2
   4  10  -1 321.978 109.640   2
   4  10   0 282.192 116.205   2
   4  10   1 31.0018 65.7035   2
   4  10   2 123.182 61.4084   2
   4  10   3 29.5558 62.7889   2
   4  10   4 172.013 83.7696   2
   4  10   5 610.098 134.934   2
   4  10   6-2.03372 58.9289   2
   4  10   7-41.7866 58.6198   2
   4  10   8 204.112 94.5865   2
   4  10   9 318.215 109.019   2
   4  10   9 210.640 92.5361   4
   4  10  10 800.561 208.175   4
   4  11   1-177.768 117.425   2
   4  11   2 158.537 80.6392   2
   4  11   3 153.983 90.9309   2
   4  11   4 130.760 83.3946   2
   4  11   5 373.160 116.490   2
   4  11   6 54.3556 65.0663   2
   4  11   7 18.8642 69.6150   2
   4  11   8 49.1260 78.6605   2
   4  11   9-70.9125 112.926   4
   5 -11  -4-65.5197 131.988   3
   5 -11  -3 104.926 122.408   3
   5 -10  -7 560.343 206.383   3
   5 -10  -6 167.512 110.461   3
   5 -10  -5 680.713 197.232   3
   5 -10  -4 1608.52 269.662   3
   5 -10  -3 1210.04 231.104   3
   5 -10  -2 1436.89 252.996   3
   5 -10  -1 798.637 193.528   3
   5 -10   0 562.083 172.700   3
   5 -10   1 647.255 182.304   3
   5  -9  -8 2251.24 345.310   3
   5  -9  -7 282.022 168.871   3
   5  -9  -6 1712.34 270.930   3
   5  -9  -5 401.519 162.469   3
   5  -9  -4 2563.93 311.096   3
   5  -9  -3 2164.42 299.668   3
   5  -9  -2 2678.60 319.717   3
   5  -9  -1 2065.77 274.878   3
   5  -9   0 1081.72 215.410   3
   5  -9   1 288.997 105.654   3
   5  -9   2 483.869 168.165   3
   5  -9   3 8.47158 98.0749   3
   5  -8  -9 215.177 173.601   3
   5  -8  -8 427.771 192.019   3
   5  -8  -7 2263.08 318.983   3
   5  -8  -6 303.502 152.363   3
   5  -8  -5 879.918 197.118   3
   5  -8  -4 792.315 179.840   3
   5  -8  -3 5762.24 435.860   3
   5  -8  -2 1847.07 257.690   3
   5  -8  -1 341.159 121.494   3
   5  -8   0 2846.70 309.524   3
   5  -8   1 1305.79 228.081   3
   5  -8   2 1219.64 217.420   3
   5  -8   3 267.637 121.408   3
   5  -8   4 289.123 116.693   3
   5  -7  -9 2281.74 354.266   3
   5  -7  -8 2746.98 358.967   3
   5  -7  -7 2465.12 338.850   3
   5  -7  -6 7483.69 274.349   2
   5  -7  -6 7641.56 538.044   3
   5  -7  -5 81.1514 28.1040   2
   5  -7  -5 216.492 124.784   3
   5  -7  -4 343.857 111.690   3
   5  -7  -3 923.906 175.246   3
   5  -7  -2 9642.86 530.262   3
   5  -7  -1 4861.86 371.548   3
   5  -7   0 1195.15 194.924   3
   5  -7   1 969.987 182.711   3
   5  -7   2 459.202 130.822   3
   5  -7   3 1698.51 247.047   3
   5  -7   4 122.619 86.0310   3
   5  -7   5 906.509 197.192   3
   5  -6 -10 638.959 209.327   3
   5  -6 -10 250.367 94.2627   2
   5  -6  -9 463.927 201.223   3
   5  -6  -9 182.427 81.1990   2
   5  -6  -8 1822.64 196.816   2
   5  -6  -8 1832.98 295.201   3
   5  -6  -7 586.192 105.242   2
   5  -6  -7 589.942 167.770   3
   5  -6  -6 5967.91 282.652   2
   5  -6  -6 6344.04 481.259   3
   5  -6  -5 836.660 95.7384   2
   5  -6  -5 1034.72 217.498   3
   5  -6  -4 220.883 65.3289   4
   5  -6  -4 286.386 49.6177   2
   5  -6  -3 1529.35 84.6280   2
   5  -6  -3 1519.36 213.023   3
   5  -6  -2 168.436 78.7975   3
   5  -6  -1 1976.18 237.721   3
   5  -6   0 96.9100 106.675   3
   5  -6   1 567.347 125.798   3
   5  -6   2 101.191 77.8897   3
   5  -6   3 114.624 89.1787   3
   5  -6   4 311.630 116.902   3
   5  -6   5 502.058 152.797   3
   5  -5 -11 225.961 102.955   2
   5  -5 -10 230.548 153.069   3
   5  -5 -10 97.9532 74.8391   2
   5  -5  -9 205.158 163.957   3
   5  -5  -9 112.841 68.8977   2
   5  -5  -8 274.417 167.630   3
   5  -5  -8 248.525 79.4621   2
   5  -5  -7 527.386 175.443   3
   5  -5  -7 794.148 123.418   2
   5  -5  -6 3719.89 246.092   2
   5  -5  -6 3566.60 364.859   3
   5  -5  -5 2771.82 186.534   2
   5  -5  -5 3123.80 313.300   3
   5  -5  -4 601.416 108.123   4
   5  -5  -4 534.522 70.0534   2
   5  -5  -3 126.602 45.2709   2
   5  -5  -3 109.109 93.1105   3
   5  -5  -2 2619.70 130.298   2
   5  -5  -2 2552.95 152.438   4
   5  -5  -2 2552.72 238.891   3
   5  -5  -1 4753.92 163.427   2
   5  -5  -1 4593.41 319.702   3
   5  -5   0 32253.6 832.985   3
   5  -5   1 9167.17 452.487   3
   5  -5   2 2914.04 260.404   3
   5  -5   3 1298.54 189.360   3
   5  -5   4 532.838 130.585   3
   5  -5   5 7911.93 485.335   3
   5  -4 -10 285.678 182.204   3
   5  -4 -10-73.6381 87.2456   2
   5  -4  -9 183.112 144.120   3
   5  -4  -9 339.640 109.428   2
   5  -4  -8-77.2580 126.772   3
   5  -4  -8-40.6154 60.3693   2
   5  -4  -7 77.6760 113.949   3
   5  -4  -7 287.684 88.3224   2
   5  -4  -6 8607.57 398.473   2
   5  -4  -6 7835.28 509.287   3
   5  -4  -5 472.424 84.9362   2
   5  -4  -5 796.305 178.439   3
   5  -4  -4 42.8638 106.194   3
   5  -4  -4 70.6781 43.0931   2
   5  -4  -3 1492.52 120.491   2
   5  -4  -3 1822.57 215.689   3
   5  -4  -2 1669.47 120.349   2
   5  -4  -2 1791.84 136.078   4
   5  -4  -2 1767.84 197.900   3
   5  -4  -1 4302.81 185.030   2
   5  -4  -1 4132.07 172.880   4
   5  -4  -1 3943.58 270.009   3
   5  -4   0 813.096 88.8589   2
   5  -4   0 737.191 53.5937   4
   5  -4   0 730.711 131.645   3
   5  -4   1 10698.5 318.704   2
   5  -4   1 11063.0 457.285   3
   5  -4   2 2658.23 238.215   3
   5  -4   3 2710.32 246.420   3
   5  -4   4-0.22402 59.5899   3
   5  -4   5 2905.08 273.999   3
   5  -3 -10 551.509 143.681   2
   5  -3 -10 765.721 204.725   1
   5  -3  -9-117.984 81.0778   2
   5  -3  -9 1.52774 80.4294   1
   5  -3  -8 1110.18 174.738   2
   5  -3  -8 1145.09 210.320   1
   5  -3  -7 425.885 103.181   2
   5  -3  -6 3168.71 255.419   2
   5  -3  -6 3230.06 338.630   3
   5  -3  -5 1872.54 256.601   3
   5  -3  -5 1961.07 185.473   2
   5  -3  -4 30.2060 42.7360   2
   5  -3  -4-8.16171 106.144   3
   5  -3  -3 5706.97 286.289   4
   5  -3  -3 5439.64 252.402   2
   5  -3  -3 5566.39 347.039   3
   5  -3  -2 79.9880 46.6551   4
   5  -3  -2 131.757 38.6943   2
   5  -3  -2 236.619 99.6743   3
   5  -3  -1 5343.19 222.684   2
   5  -3  -1 5843.42 227.721   4
   5  -3  -1 5814.97 303.063   3
   5  -3   0 7563.69 265.603   2
   5  -3   0 8070.26 219.881   4
   5  -3   0 7859.00 351.831   3
   5  -3   1 6882.93 262.730   2
   5  -3   1 6517.89 147.449   4
   5  -3   1 7139.68 335.752   3
   5  -3   2 8336.51 311.456   2
   5  -3   2 8824.52 386.013   3
   5  -3   3 1513.52 168.278   3
   5  -3   4 31.1503 15.7418   4
   5  -3   4 40.8080 72.4015   3
   5  -3   5 2026.51 112.065   4
   5  -3   5 2245.83 228.863   3
   5  -2 -10 30.4865 65.6160   2
   5  -2 -10 225.757 145.920   1
   5  -2  -9 1292.59 221.090   2
   5  -2  -9 1827.96 274.034   1
   5  -2  -8 272.822 94.0672   2
   5  -2  -8 354.740 131.166   1
   5  -2  -7 557.470 123.095   2
   5  -2  -7 733.268 162.071   1
   5  -2  -6 7300.85 407.088   2
   5  -2  -5 15331.1 543.611   2
   5  -2  -4 16493.7 514.910   2
   5  -2  -4 16106.5 612.733   3
   5  -2  -3 5300.44 289.958   4
   5  -2  -3 5335.74 272.233   2
   5  -2  -3 5356.90 329.394   3
   5  -2  -2 11141.8 362.990   2
   5  -2  -2 10880.8 422.486   3
   5  -2  -1 1964.21 144.366   4
   5  -2  -1 1801.43 141.011   2
   5  -2  -1 1856.02 162.203   3
   5  -2   0 44975.6 605.931   4
   5  -2   0 42832.7 668.365   2
   5  -2   0 42685.0 740.534   3
   5  -2   1 8628.82 305.851   2
   5  -2   1 8396.46 327.125   3
   5  -2   2 14938.6 421.466   2
   5  -2   2 15002.0 451.602   3
   5  -2   3 2611.01 192.124   2
   5  -2   3 2712.63 117.949   4
   5  -2   3 2616.55 199.012   3
   5  -2   4 292.622 52.3190   4
   5  -2   4 239.092 89.0497   3
   5  -2   5 41.7112 38.4267   4
   5  -2   6 539.918 80.6429   4
   5  -2   7 805.003 111.018   4
   5  -2   8 2091.94 193.917   4
   5  -1 -10 115.298 109.667   1
   5  -1  -9 8.94905 61.4584   2
   5  -1  -9-79.3655 96.0182   1
   5  -1  -8 983.589 184.840   2
   5  -1  -8 1250.75 215.147   1
   5  -1  -7 378.138 108.752   2
   5  -1  -7 510.457 140.216   1
   5  -1  -6 4394.35 334.564   1
   5  -1  -6 3972.68 318.559   2
   5  -1  -5 169.955 69.2283   2
   5  -1  -4 292.288 85.1142   2
   5  -1  -3 8198.03 356.167   2
   5  -1  -3 8231.85 400.938   3
   5  -1  -2 343.842 77.2448   4
   5  -1  -2 170.952 51.3341   2
   5  -1  -2 311.261 88.6013   3
   5  -1  -1 4842.68 241.824   2
   5  -1  -1 4971.70 251.479   3
   5  -1   0 6134.49 263.398   2
   5  -1   0 5959.66 248.791   3
   5  -1   1 7717.23 301.756   2
   5  -1   1 7847.01 277.398   3
   5  -1   2-3.25676 49.9902   2
   5  -1   2 16.1696 31.8544   3
   5  -1   3 12156.9 414.546   2
   5  -1   3 12617.0 382.748   3
   5  -1   4 690.604 114.217   2
   5  -1   4 666.870 79.5118   4
   5  -1   4 693.064 99.5902   3
   5  -1   5 4595.08 216.388   4
   5  -1   6 249.908 76.1671   4
   5  -1   7 751.741 111.187   4
   5  -1   8 2197.05 200.776   4
   5  -1   9 1332.29 166.591   4
   5   0 -10 306.451 124.667   1
   5   0  -9 228.211 101.172   2
   5   0  -9 164.660 112.283   1
   5   0  -8 298.023 131.341   2
   5   0  -8 341.777 120.192   1
   5   0  -7 113.505 77.9137   2
   5   0  -7 216.185 116.435   1
   5   0  -6 3502.73 300.348   1
   5   0  -6 3755.74 319.783   2
   5   0  -5 5558.07 362.386   2
   5   0  -4 155.733 77.9826   2
   5   0  -3 1886.13 188.852   2
   5   0  -2 351.902 85.5162   3
   5   0  -2 349.056 79.5528   4
   5   0  -2 501.259 95.9245   2
   5   0  -1 843.958 106.868   2
   5   0  -1 818.528 106.292   3
   5   0   0 11520.6 380.811   2
   5   0   0 11951.6 302.904   3
   5   0   1-66.9654 53.8500   2
   5   0   1 78.6308 32.0556   3
   5   0   2 8231.06 328.075   2
   5   0   2 8140.07 239.468   3
   5   0   3 359.475 83.7469   2
   5   0   3 391.769 65.3392   3
   5   0   4 2431.67 200.430   2
   5   0   5 993.128 140.918   2
   5   0   5 867.620 104.755   4
   5   0   6 927.161 122.698   4
   5   0   7 1316.35 153.836   4
   5   0   8 2153.32 204.019   4
   5   0   9 1116.74 165.877   4
   5   0  10 921.022 156.437   4
   5   0  11 216.973 101.570   4
   5   1  -8 193.039 107.889   2
   5   1  -8 341.753 129.138   1
   5   1  -7 38.3003 57.6210   2
   5   1  -7-37.3040 61.1681   1
   5   1  -6 2800.40 264.027   1
   5   1  -6 2439.47 271.527   2
   5   1  -5 2249.69 222.178   1
   5   1  -5 2397.33 251.660   2
   5   1  -4 1852.73 206.631   2
   5   1  -3 367.139 90.3522   2
   5   1  -2 963.031 132.749   2
   5   1  -1 601.263 86.7355   3
   5   1  -1 467.747 88.9533   2
   5   1   0 3989.81 240.169   2
   5   1   0 3827.05 153.936   3
   5   1   1 2732.72 195.390   2
   5   1   1 2684.21 99.4535   3
   5   1   2 698.845 52.8666   3
   5   1   2 853.851 123.076   2
   5   1   3 12491.7 432.207   2
   5   1   4 2699.34 216.195   2
   5   1   5 4465.35 288.263   2
   5   1   6 1401.65 151.619   4
   5   1   6 1503.66 183.212   2
   5   1   7 1013.84 142.500   4
   5   1   8 2851.12 245.094   4
   5   1   9 63.4338 68.6970   4
   5   1  10 281.708 99.8833   4
   5   1  11 124.710 82.3271   4
   5   1  12 112.033 83.3790   4
   5   2  -8 156.693 100.205   2
   5   2  -7-49.4858 72.0635   2
   5   2  -7 92.9571 86.1228   1
   5   2  -6 602.928 148.302   2
   5   2  -6 687.143 136.154   1
   5   2  -5 3.56181 65.7092   2
   5   2  -5 164.776 78.2487   1
   5   2  -4 195.623 77.5061   2
   5   2  -3 2218.30 222.678   2
   5   2  -2 55.2940 58.5175   2
   5   2  -1 6860.41 339.125   2
   5   2   0 12234.7 435.385   2
   5   2   0 12534.1 231.362   3
   5   2   0 12555.7 262.529   3
   5   2   1 17478.8 497.766   2
   5   2   2 362.121 68.9080   2
   5   2   3 1648.17 168.437   2
   5   2   4 16033.6 520.430   2
   5   2   5 9899.37 426.358   2
   5   2   6 2621.50 239.125   2
   5   2   7 56.4616 89.3865   2
   5   2   7 151.517 72.8325   4
   5   2   8 1833.46 203.582   4
   5   2   9 1061.25 172.599   4
   5   2  10 161.250 89.2799   4
   5   2  11 86.6894 79.5277   4
   5   2  12 172.984 93.7889   4
   5   3  -7 20.7001 65.4936   2
   5   3  -6 175.451 100.154   2
   5   3  -6 297.108 92.7888   1
   5   3  -5 2890.71 230.911   1
   5   3  -5 3058.33 305.759   2
   5   3  -4 935.516 163.437   2
   5   3  -3 5915.94 380.871   2
   5   3  -3 5353.60 293.410   3
   5   3  -2 81.7851 54.5600   3
   5   3  -2 81.7501 63.0856   2
   5   3  -1 80.8090 39.2265   3
   5   3  -1 52.6926 67.9844   2
   5   3   0 2109.94 192.909   2
   5   3   0 2185.94 107.398   3
   5   3   1 9583.42 394.939   2
   5   3   2 5079.18 286.157   2
   5   3   3 2561.27 217.672   2
   5   3   4 615.345 123.658   2
   5   3   5 6731.37 361.643   2
   5   3   6 2036.56 222.930   2
   5   3   7 2262.51 219.493   4
   5   3   7 1793.92 213.379   2
   5   3   8 319.587 101.236   4
   5   3   9 503.363 127.990   4
   5   3  10 603.644 145.359   4
   5   3  11 128.830 98.4053   4
   5   3  12 446.305 143.526   4
   5   3  13 74.5933 78.5683   4
   5   4  -6 508.730 148.400   2
   5   4  -5 287.204 116.846   2
   5   4  -4 2391.88 264.560   2
   5   4  -3 1641.24 207.889   2
   5   4  -2 3387.66 279.790   2
   5   4  -2 2928.97 207.373   3
   5   4  -1 76.1420 42.1202   3
   5   4  -1 12.4052 52.3013   2
   5   4   0 3101.40 250.609   2
   5   4   0 3094.91 150.765   3
   5   4   1 4901.85 298.285   2
   5   4   1 3521.74 107.186   3
   5   4   2 2608.23 213.637   2
   5   4   3 26.6857 72.2172   2
   5   4   4 222.205 96.0935   2
   5   4   5 87.4550 75.9542   2
   5   4   6 2336.49 241.413   2
   5   4   7 46.7825 80.2862   2
   5   4   8 1005.06 171.138   2
   5   4   8 1019.89 165.823   4
   5   4   9 310.839 108.642   4
   5   4  10 177.357 99.7548   4
   5   4  11 167.793 113.661   4
   5   4  12 828.946 190.613   4
   5   5  -6 182.347 93.3128   2
   5   5  -5 1207.76 226.676   2
   5   5  -4 479.286 136.938   2
   5   5  -3 4018.01 336.834   2
   5   5  -2 13.7608 43.8766   3
   5   5  -2 90.8054 86.3022   2
   5   5  -1 2822.79 255.592   2
   5   5  -1 2316.96 176.644   3
   5   5   0 585.949 86.3349   3
   5   5   0 479.967 112.160   2
   5   5   1 3903.93 282.934   2
   5   5   1 3174.02 142.259   3
   5   5   2 155.585 79.2714   2
   5   5   3 1276.03 161.684   2
   5   5   4 3340.39 269.615   2
   5   5   5 876.645 140.038   2
   5   5   6 6.86101 70.6267   2
   5   5   7 1151.68 177.485   2
   5   5   8 1551.11 211.029   2
   5   5   9 990.653 175.701   4
   5   5  10 104.453 106.819   4
   5   5  11 152.968 111.569   4
   5   5  12 613.798 182.740   4
   5   6  -5-63.7180 76.6750   2
   5   6  -4 297.232 117.135   2
   5   6  -3 828.358 164.082   2
   5   6  -2 814.195 159.390   2
   5   6  -1 77.8782 55.3193   3
   5   6  -1 58.1946 51.0504   2
   5   6   0 131.229 54.0016   3
   5   6   0 230.301 86.5440   2
   5   6   1 1309.60 173.977   2
   5   6   1 1223.47 112.706   3
   5   6   2 1461.83 180.570   2
   5   6   2 1132.94 100.013   3
   5   6   3 136.503 68.0017   2
   5   6   4 1030.29 161.277   2
   5   6   5 2110.34 228.358   2
   5   6   6 1632.80 205.239   2
   5   6   7 1341.38 200.324   2
   5   6   8 1045.64 178.001   2
   5   6   9 532.554 137.226   2
   5   6   9 607.004 148.627   4
   5   6  10 313.583 125.874   4
   5   6  11 259.235 121.488   4
   5   6  12 371.389 142.752   4
   5   7  -4 79.5509 87.8194   2
   5   7  -3 179.658 100.308   2
   5   7  -2 54.7189 67.1143   2
   5   7  -1 223.005 91.2694   2
   5   7   0-21.7077 50.2907   2
   5   7   1 1254.81 178.599   2
   5   7   2 317.464 100.272   2
   5   7   2 358.799 78.6947   3
   5   7   3 34.0308 57.8404   2
   5   7   4 671.051 143.061   2
   5   7   5 189.133 96.9318   2
   5   7   6 1785.70 209.557   2
   5   7   7 1226.62 188.699   2
   5   7   8 1828.56 234.054   2
   5   7   9 644.912 151.764   2
   5   7   9 614.281 149.238   4
   5   7  10 656.329 163.843   4
   5   7  11 98.7158 99.7274   4
   5   7  12 303.377 132.562   4
   5   8  -3 68.9885 81.0246   2
   5   8  -2 105.500 65.5361   2
   5   8  -1 1029.81 194.119   2
   5   8   0 1363.04 198.740   2
   5   8   1 788.936 150.903   2
   5   8   2 654.204 134.363   2
   5   8   3 616.222 132.805   2
   5   8   4 2798.84 266.884   2
   5   8   5 1058.77 179.971   2
   5   8   6 1066.05 173.445   2
   5   8   7 540.428 139.936   2
   5   8   8 8.12294 78.9376   2
   5   8   9-37.1773 78.5798   2
   5   8  10 225.061 119.711   4
   5   8  11 81.1888 118.956   4
   5   9  -2-213.676 103.505   2
   5   9  -1 44.9649 75.0990   2
   5   9   0 340.299 125.018   2
   5   9   1 1795.82 229.095   2
   5   9   2 251.736 84.2095   2
   5   9   3 43.2275 56.2872   2
   5   9   4 333.378 112.066   2
   5   9   5 366.528 123.205   2
   5   9   6 582.892 138.511   2
   5   9   7 1037.21 180.926   2
   5   9   8 641.177 147.120   2
   5   9   9 326.568 140.977   2
   5   9  10 169.163 135.412   4
   5  10  -1 244.804 111.977   2
   5  10   0 176.315 96.4838   2
   5  10   1 409.393 133.091   2
   5  10   2 217.518 80.1740   2
   5  10   3 122.716 76.5019   2
   5  10   4 387.368 121.976   2
   5  10   5 164.601 94.5046   2
   5  10   6 454.879 118.329   2
   5  10   7 604.336 140.454   2
   5  10   8 170.308 105.694   2
   5  10   9 240.352 111.464   2
   5  10  10 299.225 141.420   4
   5  11   1-73.1665 101.707   2
   5  11   2 89.1913 75.1877   2
   5  11   3 95.1447 75.7802   2
   5  11   4-26.0048 62.5923   2
   5  11   5 422.277 129.335   2
   5  11   6-56.5268 77.0402   2
   5  11   7 97.6421 80.1738   2
   5  11   8 20.5611 74.6607   2
   5  11   9-79.0417 89.1153   2
   6 -10  -5-36.8756 143.373   3
   6 -10  -4 88.4454 123.993   3
   6 -10  -3 224.899 151.807   3
   6 -10  -2-69.1556 97.7126   3
   6 -10  -1 329.378 147.415   3
   6  -9  -7 861.477 227.408   3
   6  -9  -6 104.338 114.507   3
   6  -9  -5 831.907 204.202   3
   6  -9  -4 985.754 191.860   3
   6  -9  -3 4923.36 438.931   3
   6  -9  -2 2421.95 312.591   3
   6  -9  -1 1586.71 248.854   3
   6  -9   0-43.6504 111.095   3
   6  -9   1 198.355 139.121   3
   6  -9   2 566.920 166.723   3
   6  -8  -8 122.461 144.365   3
   6  -8  -7 1562.53 281.538   3
   6  -8  -6 1427.16 262.127   3
   6  -8  -5 730.587 172.822   3
   6  -8  -4 652.255 170.479   3
   6  -8  -3 1327.63 230.529   3
   6  -8  -2 4665.06 399.942   3
   6  -8  -1 1949.99 264.771   3
   6  -8   0 1260.20 220.506   3
   6  -8   1 2062.02 274.132   3
   6  -8   2 1546.26 243.926   3
   6  -8   3 642.243 181.453   3
   6  -8   4 966.289 213.053   3
   6  -7  -8 252.035 157.723   3
   6  -7  -7 546.168 208.073   3
   6  -7  -6 2041.22 305.233   3
   6  -7  -5 1758.01 250.557   3
   6  -7  -4 1016.43 179.297   3
   6  -7  -3 4154.83 364.417   3
   6  -7  -2 1672.43 240.279   3
   6  -7  -1 5225.21 399.348   3
   6  -7   0-119.360 99.9758   3
   6  -7   1 597.763 135.362   3
   6  -7   2 388.880 140.295   3
   6  -7   3 357.562 134.447   3
   6  -7   4 1120.37 200.464   3
   6  -7   5-66.7987 108.835   3
   6  -6  -9 1460.34 297.564   3
   6  -6  -8 1534.48 187.708   2
   6  -6  -8 1587.99 286.720   3
   6  -6  -7 2798.66 227.641   2
   6  -6  -7 2894.45 363.198   3
   6  -6  -6 1141.74 133.569   2
   6  -6  -6 1009.37 228.108   3
   6  -6  -5 1919.87 155.876   2
   6  -6  -5 2558.82 301.874   3
   6  -6  -4 190.302 50.1962   2
   6  -6  -4 114.122 81.3484   3
   6  -6  -3 28.4059 29.8377   2
   6  -6  -3 89.3715 88.7686   3
   6  -6  -2 2105.30 108.417   2
   6  -6  -2 1852.12 225.626   3
   6  -6  -1 2257.54 249.122   3
   6  -6   0 3698.98 315.850   3
   6  -6   1 2529.68 265.556   3
   6  -6   2-24.5578 66.8816   3
   6  -6   3 169.909 93.6283   3
   6  -6   4 3796.18 352.897   3
   6  -6   5 472.445 161.444   3
   6  -5 -10 282.448 106.468   2
   6  -5  -9 576.930 208.604   3
   6  -5  -9 1154.57 183.060   2
   6  -5  -8 24.8273 41.6435   2
   6  -5  -8 171.736 151.635   3
   6  -5  -7 536.987 112.717   2
   6  -5  -7 702.998 199.908   3
   6  -5  -6 691.476 183.876   3
   6  -5  -6 782.006 119.154   2
   6  -5  -5 845.703 116.150   2
   6  -5  -5 776.672 157.852   3
   6  -5  -4 5574.27 260.406   2
   6  -5  -4 5358.75 384.543   3
   6  -5  -3 3191.06 184.354   2
   6  -5  -3 3565.59 221.744   4
   6  -5  -3 3286.98 291.522   3
   6  -5  -2 445.429 78.1108   4
   6  -5  -2 573.997 79.3785   2
   6  -5  -2 304.793 105.271   3
   6  -5  -1 2075.43 133.034   2
   6  -5  -1 2169.26 120.466   4
   6  -5  -1 2338.85 243.277   3
   6  -5   0 2102.07 139.066   2
   6  -5   0 2230.13 234.684   3
   6  -5   1 13113.6 559.715   3
   6  -5   2 941.583 165.285   3
   6  -5   3 527.589 125.847   3
   6  -5   4 1561.02 213.206   3
   6  -5   5 2772.10 287.244   3
   6  -4 -10 401.408 122.169   2
   6  -4  -9 561.426 213.354   3
   6  -4  -9 423.004 128.939   2
   6  -4  -8 1154.78 252.493   3
   6  -4  -8 1145.43 187.729   2
   6  -4  -7 384.846 151.542   3
   6  -4  -7 295.058 92.4974   2
   6  -4  -6 274.973 80.1097   2
   6  -4  -6 257.755 147.908   3
   6  -4  -5 76.4853 99.5818   3
   6  -4  -5 25.0863 38.9222   2
   6  -4  -4 54.8678 37.5347   2
   6  -4  -4 41.7954 85.8863   3
   6  -4  -3 3318.56 223.335   4
   6  -4  -3 3145.37 202.102   2
   6  -4  -3 2958.35 268.574   3
   6  -4  -2 136.089 47.9574   2
   6  -4  -2 251.637 101.076   3
   6  -4  -1 2515.92 170.627   2
   6  -4  -1 2370.29 150.094   4
   6  -4  -1 1984.21 202.358   3
   6  -4   0 1236.99 87.3206   4
   6  -4   0 1029.30 114.261   2
   6  -4   0 1125.25 155.364   3
   6  -4   1 1857.12 152.209   2
   6  -4   1 1875.89 198.058   3
   6  -4   2 4184.40 233.645   2
   6  -4   2 4052.08 295.157   3
   6  -4   3 74.8557 72.3570   3
   6  -4   4 5824.82 378.950   3
   6  -4   5 1986.34 233.794   3
   6  -3  -9 389.329 189.998   3
   6  -3  -9 505.323 134.075   2
   6  -3  -8 63.4630 123.567   3
   6  -3  -8 200.009 91.1585   2
   6  -3  -7 2317.29 246.912   2
   6  -3  -7 2596.99 334.377   3
   6  -3  -6 258.316 130.769   3
   6  -3  -6 200.484 76.0341   2
   6  -3  -5 497.200 144.350   3
   6  -3  -5 389.515 90.6754   2
   6  -3  -4 64.1911 51.8234   2
   6  -3  -4 116.992 95.2371   3
   6  -3  -3 815.585 107.724   2
   6  -3  -3 961.370 162.755   3
   6  -3  -2 6548.97 295.032   4
   6  -3  -2 6462.97 287.644   2
   6  -3  -2 6254.85 350.479   3
   6  -3  -1 3333.27 198.559   2
   6  -3  -1 3290.80 194.276   4
   6  -3  -1 3693.37 256.681   3
   6  -3   0 7693.71 305.096   2
   6  -3   0 7616.93 250.999   4
   6  -3   0 7941.10 372.295   3
   6  -3   1 1261.80 132.265   2
   6  -3   1 1225.18 85.0476   4
   6  -3   1 1469.12 165.441   3
   6  -3   2 4347.67 247.876   2
   6  -3   2 3910.97 113.352   4
   6  -3   2 4616.83 288.397   3
   6  -3   3 756.755 120.824   2
   6  -3   3 456.490 102.868   3
   6  -3   4 2469.40 228.849   3
   6  -3   5 1924.09 89.7005   4
   6  -3   5 2056.48 222.476   3
   6  -2  -9 1022.69 201.437   2
   6  -2  -8 1934.01 257.794   2
   6  -2  -7 1798.28 228.808   2
   6  -2  -6 1460.87 243.328   3
   6  -2  -6 1487.39 196.278   2
   6  -2  -5 152.833 75.8180   2
   6  -2  -5 155.988 97.3040   3
   6  -2  -4 11873.3 467.045   2
   6  -2  -4 11696.8 542.341   3
   6  -2  -3 8156.84 363.372   2
   6  -2  -3 8071.19 414.008   3
   6  -2  -2 7436.88 342.463   4
   6  -2  -2 6845.46 316.219   2
   6  -2  -2 7169.03 356.804   3
   6  -2  -1 4079.27 234.515   2
   6  -2  -1 3756.66 241.431   3
   6  -2   0 3334.16 194.060   4
   6  -2   0 3168.39 204.679   2
   6  -2   0 3413.18 223.372   3
   6  -2   1 8673.62 345.269   2
   6  -2   1 9597.07 368.411   3
   6  -2   2 2177.21 182.964   2
   6  -2   2 2256.83 185.402   3
   6  -2   3 96.7193 78.5132   2
   6  -2   3 59.3247 53.7117   3
   6  -2   4 5059.78 301.854   2
   6  -2   4 5392.03 193.084   4
   6  -2   4 5178.87 303.471   3
   6  -2   5 1173.47 101.903   4
   6  -2   5 985.831 145.536   3
   6  -2   6 481.412 75.0169   4
   6  -2   7 222.935 55.4672   4
   6  -1  -9 127.052 95.9579   2
   6  -1  -8 124.322 89.1676   2
   6  -1  -7 3743.24 344.447   2
   6  -1  -6 1570.93 209.135   2
   6  -1  -5 1441.56 188.309   2
   6  -1  -4 1109.79 179.493   3
   6  -1  -4 1168.32 158.427   2
   6  -1  -3 5321.12 311.847   2
   6  -1  -3 5421.21 339.477   3
   6  -1  -2 555.039 99.3330   2
   6  -1  -2 712.088 126.011   3
   6  -1  -1 17252.5 510.218   4
   6  -1  -1 15802.4 483.495   2
   6  -1  -1 15493.0 447.080   3
   6  -1   0 2373.75 185.207   2
   6  -1   0 2583.77 173.632   3
   6  -1   1 3310.13 219.923   2
   6  -1   1 3151.79 186.355   3
   6  -1   2 3388.94 235.296   2
   6  -1   2 3268.80 195.048   3
   6  -1   3 323.550 94.9755   2
   6  -1   3 309.214 72.1629   3
   6  -1   4 2372.69 211.317   2
   6  -1   4 2496.50 193.316   3
   6  -1   5 1971.47 202.718   2
   6  -1   5 1818.47 143.439   4
   6  -1   6 3.21004 36.4368   4
   6  -1   7 868.367 120.032   4
   6  -1   8 82.3328 54.8698   4
   6   0  -8-123.343 86.2864   2
   6   0  -7 2487.22 292.830   2
   6   0  -6 4226.54 353.954   2
   6   0  -5 0.75894 47.7953   2
   6   0  -4 1581.11 192.546   2
   6   0  -3 474.570 114.301   3
   6   0  -3 541.155 114.955   2
   6   0  -2 8767.52 396.038   2
   6   0  -2 8481.52 363.896   3
   6   0  -1 322.405 79.1905   2
   6   0  -1 297.340 78.5313   3
   6   0   0 7307.65 338.634   2
   6   0   0 7051.20 250.470   3
   6   0   1 161.224 62.0887   2
   6   0   1 306.888 60.7891   3
   6   0   2 1450.90 164.696   2
   6   0   2 1381.65 106.589   3
   6   0   3 135.800 77.0204   2
   6   0   3 237.145 59.4755   3
   6   0   4 3327.36 249.399   2
   6   0   5 6039.07 357.982   2
   6   0   6 2640.12 254.311   2
   6   0   6 2767.28 203.811   4
   6   0   7 2257.80 196.973   4
   6   0   8 744.507 127.266   4
   6   0   9 928.800 148.015   4
   6   0  10 2461.83 250.565   4
   6   1  -7 437.480 139.070   2
   6   1  -6 829.903 169.317   2
   6   1  -5 455.386 126.169   2
   6   1  -4 1165.86 175.327   2
   6   1  -3 596.872 124.124   2
   6   1  -2 673.122 109.844   2
   6   1  -1 6454.68 338.912   2
   6   1  -1 6145.44 259.725   3
   6   1   0 1249.74 149.649   2
   6   1   0 1312.90 98.6129   3
   6   1   1 8615.65 373.860   2
   6   1   1 8226.84 191.049   3
   6   1   2 286.868 73.7980   2
   6   1   2 319.365 39.9630   3
   6   1   3 235.069 88.0136   2
   6   1   4 1621.57 185.565   2
   6   1   5 458.723 123.644   2
   6   1   6 1412.93 188.287   2
   6   1   7 1700.78 180.715   4
   6   1   8 513.161 115.303   4
   6   1   9 118.175 73.9361   4
   6   1  10 79.5115 78.3504   4
   6   1  11 183.366 93.3353   4
   6   2  -7 316.105 123.239   2
   6   2  -6 764.100 169.293   2
   6   2  -5 529.162 138.609   2
   6   2  -4 368.942 112.436   2
   6   2  -3 582.247 130.179   2
   6   2  -2-3.17181 65.7149   2
   6   2  -1 201.593 68.0904   2
   6   2   0 5048.45 312.080   2
   6   2   0 5011.34 150.114   3
   6   2   0 4897.77 163.699   3
   6   2   1 2962.93 234.968   2
   6   2   2 8389.00 386.773   2
   6   2   3 159.151 88.2868   2
   6   2   4 1958.91 200.915   2
   6   2   5 5078.46 331.120   2
   6   2   6 813.106 157.132   2
   6   2   7 3974.10 325.351   2
   6   2   7 3720.75 271.860   4
   6   2   8 52.6264 59.0064   4
   6   2   9 859.623 148.781   4
   6   2  10 164.856 102.103   4
   6   2  11 474.878 137.730   4
   6   2  12 19.9795 75.3813   4
   6   3  -6 714.597 179.456   2
   6   3  -5 85.6509 68.5636   2
   6   3  -4 915.124 177.947   2
   6   3  -3 89.8536 68.3417   2
   6   3  -2 1234.34 128.696   3
   6   3  -2 1133.14 171.844   2
   6   3  -1 1110.16 101.176   3
   6   3  -1 1213.38 167.283   2
   6   3   0 4450.11 307.488   2
   6   3   0 4032.84 135.033   3
   6   3   0 3671.84 142.514   3
   6   3   1 8071.73 397.613   2
   6   3   2 7015.01 365.265   2
   6   3   3 4077.37 285.661   2
   6   3   4 2711.09 242.362   2
   6   3   5 5411.82 349.614   2
   6   3   6 7677.84 423.907   2
   6   3   7 4278.45 335.419   2
   6   3   8 1008.14 178.541   2
   6   3   8 781.441 142.082   4
   6   3   9 95.3258 75.5572   4
   6   3  10 675.573 145.263   4
   6   3  11 650.281 163.100   4
   6   3  12 196.372 111.845   4
   6   4  -6 551.489 165.572   2
   6   4  -5 248.887 108.314   2
   6   4  -4 1844.15 246.649   2
   6   4  -3 1110.91 189.198   2
   6   4  -2 384.858 78.5768   3
   6   4  -2 211.693 74.8004   2
   6   4  -1 965.679 102.000   3
   6   4  -1 972.189 159.140   2
   6   4   0 34.3031 28.3060   3
   6   4   0 102.789 70.7728   2
   6   4   1 172.331 83.5426   2
   6   4   2 3003.71 247.502   2
   6   4   3 699.322 134.850   2
   6   4   4 261.873 104.431   2
   6   4   5 3044.61 269.760   2
   6   4   6 348.005 114.173   2
   6   4   7 1481.58 204.756   2
   6   4   8 580.311 152.466   2
   6   4   8 316.871 100.937   4
   6   4   9 89.6558 80.5368   4
   6   4  10 187.921 114.127   4
   6   4  11 179.347 93.8719   4
   6   4  12 385.936 153.850   4
   6   5  -5 380.806 131.410   2
   6   5  -4 283.389 111.271   2
   6   5  -3 811.998 173.387   2
   6   5  -2 416.408 122.497   2
   6   5  -1 1281.06 189.889   2
   6   5   0 3254.41 281.988   2
   6   5   0 2633.78 146.915   3
   6   5   1 740.899 140.815   2
   6   5   2 473.167 108.677   2
   6   5   3 1188.66 166.292   2
   6   5   4 2614.12 252.153   2
   6   5   5 3548.96 303.845   2
   6   5   6 53.4049 81.1789   2
   6   5   7 1237.92 190.932   2
   6   5   8 452.981 140.568   2
   6   5   9 502.041 139.131   2
   6   5   9 636.766 150.209   4
   6   5  10-51.0796 77.0480   4
   6   5  11 341.828 142.609   4
   6   5  12 201.478 119.347   4
   6   6  -4 974.740 211.084   2
   6   6  -3 135.976 92.9111   2
   6   6  -2 260.488 101.268   2
   6   6  -1 505.558 127.111   2
   6   6   0 1176.00 189.532   2
   6   6   1 827.887 151.618   2
   6   6   2 187.034 86.5547   2
   6   6   3 614.253 131.918   2
   6   6   4 633.895 140.173   2
   6   6   5 698.832 159.217   2
   6   6   6 229.883 103.018   2
   6   6   7 386.360 126.672   2
   6   6   8 558.221 151.402   2
   6   6   9 692.021 164.131   2
   6   6   9 330.276 112.003   4
   6   6  10 66.1584 71.1249   4
   6   6  11 232.644 118.623   4
   6   6  12-11.4943 103.240   4
   6   7  -3-56.7966 101.676   2
   6   7  -2-130.972 97.7291   2
   6   7  -1 51.6730 87.0816   2
   6   7   0 52.0040 72.8882   2
   6   7   1 441.203 125.397   2
   6   7   2-28.4262 80.5123   2
   6   7   3-23.3123 76.8210   2
   6   7   4 941.663 166.141   2
   6   7   5 171.946 99.6434   2
   6   7   6 271.554 121.222   2
   6   7   7 887.398 181.943   2
   6   7   8 446.440 143.569   2
   6   7   9 501.669 143.327   2
   6   7  10 419.830 140.037   4
   6   7  11 736.937 187.163   4
   6   8  -2-124.237 89.7281   2
   6   8  -1 347.643 114.344   2
   6   8   0 2551.56 291.358   2
   6   8   1 1379.22 208.933   2
   6   8   2-57.9007 95.4815   2
   6   8   3 372.131 116.242   2
   6   8   4 860.329 167.032   2
   6   8   5 2145.28 252.460   2
   6   8   6 228.494 107.561   2
   6   8   7 810.771 174.209   2
   6   8   8 180.963 106.188   2
   6   8   9 278.051 124.396   2
   6   8  10-135.992 114.385   2
   6   8  10 128.590 111.232   4
   6   8  11 311.444 138.471   4
   6   9  -1 5.74199 63.1592   2
   6   9   0 259.857 119.645   2
   6   9   1 515.989 154.285   2
   6   9   2 203.042 88.8897   2
   6   9   3 24.6894 61.6252   2
   6   9   4 123.493 94.0981   2
   6   9   5 578.268 154.976   2
   6   9   6 312.468 113.733   2
   6   9   7 175.285 98.6694   2
   6   9   8 215.016 108.470   2
   6   9   9-39.4939 94.2843   2
   6   9  10 111.606 105.220   2
   6   9  10 42.1719 88.0748   4
   6  10   0 227.519 112.927   2
   6  10   1 76.7734 69.1671   2
   6  10   2 57.7921 90.3042   2
   6  10   3 199.015 103.812   2
   6  10   4 150.867 96.0897   2
   6  10   5 375.530 135.792   2
   6  10   6 254.514 115.631   2
   6  10   7 463.257 150.765   2
   6  10   8 197.411 117.197   2
   6  10   9 170.095 122.300   2
   6  10  10 28.4619 90.4537   2
   6  11   2-91.5018 117.317   2
   6  11   3-61.5979 97.6081   2
   6  11   4 70.0469 87.4273   2
   6  11   5 169.810 120.337   2
   6  11   6 5.35233 94.8018   2
   6  11   7 459.172 148.418   2
   6  11   8 191.278 106.859   2
   6  11   9 123.818 128.796   2
   6  11  10-28.1911 107.981   2
   7  -9  -5-78.5083 149.395   3
   7  -9  -4 259.636 130.024   3
   7  -9  -3 1429.05 244.008   3
   7  -9  -2 2168.53 306.920   3
   7  -9  -1 745.277 183.085   3
   7  -9   0 1129.19 230.628   3
   7  -9   1 1010.89 228.806   3
   7  -8  -7 225.074 138.870   3
   7  -8  -6 1801.84 282.456   3
   7  -8  -5 2.37725 93.0069   3
   7  -8  -4 1056.03 200.672   3
   7  -8  -3 1585.38 256.846   3
   7  -8  -2 1984.07 279.460   3
   7  -8  -1 1044.31 198.429   3
   7  -8   0 1048.64 210.598   3
   7  -8   1 1544.26 241.834   3
   7  -8   2 324.938 124.311   3
   7  -8   3 317.298 134.693   3
   7  -7  -7 566.172 186.820   3
   7  -7  -6 937.278 215.497   3
   7  -7  -5 1328.53 236.477   3
   7  -7  -4 277.638 129.993   3
   7  -7  -3 1629.02 237.210   3
   7  -7  -2 1650.21 238.944   3
   7  -7  -1 1343.67 218.044   3
   7  -7   0 835.196 174.662   3
   7  -7   1 894.663 171.019   3
   7  -7   2 962.090 184.172   3
   7  -7   3 976.191 193.572   3
   7  -7   4 230.591 122.374   3
   7  -7   5 136.509 125.932   3
   7  -6  -8 649.633 197.093   3
   7  -6  -7 1127.52 231.330   3
   7  -6  -6 3040.90 355.101   3
   7  -6  -5 1152.27 207.356   3
   7  -6  -4 5018.32 402.051   3
   7  -6  -3 145.868 77.9630   3
   7  -6  -2 1852.45 236.678   3
   7  -6  -1 177.016 94.5019   3
   7  -6   0 3387.50 313.568   3
   7  -6   1 1680.74 225.589   3
   7  -6   2 94.6862 89.7596   3
   7  -6   3 611.098 141.935   3
   7  -6   4 330.278 135.460   3
   7  -6   5 220.278 112.471   3
   7  -5  -8 642.297 209.802   3
   7  -5  -8 634.154 139.888   2
   7  -5  -7 218.315 76.2449   2
   7  -5  -7 297.416 133.942   3
   7  -5  -6 580.176 105.434   2
   7  -5  -6 175.644 100.250   3
   7  -5  -5 570.049 97.1937   2
   7  -5  -5 797.513 192.175   3
   7  -5  -4 565.314 98.6029   2
   7  -5  -4 534.133 136.548   3
   7  -5  -3 3817.96 224.252   2
   7  -5  -3 3770.90 326.373   3
   7  -5  -2 226.311 70.6250   2
   7  -5  -2 46.9797 85.2390   3
   7  -5  -1 286.501 67.0852   2
   7  -5  -1 554.454 135.571   3
   7  -5   0 383.076 73.0931   2
   7  -5   0 548.613 129.522   3
   7  -5   1 1111.61 120.564   2
   7  -5   1 1414.08 200.046   3
   7  -5   2-58.6555 76.2126   3
   7  -5   3 184.162 83.2943   3
   7  -5   4 122.419 85.4204   3
   7  -5   5-24.3069 77.3214   3
   7  -4  -9 130.042 81.0736   2
   7  -4  -8 231.347 106.212   2
   7  -4  -8 224.294 137.304   3
   7  -4  -7 430.577 154.006   3
   7  -4  -7 218.266 81.4503   2
   7  -4  -6 318.655 93.0265   2
   7  -4  -6 319.770 140.405   3
   7  -4  -5 93.1503 47.3232   2
   7  -4  -5 370.523 160.608   3
   7  -4  -4 1313.62 152.557   2
   7  -4  -4 1527.43 234.292   3
   7  -4  -3 1702.05 164.495   2
   7  -4  -3 1584.36 204.143   3
   7  -4  -2 5799.64 285.381   2
   7  -4  -2 6220.28 300.916   4
   7  -4  -2 6074.39 372.521   3
   7  -4  -1 41.6922 46.9863   4
   7  -4  -1 8.07607 44.8683   2
   7  -4  -1-55.2302 87.8421   3
   7  -4   0 1887.77 161.950   2
   7  -4   0 1888.71 123.311   4
   7  -4   0 1578.33 194.945   3
   7  -4   1 2867.61 205.773   2
   7  -4   1 2567.76 92.7221   4
   7  -4   1 2829.93 250.649   3
   7  -4   2 9782.45 393.399   2
   7  -4   2 9348.34 459.304   3
   7  -4   3 8570.80 448.608   3
   7  -4   4 1774.01 213.401   3
   7  -4   5 591.717 140.791   3
   7  -3  -9 871.068 247.261   3
   7  -3  -9 347.102 122.479   2
   7  -3  -8 307.471 170.593   3
   7  -3  -8 325.100 112.651   2
   7  -3  -7 162.311 71.9168   2
   7  -3  -7 280.843 153.492   3
   7  -3  -6 378.568 103.199   2
   7  -3  -6 253.831 135.987   3
   7  -3  -5 55.5463 40.1404   2
   7  -3  -5 60.4551 98.1491   3
   7  -3  -4 1616.04 177.169   2
   7  -3  -4 1613.77 226.922   3
   7  -3  -3 201.838 69.4571   2
   7  -3  -3 327.436 128.205   3
   7  -3  -2 2368.10 196.004   4
   7  -3  -2 2205.86 188.731   2
   7  -3  -2 2348.65 230.182   3
   7  -3  -1 2290.49 188.315   2
   7  -3  -1 2301.63 217.210   3
   7  -3   0 175.724 56.8274   4
   7  -3   0 212.786 69.7019   2
   7  -3   0 251.225 107.925   3
   7  -3   1 256.145 48.1792   4
   7  -3   1 301.595 83.8358   2
   7  -3   1 439.759 104.956   3
   7  -3   2 744.164 65.3159   4
   7  -3   2 840.799 125.002   2
   7  -3   2 885.621 140.165   3
   7  -3   3 6594.41 344.543   2
   7  -3   3 5371.35 129.301   4
   7  -3   3 5302.29 130.044   4
   7  -3   3 6185.63 349.981   3
   7  -3   4 3351.63 273.340   3
   7  -3   5 137.820 76.4608   3
   7  -2  -9 89.6157 130.047   3
   7  -2  -8 769.615 175.236   2
   7  -2  -8 1146.98 256.656   3
   7  -2  -7 363.053 116.146   2
   7  -2  -7 347.400 168.381   3
   7  -2  -6 295.708 148.293   3
   7  -2  -6 562.645 125.604   2
   7  -2  -5 29.9404 97.1312   3
   7  -2  -5 53.4950 58.6175   2
   7  -2  -4-18.8147 58.3831   2
   7  -2  -4 145.281 84.4813   3
   7  -2  -3 3249.21 250.571   2
   7  -2  -3 2771.45 254.752   3
   7  -2  -2 1985.50 188.672   2
   7  -2  -2 1744.57 186.240   3
   7  -2  -1 4220.50 262.723   4
   7  -2  -1 4447.20 267.618   2
   7  -2  -1 3938.01 259.446   3
   7  -2   0 839.955 119.535   2
   7  -2   0 1013.20 140.886   3
   7  -2   1 2101.61 193.771   2
   7  -2   1 2040.13 153.216   4
   7  -2   1 1950.81 176.960   3
   7  -2   2 238.821 76.7790   2
   7  -2   2 185.237 52.9946   3
   7  -2   3 3684.44 264.843   2
   7  -2   3 3831.33 252.847   3
   7  -2   4 5546.96 333.975   2
   7  -2   4 5310.15 203.515   4
   7  -2   4 5148.45 306.339   3
   7  -2   5 398.380 61.1063   4
   7  -2   5 309.027 88.2229   3
   7  -1  -8 88.9457 74.8902   2
   7  -1  -7 1325.14 245.977   3
   7  -1  -7 1945.08 265.259   2
   7  -1  -6 339.293 141.145   3
   7  -1  -6 280.822 113.385   2
   7  -1  -5 1531.59 231.610   3
   7  -1  -5 1646.61 213.317   2
   7  -1  -4 3058.66 269.345   2
   7  -1  -4 2492.79 259.930   3
   7  -1  -3 4041.00 296.015   2
   7  -1  -3 4718.24 320.875   3
   7  -1  -2 13111.7 503.337   2
   7  -1  -2 12907.2 476.663   3
   7  -1  -1 3737.00 258.105   2
   7  -1  -1 3795.41 235.562   3
   7  -1   0 6133.22 320.740   4
   7  -1   0 5929.31 317.343   2
   7  -1   0 5998.22 282.233   3
   7  -1   1 2050.52 197.260   2
   7  -1   1 1932.32 158.824   3
   7  -1   2 394.160 108.243   2
   7  -1   2 342.878 74.6749   3
   7  -1   3 6653.90 357.691   2
   7  -1   3 6714.05 298.668   3
   7  -1   4 3593.36 274.541   2
   7  -1   4 3893.18 241.041   3
   7  -1   5 1262.21 123.653   4
   7  -1   5 1306.79 180.338   2
   7  -1   6-31.9157 50.2543   4
   7  -1   7 57.5003 63.1211   4
   7   0  -7-39.7227 54.9714   2
   7   0  -6 1505.48 224.092   2
   7   0  -5 321.357 106.218   2
   7   0  -4 506.194 143.539   3
   7   0  -4 582.632 131.747   2
   7   0  -3 1360.22 178.799   3
   7   0  -3 1031.56 164.986   2
   7   0  -2-25.5345 53.6061   2
   7   0  -2 105.494 74.4224   3
   7   0  -1 4176.92 291.201   2
   7   0  -1 3943.73 223.169   3
   7   0   0 1383.58 166.819   2
   7   0   0 1085.48 108.078   3
   7   0   1 527.811 100.383   2
   7   0   1 730.604 84.0921   3
   7   0   2 5714.35 333.508   2
   7   0   2 5719.35 223.203   3
   7   0   3 484.981 122.221   2
   7   0   3 582.963 80.0687   3
   7   0   4 3189.98 265.677   2
   7   0   5 992.080 163.565   2
   7   0   6 3247.72 290.057   2
   7   0   6 3183.13 221.542   4
   7   0   7 219.294 74.5701   4
   7   0   8 281.632 91.8611   4
   7   0   9 41.1378 67.2617   4
   7   1  -7 1043.92 212.262   2
   7   1  -6 126.239 106.070   2
   7   1  -5 1371.50 211.157   2
   7   1  -4 692.965 146.622   2
   7   1  -3 3623.48 309.847   2
   7   1  -3 3716.37 279.893   3
   7   1  -2 172.982 71.6427   2
   7   1  -2 383.219 93.2381   3
   7   1  -1 629.066 122.213   2
   7   1  -1 782.110 103.593   3
   7   1   0 1917.97 201.097   2
   7   1   0 1646.08 109.801   3
   7   1   1 1726.83 183.020   2
   7   1   1 2170.55 103.921   3
   7   1   2 68.5325 62.0548   2
   7   1   2-1.41223 18.8980   3
   7   1   3 349.213 107.432   2
   7   1   4 3131.41 264.608   2
   7   1   5 473.430 121.740   2
   7   1   6 899.717 163.623   2
   7   1   7 504.039 128.808   2
   7   1   7 623.999 116.243   4
   7   1   8 281.348 93.2837   4
   7   1   9 736.947 151.815   4
   7   1  10 276.112 102.367   4
   7   2  -6 176.000 99.0059   2
   7   2  -5 116.654 92.1511   2
   7   2  -4 1462.49 219.858   2
   7   2  -3 87.7072 65.0318   2
   7   2  -2 1790.18 221.944   2
   7   2  -2 1832.54 177.226   3
   7   2  -1 232.625 85.9615   2
   7   2  -1 213.908 61.0129   3
   7   2   0 1373.32 177.295   2
   7   2   0 1193.14 73.0452   3
   7   2   0 1077.02 73.4441   3
   7   2   1 3133.44 252.255   2
   7   2   2 403.229 103.735   2
   7   2   3 2029.85 219.306   2
   7   2   4 1233.91 191.220   2
   7   2   5 2975.99 272.407   2
   7   2   6 1650.69 210.361   2
   7   2   7 706.861 158.847   2
   7   2   8 219.786 98.4921   2
   7   2   8 209.367 90.8282   4
   7   2   9 179.287 98.5031   4
   7   2  10 125.547 79.6935   4
   7   2  11 63.2861 88.0277   4
   7   3  -5-50.4069 62.1809   2
   7   3  -4 47.5113 67.2556   2
   7   3  -3-39.4542 63.9058   2
   7   3  -2 53.5551 57.7912   2
   7   3  -1 1072.55 110.187   3
   7   3  -1 1156.56 176.015   2
   7   3   0 354.089 31.2194   3
   7   3   0 328.678 31.4075   3
   7   3   0 673.459 142.426   2
   7   3   1 4953.81 332.444   2
   7   3   2 1119.15 166.399   2
   7   3   3 1504.45 191.769   2
   7   3   4 3087.51 270.642   2
   7   3   5 94.2902 69.9219   2
   7   3   6 6040.25 398.607   2
   7   3   7 926.468 170.856   2
   7   3   8 683.084 155.665   2
   7   3   8 470.885 114.358   4
   7   3   9 103.410 87.2481   4
   7   3  10 537.739 144.409   4
   7   3  11 466.186 143.419   4
   7   3  12 64.5738 74.9847   4
   7   4  -5 314.657 133.917   2
   7   4  -4-120.958 103.490   2
   7   4  -3 937.560 189.667   2
   7   4  -2 939.060 184.014   2
   7   4  -1 1120.93 183.119   2
   7   4   0 432.274 36.6136   3
   7   4   0 729.710 144.110   2
   7   4   1 711.355 145.198   2
   7   4   2-301.403 100.707   2
   7   4   3 1531.15 196.762   2
   7   4   4 2252.02 241.447   2
   7   4   5 459.556 120.309   2
   7   4   6 202.674 99.0541   2
   7   4   7 719.146 157.685   2
   7   4   8 435.690 139.469   2
   7   4   9 297.005 113.346   2
   7   4   9 331.399 115.638   4
   7   4  10 95.5496 111.327   4
   7   4  11 147.575 87.7350   4
   7   4  12 289.889 138.189   4
   7   5  -4 65.6718 73.1282   2
   7   5  -3-172.347 108.481   2
   7   5  -2 831.593 165.573   2
   7   5  -1 679.991 152.997   2
   7   5   0 1220.49 196.942   2
   7   5   1 1923.78 230.615   2
   7   5   2-355.285 109.288   2
   7   5   3 285.917 97.7084   2
   7   5   4 391.767 121.234   2
   7   5   5 228.906 107.773   2
   7   5   6 204.488 101.769   2
   7   5   7 51.1810 90.5235   2
   7   5   8 27.4954 78.2744   2
   7   5   9 15.6870 91.4855   2
   7   5   9 68.0392 69.6670   4
   7   5  10 201.150 108.884   4
   7   5  11-32.4058 71.7724   4
   7   5  12-73.0540 95.5748   4
   7   6  -3 322.228 123.788   2
   7   6  -2 289.600 126.764   2
   7   6  -1 1001.28 192.121   2
   7   6   0 411.446 139.247   2
   7   6   1 1687.44 225.016   2
   7   6   2-30.4835 80.6502   2
   7   6   3-147.966 96.6522   2
   7   6   4 477.481 132.449   2
   7   6   5 388.615 133.837   2
   7   6   6 2473.80 283.933   2
   7   6   7 354.059 139.355   2
   7   6   8 136.584 93.6972   2
   7   6   9 151.458 115.969   2
   7   6  10 616.343 189.625   2
   7   6  10 694.129 172.141   4
   7   6  11 452.366 157.263   4
   7   7  -2 9.35040 67.0879   2
   7   7  -1 207.584 102.727   2
   7   7   0 207.673 107.420   2
   7   7   1 112.303 84.1735   2
   7   7   2-44.4149 86.0137   2
   7   7   3 153.107 95.0417   2
   7   7   4 229.456 105.300   2
   7   7   5 96.7138 102.954   2
   7   7   6 417.869 136.496   2
   7   7   7 783.003 179.826   2
   7   7   8 247.785 122.258   2
   7   7   9 173.747 109.781   2
   7   7  10 327.613 135.167   2
   7   7  10 318.979 145.410   4
   7   7  11 147.341 108.168   4
   7   8  -1 224.475 123.283   2
   7   8   0-6.51829 70.6540   2
   7   8   1 643.975 157.425   2
   7   8   2-52.0153 108.595   2
   7   8   3 5.17506 69.5652   2
   7   8   4 156.006 101.924   2
   7   8   5 84.4722 84.9248   2
   7   8   6 510.282 162.678   2
   7   8   7 259.233 116.704   2
   7   8   8 46.2166 84.5984   2
   7   8   9 70.3282 122.828   2
   7   8  10 151.043 121.380   2
   7   8  10 75.9619 94.6622   4
   7   9   0 177.847 110.707   2
   7   9   1 727.291 183.543   2
   7   9   2 351.555 121.394   2
   7   9   3 43.9399 88.3901   2
   7   9   4 253.704 117.403   2
   7   9   5 128.743 101.134   2
   7   9   6 782.886 182.256   2
   7   9   7 115.535 109.346   2
   7   9   8-146.352 122.973   2
   7   9   9-127.424 121.835   2
   7   9  10-28.6137 90.8502   2
   7  10   2-126.514 129.472   2
   7  10   3 491.942 148.245   2
   7  10   4 80.1193 84.5417   2
   7  10   5 243.625 138.075   2
   7  10   6-24.0743 108.837   2
   7  10   7-68.6268 87.7347   2
   7  10   8 98.6614 101.647   2
   7  10   9 263.076 128.483   2
   7  11   4 301.228 130.509   2
   7  11   5 214.267 130.928   2
   7  11   6 32.1315 92.3936   2
   7  11   7 63.8460 89.9589   2
   7  11   8-33.9785 122.319   2
   8  -9  -3 160.120 130.014   3
   8  -9  -2 109.850 111.580   3
   8  -9  -1 194.172 148.650   3
   8  -8  -5 819.784 211.703   3
   8  -8  -4 412.384 121.804   3
   8  -8  -3 773.200 185.498   3
   8  -8  -2 1181.37 217.094   3
   8  -8  -1 2741.52 322.677   3
   8  -8   0 1868.88 279.820   3
   8  -8   1 586.522 162.186   3
   8  -8   2 187.205 106.680   3
   8  -7  -6 78.9360 97.4400   3
   8  -7  -5 865.228 202.839   3
   8  -7  -4 2216.51 289.622   3
   8  -7  -3 336.594 139.294   3
   8  -7  -2 167.269 101.452   3
   8  -7  -1 788.502 174.234   3
   8  -7   0 2179.49 277.838   3
   8  -7   1 759.613 176.723   3
   8  -7   2 947.609 203.373   3
   8  -7   3 904.345 191.576   3
   8  -7   4 616.768 161.230   3
   8  -6  -7 847.278 230.794   3
   8  -6  -6 92.3323 137.423   3
   8  -6  -5 269.950 133.767   3
   8  -6  -4 1680.37 253.092   3
   8  -6  -3 1973.87 260.885   3
   8  -6  -2 221.999 111.313   3
   8  -6  -1 824.755 173.065   3
   8  -6   0 848.995 164.972   3
   8  -6   1 1037.41 182.500   3
   8  -6   2 96.1063 78.9996   3
   8  -6   3 30.0920 72.6116   3
   8  -6   4 238.988 110.180   3
   8  -6   5 253.841 144.280   3
   8  -5  -7 2785.70 364.776   3
   8  -5  -6 393.444 170.690   3
   8  -5  -5 1729.61 189.142   2
   8  -5  -5 1275.29 230.611   3
   8  -5  -4 1320.06 156.976   2
   8  -5  -4 1134.98 198.561   3
   8  -5  -3 1841.90 172.322   2
   8  -5  -3 1572.73 229.312   3
   8  -5  -2 109.354 61.8033   2
   8  -5  -2-97.6923 114.877   3
   8  -5  -1 10.2021 43.0700   2
   8  -5  -1 10.0177 67.9372   3
   8  -5   0 992.115 123.740   2
   8  -5   0 1056.52 178.132   3
   8  -5   1 846.626 119.852   2
   8  -5   1 717.632 154.768   3
   8  -5   2 897.951 168.580   3
   8  -5   3 7.85198 76.9096   3
   8  -5   4-70.4452 82.7699   3
   8  -5   5 239.263 124.882   3
   8  -4  -8 538.435 138.491   2
   8  -4  -8 490.393 202.648   3
   8  -4  -7 173.740 93.7548   2
   8  -4  -7-36.7238 116.085   3
   8  -4  -6-52.2615 61.5502   2
   8  -4  -6-90.6224 99.7688   3
   8  -4  -5 54.0517 39.1618   2
   8  -4  -5 174.630 119.178   3
   8  -4  -4 1312.67 165.114   2
   8  -4  -4 1094.11 194.354   3
   8  -4  -3 1543.65 173.195   2
   8  -4  -3 1567.99 213.652   3
   8  -4  -2 2306.40 201.783   2
   8  -4  -2 2529.50 256.022   3
   8  -4  -1 791.428 121.741   2
   8  -4  -1 941.566 172.675   3
   8  -4   0 489.575 99.7536   2
   8  -4   0 489.991 123.448   3
   8  -4   1 454.628 101.151   2
   8  -4   1 360.598 100.698   3
   8  -4   2 2628.24 223.532   2
   8  -4   2 2669.90 258.080   3
   8  -4   3 4217.15 289.265   2
   8  -4   3 4088.68 318.982   3
   8  -4   4 860.963 159.283   3
   8  -4   5 295.829 110.887   3
   8  -3  -8 155.518 84.5056   2
   8  -3  -8 229.697 143.466   3
   8  -3  -7 859.390 173.585   2
   8  -3  -7 591.554 194.820   3
   8  -3  -6 197.631 68.0414   2
   8  -3  -6 121.432 104.623   3
   8  -3  -5 125.925 62.4217   2
   8  -3  -5 249.329 130.826   3
   8  -3  -4-3.70442 50.4903   2
   8  -3  -4-2.99528 69.2291   3
   8  -3  -3 945.596 145.577   2
   8  -3  -3 1056.00 181.726   3
   8  -3  -2 34.7662 45.2549   2
   8  -3  -2 75.2595 66.0290   3
   8  -3  -1 381.076 92.5134   2
   8  -3  -1 279.006 92.1707   3
   8  -3   0 1269.42 159.116   2
   8  -3   0 1304.59 173.163   3
   8  -3   1 161.890 69.7825   2
   8  -3   1 141.060 58.3126   3
   8  -3   2 1099.26 150.066   2
   8  -3   2 1057.44 151.834   3
   8  -3   3 406.758 103.229   2
   8  -3   3 618.703 123.163   3
   8  -3   4 1695.61 198.588   2
   8  -3   4 1859.15 209.842   3
   8  -3   5 416.450 113.087   3
   8  -2  -8-283.479 153.164   3
   8  -2  -7 480.706 185.087   3
   8  -2  -7 355.236 120.587   2
   8  -2  -6-58.0320 77.5304   2
   8  -2  -6-23.4479 95.2975   3
   8  -2  -5 408.129 105.068   2
   8  -2  -5 532.215 160.732   3
   8  -2  -4 471.614 113.587   2
   8  -2  -4 574.636 160.913   3
   8  -2  -3 1348.00 177.819   2
   8  -2  -3 1534.06 197.687   3
   8  -2  -2 511.170 119.238   2
   8  -2  -2 567.778 125.455   3
   8  -2  -1 18.2343 68.8394   2
   8  -2  -1-27.4570 68.9979   3
   8  -2   0 2513.83 226.637   2
   8  -2   0 2636.54 212.079   4
   8  -2   0 2429.84 208.267   3
   8  -2   1 1007.61 150.126   2
   8  -2   1 984.333 131.204   3
   8  -2   2 1999.74 201.186   2
   8  -2   2 2303.80 199.918   3
   8  -2   3 1609.83 191.957   2
   8  -2   3 1609.67 174.616   3
   8  -2   4 280.173 95.1240   2
   8  -2   4 352.011 94.9396   3
   8  -2   5 1030.06 170.920   2
   8  -1  -7 332.649 145.165   3
   8  -1  -7 769.795 174.817   2
   8  -1  -6 1042.64 208.067   3
   8  -1  -6 1206.47 209.193   2
   8  -1  -5 116.006 72.5950   2
   8  -1  -5 259.798 122.625   3
   8  -1  -4 813.614 151.556   2
   8  -1  -4 952.756 171.596   3
   8  -1  -3 1502.08 193.080   2
   8  -1  -3 1547.95 187.711   3
   8  -1  -2 4769.66 327.931   2
   8  -1  -2 4274.62 276.225   3
   8  -1  -1 2624.95 238.897   2
   8  -1  -1 2209.14 189.382   3
   8  -1   0 1862.50 198.627   2
   8  -1   0 1835.23 162.845   3
   8  -1   1 270.498 80.2667   2
   8  -1   1 284.665 68.3422   3
   8  -1   2 3335.82 266.853   2
   8  -1   2 3315.37 208.408   3
   8  -1   3 2892.56 258.430   2
   8  -1   3 3045.97 204.911   3
   8  -1   4 372.865 110.841   2
   8  -1   4 557.203 100.979   3
   8  -1   5 244.918 93.8957   2
   8  -1   6 681.271 137.456   2
   8  -1   6 851.221 116.087   4
   8   0  -6 196.535 132.556   3
   8   0  -6 64.7351 75.5921   2
   8   0  -5 1366.22 222.197   3
   8   0  -5 1296.07 213.942   2
   8   0  -4 671.161 149.426   2
   8   0  -4 523.995 135.964   3
   8   0  -3 1431.23 209.099   2
   8   0  -3 1588.50 189.774   3
   8   0  -2 84.3824 57.1266   2
   8   0  -2 274.424 90.1474   3
   8   0  -1 497.343 118.260   2
   8   0  -1 400.937 80.0604   3
   8   0   0 1532.63 183.910   2
   8   0   0 1786.34 142.584   3
   8   0   1 164.860 63.9291   2
   8   0   1 260.764 58.6983   3
   8   0   2 2266.04 230.486   2
   8   0   2 2156.19 141.040   3
   8   0   3 1528.91 197.403   2
   8   0   3 1727.77 133.348   3
   8   0   4 503.973 124.000   2
   8   0   5 96.6738 96.4685   2
   8   0   6 355.997 116.769   2
   8   0   6 294.736 75.0514   4
   8   0   7 126.995 81.4559   2
   8   0   7 225.185 77.2991   4
   8   1  -6-8.38999 55.0000   2
   8   1  -5 174.165 78.2641   2
   8   1  -4 921.666 168.924   3
   8   1  -4 782.886 161.715   2
   8   1  -3 935.081 168.995   2
   8   1  -3 952.833 150.273   3
   8   1  -2 1247.62 188.471   2
   8   1  -2 1180.47 144.824   3
   8   1  -1-13.4457 57.0369   2
   8   1  -1 88.3247 48.5424   3
   8   1   0 1487.46 194.688   2
   8   1   0 1089.66 93.6285   3
   8   1   1-2.24522 66.1510   2
   8   1   1 106.755 26.5831   3
   8   1   2 799.417 151.600   2
   8   1   3 1397.95 192.213   2
   8   1   4 28.1225 66.7629   2
   8   1   5 607.714 138.523   2
   8   1   6 365.160 120.617   2
   8   1   7 981.105 185.751   2
   8   1   7 851.342 137.614   4
   8   1   8 516.840 112.224   4
   8   1   9 438.862 118.486   4
   8   2  -5-138.602 129.590   2
   8   2  -4-44.6594 101.286   2
   8   2  -3 1621.69 231.079   2
   8   2  -2 952.908 173.560   2
   8   2  -1 398.084 121.760   2
   8   2  -1 497.928 75.3835   3
   8   2   0 148.968 82.4115   2
   8   2   1-346.596 105.880   2
   8   2   2 1053.72 167.952   2
   8   2   3 3430.57 299.858   2
   8   2   4 462.893 127.229   2
   8   2   5 92.6229 87.3631   2
   8   2   6 195.041 107.616   2
   8   2   7-12.7746 86.1201   2
   8   2   8 229.928 114.205   2
   8   2   8 230.007 94.5841   4
   8   2   9 146.602 84.4009   4
   8   2  10-69.6865 82.6979   4
   8   3  -4-229.458 109.564   2
   8   3  -3 64.7480 66.5712   2
   8   3  -2 258.195 109.257   2
   8   3  -1 452.518 131.985   2
   8   3   0 1423.37 209.443   2
   8   3   1 660.959 144.232   2
   8   3   2 1225.98 187.290   2
   8   3   3 2456.29 266.125   2
   8   3   4 1482.07 207.520   2
   8   3   5 625.405 141.320   2
   8   3   6 578.595 159.718   2
   8   3   7 671.454 161.553   2
   8   3   8 514.418 163.434   2
   8   3   9 207.293 91.9032   2
   8   3   9 277.085 94.7699   4
   8   3  10 130.140 98.9473   4
   8   3  11 386.361 122.706   4
   8   4  -3 84.8269 69.0925   2
   8   4  -2 358.391 134.715   2
   8   4  -1 482.198 139.591   2
   8   4   0 1429.07 214.665   2
   8   4   1 108.455 85.9564   2
   8   4   2-45.5277 96.4355   2
   8   4   3 3381.54 312.369   2
   8   4   4 1141.72 193.695   2
   8   4   5 2065.94 251.863   2
   8   4   6 328.650 135.187   2
   8   4   7 518.415 156.099   2
   8   4   8 873.373 184.936   2
   8   4   9 670.388 172.138   2
   8   4   9 475.130 131.144   4
   8   4  10 83.5113 80.6946   4
   8   4  11 304.688 137.752   4
   8   5  -3 237.286 140.588   2
   8   5  -2 429.642 150.356   2
   8   5  -1 789.637 176.669   2
   8   5   0 1263.79 211.913   2
   8   5   1 169.507 99.9503   2
   8   5   2-129.183 89.5037   2
   8   5   3-108.742 93.6828   2
   8   5   4 524.362 155.308   2
   8   5   5 548.238 144.525   2
   8   5   6 140.599 108.389   2
   8   5   7 489.813 152.863   2
   8   5   8 114.289 112.008   2
   8   5   9 99.8638 87.4146   2
   8   5  10 5.46772 89.8242   2
   8   5  10 129.008 93.6508   4
   8   5  11-26.8348 83.4206   4
   8   6  -2 170.203 96.6664   2
   8   6  -1 317.817 125.363   2
   8   6   0 1225.13 215.857   2
   8   6   1 203.921 96.4242   2
   8   6   2 393.618 114.629   2
   8   6   3 298.928 105.202   2
   8   6   4 56.2192 79.9727   2
   8   6   5 967.015 196.629   2
   8   6   6 812.938 188.225   2
   8   6   7 463.606 139.557   2
   8   6   8 82.9047 110.533   2
   8   6   9-10.6513 92.1980   2
   8   6  10 137.402 117.552   2
   8   6  10 195.922 124.833   4
   8   6  11 144.109 119.956   4
   8   7   0 662.034 173.946   2
   8   7   1 301.216 127.766   2
   8   7   2-69.6086 114.385   2
   8   7   3 395.596 124.619   2
   8   7   4-0.96082 76.3048   2
   8   7   5 281.398 119.770   2
   8   7   6-30.4008 92.0505   2
   8   7   7 352.269 144.089   2
   8   7   8 193.191 101.636   2
   8   7   9 22.5679 108.160   2
   8   8   1-108.854 98.8159   2
   8   8   2-139.883 124.538   2
   8   8   3 23.3404 87.1932   2
   8   8   4 10.5853 76.4511   2
   8   8   5 448.664 155.016   2
   8   8   6 289.601 135.918   2
   8   8   7 47.6069 126.885   2
   8   8   8 69.1482 96.4843   2
   8   8   9 334.878 145.714   2
   8   9   3 354.333 144.650   2
   8   9   4-206.428 115.221   2
   8   9   5 544.707 168.924   2
   8   9   6 69.3925 120.203   2
   8   9   7 425.274 164.082   2
   8   9   8 59.0105 93.2645   2
   9  -8  -3 236.231 149.262   3
   9  -8  -2 321.500 154.118   3
   9  -8  -1 458.587 148.475   3
   9  -8   0 958.023 214.194   3
   9  -7  -5 75.5704 107.694   3
   9  -7  -4 543.165 168.433   3
   9  -7  -3 622.329 183.783   3
   9  -7  -2 527.426 154.473   3
   9  -7  -1 82.5350 96.3067   3
   9  -7   0 994.051 207.841   3
   9  -7   1 669.801 175.872   3
   9  -7   2 481.121 155.141   3
   9  -7   3 602.427 172.035   3
   9  -6  -6 3.71029 102.594   3
   9  -6  -5 139.609 106.770   3
   9  -6  -4 603.296 175.164   3
   9  -6  -3 586.534 167.098   3
   9  -6  -2 713.395 168.414   3
   9  -6  -1 279.482 114.080   3
   9  -6   0 288.635 112.348   3
   9  -6   1 643.137 157.583   3
   9  -6   2 288.045 107.212   3
   9  -6   3 763.032 169.061   3
   9  -6   4 140.970 90.8601   3
   9  -6   5 114.913 88.0532   3
   9  -5  -7 294.990 164.168   3
   9  -5  -6 819.184 217.696   3
   9  -5  -5 840.646 197.547   3
   9  -5  -4 964.738 193.106   3
   9  -5  -3 566.721 139.270   3
   9  -5  -2 1848.88 247.999   3
   9  -5  -1 329.534 120.480   3
   9  -5   0 55.8377 68.7905   3
   9  -5   1 128.129 80.1137   3
   9  -5   2 703.369 141.183   3
   9  -5   3 563.400 139.906   3
   9  -5   4-41.0981 93.5136   3
   9  -5   5-42.7886 94.9433   3
   9  -4  -7 399.570 174.793   3
   9  -4  -6 331.631 138.218   3
   9  -4  -5 475.991 126.285   2
   9  -4  -5 342.818 156.646   3
   9  -4  -4 251.979 95.3561   2
   9  -4  -4 21.1632 91.2066   3
   9  -4  -3 114.410 48.9380   2
   9  -4  -3 54.1005 86.1990   3
   9  -4  -2 272.685 81.7108   2
   9  -4  -2 353.915 116.891   3
   9  -4  -1 1197.09 158.769   2
   9  -4  -1 1325.36 194.007   3
   9  -4   0 132.038 62.5343   2
   9  -4   0 155.137 84.8885   3
   9  -4   1-131.877 73.9242   2
   9  -4   1-39.0248 85.5331   3
   9  -4   2 113.502 82.6883   2
   9  -4   2 42.6255 59.9173   3
   9  -4   3 767.444 141.618   2
   9  -4   3 835.211 160.750   3
   9  -4   4 87.6363 75.8451   3
   9  -4   5 40.9254 65.1686   3
   9  -3  -7 121.089 79.8613   2
   9  -3  -6-40.6610 87.3945   2
   9  -3  -6 48.9683 107.473   3
   9  -3  -5 273.866 104.003   2
   9  -3  -5 429.927 157.101   3
   9  -3  -4 504.473 119.793   2
   9  -3  -4 500.330 148.388   3
   9  -3  -3 119.618 73.7813   2
   9  -3  -3 9.45496 77.2113   3
   9  -3  -2 400.781 81.2962   2
   9  -3  -2 394.697 104.665   3
   9  -3  -1 1019.47 155.295   2
   9  -3  -1 1096.96 173.526   3
   9  -3   0 2026.78 212.547   2
   9  -3   0 1686.58 194.164   3
   9  -3   1 420.144 98.0035   2
   9  -3   1 272.577 88.5963   3
   9  -3   2 301.736 101.882   2
   9  -3   2 444.048 107.345   3
   9  -3   3 2377.53 242.748   2
   9  -3   3 2419.62 234.038   3
   9  -3   4 2875.15 275.855   2
   9  -3   4 2415.56 243.495   3
   9  -3   5 1428.98 197.803   3
   9  -2  -6 121.850 95.7212   2
   9  -2  -5 257.898 93.1621   2
   9  -2  -5 362.231 128.100   3
   9  -2  -4 359.334 111.232   2
   9  -2  -4 663.746 158.400   3
   9  -2  -3 227.514 93.9480   2
   9  -2  -3 173.782 96.0951   3
   9  -2  -2 247.448 94.9643   2
   9  -2  -2-40.6576 73.3468   3
   9  -2  -1 235.407 80.0325   2
   9  -2  -1 630.261 125.123   3
   9  -2   0 428.447 108.603   2
   9  -2   0 362.297 87.7178   3
   9  -2   1 1468.77 201.569   2
   9  -2   1 1500.07 165.611   3
   9  -2   2 28.1551 77.9393   2
   9  -2   2 63.5454 58.6955   3
   9  -2   3 63.5799 69.1045   2
   9  -2   3 15.8648 43.7939   3
   9  -2   4 2.75769 61.5734   2
   9  -2   4 59.0945 65.6883   3
   9  -2   5 435.884 118.662   2
   9  -1  -6 29.4264 72.8168   2
   9  -1  -5 506.084 138.102   2
   9  -1  -4 947.724 178.552   2
   9  -1  -3-17.4846 51.0215   2
   9  -1  -3 164.528 89.8408   3
   9  -1  -2 285.809 103.616   2
   9  -1  -2 149.400 76.2382   3
   9  -1  -1 953.839 154.497   2
   9  -1  -1 793.145 118.723   3
   9  -1   0 1297.13 146.483   3
   9  -1   0 988.778 163.387   2
   9  -1   1 964.880 167.003   2
   9  -1   1 651.924 102.466   3
   9  -1   2 1583.71 206.056   2
   9  -1   2 1448.58 142.730   3
   9  -1   3 833.510 155.654   2
   9  -1   3 838.972 115.454   3
   9  -1   4 602.269 104.484   3
   9  -1   4 420.340 118.728   2
   9  -1   5 43.9799 73.6007   2
   9  -1   6 282.511 114.827   2
   9   0  -5 332.578 113.756   2
   9   0  -4 1294.96 214.617   2
   9   0  -3 975.293 179.039   2
   9   0  -2 669.411 149.026   2
   9   0  -1 1735.67 220.935   2
   9   0   0 1581.12 205.758   2
   9   0   1 2353.24 252.448   2
   9   0   2 931.369 167.062   2
   9   0   3 1337.81 202.275   2
   9   0   4 115.454 92.0945   2
   9   0   5 653.860 155.495   2
   9   0   6 185.698 110.124   2
   9   0   7 477.110 141.615   2
   9   1  -4 1013.72 204.351   2
   9   1  -3 228.663 103.170   2
   9   1  -2 102.103 73.6287   2
   9   1  -1 217.952 98.3277   2
   9   1   0-365.307 112.795   2
   9   1   1 637.131 140.900   2
   9   1   2 554.343 131.357   2
   9   1   3 157.832 99.5783   2
   9   1   4 51.4303 82.8907   2
   9   1   5-11.5308 73.1813   2
   9   1   6 228.792 118.147   2
   9   1   7 477.956 135.583   2
   9   1   8 552.563 164.356   2
   9   2  -4 131.593 68.8361   2
   9   2  -3 669.219 163.079   2
   9   2  -2 469.293 137.442   2
   9   2  -1 1331.59 211.514   2
   9   2   0 28.3535 81.1794   2
   9   2   1 81.7721 72.6194   2
   9   2   2 1264.03 196.073   2
   9   2   3 676.342 149.896   2
   9   2   4 650.265 157.652   2
   9   2   5 152.892 103.654   2
   9   2   6 312.207 131.579   2
   9   2   7 200.667 109.491   2
   9   2   8 158.114 117.356   2
   9   2   8 189.288 88.1592   4
   9   2   9 289.057 110.875   4
   9   3  -3 113.965 88.9710   2
   9   3  -2 266.290 115.792   2
   9   3  -1 204.923 103.783   2
   9   3   0 115.777 87.8646   2
   9   3   1 11.1823 77.0964   2
   9   3   2 652.316 161.120   2
   9   3   3 580.393 149.821   2
   9   3   4 434.609 135.729   2
   9   3   5 164.915 96.9366   2
   9   3   6 248.477 126.996   2
   9   3   7 178.110 111.474   2
   9   3   8 228.190 82.7238   2
   9   3   9 404.656 149.539   2
   9   3   9 127.337 90.3496   4
   9   3  10 143.538 92.9248   4
   9   4  -2-85.4074 64.4264   2
   9   4  -1 96.2689 85.8290   2
   9   4   0 342.664 135.137   2
   9   4   1 181.888 80.9062   2
   9   4   2 819.467 178.148   2
   9   4   3 699.439 161.929   2
   9   4   4 924.731 186.263   2
   9   4   5 791.770 173.689   2
   9   4   6-0.32250 83.4894   2
   9   4   7 101.708 123.901   2
   9   4   8 456.045 159.455   2
   9   4   9 258.105 140.137   2
   9   4   9 262.831 106.164   4
   9   4  10 543.370 151.864   4
   9   5  -1 585.942 168.373   2
   9   5   0 289.551 130.534   2
   9   5   1 54.8969 71.0449   2
   9   5   2 457.136 138.966   2
   9   5   3 61.7526 69.5235   2
   9   5   4 220.365 121.109   2
   9   5   5 496.064 156.775   2
   9   5   6 92.1348 102.188   2
   9   5   7-319.160 131.326   2
   9   5   8 61.0867 86.9843   2
   9   5   9 162.795 121.401   2
   9   5  10 326.067 141.711   4
   9   6   0 54.9248 82.9940   2
   9   6   1-67.3290 114.753   2
   9   6   2 434.164 142.833   2
   9   6   3 401.211 144.008   2
   9   6   4 209.118 126.686   2
   9   6   5 115.483 115.249   2
   9   6   6 52.3116 88.1049   2
   9   6   7 117.492 108.990   2
   9   6   8-87.6421 135.058   2
   9   6  10 176.219 81.1142   4
   9   7   2 108.566 92.9426   2
   9   7   3 538.965 152.185   2
   9   7   4 190.432 128.873   2
   9   7   5 146.792 121.465   2
   9   7   6 240.857 105.128   2
   9   7   7 330.442 153.043   2
   9   7   8 296.649 138.435   2
   9   8   4-66.7055 96.4945   2
   9   8   5 341.675 156.819   2
   9   8   6-104.725 137.542   2
  10  -7  -3 624.920 164.691   3
  10  -7  -2 64.8770 96.2946   3
  10  -7  -1 172.634 112.113   3
  10  -7   0 1290.16 235.577   3
  10  -7   1 1020.95 212.743   3
  10  -6  -4-130.129 150.733   3
  10  -6  -3 1099.85 217.568   3
  10  -6  -2 116.820 104.626   3
  10  -6  -1 333.008 112.404   3
  10  -6   0 46.6598 77.3881   3
  10  -6   1 425.020 141.840   3
  10  -6   2 779.722 186.685   3
  10  -6   3 422.066 133.083   3
  10  -5  -4 280.680 132.964   3
  10  -5  -3 634.344 157.969   3
  10  -5  -2 302.356 127.617   3
  10  -5  -1 582.107 147.933   3
  10  -5   0 450.929 135.259   3
  10  -5   1 97.0935 92.8483   3
  10  -5   2 776.564 166.060   3
  10  -5   3 94.3227 88.6856   3
  10  -5   4-64.0202 79.4153   3
  10  -4  -2 107.725 87.1428   3
  10  -4  -1 311.762 112.192   3
  10  -4   0 24.3435 68.6070   3
  10  -4   1-68.6434 80.5932   3
  10  -4   2 254.245 103.143   3
  10  -4   3 91.4280 60.4160   3
  10  -4   4 159.338 88.6381   3
  10  -3  -5 17.1202 56.7469   2
  10  -3  -4 18.2787 52.8228   2
  10  -3  -3-169.504 122.766   2
  10  -3  -2-34.5018 82.4686   2
  10  -3  -1 756.483 144.089   2
  10  -3   0 901.836 156.792   2
  10  -3   1 415.234 117.945   2
  10  -3   2 293.693 109.201   2
  10  -3   3 106.461 81.3649   2
  10  -3   4 543.990 138.221   2
  10  -2  -5 463.600 136.715   2
  10  -2  -4-24.0138 59.5338   2
  10  -2  -3 442.892 133.954   2
  10  -2  -2-155.073 108.285   2
  10  -2  -1-57.0434 83.6615   2
  10  -2   0-39.7770 57.2076   2
  10  -2   1 50.0358 73.0619   2
  10  -2   2 1339.98 197.556   2
  10  -2   3 202.231 86.9309   2
  10  -2   4-157.496 93.2557   2
  10  -2   5 119.784 90.4328   2
  10  -1  -4 229.207 97.0087   2
  10  -1  -3 225.894 110.255   2
  10  -1  -2 420.868 124.528   2
  10  -1  -1 176.091 66.6083   2
  10  -1   0 156.838 74.0924   2
  10  -1   1 221.795 94.9807   2
  10  -1   2 985.774 173.476   2
  10  -1   3 691.333 153.785   2
  10  -1   4 119.894 80.8931   2
  10  -1   5-18.3994 92.0626   2
  10  -1   6 323.346 131.810   2
  10   0  -4 192.820 75.4585   2
  10   0  -3 488.471 156.679   2
  10   0  -2 294.567 112.725   2
  10   0  -1 694.321 147.968   2
  10   0   0 846.364 170.870   2
  10   0   1 736.231 159.497   2
  10   0   2 1019.19 186.353   2
  10   0   3 309.369 124.833   2
  10   0   4 540.480 147.979   2
  10   0   5 56.4430 92.2202   2
  10   0   6 341.585 136.803   2
  10   0   7 159.507 96.1824   2
  10   1  -3 290.549 122.366   2
  10   1  -2 660.631 172.137   2
  10   1  -1 127.245 97.7590   2
  10   1   0-199.071 124.732   2
  10   1   1-80.5919 88.0896   2
  10   1   2 774.103 164.950   2
  10   1   3 460.870 141.799   2
  10   1   4 50.9430 75.9087   2
  10   1   5 141.266 99.6329   2
  10   1   6 546.573 153.086   2
  10   1   7-162.193 130.830   2
  10   1   8-87.4849 118.468   2
  10   2  -2 245.653 118.106   2
  10   2  -1 551.987 153.045   2
  10   2   0 95.5755 74.0136   2
  10   2   1-154.639 126.814   2
  10   2   2 103.548 88.1123   2
  10   2   3 131.041 95.7046   2
  10   2   4 87.1784 81.1665   2
  10   2   5 73.1305 93.0229   2
  10   2   6 234.915 114.459   2
  10   2   7 190.364 121.208   2
  10   2   8 318.561 158.116   2
  10   3  -1 452.283 155.996   2
  10   3   0 174.693 90.9739   2
  10   3   1 119.690 69.7433   2
  10   3   2 104.673 66.0459   2
  10   3   3 120.764 102.228   2
  10   3   4 659.633 174.670   2
  10   3   5 322.290 140.588   2
  10   3   6 79.1377 97.6625   2
  10   3   7 161.011 108.950   2
  10   3   8 110.589 130.692   2
  10   4   0-67.2479 83.4391   2
  10   4   1 113.635 81.0539   2
  10   4   2 275.241 123.953   2
  10   4   3 38.8026 81.9579   2
  10   4   4 325.910 136.894   2
  10   4   5 23.6914 80.6801   2
  10   4   6 238.571 137.764   2
  10   4   7 346.848 135.907   2
  10   5   1 121.134 83.7062   2
  10   5   2 180.992 98.3050   2
  10   5   3 198.658 115.113   2
  10   5   4 152.367 126.423   2
  10   5   5 308.872 156.823   2
  10   5   6 256.084 146.243   2
  10   5   7 437.417 167.412   2
  10   6   4 91.1242 106.554   2
  10   6   5 156.228 122.807   2
  11  -2  -3-620.462 153.411   2
  11  -2  -2 104.349 81.2951   2
  11  -2  -1 117.880 84.6804   2
  11  -2   0 192.750 110.896   2
  11  -2   1 1123.20 194.747   2
  11  -2   2 288.539 110.576   2
  11  -2   3 177.954 112.985   2
  11  -2   4 204.531 115.825   2
  11  -2   5 731.929 164.845   2
  11  -1  -3 357.912 131.418   2
  11  -1  -2-176.827 140.590   2
  11  -1  -1 168.582 101.957   2
  11  -1   0-20.6735 73.4606   2
  11  -1   1 268.571 121.239   2
  11  -1   2 65.6271 101.721   2
  11  -1   3 77.3756 78.9470   2
  11  -1   4 178.732 94.3366   2
  11  -1   5 3.07785 88.2168   2
  11  -1   6 266.681 142.022   2
  11   0  -2-81.5118 104.713   2
  11   0  -1-25.3356 114.390   2
  11   0   0 399.135 142.147   2
  11   0   1 598.541 160.151   2
  11   0   2 204.119 113.505   2
  11   0   3 32.7000 78.1089   2
  11   0   4 200.822 107.505   2
  11   0   5 569.673 162.235   2
  11   0   6 212.037 127.231   2
  11   1  -1 203.145 110.075   2
  11   1   0-216.258 123.616   2
  11   1   1 635.508 150.738   2
  11   1   2 348.338 135.038   2
  11   1   3 422.917 149.525   2
  11   1   4-79.9369 113.206   2
  11   1   5 131.875 109.849   2
  11   1   6 435.594 159.533   2
  11   2   0 61.5929 76.5116   2
  11   2   1-178.814 109.138   2
  11   2   2 94.1730 106.758   2
  11   2   3 145.043 102.015   2
  11   2   4 130.984 90.8087   2
  11   2   5-19.8716 102.427   2
  11   2   6 341.303 144.726   2
  11   3   2-25.9473 95.9546   2
  11   3   3 76.1575 100.254   2
  11   3   4 232.793 143.655   2
  11   3   5 385.158 156.825   2
  12  -1   0 245.621 123.519   2
  12  -1   1 212.732 116.064   2
  12  -1   2-267.340 122.177   2
  12  -1   3 41.4296 94.9457   2
  12  -1   4 408.282 157.747   2
  12   0   2 278.664 118.896   2
  12   0   3-84.0814 115.760   2
;
_shelx_hkl_checksum              67439
_shelx_res_file
;
    shelx.res created by SHELXL-2014/7
TITL mo183 in P -1
CELL  0.71073   8.6460   9.6246   9.6615   65.711   78.619   88.191
ZERR     1.00   0.0004   0.0004   0.0005    0.005    0.004    0.004
LATT   1
SFAC  C    H    N    O    F    CU
UNIT  32   22   2    4    6    1
MERG   2
SHEL 20.40 0.77
FMAP   2
PLAN   20
ACTA
BOND   $H
CONF
L.S.   10
SIZE 0.2 0.10 0.03
WGHT    0.053600    0.094700
FVAR       4.28046
CU1   6    0.000000    0.000000    0.500000    10.50000    0.04276    0.03182 =
         0.03741   -0.01649   -0.00477    0.01444
F1    5    0.156633    0.320082   -0.009441    11.00000    0.11735    0.08985 =
         0.04271   -0.03651   -0.01210    0.01379
F2    5    0.353848    0.360122    0.074693    11.00000    0.05383    0.09305 =
         0.06605   -0.02603    0.01327    0.01608
F3    5    0.179309    0.525170    0.021195    11.00000    0.09126    0.05067 =
         0.05172   -0.00762    0.01367    0.01637
N1    3   -0.179273    0.027335    0.331210    11.00000    0.04500    0.05098 =
         0.04696   -0.02455   -0.00559    0.00573
O1    4    0.141600    0.152361    0.308778    11.00000    0.04573    0.04142 =
         0.04623   -0.02088   -0.00761    0.01793
O2    4   -0.098739    0.161513    0.550259    11.00000    0.05138    0.03348 =
         0.03570   -0.01438   -0.00356    0.01547
C1    1    0.198710    0.376562    0.083910    11.00000    0.05971    0.04976 =
         0.04287   -0.01963   -0.00204    0.01909
C2    1    0.106667    0.290943    0.249297    11.00000    0.04029    0.03923 =
         0.03540   -0.01915   -0.00936    0.00955
C3    1   -0.001432    0.368494    0.311269    11.00000    0.04846    0.03383 =
         0.03589   -0.01320   -0.00564    0.01354
AFIX  43
H3    2   -0.012228    0.470967    0.250677    11.00000   -1.20000
AFIX   0
C4    1   -0.096179    0.302306    0.460168    11.00000    0.03632    0.03307 =
         0.03636   -0.01790   -0.01160    0.01083
C5    1   -0.204727    0.395614    0.523715    11.00000    0.03487    0.03435 =
         0.03980   -0.01842   -0.00610    0.00773
C6    1   -0.231543    0.547233    0.436578    11.00000    0.05491    0.03829 =
         0.04553   -0.01579   -0.00307    0.01381
AFIX  43
H6    2   -0.176995    0.596556    0.334569    11.00000   -1.20000
AFIX   0
C7    1   -0.338558    0.625037    0.500432    11.00000    0.06240    0.03825 =
         0.06469   -0.02408   -0.00894    0.02078
AFIX  43
H7    2   -0.356439    0.725907    0.440546    11.00000   -1.20000
AFIX   0
C8    1   -0.417784    0.555783    0.649563    11.00000    0.05315    0.05252 =
         0.06678   -0.03698    0.00077    0.01713
AFIX  43
H8    2   -0.490212    0.608695    0.691475    11.00000   -1.20000
AFIX   0
C9    1   -0.390596    0.407012    0.738559    11.00000    0.08025    0.05334 =
         0.05965   -0.02206    0.02151    0.01458
AFIX  43
H9    2   -0.443528    0.359439    0.841333    11.00000   -1.20000
AFIX   0
C10   1   -0.284615    0.328455    0.675060    11.00000    0.07124    0.03737 =
         0.05087   -0.01447    0.01165    0.01410
AFIX  43
H10   2   -0.266916    0.227869    0.736076    11.00000   -1.20000
AFIX   0
C11   1   -0.325117    0.075402    0.349662    11.00000    0.05654    0.05608 =
         0.05548   -0.03145   -0.00978    0.01540
AFIX  43
H11   2   -0.355353    0.111428    0.426237    11.00000   -1.20000
AFIX   0
C12   1   -0.433391    0.075381    0.263678    11.00000    0.04882    0.05639 =
         0.06007   -0.02864   -0.01066    0.01524
AFIX  43
H12   2   -0.534129    0.108390    0.284153    11.00000   -1.20000
AFIX   0
C13   1   -0.392191    0.025882    0.145799    11.00000    0.04739    0.04058 =
         0.04396   -0.01045   -0.00773    0.00384
C14   1   -0.238316   -0.020533    0.122104    11.00000    0.06258    0.06297 =
         0.04509   -0.03015   -0.00275    0.00621
AFIX  43
H14   2   -0.203361   -0.052866    0.043370    11.00000   -1.20000
AFIX   0
C15   1   -0.138207   -0.018099    0.216533    11.00000    0.04503    0.06832 =
         0.05396   -0.03193   -0.00336    0.01088
AFIX  43
H15   2   -0.036369   -0.049989    0.199051    11.00000   -1.20000
AFIX   0
C16   1   -0.510049    0.023305    0.055504    11.00000    0.05348    0.04279 =
         0.04651   -0.01258   -0.00624    0.00724
AFIX  43
H16   2   -0.608594    0.058430    0.080154    11.00000   -1.20000
AFIX   0
HKLF 4
REM  mo183 in P -1
REM R1 =  0.0457 for    2634 Fo > 4sig(Fo)  and  0.0622 for all    3286 data
REM    205 parameters refined using      0 restraints
END
WGHT      0.0487      0.0892
REM Highest difference peak  0.614,  deepest hole -0.235,  1-sigma level  0.058
Q1    1   0.0630  0.0709  0.4042  11.00000  0.05    0.61
Q2    1  -0.4316 -0.0190  0.0195  11.00000  0.05    0.33
Q3    1   0.1622  0.3513  0.1759  11.00000  0.05    0.32
Q4    1   0.0654  0.0109  0.5641  11.00000  0.05    0.28
Q5    1   0.3012  0.3141  0.0314  11.00000  0.05    0.25
Q6    1  -0.1645  0.0836  0.6389  11.00000  0.05    0.25
Q7    1   0.0931  0.1808  0.2943  11.00000  0.05    0.24
Q8    1  -0.2601  0.3599  0.5788  11.00000  0.05    0.23
Q9    1  -0.2138 -0.0763  0.2392  11.00000  0.05    0.23
Q10   1  -0.3397 -0.0357  0.1436  11.00000  0.05    0.23
Q11   1  -0.1950  0.4678  0.4828  11.00000  0.05    0.22
Q12   1  -0.3506  0.2827  0.6635  11.00000  0.05    0.22
Q13   1   0.2565  0.6168 -0.0474  11.00000  0.05    0.22
Q14   1   0.3261  0.2932  0.1922  11.00000  0.05    0.21
Q15   1  -0.1266  0.2208  0.4987  11.00000  0.05    0.21
Q16   1  -0.4347  0.0240  0.1253  11.00000  0.05    0.20
Q17   1  -0.3625  0.0607  0.3045  11.00000  0.05    0.20
Q18   1  -0.0224  0.3417  0.3969  11.00000  0.05    0.19
Q19   1   0.2277  0.4269 -0.0722  11.00000  0.05    0.19
Q20   1   0.1592  0.5220  0.1272  11.00000  0.05    0.19
;
_shelx_res_checksum              42242
loop_
_space_group_symop_operation_xyz
'x, y, z'
'-x, -y, -z'
loop_
_atom_site_type_symbol
_atom_site_label
_atom_site_fract_x
_atom_site_fract_y
_atom_site_fract_z
_atom_site_U_iso_or_equiv
_atom_site_adp_type
_atom_site_calc_flag
_atom_site_occupancy
Cu Cu1 0.0000 0.0000 0.5000 0.03739(16) Uani d 1
F F1 0.1566(3) 0.3201(2) -0.0094(2) 0.0810(6) Uani d 1
F F2 0.3538(2) 0.3601(2) 0.0747(2) 0.0774(6) Uani d 1
F F3 0.1793(2) 0.52517(19) 0.0212(2) 0.0737(6) Uani d 1
N N1 -0.1793(3) 0.0273(2) 0.3312(3) 0.0468(5) Uani d 1
O O1 0.1416(2) 0.15236(19) 0.3088(2) 0.0441(4) Uani d 1
O O2 -0.0987(2) 0.16151(18) 0.55026(19) 0.0413(4) Uani d 1
C C1 0.1987(3) 0.3766(3) 0.0839(3) 0.0522(7) Uani d 1
C C2 0.1067(3) 0.2909(3) 0.2493(3) 0.0370(5) Uani d 1
C C3 -0.0014(3) 0.3685(3) 0.3113(3) 0.0405(6) Uani d 1
H H3 -0.0122 0.4710 0.2507 0.049 Uiso calc 1
C C4 -0.0962(3) 0.3023(3) 0.4602(3) 0.0336(5) Uani d 1
C C5 -0.2047(3) 0.3956(3) 0.5237(3) 0.0357(5) Uani d 1
C C6 -0.2315(3) 0.5472(3) 0.4366(3) 0.0481(7) Uani d 1
H H6 -0.1770 0.5966 0.3346 0.058 Uiso calc 1
C C7 -0.3386(4) 0.6250(3) 0.5004(4) 0.0552(7) Uani d 1
H H7 -0.3564 0.7259 0.4405 0.066 Uiso calc 1
C C8 -0.4178(3) 0.5558(3) 0.6496(4) 0.0556(8) Uani d 1
H H8 -0.4902 0.6087 0.6915 0.067 Uiso calc 1
C C9 -0.3906(4) 0.4070(4) 0.7386(4) 0.0705(10) Uani d 1
H H9 -0.4435 0.3594 0.8413 0.085 Uiso calc 1
C C10 -0.2846(4) 0.3285(3) 0.6751(4) 0.0583(8) Uani d 1
H H10 -0.2669 0.2279 0.7361 0.070 Uiso calc 1
C C11 -0.3251(3) 0.0754(3) 0.3497(4) 0.0537(7) Uani d 1
H H11 -0.3554 0.1114 0.4262 0.064 Uiso calc 1
C C12 -0.4334(3) 0.0754(3) 0.2637(4) 0.0539(7) Uani d 1
H H12 -0.5341 0.1084 0.2842 0.065 Uiso calc 1
C C13 -0.3922(3) 0.0259(3) 0.1458(3) 0.0466(6) Uani d 1
C C14 -0.2383(4) -0.0205(3) 0.1221(3) 0.0555(7) Uani d 1
H H14 -0.2034 -0.0529 0.0434 0.067 Uiso calc 1
C C15 -0.1382(3) -0.0181(3) 0.2165(4) 0.0547(7) Uani d 1
H H15 -0.0364 -0.0500 0.1991 0.066 Uiso calc 1
C C16 -0.5100(3) 0.0233(3) 0.0555(3) 0.0503(7) Uani d 1
H H16 -0.6086 0.0584 0.0802 0.060 Uiso calc 1
loop_
_atom_site_aniso_label
_atom_site_aniso_U_11
_atom_site_aniso_U_22
_atom_site_aniso_U_33
_atom_site_aniso_U_12
_atom_site_aniso_U_13
_atom_site_aniso_U_23
Cu1 0.0428(3) 0.0318(2) 0.0374(3) 0.01444(18) -0.00477(18) -0.01649(19)
F1 0.1174(17) 0.0898(14) 0.0427(11) 0.0138(12) -0.0121(10) -0.0365(10)
F2 0.0538(11) 0.0931(14) 0.0660(12) 0.0161(10) 0.0133(9) -0.0260(11)
F3 0.0913(13) 0.0507(10) 0.0517(11) 0.0164(9) 0.0137(10) -0.0076(8)
N1 0.0450(13) 0.0510(13) 0.0470(14) 0.0057(10) -0.0056(10) -0.0246(11)
O1 0.0457(10) 0.0414(10) 0.0462(11) 0.0179(8) -0.0076(8) -0.0209(8)
O2 0.0514(10) 0.0335(9) 0.0357(10) 0.0155(8) -0.0036(8) -0.0144(7)
C1 0.0597(18) 0.0498(16) 0.0429(16) 0.0191(14) -0.0020(13) -0.0196(13)
C2 0.0403(13) 0.0392(13) 0.0354(13) 0.0096(11) -0.0094(11) -0.0192(11)
C3 0.0485(14) 0.0338(12) 0.0359(14) 0.0135(11) -0.0056(11) -0.0132(11)
C4 0.0363(12) 0.0331(12) 0.0364(13) 0.0108(10) -0.0116(10) -0.0179(10)
C5 0.0349(12) 0.0344(12) 0.0398(14) 0.0077(10) -0.0061(10) -0.0184(11)
C6 0.0549(16) 0.0383(14) 0.0455(16) 0.0138(12) -0.0031(13) -0.0158(12)
C7 0.0624(18) 0.0382(14) 0.065(2) 0.0208(13) -0.0089(15) -0.0241(14)
C8 0.0531(17) 0.0525(17) 0.067(2) 0.0171(14) 0.0008(15) -0.0370(16)
C9 0.080(2) 0.0533(18) 0.060(2) 0.0146(16) 0.0215(17) -0.0221(16)
C10 0.071(2) 0.0374(14) 0.0509(18) 0.0141(14) 0.0116(15) -0.0145(13)
C11 0.0565(17) 0.0561(17) 0.0555(18) 0.0154(14) -0.0098(14) -0.0315(15)
C12 0.0488(16) 0.0564(17) 0.0601(19) 0.0152(13) -0.0107(14) -0.0286(15)
C13 0.0474(15) 0.0406(14) 0.0440(16) 0.0038(12) -0.0077(12) -0.0104(12)
C14 0.0626(18) 0.0630(18) 0.0451(17) 0.0062(15) -0.0028(14) -0.0302(15)
C15 0.0450(16) 0.0683(19) 0.0540(18) 0.0109(14) -0.0034(13) -0.0319(15)
C16 0.0535(16) 0.0428(14) 0.0465(17) 0.0072(13) -0.0062(13) -0.0126(12)
loop_
_atom_type_symbol
_atom_type_description
_atom_type_scat_dispersion_real
_atom_type_scat_dispersion_imag
_atom_type_scat_source
C C 0.0033 0.0016 'International Tables Vol C Tables 4.2.6.8 and 6.1.1.4'
H H 0.0000 0.0000 'International Tables Vol C Tables 4.2.6.8 and 6.1.1.4'
N N 0.0061 0.0033 'International Tables Vol C Tables 4.2.6.8 and 6.1.1.4'
O O 0.0106 0.0060 'International Tables Vol C Tables 4.2.6.8 and 6.1.1.4'
F F 0.0171 0.0103 'International Tables Vol C Tables 4.2.6.8 and 6.1.1.4'
Cu Cu 0.3201 1.2651 'International Tables Vol C Tables 4.2.6.8 and 6.1.1.4'
loop_
_geom_angle_atom_site_label_1
_geom_angle_atom_site_label_2
_geom_angle_atom_site_label_3
_geom_angle_site_symmetry_1
_geom_angle_site_symmetry_3
_geom_angle
O2 Cu1 O2 . 2_556 180.0
O2 Cu1 O1 . . 91.50(7)
O2 Cu1 O1 2_556 . 88.50(7)
O2 Cu1 O1 . 2_556 88.50(7)
O2 Cu1 O1 2_556 2_556 91.50(7)
O1 Cu1 O1 . 2_556 180.0
O2 Cu1 N1 . . 90.08(7)
O2 Cu1 N1 2_556 . 89.92(7)
O1 Cu1 N1 . . 84.93(7)
O1 Cu1 N1 2_556 . 95.07(7)
O2 Cu1 N1 . 2_556 89.92(7)
O2 Cu1 N1 2_556 2_556 90.08(7)
O1 Cu1 N1 . 2_556 95.07(7)
O1 Cu1 N1 2_556 2_556 84.93(7)
N1 Cu1 N1 . 2_556 180.0
C11 N1 C15 . . 116.0(2)
C11 N1 Cu1 . . 124.53(18)
C15 N1 Cu1 . . 119.28(18)
C2 O1 Cu1 . . 120.46(15)
C4 O2 Cu1 . . 127.26(15)
F3 C1 F2 . . 106.6(2)
F3 C1 F1 . . 106.6(2)
F2 C1 F1 . . 106.2(2)
F3 C1 C2 . . 115.1(2)
F2 C1 C2 . . 111.5(2)
F1 C1 C2 . . 110.3(2)
O1 C2 C3 . . 129.4(2)
O1 C2 C1 . . 112.4(2)
C3 C2 C1 . . 118.2(2)
C2 C3 C4 . . 123.9(2)
C2 C3 H3 . . 118.1
C4 C3 H3 . . 118.1
O2 C4 C3 . . 123.8(2)
O2 C4 C5 . . 115.1(2)
C3 C4 C5 . . 121.1(2)
C10 C5 C6 . . 117.8(2)
C10 C5 C4 . . 118.7(2)
C6 C5 C4 . . 123.4(2)
C7 C6 C5 . . 120.5(3)
C7 C6 H6 . . 119.7
C5 C6 H6 . . 119.7
C8 C7 C6 . . 120.7(3)
C8 C7 H7 . . 119.7
C6 C7 H7 . . 119.7
C7 C8 C9 . . 119.7(2)
C7 C8 H8 . . 120.1
C9 C8 H8 . . 120.1
C8 C9 C10 . . 119.9(3)
C8 C9 H9 . . 120.1
C10 C9 H9 . . 120.1
C5 C10 C9 . . 121.4(3)
C5 C10 H10 . . 119.3
C9 C10 H10 . . 119.3
N1 C11 C12 . . 124.5(3)
N1 C11 H11 . . 117.7
C12 C11 H11 . . 117.7
C11 C12 C13 . . 119.7(3)
C11 C12 H12 . . 120.1
C13 C12 H12 . . 120.1
C12 C13 C14 . . 116.4(3)
C12 C13 C16 . . 119.5(2)
C14 C13 C16 . . 124.1(3)
C15 C14 C13 . . 119.5(3)
C15 C14 H14 . . 120.2
C13 C14 H14 . . 120.2
N1 C15 C14 . . 123.8(3)
N1 C15 H15 . . 118.1
C14 C15 H15 . . 118.1
C16 C16 C13 2_455 . 126.5(4)
C16 C16 H16 2_455 . 116.8
C13 C16 H16 . . 116.8
loop_
_geom_bond_atom_site_label_1
_geom_bond_atom_site_label_2
_geom_bond_site_symmetry_2
_geom_bond_distance
Cu1 O2 . 1.9377(15)
Cu1 O2 2_556 1.9377(15)
Cu1 O1 . 2.0135(18)
Cu1 O1 2_556 2.0135(18)
Cu1 N1 . 2.398(2)
Cu1 N1 2_556 2.398(2)
F1 C1 . 1.337(3)
F2 C1 . 1.335(3)
F3 C1 . 1.324(3)
N1 C11 . 1.333(3)
N1 C15 . 1.334(3)
O1 C2 . 1.270(3)
O2 C4 . 1.272(3)
C1 C2 . 1.524(4)
C2 C3 . 1.375(3)
C3 C4 . 1.400(3)
C3 H3 . 0.9300
C4 C5 . 1.496(3)
C5 C10 . 1.373(4)
C5 C6 . 1.392(3)
C6 C7 . 1.381(4)
C6 H6 . 0.9300
C7 C8 . 1.356(4)
C7 H7 . 0.9300
C8 C9 . 1.375(4)
C8 H8 . 0.9300
C9 C10 . 1.380(4)
C9 H9 . 0.9300
C10 H10 . 0.9300
C11 C12 . 1.369(4)
C11 H11 . 0.9300
C12 C13 . 1.388(4)
C12 H12 . 0.9300
C13 C14 . 1.396(4)
C13 C16 . 1.473(4)
C14 C15 . 1.383(4)
C14 H14 . 0.9300
C15 H15 . 0.9300
C16 C16 2_455 1.303(5)
C16 H16 . 0.9300
loop_
_geom_hbond_atom_site_label_D
_geom_hbond_atom_site_label_H
_geom_hbond_atom_site_label_A
_geom_hbond_distance_DH
_geom_hbond_distance_HA
_geom_hbond_distance_DA
_geom_hbond_angle_DHA
C3 H3 F3 0.93 2.36 2.741(3) 104
C10 H10 O2 0.93 2.37 2.700(4) 101
loop_
_geom_torsion_atom_site_label_1
_geom_torsion_atom_site_label_2
_geom_torsion_atom_site_label_3
_geom_torsion_atom_site_label_4
_geom_torsion_site_symmetry_4
_geom_torsion
Cu1 O1 C2 C3 . 14.8(3)
Cu1 O1 C2 C1 . -163.53(17)
F3 C1 C2 O1 . -173.5(2)
F2 C1 C2 O1 . -51.8(3)
F1 C1 C2 O1 . 65.9(3)
F3 C1 C2 C3 . 8.0(4)
F2 C1 C2 C3 . 129.7(3)
F1 C1 C2 C3 . -112.6(3)
O1 C2 C3 C4 . 0.2(4)
C1 C2 C3 C4 . 178.4(2)
Cu1 O2 C4 C3 . -9.0(3)
Cu1 O2 C4 C5 . 170.37(15)
C2 C3 C4 O2 . -4.2(4)
C2 C3 C4 C5 . 176.4(2)
O2 C4 C5 C10 . 6.3(3)
C3 C4 C5 C10 . -174.3(3)
O2 C4 C5 C6 . -172.6(2)
C3 C4 C5 C6 . 6.8(4)
C10 C5 C6 C7 . -1.7(4)
C4 C5 C6 C7 . 177.2(2)
C5 C6 C7 C8 . 0.9(5)
C6 C7 C8 C9 . 0.5(5)
C7 C8 C9 C10 . -0.9(5)
C6 C5 C10 C9 . 1.3(5)
C4 C5 C10 C9 . -177.7(3)
C8 C9 C10 C5 . 0.0(5)
C15 N1 C11 C12 . 2.4(4)
Cu1 N1 C11 C12 . -172.6(2)
N1 C11 C12 C13 . -1.5(5)
C11 C12 C13 C14 . -0.5(4)
C11 C12 C13 C16 . 178.8(3)
C12 C13 C14 C15 . 1.3(4)
C16 C13 C14 C15 . -178.0(3)
C11 N1 C15 C14 . -1.5(4)
Cu1 N1 C15 C14 . 173.8(2)
C13 C14 C15 N1 . -0.3(5)
C12 C13 C16 C16 2_455 -178.3(4)
C14 C13 C16 C16 2_455 1.0(5)
