#------------------------------------------------------------------------------
#$Date: 2019-11-09 07:41:52 +0200 (Sat, 09 Nov 2019) $
#$Revision: 225414 $
#$URL: file:///home/coder/svn-repositories/cod/cif/2/10/85/2108515.cif $
#------------------------------------------------------------------------------
#
# This file is available in the Crystallography Open Database (COD),
# http://www.crystallography.net/. The original data for this entry
# were provided by IUCr Journals, http://journals.iucr.org/.
#
# The file may be used within the scientific community so long as
# proper attribution is given to the journal article from which the
# data were obtained.
#
data_2108515
loop_
_publ_author_name
'Medviediev, Volodymyr'
'Daszkiewicz, Marek'
_publ_section_title
;
 Structural, theoretic and spectroscopic analysis of
 2-methyl-5-nitroaniline salts with various inorganic acids
;
_journal_coeditor_code           AW5028
_journal_issue                   6
_journal_name_full               'Acta Crystallographica Section B'
_journal_page_first
;
;
_journal_paper_doi               10.1107/S2052520619012472
_journal_volume                  75
_journal_year                    2019
_chemical_formula_moiety         'C7 H9 N2 O2, Br'
_chemical_formula_sum            'C7 H9 Br N2 O2'
_chemical_formula_weight         233.07
_space_group_crystal_system      monoclinic
_space_group_IT_number           11
_space_group_name_Hall           '-P 2yb'
_space_group_name_H-M_alt        'P 1 21/m 1'
_atom_sites_solution_hydrogens   mixed
_atom_sites_solution_primary     dual
_audit_creation_date             2018-06-21
_audit_creation_method
;
Olex2 1.2
(compiled 2018.05.29 svn.r3508 for OlexSys, GUI svn.r5506)
;
_cell_angle_alpha                90
_cell_angle_beta                 110.200(4)
_cell_angle_gamma                90
_cell_formula_units_Z            2
_cell_length_a                   8.5689(3)
_cell_length_b                   6.4113(2)
_cell_length_c                   8.8248(4)
_cell_measurement_reflns_used    5231
_cell_measurement_temperature    295(1)
_cell_measurement_theta_max      30.2030
_cell_measurement_theta_min      2.6510
_cell_volume                     455.00(3)
_computing_cell_refinement       'CrysAlisPro 1.171.38.43 (Rigaku OD, 2015)'
_computing_data_collection       'CrysAlisPro 1.171.38.43 (Rigaku OD, 2015)'
_computing_data_reduction        'CrysAlisPro 1.171.38.43 (Rigaku OD, 2015)'
_computing_molecular_graphics    'Olex2 (Dolomanov et al., 2009)'
_computing_publication_material  'Olex2 (Dolomanov et al., 2009)'
_computing_structure_refinement  'ShelXL (Sheldrick, 2015)'
_computing_structure_solution    'ShelXT (Sheldrick, 2015)'
_diffrn_ambient_environment      air
_diffrn_ambient_temperature      295(1)
_diffrn_detector                 'CCD plate'
_diffrn_detector_area_resol_mean 10.6249
_diffrn_detector_type            Atlas
_diffrn_measured_fraction_theta_full 0.997
_diffrn_measured_fraction_theta_max 0.998
_diffrn_measurement_details
;
List of Runs (angles in degrees, time in seconds):

  # Type    Start    End  Width  t~exp~   \w     \q     \k     \f   Frames
--------------------------------------------------------------------------
  1  \w    -61.00  46.00   0.50    2.50    --   14.96 -57.00 -60.00  214
  2  \w    -16.00  91.00   0.50    2.50    --   14.96  57.00 120.00  214
  3  \w    -67.00  50.00   0.50    2.50    --   14.96 -77.00-150.00  234
  4  \w    -25.00  58.00   0.50    2.50    --   14.96 -99.00-120.00  166
  5  \w    -25.00  27.00   0.50    2.50    --  -16.06 -99.00  90.00  104
  6  \w    -16.00  91.00   0.50    2.50    --   14.96  57.00-150.00  214
  7  \w    -25.00  58.00   0.50    2.50    --   14.96 -99.00  90.00  166
  8  \w    -16.00  91.00   0.50    2.50    --   14.96  57.00 -30.00  214
  9  \w    -25.00  27.00   0.50    2.50    --  -16.06 -99.00 150.00  104
 10  \w   -106.00 -32.00   0.50    2.50    --  -16.06 178.00   0.00  148
 11  \w    -25.00  27.00   0.50    2.50    --  -16.06 -99.00 -30.00  104
 12  \w    -25.00  27.00   0.50    2.50    --  -16.06 -99.00 -90.00  104
 13  \w    -45.00  62.00   0.50    2.50    --  -16.06  37.00  90.00  214
 14  \w    -74.00   3.00   0.50    2.50    --  -16.06 125.00 -82.00  154
;
_diffrn_measurement_device       'four-circle diffractometer'
_diffrn_measurement_device_type  'Xcalibur, Atlas'
_diffrn_measurement_method       '\w scans'
_diffrn_orient_matrix_type
'CrysAlisPro convention (1999,Acta A55,543-557)'
_diffrn_orient_matrix_UB_11      0.0633977000
_diffrn_orient_matrix_UB_12      0.0701374000
_diffrn_orient_matrix_UB_13      0.0442379000
_diffrn_orient_matrix_UB_21      -0.0077970000
_diffrn_orient_matrix_UB_22      -0.0359700000
_diffrn_orient_matrix_UB_23      0.0730487000
_diffrn_orient_matrix_UB_31      0.0608401000
_diffrn_orient_matrix_UB_32      -0.0776404000
_diffrn_orient_matrix_UB_33      0.0060914000
_diffrn_radiation_monochromator  graphite
_diffrn_radiation_probe          x-ray
_diffrn_radiation_type           MoK\a
_diffrn_radiation_wavelength     0.71073
_diffrn_reflns_av_R_equivalents  0.0380
_diffrn_reflns_av_unetI/netI     0.0154
_diffrn_reflns_Laue_measured_fraction_full 0.997
_diffrn_reflns_Laue_measured_fraction_max 0.998
_diffrn_reflns_limit_h_max       11
_diffrn_reflns_limit_h_min       -11
_diffrn_reflns_limit_k_max       8
_diffrn_reflns_limit_k_min       -8
_diffrn_reflns_limit_l_max       11
_diffrn_reflns_limit_l_min       -11
_diffrn_reflns_number            14243
_diffrn_reflns_point_group_measured_fraction_full 0.997
_diffrn_reflns_point_group_measured_fraction_max 0.998
_diffrn_reflns_theta_full        25.242
_diffrn_reflns_theta_max         28.698
_diffrn_reflns_theta_min         4.019
_diffrn_source                   'fine-focus sealed X-ray tube'
_diffrn_source_type              'Enhance (Mo) X-ray Source'
_exptl_absorpt_coefficient_mu    4.479
_exptl_absorpt_correction_T_max  0.604
_exptl_absorpt_correction_T_min  0.127
_exptl_absorpt_correction_type   gaussian
_exptl_absorpt_process_details
;
CrysAlisPro 1.171.38.43 (Rigaku Oxford Diffraction, 2015)
Numerical absorption correction based on gaussian integration over
   a multifaceted crystal model
Empirical absorption correction using spherical harmonics,
 implemented in SCALE3 ABSPACK scaling algorithm.
;
_exptl_crystal_colour            'clear light colourless'
_exptl_crystal_colour_lustre     clear
_exptl_crystal_colour_modifier   light
_exptl_crystal_colour_primary    colourless
_exptl_crystal_density_diffrn    1.701
_exptl_crystal_description       plate
_exptl_crystal_F_000             232
_exptl_crystal_size_max          0.753
_exptl_crystal_size_mid          0.57
_exptl_crystal_size_min          0.144
_refine_diff_density_max         0.549
_refine_diff_density_min         -0.336
_refine_diff_density_rms         0.057
_refine_ls_extinction_method     none
_refine_ls_goodness_of_fit_ref   1.062
_refine_ls_hydrogen_treatment    mixed
_refine_ls_matrix_type           full
_refine_ls_number_parameters     87
_refine_ls_number_reflns         1279
_refine_ls_number_restraints     0
_refine_ls_restrained_S_all      1.062
_refine_ls_R_factor_all          0.0277
_refine_ls_R_factor_gt           0.0243
_refine_ls_shift/su_max          <0.001
_refine_ls_shift/su_mean         <0.001
_refine_ls_structure_factor_coef Fsqd
_refine_ls_weighting_details
'w=1/[\s^2^(Fo^2^)+(0.0281P)^2^+0.1895P] where P=(Fo^2^+2Fc^2^)/3'
_refine_ls_weighting_scheme      calc
_refine_ls_wR_factor_gt          0.0569
_refine_ls_wR_factor_ref         0.0584
_reflns_Friedel_coverage         0.000
_reflns_number_gt                1187
_reflns_number_total             1279
_reflns_threshold_expression     'I > 2\s(I)'
_cod_data_source_file            aw5028sup1.cif
_cod_data_source_block           1
_cod_database_code               2108515
_shelx_shelxl_version_number     2018/1
_chemical_oxdiff_formula         'C7 H9 N2 O2 Br1'
_shelx_space_group_comment
;
The symmetry employed for this shelxl refinement is uniquely defined
by the following loop, which should always be used as a source of
symmetry information in preference to the above space-group names.
They are only intended as comments.
;
_shelx_estimated_absorpt_t_max   0.565
_shelx_estimated_absorpt_t_min   0.133
_reflns_odcompleteness_completeness 99.90
_reflns_odcompleteness_iscentric 1
_reflns_odcompleteness_theta     26.32
_olex2_refinement_description
;
1. Fixed Uiso
 At 1.2 times of:
  All C(H) groups
2.a Aromatic/amide H refined with riding coordinates:
 C3(H3), C4(H4), C6(H6)
;
_shelx_res_file
;
TITL v302_3_a.res in P2(1)/m
    v302_3.res
    created by SHELXL-2018/1 at 12:30:35 on 09-Apr-2018
REM Old TITL V302_3 in P2(1)/m
REM SHELXT solution in P2(1)/m
REM R1 0.106, Rweak 0.015, Alpha 0.031, Orientation as input
REM Formula found by SHELXT: C9 O2 Br
CELL 0.71073 8.5689 6.4113 8.8248 90 110.2 90
ZERR 2 0.0003 0.0002 0.0004 0 0.004 0
LATT 1
SYMM -X,0.5+Y,-Z
SFAC C H Br N O
UNIT 14 18 2 4 4
EQIV $1 1-X,1-Y,1-Z

L.S. 8
PLAN  20
SIZE 0.144 0.57 0.753
TEMP 21.9(10)
HTAB N1 Br1
HTAB N1 Br1_$1
BOND $H
conf
list 4
fmap 2
acta
SHEL 10 0.74
OMIT 1 0 0
OMIT -1 0 1
REM <olex2.extras>
REM <HklSrc "%.\\V302_3.hkl">
REM </olex2.extras>

WGHT    0.028100    0.189500
FVAR       0.64717
BR1   3    0.738183    0.250000    0.533596    10.50000    0.03419    0.03781 =
         0.04864    0.00000    0.00682    0.00000
O1    5    0.344467    0.250000   -0.257668    10.50000    0.11527    0.13412 =
         0.03598    0.00000    0.03275    0.00000
O2    5    0.557891    0.250000   -0.039674    10.50000    0.06349    0.10359 =
         0.06211    0.00000    0.03449    0.00000
N1    4    0.330659    0.250000    0.411490    10.50000    0.03589    0.03649 =
         0.02801    0.00000    0.00944    0.00000
H1A   2    0.448708    0.250000    0.450380    10.50000    0.05857
H1B   2    0.300978    0.362116    0.453912    11.00000    0.05244
N2    4    0.407631    0.250000   -0.111783    10.50000    0.08339    0.05072 =
         0.03703    0.00000    0.02969    0.00000
C1    1    0.259177    0.250000    0.234942    10.50000    0.03315    0.02675 =
         0.02719    0.00000    0.00613    0.00000
C2    1    0.086692    0.250000    0.162630    10.50000    0.03256    0.02825 =
         0.04254    0.00000    0.00667    0.00000
C3    1    0.023177    0.250000   -0.005116    10.50000    0.03755    0.03582 =
         0.04513    0.00000   -0.00372    0.00000
AFIX  43
H3    2   -0.091475    0.250000   -0.057333    10.50000   -1.20000
AFIX   0
C4    1    0.125536    0.250000   -0.096451    10.50000    0.05990    0.03404 =
         0.02921    0.00000   -0.00060    0.00000
AFIX  43
H4    2    0.081006    0.250000   -0.208640    10.50000   -1.20000
AFIX   0
C5    1    0.295629    0.250000   -0.017314    10.50000    0.05174    0.03224 =
         0.03056    0.00000    0.01213    0.00000
C6    1    0.366376    0.250000    0.149278    10.50000    0.03608    0.03523 =
         0.03248    0.00000    0.00950    0.00000
AFIX  43
H6    2    0.481098    0.250000    0.201031    10.50000   -1.20000
AFIX   0
C7    1   -0.024125    0.250000    0.261822    10.50000    0.03475    0.05189 =
         0.06450    0.00000    0.01814    0.00000
H7A   2   -0.000747    0.369693    0.332671    11.00000    0.06730
H7B   2   -0.130903    0.250000    0.197710    10.50000    0.06352
HKLF 4




REM  v302_3_a.res in P2(1)/m
REM R1 =  0.0243 for    1187 Fo > 4sig(Fo)  and  0.0277 for all    1279 data
REM     87 parameters refined using      0 restraints

END

WGHT      0.0281      0.1895

REM Highest difference peak  0.549,  deepest hole -0.336,  1-sigma level  0.057
Q1    1   0.6979  0.2500  0.5999  10.50000  0.05    0.55
Q2    1   0.7047  0.1713  0.4673  11.00000  0.05    0.43
Q3    1   0.3201  0.2500  0.0654  10.50000  0.05    0.29
Q4    1   0.3074  0.2500  0.1801  10.50000  0.05    0.27
Q5    1   0.2903  0.2500  0.3091  10.50000  0.05    0.24
Q6    1   0.0178  0.2500  0.2058  10.50000  0.05    0.22
Q7    1   0.2499  0.2500 -0.3068  10.50000  0.05    0.21
Q8    1   0.8075  0.1401  0.5602  11.00000  0.05    0.21
Q9    1   0.2122  0.2500 -0.0502  10.50000  0.05    0.18
Q10   1   0.3610  0.1465 -0.2039  11.00000  0.05    0.17
Q11   1   0.1499  0.5064  0.3635  11.00000  0.05    0.17
Q12   1   0.4984  0.1559 -0.0800  11.00000  0.05    0.17
Q13   1   0.1728  0.2500  0.1974  10.50000  0.05    0.16
Q14   1   0.5880  0.2500  0.2967  10.50000  0.05    0.16
Q15   1   0.7682  0.1360  0.6201  11.00000  0.05    0.16
Q16   1   0.0842  0.2500 -0.0433  10.50000  0.05    0.16
Q17   1   0.0684  0.0308 -0.1625  11.00000  0.05    0.15
Q18   1   0.5561  0.0913  0.6599  11.00000  0.05    0.15
Q19   1  -0.1148  0.2500 -0.2362  10.50000  0.05    0.14
Q20   1   0.3670  0.5306  0.5743  11.00000  0.05    0.14
;
_shelx_res_checksum              74868
_shelx_hkl_file
;
   0   0   2 1266.64   18.29
   0   0  -2 1275.50   15.57
   0   0  -2 1332.52   15.91
   0   0  -2 1309.87   17.29
   0   0   2 1245.45   15.48
   0   0   2 1188.90   15.77
   0   0   2 1304.46   15.15
   0   0  -2 1149.22   16.85
   0   0  -3  702.84   11.58
   0   0   3  681.08   11.65
   0   0  -3  681.44   13.16
   0   0   3  657.91   12.30
   0   0  -3  697.96   12.10
   0   0  -3  718.00   14.26
   0   0  -4  653.66   11.60
   0   0  -4  644.93   13.60
   0   0   4  632.59   11.86
   0   0  -4  638.84   12.22
   0   0   4  623.20   12.91
   0   0  -5   43.10    2.94
   0   0  -5   40.33    3.11
   0   0   5   39.38    2.93
   0   0  -5   41.68    3.54
   0   0   5   40.89    3.43
   0   0   6    0.98    0.79
   0   0   6   -0.01    1.08
   0   0  -6   -0.52    1.01
   0   0  -6    0.46    0.94
   0   0  -7   15.14    1.95
   0   0  -7   19.45    2.51
   0   0   7   19.30    2.82
   0   0  -7   15.14    2.20
   0   0   7   17.52    2.27
   0   0   8   14.46    2.76
   0   0  -8   10.88    1.77
   0   0  -8    9.37    1.96
   0   0  -8    8.96    1.86
   0   0  -9   10.78    1.84
   0   0   9   12.56    2.68
   0   0  -9   13.94    2.36
   0   0  -9   12.99    2.29
   0   0  10   10.18    1.91
   0   0  10   10.63    2.85
   0   0 -10    9.50    2.13
   0   0 -10   10.12    2.23
   0   0  10   10.92    2.60
   0   0 -11    7.85    2.12
   0   0 -11    6.27    2.03
   0   0  11    9.62    2.76
   0   1   0    5.39    0.47
   0   1   0    4.31    0.41
   0   1   0    4.06    0.41
   0  -1   0    5.24    0.50
   0   1   0    5.64    0.55
   0  -1   0    6.69    0.52
   0  -1   0    3.36    0.38
   0   1   0    4.47    0.48
   0  -1   0    5.02    0.44
   0  -1   0    4.62    0.48
   0  -1   0    5.17    0.43
   0  -1   1    1.89    0.39
   0  -1  -1    2.46    0.33
   0   1   1    1.60    0.32
   0  -1   1    1.82    0.44
   0   1  -1    2.86    0.50
   0   1   1    2.47    0.33
   0  -1   1    1.77    0.41
   0   1  -1    3.39    0.60
   0  -1  -1    2.36    0.62
   0  -1   1    2.09    0.42
   0   1   1    3.89    1.20
   0   1   1    2.42    0.43
   0  -1  -1    2.02    0.36
   0  -1  -1    2.24    1.05
   0  -1  -1    2.18    0.30
   0   1  -1    2.39    0.45
   0   1  -1    2.42    0.44
   0   1  -1    2.08    0.42
   0  -1   1    3.54    0.60
   0  -1  -1    2.60    0.44
   0  -1   1    2.51    0.56
   0   1   2    3.28    1.16
   0  -1  -2    2.80    0.59
   0  -1  -2    1.92    0.50
   0   1  -2    2.65    0.58
   0  -1   2    3.10    0.72
   0  -1   2    2.76    0.35
   0  -1   2    3.54    0.99
   0   1   2    4.11    0.68
   0  -1  -2    2.77    1.10
   0   1  -2    3.58    1.03
   0  -1   2    3.31    0.68
   0   1  -2    3.93    0.94
   0  -1   2    3.42    1.01
   0   1   2    1.89    0.52
   0   1  -2    3.03    0.60
   0  -1   3  810.23   14.24
   0  -1  -3  829.78   12.52
   0   1   3  755.68   11.68
   0  -1   3  748.04   14.50
   0   1   3  754.46   14.36
   0   1  -3  713.37   12.78
   0  -1   3  702.55    8.84
   0  -1  -3  755.58   14.50
   0  -1   3  775.95   11.81
   0   1   3  784.90   12.00
   0  -1   3  773.97   11.71
   0   1  -3  745.24   13.91
   0   1  -3  688.77    8.25
   0  -1  -3  687.57   11.80
   0  -1   3  763.90    9.05
   0  -1  -4    4.58    1.33
   0   1  -4    6.77    1.64
   0  -1   4    4.00    1.21
   0   1  -4    8.04    1.07
   0  -1   4    6.24    1.01
   0  -1   4    3.14    1.12
   0  -1   4    4.88    0.91
   0  -1  -4    4.28    1.02
   0  -1  -4    6.74    1.42
   0   1  -4    5.78    1.46
   0  -1   4    2.58    0.93
   0  -1  -4    3.76    1.06
   0   1   4    4.12    0.58
   0   1   4    7.41    1.57
   0   1  -4    5.11    1.44
   0  -1   4    5.07    1.41
   0   1  -4    5.22    0.67
   0   1   4    5.00    1.27
   0   1   4    7.02    1.61
   0  -1   5  667.07   14.98
   0  -1  -5  635.69   13.26
   0   1   5  550.59   12.15
   0   1   5  546.92   13.49
   0  -1   5  716.02   15.30
   0  -1   5  612.84   10.48
   0  -1  -5  545.68   10.79
   0   1  -5  728.44   14.82
   0  -1   5  550.23   13.73
   0  -1  -5  564.11   12.84
   0   1   5  627.45   13.60
   0  -1   5  622.99   11.03
   0   1  -5  694.12   10.33
   0  -1   6  226.68    8.98
   0   1  -6  230.40    6.06
   0   1  -6  235.91    8.39
   0   1   6  210.55    7.97
   0  -1  -6  226.61    8.37
   0  -1  -6  210.72    6.77
   0  -1   6  249.72    7.49
   0  -1   6  206.88    9.51
   0  -1  -6  219.25    7.78
   0  -1   6  212.83    6.38
   0   1   6  200.12    8.64
   0  -1   7  162.34    9.02
   0   1  -7  143.74    4.97
   0   1  -7  155.45    6.89
   0  -1  -7  136.59    5.67
   0   1   7  146.33    7.08
   0  -1  -7  151.22    7.04
   0  -1   7  156.02    7.67
   0  -1  -7  138.04    6.25
   0  -1   7  133.99    5.42
   0   1   7  143.02    7.59
   0  -1   7  173.68    6.51
   0   1  -8  137.81    6.60
   0  -1   8  128.37    7.21
   0  -1  -8  137.40    5.95
   0  -1  -8  125.64    6.13
   0  -1   8  146.62    8.74
   0   1  -8  126.38    4.84
   0   1  -8  141.07    6.25
   0  -1   8  157.85    6.31
   0  -1  -8  134.12    6.87
   0   1   8  137.16    7.30
   0   1  -9   58.97    4.65
   0  -1  -9   53.19    4.14
   0   1   9   61.56    5.24
   0  -1  -9   61.47    4.82
   0  -1   9   61.86    3.96
   0   1  -9   58.07    4.19
   0  -1  -9   56.21    3.96
   0  -1   9   57.17    5.11
   0  -1   9   62.51    5.77
   0  -1 -10   15.29    2.49
   0  -1 -10   17.61    2.58
   0  -1  10   14.09    2.92
   0   1 -10   15.18    2.66
   0   1 -10   13.41    2.29
   0   1  10   14.44    3.04
   0  -1 -10   12.57    2.54
   0  -1  10   10.13    2.65
   0   1  11   31.45    3.69
   0   1 -11   28.26    3.56
   0  -1 -11   26.59    3.56
   0  -1  11   26.63    3.96
   0   1  11   27.88    4.06
   0   2   0 9731.93   68.41
   0   2   0 9092.38   65.41
   0  -2   0 9745.76   69.06
   0   2   0 9165.02   68.22
   0  -2   0 9054.81   67.95
   0  -2   0 9323.99   67.58
   0   2   0 9999.00   74.16
   0   2   0 9740.98   69.25
   0  -2   0 8908.88   66.91
   0   2   0 9930.69   68.05
   0   2   0 9843.84   67.78
   0  -2   0 9787.29   67.68
   0   2   0 9215.52   67.62
   0  -2   1   78.06    2.82
   0   2  -1   74.51    1.83
   0  -2   1   71.00    2.35
   0  -2  -1   77.86    2.14
   0   2   1   73.77    2.68
   0   2   1   86.31    5.01
   0  -2  -1   72.43    2.27
   0  -2  -1   73.23    2.50
   0   2  -1   80.12    2.91
   0   2  -1   76.74    2.43
   0  -2   1   81.41    1.83
   0  -2  -1   80.91    2.99
   0   2  -1   79.90    2.62
   0  -2  -1   71.39    5.01
   0   2  -1   77.58    1.98
   0  -2   1   77.14    2.96
   0   2  -1   77.22    2.83
   0   2  -1   80.90    2.39
   0   2   1   74.00    2.58
   0  -2  -1   70.64    1.65
   0   2   1   76.08    2.09
   0   2   1   74.26    2.16
   0   2   1   78.27    2.29
   0  -2  -1   77.84    2.16
   0   2  -1   77.91    2.48
   0  -2   1   78.65    2.58
   0  -2  -1   75.24    2.55
   0  -2   1   78.79    2.73
   0  -2   1   81.71    2.71
   0  -2  -2  928.22   14.24
   0  -2  -2  869.08   10.72
   0  -2   2  857.55   10.45
   0  -2  -2  820.07    9.12
   0   2   2  844.40   10.28
   0  -2   2  872.59   10.47
   0  -2   2  891.52   11.30
   0   2   2  832.11   16.39
   0   2  -2  844.55    7.71
   0  -2  -2  931.67   18.31
   0   2  -2  870.48   10.51
   0   2  -2  881.52   10.55
   0  -2  -2  817.28    7.36
   0  -2   2  880.42    8.10
   0   2   2  867.08    8.98
   0  -2   2  894.88   13.14
   0   2  -2  909.75   13.00
   0   2   2  875.37   11.04
   0  -2  -2  875.58   11.11
   0   2   2  849.74    9.58
   0  -2   2  892.00   11.82
   0   2  -2  850.93    7.78
   0  -2   2  896.82   13.48
   0  -2  -2  863.99    8.75
   0  -2   3  511.11   11.86
   0  -2  -3  538.04   12.90
   0  -2  -3  455.64    8.14
   0  -2   3  522.00    9.63
   0  -2  -3  523.65   13.48
   0  -2   3  497.25    8.55
   0  -2  -3  500.82    8.94
   0   2  -3  533.25    9.02
   0   2   3  489.63    7.60
   0   2  -3  514.84    8.82
   0  -2   3  485.20    5.55
   0   2   3  495.98    8.79
   0   2  -3  500.01   10.91
   0  -2   3  511.29   11.27
   0  -2  -3  474.16    6.46
   0  -2  -3  523.62   10.05
   0  -2   3  515.39    9.63
   0  -2   3  485.55    8.45
   0   2   3  491.06   12.71
   0  -2   4  400.09    9.71
   0   2  -4  375.82   10.54
   0  -2   4  412.51    8.99
   0  -2  -4  427.95    9.54
   0  -2   4  396.27    9.42
   0  -2  -4  411.04   11.78
   0  -2  -4  358.34    8.95
   0  -2   4  406.87    8.95
   0  -2  -4  408.93    7.78
   0  -2   4  412.89   11.48
   0  -2   4  396.47   11.79
   0   2   4  417.88    9.30
   0  -2   4  425.98    5.72
   0   2   4  408.60   11.85
   0  -2  -4  377.39   11.38
   0   2   4  414.58    8.57
   0   2  -5   36.56    3.63
   0   2   5   29.86    2.74
   0   2   5   27.20    1.95
   0  -2  -5   26.49    2.17
   0  -2   5   33.96    3.82
   0  -2  -5   18.62    0.90
   0   2  -5   18.23    0.86
   0  -2  -5   28.90    3.22
   0  -2   5   34.83    1.83
   0   2  -5   29.32    2.17
   0  -2   5   24.51    2.65
   0  -2  -5   30.65    3.38
   0  -2  -5   22.82    2.56
   0  -2   5   34.70    3.27
   0  -2  -5   27.32    2.26
   0   2   5   35.43    3.33
   0  -2   5   25.68    2.86
   0  -2  -6    0.96    0.47
   0  -2   6   -0.73    0.85
   0   2   6    1.69    0.60
   0   2  -6    4.45    2.00
   0   2   6    0.97    1.33
   0  -2   6    2.76    1.54
   0  -2   6    0.45    2.13
   0   2   6    0.69    1.06
   0  -2   6    1.80    1.75
   0  -2  -6    1.57    1.54
   0   2  -6    0.67    0.40
   0   2  -6    2.59    0.71
   0  -2  -6    0.99    0.92
   0  -2  -6    0.52    1.33
   0  -2  -6   -0.63    0.87
   0   2   7   11.77    2.15
   0  -2   7   14.28    1.72
   0   2  -7   16.00    2.79
   0  -2   7   12.86    3.00
   0   2   7   11.58    0.92
   0   2  -7   10.53    1.11
   0   2   7    9.17    2.08
   0  -2  -7   15.22    2.54
   0  -2  -7   13.92    1.97
   0  -2  -7   15.57    2.69
   0  -2   7   11.91    3.17
   0  -2  -7    9.31    1.02
   0   2  -7   10.20    0.85
   0  -2   7   12.91    2.45
   0  -2  -8    5.77    1.37
   0   2  -8   10.14    2.41
   0  -2   8    9.52    3.08
   0   2  -8    9.11    1.66
   0  -2   8    9.75    1.66
   0   2   8    9.01    2.17
   0   2   8    6.16    1.89
   0  -2  -8   11.78    2.51
   0  -2  -8    7.98    2.21
   0  -2   8    6.92    2.10
   0  -2   8    7.19    2.83
   0   2  -9   10.63    1.85
   0   2   9    9.98    2.43
   0  -2  -9   11.45    2.51
   0  -2   9    9.35    2.48
   0  -2   9   11.57    3.47
   0   2   9   10.84    3.03
   0  -2  -9   10.44    2.33
   0   2  -9   11.57    2.54
   0  -2  -9   11.04    1.82
   0  -2   9   10.37    2.80
   0  -2 -10    7.99    2.36
   0  -2 -10    7.10    2.19
   0  -2  10    7.68    2.82
   0  -2  10    3.48    2.18
   0  -2  10    6.52    2.35
   0   2  10    9.91    2.68
   0   2 -10    8.11    2.16
   0  -2 -11    5.69    2.20
   0  -2 -11    9.31    2.42
   0   2 -11    4.56    1.93
   0   2  11    6.96    2.46
   0   3   0    0.78    0.61
   0   3   0    0.22    0.31
   0   3   0    0.32    0.55
   0   3   0    0.79    0.58
   0  -3   0    0.38    0.58
   0  -3   0    0.08    0.50
   0  -3   0    1.16    0.62
   0  -3   0    0.69    0.49
   0  -3   0   -0.67    1.36
   0   3   0    0.76    0.53
   0  -3   0    0.08    0.52
   0   3   0    0.98    0.34
   0   3   0    0.12    0.57
   0   3   0    0.12    0.56
   0   3   0    0.03    0.50
   0   3   0   -0.03    0.89
   0   3   1    1.21    0.55
   0  -3   1    1.21    0.62
   0  -3  -1    1.42    0.36
   0  -3  -1    1.13    1.64
   0  -3  -1    1.40    0.65
   0  -3  -1    1.44    0.72
   0   3   1    0.57    0.47
   0   3  -1    1.62    0.77
   0  -3   1    1.55    0.43
   0  -3   1   -0.05    0.84
   0  -3  -1    2.01    0.56
   0   3   1    1.21    0.76
   0   3  -1    0.97    0.68
   0   3   1    1.43    0.73
   0   3  -1    1.11    0.75
   0  -3   1    0.55    0.57
   0   3  -1    0.87    0.64
   0  -3  -1    1.15    0.44
   0  -3  -1    1.20    0.65
   0   3   1    1.07    0.21
   0   3  -1    1.57    0.71
   0  -3   1    0.80    0.63
   0   3   1    2.06    0.50
   0   3  -1    1.86    0.55
   0   3  -1    0.71    0.48
   0   3   1    1.17    0.58
   0  -3   1    0.78    0.61
   0  -3  -1    1.13    0.50
   0   3  -1    1.09    0.41
   0   3  -1    1.49    0.61
   0   3   1    2.26    1.37
   0  -3   2   21.85    1.87
   0   3  -2   21.45    1.16
   0  -3  -2   24.99    1.62
   0   3  -2   22.10    1.99
   0   3   2   22.96    1.60
   0  -3   2   22.86    2.20
   0   3  -2   23.65    1.22
   0  -3  -2   22.40    1.84
   0  -3   2   23.85    1.19
   0   3   2   21.97    1.85
   0   3   2   21.85    1.78
   0  -3   2   24.60    2.07
   0  -3   2   23.01    2.18
   0  -3  -2   23.98    1.46
   0  -3  -2   21.03    1.16
   0  -3   2   20.66    1.67
   0   3  -2   22.23    1.72
   0   3  -2   23.72    1.74
   0  -3  -2   20.59    3.29
   0  -3   2   22.72    1.77
   0   3  -2   22.18    1.15
   0   3  -2   23.15    1.90
   0   3  -2   23.19    2.16
   0  -3  -2   23.86    2.35
   0   3   2   22.10    3.02
   0   3  -3  424.94    8.30
   0   3   3  373.62   12.01
   0  -3  -3  377.48    6.80
   0  -3   3  422.93    9.43
   0  -3   3  416.93    8.91
   0  -3  -3  408.53    8.66
   0   3  -3  422.81   10.39
   0  -3  -3  412.94    8.18
   0  -3  -3  403.25    6.27
   0  -3   3  415.51   11.02
   0   3   3  401.53    6.34
   0   3  -3  390.86    5.14
   0  -3  -3  418.56   13.15
   0  -3   3  411.91   10.66
   0   3   3  402.39    7.26
   0  -3   3  408.91    8.04
   0   3   3  409.62    8.55
   0   3  -3  391.97    5.05
   0   3  -3  417.56    8.21
   0  -3  -3  428.96   11.47
   0   3   3  411.13    8.20
   0  -3   3  413.72    5.79
   0  -3   3  412.70    8.06
   0  -3  -4    6.80    0.91
   0  -3   4    7.50    0.70
   0  -3  -4    6.26    2.16
   0  -3   4    6.53    1.38
   0   3   4    7.69    1.31
   0   3  -4    5.92    1.36
   0   3   4    8.69    1.20
   0  -3  -4    5.00    1.55
   0  -3   4    6.78    1.77
   0   3   4    7.56    1.08
   0  -3   4    7.91    1.58
   0  -3  -4    7.06    0.77
   0   3   4    6.93    1.34
   0   3  -4    8.15    2.09
   0   3  -4    7.02    0.72
   0  -3  -4    7.72    1.46
   0  -3  -4    8.38    1.44
   0   3   5  339.56    8.45
   0  -3  -5  334.94   11.65
   0  -3  -5  323.97    6.69
   0  -3  -5  261.02    8.34
   0  -3   5  327.29    4.87
   0   3   5  323.87    9.22
   0  -3   5  326.72    9.95
   0   3   5  346.76    8.33
   0  -3   5  346.76    9.32
   0  -3  -5  308.77   11.23
   0  -3   5  335.66   12.20
   0   3  -5  329.93    9.21
   0   3   5  297.67    8.55
   0   3  -5  308.86   10.72
   0   3  -5  351.20    5.97
   0   3   6  152.52    5.77
   0  -3   6  163.50    7.43
   0  -3  -6  157.45    8.05
   0  -3  -6  131.91    5.06
   0  -3  -6  153.26    5.55
   0   3  -6  152.22    5.81
   0   3  -6  161.59    8.33
   0  -3   6  136.97    7.33
   0  -3   6  156.33    3.56
   0   3   6  161.37    6.21
   0  -3  -6  146.27    7.61
   0  -3   6  161.98    8.52
   0   3   6  165.87    7.68
   0   3   6  176.39    7.04
   0  -3  -7  108.12    6.81
   0  -3   7  108.26    3.36
   0  -3   7  106.29    6.90
   0   3   7  115.91    7.47
   0  -3  -7  103.84    6.56
   0  -3  -7   92.14    4.51
   0   3   7  103.98    5.97
   0  -3   7   96.16    7.02
   0  -3   7   98.97    6.57
   0   3   8   90.78    4.81
   0  -3   8   95.85    7.73
   0   3   8   87.42    5.81
   0  -3  -8   88.45    4.33
   0  -3   8   93.45    6.66
   0   3   8   90.69    7.39
   0   3  -8  104.13    6.83
   0  -3   8   84.33    6.89
   0  -3  -8   89.64    6.27
   0  -3  -8   93.75    6.41
   0  -3   9   35.42    5.05
   0  -3  -9   39.45    4.43
   0  -3   9   32.87    4.98
   0   3  -9   38.52    4.36
   0  -3  -9   32.16    3.97
   0   3   9   30.64    4.05
   0  -3   9   36.63    4.43
   0   3   9   25.92    4.41
   0  -3  10   10.92    2.79
   0  -3  10   12.00    4.03
   0   3 -10   15.57    3.06
   0  -3  10   13.16    3.38
   0   3  10    7.87    3.04
   0   3  10    9.77    2.51
   0  -3 -10    9.02    2.55
   0  -3 -10   10.39    2.69
   0   3  11   24.97    3.97
   0  -4   0 2531.62   24.12
   0   4   0 2524.06   26.36
   0   4   0 2578.26   25.74
   0   4   0 2547.75   25.28
   0   4   0 2583.05   25.57
   0  -4   0 2494.03   25.35
   0   4   0 2437.85   21.56
   0  -4   0 2510.57   27.03
   0   4   0 2491.17   29.49
   0   4   0 2563.79   27.91
   0   4   0 2513.81   21.69
   0  -4   0 2573.25   32.83
   0   4   0 2499.24   25.39
   0  -4   1   93.31    4.52
   0   4  -1   97.65    3.38
   0  -4   1   98.50    3.94
   0   4   1   91.38    3.36
   0   4  -1   97.39    4.55
   0  -4   1   89.37    3.68
   0  -4   1   98.34    4.34
   0   4   1   84.04    2.89
   0   4  -1   90.73    3.91
   0  -4  -1   91.48    3.78
   0   4  -1   93.23    2.57
   0  -4  -1   93.95    6.64
   0  -4   1   92.83    3.86
   0   4  -1   89.41    3.77
   0   4  -1   92.56    3.84
   0  -4  -1   84.55    2.37
   0   4   1   96.27    3.79
   0   4  -1   91.30    3.96
   0   4   1   93.97    4.18
   0  -4  -1   89.51    3.78
   0  -4  -1   94.66    3.65
   0   4   1   96.36    5.76
   0   4   1   91.30    4.15
   0  -4   1   98.24    3.06
   0   4  -1   88.87    4.00
   0   4   1   95.18    4.22
   0   4  -1   97.96    3.91
   0   4  -1   95.74    3.89
   0   4   1   89.54    3.64
   0   4  -2  387.53    9.29
   0  -4   2  377.36    8.07
   0   4   2  375.40    7.59
   0   4   2  382.09    6.86
   0   4   2  365.28    8.59
   0   4  -2  393.06    8.31
   0  -4   2  400.50    9.93
   0   4  -2  378.27    6.98
   0   4  -2  405.25    9.71
   0  -4  -2  373.91   13.66
   0  -4  -2  349.82    5.43
   0  -4  -2  384.19    9.38
   0  -4  -2  382.89    6.96
   0   4   2  394.27    8.96
   0   4  -2  375.28    6.40
   0   4  -2  383.57    6.38
   0  -4   2  396.57    8.80
   0  -4   2  376.41    6.53
   0  -4  -2  374.36    7.42
   0  -4   2  391.90    5.75
   0   4  -3  238.89    4.66
   0   4   3  237.30    6.98
   0  -4  -3  253.67    8.81
   0  -4   3  247.41    7.20
   0  -4  -3  239.01    5.52
   0  -4   3  238.77    8.98
   0   4   3  245.25    6.18
   0  -4  -3  244.68    6.17
   0  -4  -3  239.67   10.74
   0  -4   3  231.87    6.55
   0  -4  -3  216.53    4.88
   0   4  -3  250.09    6.77
   0   4  -3  235.81    4.21
   0   4   3  212.43    3.42
   0   4  -3  259.34    8.47
   0   4   3  250.20    7.40
   0  -4  -4  145.46    8.20
   0   4  -4  149.46    5.73
   0   4   4  145.61    4.14
   0   4  -4  134.76    3.18
   0   4   4  138.40    5.51
   0   4   4  140.54    5.80
   0  -4   4  153.77    6.33
   0  -4  -4  142.99    4.22
   0   4  -4  141.80    3.04
   0  -4  -4  157.06    8.07
   0   4   4  138.72    4.79
   0   4  -4  144.98    7.12
   0  -4   4  138.12    7.47
   0  -4  -4  129.51    4.82
   0  -4   4  142.14    5.42
   0   4   5   15.43    1.62
   0  -4  -5   11.95    0.89
   0   4  -5   14.99    1.08
   0  -4   5   16.91    2.34
   0  -4  -5   16.00    1.50
   0   4  -5   14.49    2.86
   0   4   5   16.06    2.18
   0  -4   5   17.78    2.76
   0   4   5   16.74    2.33
   0  -4  -5   16.00    3.23
   0  -4  -5   11.02    1.73
   0   4  -5   16.36    2.29
   0  -4  -5   12.65    2.77
   0  -4   5   14.53    2.80
   0  -4  -6    1.57    1.71
   0  -4   6    5.57    1.87
   0  -4  -6    3.05    2.00
   0  -4   6    2.77    1.94
   0   4   6    8.06    2.14
   0   4  -6    0.78    1.71
   0  -4   6    4.18    2.00
   0   4   6    1.29    1.15
   0   4   6    4.36    1.28
   0  -4  -7    7.40    2.33
   0  -4   7    3.99    1.57
   0   4   7   12.41    2.81
   0  -4   7    7.00    2.50
   0  -4  -7   10.91    2.84
   0   4   7    8.99    2.04
   0   4   7   14.15    2.53
   0  -4   7    6.88    2.27
   0   4  -7   12.95    3.08
   0   4   8    2.94    2.20
   0  -4   8    2.00    2.36
   0  -4  -8    4.33    2.18
   0   4  -8    7.18    2.94
   0  -4   8   -0.59    2.34
   0  -4  -8    4.83    2.09
   0  -4   8   -0.27    1.74
   0   4   8    6.93    2.22
   0  -4   9    3.36    2.43
   0  -4  -9    5.30    2.26
   0  -4   9    5.55    2.28
   0   4   9    2.28    2.41
   0   4  -9    8.96    2.90
   0   4   9    7.24    2.23
   0  -4   9    5.87    3.01
   0  -4  -9    5.45    2.27
   0   5   0    0.13    0.49
   0   5   0    0.52    0.49
   0  -5   0   -0.72    1.02
   0   5   0    0.46    0.84
   0   5   0   -1.02    1.00
   0  -5   0   -0.99    0.76
   0   5   0    0.23    1.04
   0   5   0   -0.64    1.00
   0  -5   0   -0.06    1.32
   0  -5  -1    1.33    1.12
   0   5  -1    0.69    0.78
   0   5   1    1.46    1.04
   0   5  -1   -0.35    1.13
   0  -5  -1    1.85    1.09
   0  -5   1    0.77    1.00
   0   5   1   -0.15    0.21
   0   5  -1   -0.45    0.68
   0  -5   1    2.40    1.16
   0   5   1    0.00    0.97
   0  -5  -1   -0.57    0.88
   0   5  -1    0.55    0.67
   0  -5   1   -0.91    0.97
   0  -5   1    0.07    0.62
   0   5  -1    1.29    1.10
   0   5   1   -0.54    0.74
   0   5  -1    0.21    0.45
   0   5  -1    0.68    0.98
   0  -5  -1   -3.43    2.37
   0  -5   1    0.49    1.10
   0   5  -1    1.08    1.10
   0  -5  -1   -0.32    0.41
   0  -5  -2   13.49    2.90
   0  -5   2   18.20    2.15
   0   5  -2   19.54    1.39
   0  -5   2   21.28    2.35
   0  -5  -2   18.87    2.04
   0   5  -2   19.46    2.25
   0   5  -2   20.05    2.39
   0   5   2   18.85    1.75
   0  -5   2   19.32    1.69
   0  -5  -2   18.78    2.19
   0   5   2   16.54    2.21
   0   5  -2   18.08    2.24
   0   5  -2   17.67    2.43
   0   5  -2   18.17    1.55
   0  -5  -2   18.20    1.59
   0  -5   2   20.79    1.49
   0  -5   2   20.68    2.66
   0   5   2   16.36    2.23
   0  -5  -2   17.50    1.13
   0  -5  -3  151.74    5.34
   0   5  -3  165.68    7.16
   0  -5  -3  152.59    4.98
   0   5  -3  160.22    6.08
   0  -5   3  153.18    3.34
   0   5   3  159.61    6.59
   0  -5   3  152.38    5.84
   0  -5  -3  161.39    7.20
   0   5   3  146.74    6.22
   0   5  -3  135.60    4.51
   0  -5  -3  135.22    3.79
   0   5  -3  159.81    4.05
   0  -5   3  162.68    6.56
   0  -5   3  148.30    7.63
   0  -5  -3  152.01    9.21
   0  -5   4   10.58    2.12
   0  -5  -4   16.06    3.01
   0  -5   4   13.23    2.09
   0  -5   4   10.31    2.36
   0   5  -4   13.07    2.61
   0   5  -4   11.93    2.02
   0  -5  -4   10.28    1.44
   0   5   4   11.69    2.09
   0  -5  -4   10.05    2.82
   0   5   4   13.96    2.22
   0  -5  -4   11.85    1.57
   0  -5   5  116.34    5.72
   0  -5  -5  117.18    8.21
   0  -5   5  113.09    6.23
   0   5   5  108.07    5.81
   0   5  -5  123.54    6.07
   0  -5   5  113.73    7.83
   0   5  -5  110.32    7.23
   0  -5  -5  113.32    7.82
   0   5   5  123.37    6.46
   0  -5   6   69.29    6.16
   0   5   6   75.62    5.34
   0   5   6   68.51    4.99
   0  -5  -6   65.48    6.01
   0  -5   6   81.81    5.35
   0   5   6   70.73    3.71
   0   5  -6   67.47    6.17
   0  -5   6   74.20    5.66
   0  -5  -6   58.72    5.87
   0  -5  -7   55.39    5.64
   0  -5   7   62.25    5.37
   0   5   7   46.14    4.21
   0   5   7   60.18    5.28
   0   5  -7   51.88    5.72
   0  -5  -7   48.36    5.25
   0  -5   7   55.89    5.57
   0  -5   7   46.70    4.97
   0  -5   8   42.23    5.37
   0  -5   8   44.23    4.96
   0   5   8   55.07    5.75
   0  -5  -8   41.11    5.18
   0  -5  -8   47.32    5.41
   0   5  -8   57.25    6.24
   0  -5   8   57.68    5.89
   0  -5   9   17.64    4.36
   0  -5   9   15.67    3.24
   0   6   0  571.78    8.13
   0  -6   0  665.34   12.51
   0   6   0  619.22   12.47
   0  -6   0  612.43   12.45
   0  -6   0  628.02   11.31
   0   6   0  593.36   14.34
   0   6   0  600.20   13.12
   0   6   0  622.58   12.32
   0  -6   0  651.83   15.80
   0  -6   1   52.85    3.70
   0   6  -1   47.53    2.62
   0   6   1   50.29    3.19
   0  -6  -1   55.01    5.43
   0   6  -1   53.41    3.67
   0   6  -1   52.83    3.90
   0  -6  -1   48.91    3.42
   0   6   1   52.90    3.89
   0  -6   1   54.06    4.09
   0  -6  -1   53.55    3.47
   0   6  -1   52.06    4.28
   0  -6   1   57.60    3.85
   0  -6  -1   54.41    2.84
   0   6  -1   49.92    2.17
   0  -6   1   55.66    2.94
   0   6  -1   53.69    3.68
   0   6   1   50.20    4.21
   0   6   2  127.88    6.20
   0   6  -2  125.09    6.08
   0   6  -2  126.32    5.69
   0  -6   2  128.30    4.04
   0   6   2  122.10    4.67
   0   6  -2  117.47    4.83
   0   6   2  115.88    6.20
   0  -6  -2  120.52    5.71
   0   6  -2  125.02    3.53
   0  -6   2  122.28    6.94
   0   6  -2  126.46    6.13
   0  -6  -2  131.83    9.62
   0  -6   2  123.37    5.81
   0  -6   2  120.68    4.52
   0  -6   2  129.86    5.80
   0  -6   3   91.17    5.02
   0   6  -3   86.78    3.10
   0   6  -3   81.97    5.06
   0  -6   3   83.41    2.86
   0   6  -3   89.14    5.11
   0   6  -3   87.32    5.64
   0  -6   3   78.83    6.10
   0  -6   3   84.58    5.10
   0  -6  -3   78.73    7.25
   0  -6  -3   83.66    5.36
   0   6   3   84.04    5.42
   0   6   3   93.01    5.59
   0  -6   4   45.13    4.16
   0   6  -4   40.87    3.76
   0  -6  -4   42.45    4.50
   0   6   4   47.21    4.17
   0  -6  -4   34.74    4.96
   0   6   4   41.25    4.13
   0   6  -4   47.24    4.70
   0  -6   4   39.01    3.47
   0   6  -4   44.33    3.79
   0  -6   4   36.95    4.43
   0   6   5    5.83    1.93
   0  -6   5    4.72    1.76
   0  -6   5    7.59    2.33
   0   6  -5    3.98    1.76
   0  -6  -5    4.48    2.14
   0   6   5    6.61    2.20
   0  -6   5    4.87    2.35
   0  -6  -5    5.97    2.69
   0   6  -5    3.63    2.09
   0   6   6    0.50    1.54
   0  -6   6    3.55    2.24
   0  -6  -6    0.10    2.44
   0  -6  -6    2.83    2.35
   0   6  -6    1.95    1.92
   0   6   6    1.66    1.40
   0  -6   6    1.07    1.60
   0  -6   6    0.38    1.63
   0  -6   7    0.80    1.82
   0  -6  -7    7.20    2.74
   0   6   7   10.21    2.82
   0  -6  -7    0.45    1.93
   0  -6   7    4.25    2.26
   0   6  -7    4.26    2.56
   0  -6   7   -0.33    2.13
   0  -6   8    0.73    2.23
   0  -6   8   -0.63    1.69
   0  -7   0   -0.57    1.21
   0   7   0   -0.41    1.05
   0  -7   0    0.01    1.25
   0  -7   0   -0.07    0.78
   0   7   0    0.50    1.36
   0   7   0   -0.78    1.18
   0   7   0    1.42    1.33
   0  -7   1    0.11    0.75
   0  -7   1    0.23    1.22
   0   7  -1    0.56    1.27
   0   7   1    0.62    1.27
   0   7  -1   -0.45    1.52
   0  -7   1    1.47    1.25
   0   7   1   -0.59    1.02
   0   7  -1   -1.03    1.25
   0   7  -1    0.54    1.18
   0   7   1    1.51    1.65
   0  -7  -1    0.66    1.50
   0  -7  -1    1.23    1.07
   0   7   1   -1.38    1.30
   0  -7  -1   -0.19    1.17
   0   7  -2    7.38    2.11
   0  -7  -2    8.11    1.85
   0   7   2   10.48    2.59
   0   7  -2    8.69    2.10
   0   7   2   11.45    2.35
   0  -7   2    8.94    2.04
   0  -7  -2   10.51    3.25
   0   7  -2    8.26    1.97
   0  -7   2    7.51    1.90
   0  -7   2    4.44    1.77
   0   7  -3   39.89    3.41
   0  -7   3   48.08    4.25
   0   7  -3   47.92    4.56
   0  -7  -3   42.34    4.01
   0  -7   3   48.02    4.09
   0   7  -3   49.11    4.13
   0  -7   3   39.95    4.71
   0  -7  -3   43.96    5.97
   0   7   3   43.96    4.25
   0   7  -3   41.59    4.03
   0   7   3   42.85    4.48
   0   7  -4    4.09    1.54
   0  -7   4    5.97    2.33
   0   7  -4    5.60    2.05
   0   7   4    6.96    2.27
   0   7  -4    7.26    2.44
   0   7  -4    3.06    1.53
   0  -7  -4    0.60    1.50
   0  -7   4    6.78    2.27
   0  -7   4    4.34    1.87
   0   7   4    4.02    1.78
   0  -7  -4    5.79    2.61
   0  -7  -5   34.34    4.71
   0   7  -5   33.85    3.88
   0  -7   5   28.41    4.11
   0   7   5   32.90    4.35
   0  -7   5   29.14    3.47
   0  -7   5   35.15    4.18
   0  -7  -5   28.76    4.74
   0   7  -5   32.36    3.88
   0   7  -5   32.47    4.65
   0   7   5   33.81    3.95
   0  -7  -6   23.11    4.52
   0  -7  -6   27.79    4.64
   0   7  -6   24.29    3.63
   0  -7   6   21.99    3.27
   0  -7   6   25.24    4.02
   0  -7   6   21.44    3.55
   0   7   6   22.19    3.77
   0   7  -6   16.79    3.93
   0  -7   7   16.25    3.33
   0   8   0  149.52    6.83
   0  -8   0  143.51    7.67
   0   8   0  147.64    8.62
   0   8   0  144.79    7.63
   0   8   0  143.84    7.01
   0  -8   0  141.16    6.93
   0   8  -1   13.57    2.43
   0   8  -1   12.08    2.28
   0  -8   1   13.62    2.61
   0   8   1   13.84    2.61
   0   8   1   12.51    2.42
   0   8   1   12.00    2.82
   0  -8  -1   18.20    3.45
   0   8  -1   13.89    2.67
   0  -8  -2   31.46    3.45
   0   8  -2   29.33    3.50
   0   8  -2   30.76    3.75
   0   8  -2   27.45    3.44
   0  -8   2   28.33    3.49
   0   8   2   28.38    4.00
   0   8   2   26.54    3.35
   0  -8  -2   32.84    5.27
   0  -8  -3   27.04    5.36
   0   8   3   25.16    3.52
   0  -8  -3   21.28    3.03
   0   8  -3   24.73    3.30
   0  -8   3   18.77    3.15
   0   8  -3   23.79    3.42
   0   8   3   20.21    3.54
   0   8  -3   22.26    3.35
   0  -8  -4    5.62    2.61
   0   8   4    9.20    3.04
   0  -8   4   13.66    2.81
   0   8  -4    8.02    2.31
   0  -8   4   11.80    2.71
   0   8  -4   10.00    2.48
   0  -8  -4    6.42    2.21
   0   8  -5    3.40    2.07
   0   8   5    0.15    2.08
   0  -9   0   -2.17    1.65
  -1   0  11    7.45    2.39
  -1   0  11    4.00    2.26
   1   0 -11    8.69    2.05
   1   0 -10    7.29    1.91
   1   0 -10    8.22    2.00
   1   0 -10    7.34    1.74
  -1   0  10    6.76    1.74
  -1   0  10    9.37    2.52
  -1   0   9   41.09    3.60
   1   0  -9   35.56    3.09
  -1   0   9   36.79    4.02
   1   0  -9   43.82    3.64
   1   0  -9   44.02    3.81
  -1   0   8   72.76    5.22
   1   0  -8   82.26    4.79
   1   0  -8   69.01    4.13
  -1   0   8   76.34    4.78
   1   0  -8   81.41    4.97
   1   0  -7  245.10    8.41
  -1   0   7  227.11    9.07
   1   0  -7  255.08    8.23
   1   0  -7  233.31    7.47
  -1   0   7  218.04    7.66
  -1   0   6  124.98    5.70
   1   0  -6  137.96    5.70
   1   0  -6  139.03    6.20
   1   0  -6  142.41    6.06
  -1   0   6  133.43    6.91
  -1   0   5  352.15    9.34
  -1   0   5  323.61   10.41
   1   0  -5  337.41    8.76
   1   0  -5  342.63   10.36
   1   0  -5  311.27    8.10
  -1   0   5  333.64    9.51
   1   0  -5  346.37    9.76
  -1   0   4  967.41   16.75
   1   0  -4  948.04    9.66
   1   0  -4  927.47   13.53
   1   0  -4  894.22   13.24
   1   0  -4  932.37   15.62
  -1   0   4  972.68   14.84
   1   0  -4  951.40   14.94
   1   0  -3  791.50   10.84
  -1   0   3  768.39   10.61
  -1   0   3  806.83   10.67
   1   0  -3  781.78   10.59
  -1   0   3  809.81   12.38
   1   0  -3  801.88    9.24
  -1   0   3  851.10   15.19
   1   0  -3  774.76   10.12
   1   0  -3  846.08   15.32
  -1   0   2  970.30    9.88
   1   0  -2  977.14    9.46
   1   0  -2  979.91   10.66
  -1   0   2  972.06    9.47
   1   0  -2  897.34   13.68
   1   0  -2 1066.08   10.66
  -1   0   2 1002.33   10.21
  -1   0   2 1102.92   11.84
   1   0  -2  969.05    9.80
   1   0  -2  966.50   11.42
  -1   0   2  916.84   13.47
   1   0  -1   83.14    1.87
  -1   0   1   84.35    1.93
   1   0  -1   84.48    1.58
   1   0   0   11.88    0.48
   1   0   0   11.84    0.48
   1   0   1   66.64    1.66
   1   0   1   65.89    2.03
  -1   0  -1   68.18    1.68
   1   0   1   69.67    3.33
  -1   0  -1   72.37    3.29
  -1   0  -1   69.98    2.81
  -1   0  -1   66.93    2.04
   1   0   1   67.78    2.01
  -1   0  -1   64.87    1.95
   1   0   1   68.23    1.57
   1   0   2  125.98    3.91
  -1   0  -2  118.80    5.21
   1   0   2  132.28    3.31
  -1   0  -2  124.67    3.36
  -1   0  -2  117.68    3.70
   1   0   2  139.26    6.09
  -1   0  -2  118.59    3.56
  -1   0  -3  360.56   10.12
  -1   0  -3  327.13    8.11
   1   0   3  365.98    8.79
  -1   0  -3  347.78    7.21
   1   0   3  335.46    7.27
  -1   0  -3  312.60    7.83
   1   0   4  801.25   15.18
  -1   0  -4  761.30   14.89
  -1   0  -4  774.43   14.38
   1   0   5  202.38    7.59
   1   0   5  183.58    7.45
  -1   0  -5  194.13    6.93
  -1   0  -5  184.68    7.14
   1   0   6  233.93    8.89
   1   0   6  236.35    8.40
  -1   0  -6  221.37    7.97
  -1   0  -6  230.58    7.69
   1   0   7  193.34    8.54
  -1   0  -7  178.53    6.76
  -1   0  -7  175.53    7.36
  -1   0  -8   52.86    3.77
   1   0   8   54.90    4.93
  -1   0  -8   51.57    4.20
   1   0   8   46.74    4.71
   1   0   9   26.33    3.74
  -1   0  -9   27.15    3.37
   1   0   9   32.56    4.17
  -1   0  -9   26.44    2.86
  -1   0  -9   21.99    2.91
  -1   0 -10   19.22    2.97
  -1   0 -10   17.79    2.83
   1   0  10   18.20    3.11
   1   0  10   18.21    3.24
   1   0  10   20.01    3.48
  -1   0 -11    0.20    1.43
  -1   0 -11    6.01    2.00
   1   0  11    2.23    1.96
   1   1 -11   10.64    2.33
  -1  -1  11    9.95    2.79
   1  -1 -11   13.62    2.71
  -1   1  11   11.94    2.42
  -1   1  11   13.87    2.96
  -1  -1  11   11.80    3.03
  -1  -1  10   11.28    2.53
  -1  -1  10   14.26    2.33
  -1   1  10   10.80    2.19
   1  -1 -10    9.72    2.04
   1  -1 -10   13.04    2.52
  -1   1  10   17.04    3.13
  -1  -1  10   14.27    3.14
   1   1 -10   13.15    2.17
   1   1 -10   14.58    2.50
   1  -1 -10   14.86    2.26
   1   1  -9   20.23    2.51
   1  -1  -9   19.30    2.34
   1   1  -9   18.91    2.81
  -1   1   9   16.48    2.90
  -1  -1   9   14.60    3.04
   1  -1  -9   15.89    2.40
   1  -1  -9   17.61    2.75
  -1  -1   9   18.36    3.06
  -1  -1   9   18.00    2.50
   1   1  -9   15.28    1.99
   1   1  -8   18.77    2.25
   1  -1  -8   17.27    2.73
   1  -1  -8   19.81    2.54
  -1  -1   8   15.05    2.55
   1   1  -8   19.63    2.40
  -1  -1   8   19.42    3.39
   1   1  -8   20.39    2.82
   1  -1  -8   19.24    2.25
  -1  -1   8   20.27    2.58
  -1  -1   8   14.26    1.84
  -1   1   8   16.89    2.67
  -1  -1   7   12.14    1.63
  -1  -1   7   16.52    2.32
  -1   1   7   15.65    2.71
   1  -1  -7   16.33    2.39
  -1  -1   7   16.24    2.93
   1   1  -7   14.08    1.87
  -1   1   7   14.05    2.44
   1  -1  -7   16.72    2.03
   1   1  -7   16.68    2.58
  -1  -1   7   14.99    3.03
   1   1  -7   17.37    2.25
   1  -1  -7   17.30    2.59
  -1  -1   6   66.90    5.32
   1  -1  -6   78.97    5.15
   1   1  -6   77.84    4.15
  -1   1   6   66.33    4.77
   1  -1  -6   81.29    3.92
   1   1  -6   66.35    3.26
  -1  -1   6   72.79    3.59
   1   1  -6   80.60    5.04
   1  -1  -6   76.71    4.66
  -1  -1   6   72.15    4.08
  -1   1   6   72.82    4.56
  -1  -1   5   59.53    4.02
   1  -1  -5   62.09    4.54
  -1  -1   5   59.74    3.26
   1   1  -5   55.46    3.80
  -1   1   5   59.97    3.92
   1   1  -5   65.98    3.72
  -1  -1   5   54.20    4.26
   1   1  -5   53.53    2.60
   1  -1  -5   50.38    3.65
   1  -1  -5   66.29    4.40
  -1   1   5   52.33    3.96
   1  -1  -5   67.47    3.38
  -1  -1   5   53.73    3.16
  -1   1   5   61.43    4.65
   1  -1  -5   69.29    4.60
   1   1  -5   56.49    4.33
  -1   1   5   52.59    2.02
  -1  -1   4  503.12   10.12
   1  -1  -4  583.41   11.68
   1  -1  -4  538.83   11.23
  -1   1   4  544.72   11.35
  -1  -1   4  511.19   11.46
   1   1  -4  502.48    9.00
  -1   1   4  527.71   11.05
   1  -1  -4  530.14   12.08
   1   1  -4  515.01    7.38
  -1   1   4  488.01   12.13
   1  -1  -4  546.69    8.98
  -1  -1   4  515.86    8.72
   1   1  -4  491.44   10.15
   1  -1  -4  504.95   11.27
  -1   1   4  491.73    7.60
  -1  -1   4  491.25    8.17
   1  -1  -4  554.36   11.98
   1   1  -3  601.39    7.94
   1   1  -3  639.80    7.72
   1  -1  -3  582.72    7.48
  -1  -1   3  637.59   10.32
  -1   1   3  619.56   10.38
   1   1  -3  638.73   10.00
  -1   1   3  649.20   11.47
   1  -1  -3  644.07    7.45
   1  -1  -3  629.22   10.59
   1  -1  -3  612.37   10.39
  -1  -1   3  629.95    8.25
  -1  -1   3  618.28    9.61
  -1   1   3  630.86    9.75
   1  -1  -3  675.53   10.12
  -1  -1   3  639.79   10.41
  -1   1   3  633.60    9.24
  -1   1   3  634.18   12.09
  -1  -1   3  664.81   10.74
   1  -1  -3  590.11   11.37
   1  -1  -3  638.67    9.99
  -1  -1   3  618.78    7.06
   1   1  -3  634.38    6.99
  -1  -1   2 1822.69   17.36
  -1   1   2 1907.92   20.30
  -1  -1   2 1851.41   14.91
   1  -1  -2 1710.36   19.67
  -1   1   2 1990.97   20.49
   1  -1  -2 1820.82   19.77
  -1   1   2 1759.74   18.08
  -1   1   2 1925.12   15.24
   1  -1  -2 1845.89   15.24
   1  -1  -2 1874.45   16.85
   1  -1  -2 1848.58   17.91
   1   1  -2 1876.16   17.56
  -1  -1   2 1861.77   16.59
  -1   1   2 1889.00   17.28
  -1  -1   2 1849.15   16.66
   1   1  -2 1876.88   16.05
  -1   1   2 1833.46   16.77
   1  -1  -2 1874.40   17.25
   1  -1  -2 1808.96   15.14
  -1   1   2 1844.94   17.82
  -1  -1   2 1826.21   15.92
  -1   1   1 1162.35   10.24
  -1   1   1 1187.56   10.81
  -1  -1   1 1122.14    9.42
   1  -1  -1 1145.55   10.34
  -1  -1   1 1126.27    9.44
   1   1  -1 1160.15   10.89
   1   1  -1 1131.79   11.15
  -1   1   1 1170.48   12.50
   1   1  -1 1129.52   10.50
   1  -1  -1 1038.06   14.40
   1  -1  -1 1148.84   10.70
   1  -1  -1 1146.15   12.06
  -1   1   1 1210.29   15.47
  -1  -1   1 1138.14   10.58
   1  -1  -1 1123.70   11.00
  -1   1   1 1176.47   10.88
  -1  -1   1 1110.49   11.21
  -1   1   1 1129.70   11.16
   1   1  -1 1113.33    9.48
   1   1  -1 1130.18    9.48
  -1   1   1 1159.33   10.32
  -1   1   1 1129.85    9.15
   1  -1  -1 1156.34    9.08
  -1   1   0   11.50    0.78
  -1  -1   0   11.34    0.81
   1   1   0   11.70    0.83
  -1   1   0   11.77    0.77
   1   1   0   11.27    0.68
  -1   1   0   12.76    0.70
  -1   1   0   12.75    0.73
  -1   1   0   14.21    0.89
  -1  -1   0   12.26    0.96
   1  -1   0   11.44    0.69
   1   1   0   11.39    0.74
   1  -1   0   11.42    0.79
  -1   1   0   10.47    0.74
   1  -1   0   11.07    0.77
  -1  -1   0   10.33    0.70
   1  -1   0   13.18    1.35
  -1  -1   0   10.76    0.72
  -1  -1   0   10.39    0.65
   1  -1   0   12.60    0.82
   1  -1   0   11.46    0.58
  -1   1   0   12.88    1.45
  -1   1   0   11.27    0.76
  -1  -1   0   10.47    0.74
  -1   1   0   10.94    0.77
   1  -1   0   11.93    1.50
   1   1   0   10.45    0.80
   1   1   0   11.03    0.52
  -1  -1   0   10.64    0.81
  -1   1   0   11.01    1.19
   1  -1   0   10.63    0.70
   1   1   1 3098.65   27.02
  -1   1  -1 3045.55   30.19
  -1   1  -1 3282.50   25.55
   1   1   1 2961.01   24.08
   1   1   1 3180.72   28.40
  -1   1  -1 3019.11   24.03
  -1   1  -1 3275.39   26.18
  -1   1  -1 3331.64   26.07
  -1   1  -1 3127.01   32.33
  -1  -1  -1 3175.60   25.77
  -1  -1  -1 3180.58   28.31
   1  -1   1 3320.96   27.97
   1   1   1 3248.53   25.06
   1  -1   1 3539.64   31.04
   1  -1   1 3299.91   26.21
   1  -1   1 3167.69   31.92
  -1  -1  -1 3158.29   24.03
   1  -1   1 3276.91   26.24
   1   1   1 3248.68   25.90
  -1  -1  -1 3186.25   26.21
  -1   1  -1 3589.46   30.16
   1  -1   1 3273.63   25.77
   1   1   1 3128.03   26.19
  -1   1  -1 3297.05   26.21
   1   1   1 3051.84   23.38
  -1  -1  -1 3226.09   25.12
   1  -1   1 3290.46   26.01
   1  -1   2 1014.65   15.24
   1   1   2  911.37   11.70
  -1   1  -2  906.96   14.49
   1  -1   2  947.11   11.41
  -1  -1  -2  910.61   10.16
  -1   1  -2  999.07   12.89
   1  -1   2  956.62   10.32
  -1  -1  -2  973.30   13.46
   1  -1   2  937.28   11.33
  -1  -1  -2  943.87   11.17
   1   1   2  951.29   14.13
   1   1   2  937.29   11.11
  -1   1  -2  987.46   11.67
   1   1   2  910.08    8.25
   1  -1   2  977.56   11.30
  -1   1  -2  996.39   11.75
  -1   1  -2 1023.93   16.70
   1  -1   2 1006.16   15.94
   1  -1   2  973.72   12.21
  -1  -1  -2  945.86   11.85
   1   1   3  215.88    5.68
   1  -1   3  227.03    6.21
   1  -1   3  217.95    4.94
  -1   1  -3  192.00    7.05
  -1   1  -3  226.07    5.27
   1  -1   3  217.91    5.69
   1   1   3  207.91    7.36
  -1  -1  -3  220.65    6.92
   1  -1   3  212.78    5.93
   1   1   3  218.71    6.59
  -1  -1  -3  202.15    5.09
   1  -1   3  192.61    6.76
  -1  -1  -3  203.98    5.59
  -1   1  -3  214.80    4.36
  -1   1  -3  228.47    8.05
  -1  -1  -3  245.22    6.97
   1   1   4  136.65    6.69
  -1   1  -4  151.56    6.61
  -1  -1  -4  131.07    5.45
   1  -1   4  136.49    5.71
  -1   1  -4  137.17    3.64
   1   1   4  147.72    5.74
  -1  -1  -4  131.02    5.77
   1  -1   4  131.28    5.99
  -1  -1  -4  147.52    6.56
   1  -1   4  141.45    4.61
  -1   1  -4  150.70    4.85
   1  -1   4  127.18    5.26
   1  -1   4  140.09    5.88
  -1  -1  -4  149.56    5.41
   1   1   4  139.07    6.24
  -1   1  -4  130.05    6.26
  -1   1  -4  141.10    6.73
   1   1   5  244.32    8.39
  -1   1  -5  258.55    8.66
   1  -1   5  250.03    8.79
  -1   1  -5  244.56    6.43
  -1  -1  -5  230.07    7.62
   1  -1   5  228.83    8.79
  -1  -1  -5  242.67    8.77
  -1   1  -5  202.26    4.11
   1  -1   5  237.84    6.97
   1   1   5  249.12    8.97
  -1  -1  -5  232.75    7.52
   1   1   5  229.76    8.96
   1  -1   6   68.85    4.31
   1   1   6   72.31    4.92
  -1  -1  -6   66.98    4.47
   1  -1   6   75.16    5.87
   1  -1   6   81.17    5.35
  -1   1  -6   74.76    3.53
   1   1   6   75.00    5.40
  -1   1  -6   74.46    4.83
  -1  -1  -6   77.31    5.03
   1  -1   7   21.40    2.53
   1   1   7   21.41    3.07
   1   1   7   21.81    3.27
  -1   1  -7   19.99    1.97
   1  -1   7   27.59    3.54
   1  -1   7   24.03    3.49
  -1  -1  -7   21.34    2.75
   1  -1   7   25.71    4.12
  -1   1  -7   21.01    2.73
  -1  -1  -7   19.29    2.70
  -1  -1  -8   15.83    2.72
   1  -1   8   23.96    4.14
  -1   1  -8   15.73    1.78
  -1  -1  -8   16.90    2.59
   1  -1   8   17.54    3.20
   1   1   8   16.00    2.79
   1  -1   8   19.55    2.11
  -1   1  -8   17.86    2.67
  -1  -1  -8   14.66    2.37
   1  -1   8   20.38    3.26
  -1   1  -9    2.26    1.50
   1  -1   9    2.55    2.02
  -1  -1  -9    1.16    1.23
  -1  -1  -9    1.80    1.25
   1  -1   9    1.30    1.91
  -1  -1  -9    1.52    1.57
   1   1   9    1.16    1.50
   1  -1   9    2.95    2.01
  -1  -1 -10    3.63    1.64
  -1   1 -10   -0.16    1.34
  -1  -1 -10    3.67    1.74
   1   1  10    5.72    2.60
   1  -1  10    3.33    1.86
   1  -1  10    3.77    2.38
   1  -1  10    4.19    2.12
  -1  -1 -10    3.24    1.89
  -1   1 -10    5.98    2.02
   1  -1  11    8.30    2.46
  -1   1 -11    7.56    2.25
  -1  -1 -11    5.59    2.08
   1  -2 -11    3.92    1.96
   1  -2 -11    1.44    1.49
   1   2 -11    5.29    2.08
  -1  -2  11    5.62    2.47
  -1   2  11    5.58    2.15
  -1   2  10    6.16    2.03
   1  -2 -10    7.89    2.27
  -1  -2  10    6.48    2.59
   1  -2 -10    3.85    1.67
  -1  -2  10    5.63    2.69
  -1  -2  10    5.02    2.07
   1   2 -10    9.26    2.34
  -1  -2   9   41.43    5.34
  -1   2   9   37.43    4.79
  -1  -2   9   31.25    4.05
   1  -2  -9   34.89    3.88
   1  -2  -9   36.90    2.80
  -1   2   9   34.67    3.82
   1  -2  -9   32.71    3.61
  -1  -2   9   40.15    3.54
   1   2  -9   36.16    2.92
   1   2  -9   42.51    4.25
  -1  -2   8   60.29    5.39
   1  -2  -8   63.51    5.04
   1  -2  -8   59.37    4.58
   1   2  -8   62.65    3.66
  -1   2   8   58.15    4.61
  -1   2   8   52.33    5.21
   1   2  -8   65.14    5.24
   1   2  -8   45.84    2.49
  -1  -2   8   58.54    3.94
  -1  -2   8   63.18    6.15
   1  -2  -8   59.36    3.36
  -1   2   7  149.74    4.11
   1  -2  -7  163.90    8.02
  -1  -2   7  146.61    4.23
  -1  -2   7  158.95    5.88
  -1   2   7  153.37    8.26
   1  -2  -7  153.79    4.50
   1   2  -7  183.18    5.92
  -1   2   7  158.89    6.95
  -1  -2   7  145.70    8.14
   1  -2  -7  164.10    7.43
   1   2  -7  156.72    4.22
   1   2  -7  190.51    8.82
  -1  -2   7  152.21    8.53
   1   2  -7  126.66    3.87
   1  -2  -7  161.85    5.21
  -1   2   6  120.03    6.60
   1   2  -6  124.03    4.59
   1  -2  -6  123.59    3.68
   1   2  -6  109.56    6.26
   1  -2  -6  110.48    3.97
   1  -2  -6  125.40    6.50
   1  -2  -6  110.75    6.66
  -1  -2   6  103.60    3.20
  -1  -2   6  102.57    6.01
  -1   2   6  103.62    5.17
  -1  -2   6  102.29    6.65
  -1  -2   6  114.68    4.44
   1  -2  -6  120.21    6.01
  -1   2   6  104.35    3.78
  -1  -2   5  244.41    9.28
  -1  -2   5  245.11    4.57
   1   2  -5  246.73    8.42
  -1   2   5  226.18    5.98
   1   2  -5  289.06    6.45
   1  -2  -5  275.05    4.82
   1  -2  -5  252.24    5.49
  -1   2   5  223.66    6.97
   1  -2  -5  263.60    9.89
  -1  -2   5  265.81    8.16
  -1   2   5  273.26    8.31
   1  -2  -5  275.63    9.72
  -1  -2   5  267.46    6.00
   1  -2  -5  278.94    8.61
  -1  -2   4  633.59   10.76
   1  -2  -4  645.74   11.79
   1  -2  -4  692.90   12.87
   1  -2  -4  614.70    6.99
   1  -2  -4  707.65   16.14
  -1  -2   4  638.27   12.21
  -1   2   4  591.00   10.67
   1   2  -4  647.15   12.58
   1   2  -4  584.97    7.61
  -1   2   4  660.61   16.52
  -1   2   4  624.84   10.90
  -1  -2   4  626.82   10.68
   1  -2  -4  647.90   13.64
  -1  -2   4  628.97    8.57
   1   2  -4  621.24    8.58
  -1  -2   4  643.61   13.13
  -1   2   4  600.59   10.59
   1  -2  -4  653.61   11.26
  -1   2   3  413.95    7.55
   1  -2  -3  424.81    9.13
  -1  -2   3  394.47    6.95
  -1   2   3  406.51    5.01
   1   2  -3  431.99    7.51
  -1  -2   3  397.86    6.95
   1  -2  -3  403.42   11.23
  -1  -2   3  411.26    8.49
  -1  -2   3  425.24    8.69
  -1   2   3  418.68    9.29
  -1   2   3  430.70    6.79
   1   2  -3  427.80    8.79
   1   2  -3  431.73    7.59
   1  -2  -3  437.58    8.64
  -1  -2   3  404.13    6.01
   1  -2  -3  417.40    7.64
  -1   2   3  409.52   11.76
   1   2  -3  417.70    6.04
   1  -2  -3  423.46    7.81
  -1   2   3  418.19    9.18
   1  -2  -2  559.14    8.14
  -1   2   2  539.20    9.00
   1   2  -2  546.55    7.29
  -1   2   2  539.15   12.32
  -1   2   2  542.59    7.99
  -1  -2   2  527.42    7.19
   1   2  -2  540.86    8.69
   1  -2  -2  496.44    6.43
  -1   2   2  543.17    7.88
  -1   2   2  511.37    5.26
  -1   2   2  563.31    7.92
  -1   2   2  575.49   11.75
  -1  -2   2  538.66    8.72
  -1  -2   2  550.32    8.65
  -1  -2   2  539.67    7.04
   1   2  -2  536.19    6.79
   1  -2  -2  563.00    7.87
   1  -2  -2  543.59    8.83
  -1  -2   2  570.71    9.56
  -1  -2   2  528.71    7.21
   1   2  -2  533.66    7.24
  -1  -2   2  540.41    6.85
  -1   2   2  535.97    6.16
   1  -2  -2  541.03   11.31
  -1   2   1  183.40    7.18
   1   2  -1  165.82    3.27
   1  -2  -1  166.13    3.86
  -1  -2   1  163.76    3.65
  -1  -2   1  168.02    2.92
   1  -2  -1  172.38    3.90
   1  -2  -1  163.59    3.88
   1   2  -1  160.79    3.81
  -1  -2   1  163.72    4.07
  -1  -2   1  167.34    4.19
  -1   2   1  166.14    3.52
   1  -2  -1  172.98    3.85
  -1  -2   1  169.00    4.38
  -1   2   1  170.94    5.78
  -1  -2   1  150.70    3.08
  -1   2   1  173.77    4.27
  -1   2   1  162.79    2.95
  -1   2   1  167.73    3.85
   1  -2  -1  166.50    3.47
  -1   2   1  169.13    3.82
   1   2  -1  172.18    3.64
   1   2  -1  164.15    3.24
  -1  -2   1  167.08    3.74
   1   2  -1  167.12    3.61
  -1   2   1  164.86    3.99
   1  -2  -1  166.96    4.97
  -1   2   1  174.10    3.95
   1   2  -1  165.05    4.05
  -1   2   0   50.79    2.09
  -1  -2   0   54.81    2.20
   1  -2   0   53.34    2.83
  -1  -2   0   55.24    2.18
   1   2   0   49.46    2.03
   1   2   0   50.95    1.62
   1   2   0   52.45    2.28
  -1   2   0   57.81    2.27
   1  -2   0   52.29    2.10
   1  -2   0   54.76    2.00
   1  -2   0   54.05    2.18
  -1   2   0   52.98    1.73
  -1  -2   0   50.30    1.67
  -1  -2   0   49.99    2.71
   1   2   0   52.17    2.41
   1   2   0   49.83    1.69
   1  -2   0   52.38    2.08
  -1   2   0   55.72    2.37
   1   2   0   51.69    2.13
   1   2   0   50.31    1.73
  -1   2   0   53.28    1.98
   1  -2   0   58.58    2.22
  -1   2   0   50.99    2.62
  -1   2   0   55.69    3.91
   1  -2   0   56.37    2.37
  -1  -2   0   52.60    1.70
  -1   2   0   54.49    2.15
  -1   2   0   57.73    2.36
   1   2   0   52.60    2.17
  -1  -2   0   48.54    1.11
  -1  -2   0   49.66    2.08
  -1  -2   0   49.71    2.22
  -1   2  -1   42.14    1.67
   1   2   1   39.44    1.65
   1  -2   1   45.22    2.08
  -1   2  -1   42.12    2.00
  -1   2  -1   44.25    2.55
   1   2   1   41.82    1.88
  -1  -2  -1   40.51    1.68
  -1   2  -1   41.29    1.95
   1  -2   1   41.01    1.62
  -1  -2  -1   41.28    1.39
  -1   2  -1   40.90    1.87
  -1  -2  -1   42.54    3.00
  -1   2  -1   36.08    3.05
   1   2   1   39.76    1.99
   1  -2   1   42.00    3.07
   1  -2   1   44.80    2.16
  -1  -2  -1   38.98    1.72
   1  -2   1   39.29    1.41
  -1  -2  -1   38.18    1.33
   1   2   1   40.11    1.35
  -1   2  -1   42.28    2.70
  -1   2  -1   43.31    2.12
   1   2   1   42.82    2.26
  -1  -2  -1   43.00    1.87
   1  -2   1   42.17    2.03
   1   2   1   43.21    2.81
  -1  -2  -1   40.46    1.98
   1  -2   1   44.45    2.87
  -1   2  -1   41.21    1.99
   1   2   1   38.92    1.37
   1  -2   1   44.41    2.14
  -1   2  -2   97.23    4.64
  -1  -2  -2   93.58    2.44
   1  -2   2  102.19    3.53
  -1  -2  -2   97.71    3.45
   1   2   2   98.32    2.61
  -1   2  -2   94.65    4.72
  -1  -2  -2   99.07    5.09
  -1   2  -2   92.80    2.55
   1  -2   2  100.58    5.33
  -1   2  -2  102.85    4.86
   1  -2   2  100.75    3.51
   1   2   2   97.39    2.41
  -1   2  -2  101.02    3.42
   1  -2   2  101.98    3.42
  -1   2  -2  106.18    3.60
   1  -2   2   90.62    4.69
  -1  -2  -2   92.79    2.94
  -1   2  -2  100.81    3.42
  -1   2  -2  102.15    3.42
   1   2   2   97.37    2.84
   1   2   2   97.53    4.02
  -1   2  -2   88.05    2.10
   1   2   2   98.95    5.14
   1   2   2   96.26    3.00
   1   2   2   99.55    3.53
   1  -2   2   99.07    3.39
  -1   2  -3  226.62    6.86
  -1   2  -3  234.04    6.11
   1  -2   3  223.97    5.90
  -1  -2  -3  218.50    6.00
   1   2   3  212.32    5.89
   1  -2   3  228.92    8.67
  -1  -2  -3  219.25    8.40
   1   2   3  218.45    9.09
   1  -2   3  221.83    5.85
   1  -2   3  228.95    6.16
  -1  -2  -3  211.94    4.54
   1   2   3  216.73    5.32
  -1   2  -3  252.44    8.74
  -1  -2  -3  207.87    5.38
  -1   2  -3  224.79    8.18
   1  -2   3  219.41    7.76
   1  -2   3  219.14    5.78
   1   2   3  215.74    4.44
  -1   2  -3  232.87    6.09
  -1  -2  -4  636.55   15.43
   1   2   4  663.79   11.39
  -1   2  -4  653.39   11.32
  -1  -2  -4  632.57    9.97
   1  -2   4  659.02   14.65
   1   2   4  667.02   12.71
   1  -2   4  683.04   12.38
   1  -2   4  654.78   12.24
  -1  -2  -4  617.13   11.49
  -1   2  -4  751.30   16.38
   1   2   4  659.11    8.80
   1  -2   4  667.14   11.73
  -1   2  -5  180.81    8.15
   1  -2   5  160.86    6.86
   1   2   5  172.47    7.47
  -1  -2  -5  150.20    7.80
   1  -2   5  155.59    6.65
  -1   2  -5  149.34    4.78
  -1   2  -5  157.50    3.48
  -1  -2  -5  167.72    5.96
   1  -2   5  153.80    6.15
   1  -2   5  157.65    3.49
   1   2   5  171.42    6.69
   1  -2   5  164.85    7.46
   1  -2   6  181.91    5.20
  -1   2  -6  191.48    8.25
   1  -2   6  173.54    8.14
   1  -2   6  179.89    8.15
  -1  -2  -6  163.66    6.62
   1   2   6  175.02    8.70
  -1   2  -6  175.88    4.09
   1  -2   6  159.88    7.06
   1  -2   6  173.53    4.51
   1   2   6  162.37    4.59
  -1   2  -6  156.82    4.41
  -1  -2  -6  171.59    8.20
   1  -2   6  158.97    7.80
   1   2   6  183.36    7.95
  -1   2  -7  135.53    3.82
  -1  -2  -7  131.66    7.13
   1  -2   7  148.22    4.69
   1   2   7  127.54    7.00
   1  -2   7  131.01    8.06
  -1   2  -7  147.30    7.30
   1   2   7  128.03    8.05
   1  -2   7  127.03    7.91
  -1  -2  -7  151.35    7.64
  -1  -2  -7  122.78    6.25
   1  -2   7  152.25    7.79
   1   2   8   48.08    5.35
   1  -2   8   44.39    5.36
  -1  -2  -8   44.49    4.32
  -1  -2  -8   44.72    4.45
  -1  -2  -8   43.92    3.94
   1  -2   8   49.66    4.83
   1  -2   8   46.61    5.35
  -1   2  -8   47.08    4.38
   1   2   8   43.63    4.53
   1   2   9   27.65    3.85
  -1  -2  -9   23.51    3.32
  -1   2  -9   27.00    3.48
   1  -2   9   25.05    4.10
  -1  -2  -9   19.95    2.67
  -1  -2  -9   25.81    3.51
   1  -2   9   26.15    3.67
   1   2   9   24.83    4.17
   1  -2   9   28.71    4.84
  -1  -2 -10   17.25    3.00
  -1   2 -10   18.06    3.00
   1  -2  10   16.91    3.99
  -1  -2 -10   16.07    2.93
   1   2  10   19.88    3.82
   1  -2  10   17.31    3.59
   1  -2  10   16.64    3.26
   1  -3 -11    7.50    2.32
  -1   3  11    7.91    2.55
   1  -3 -10   11.07    2.75
   1  -3 -10   12.05    2.77
   1   3 -10   13.31    2.88
  -1   3  10    9.03    3.09
  -1  -3  10   17.19    4.50
  -1  -3  10   10.05    3.06
  -1   3  10   11.02    2.57
  -1  -3  10    9.41    2.74
   1  -3  -9   13.78    2.91
  -1   3   9    4.69    1.93
  -1   3   9   10.28    2.26
  -1  -3   9    8.02    3.05
  -1  -3   9   11.75    3.47
  -1  -3   9   11.52    2.57
   1   3  -9   18.21    3.28
   1  -3  -9    9.78    2.58
  -1  -3   8    9.27    2.85
  -1   3   8    6.94    2.35
  -1  -3   8   13.52    3.13
  -1  -3   8    6.89    2.85
   1  -3  -8   11.97    2.78
  -1   3   8   10.23    2.00
  -1  -3   8   12.46    1.75
   1  -3  -8   10.72    2.55
   1   3  -8   12.24    2.98
  -1  -3   7    6.30    1.29
   1  -3  -7    5.74    0.96
  -1   3   7    3.65    1.27
  -1   3   7   10.12    2.53
   1  -3  -7    8.48    2.51
   1  -3  -7    9.48    2.50
  -1   3   7    6.76    1.31
  -1  -3   7    0.83    2.14
  -1  -3   7    8.62    2.67
   1  -3  -7    4.91    1.23
   1   3  -7    7.04    2.38
  -1  -3   7    4.19    1.97
   1   3  -7    7.59    1.15
   1  -3  -6   28.78    3.83
  -1  -3   6   32.53    2.15
   1   3  -6   28.23    1.65
  -1   3   6   29.87    2.63
   1  -3  -6   30.59    3.02
  -1   3   6   29.49    2.84
   1  -3  -6   27.22    1.66
   1  -3  -6   28.72    3.71
  -1  -3   6   25.76    3.41
   1  -3  -6   23.33    2.10
   1  -3  -6   26.48    1.72
   1   3  -6   23.88    3.17
  -1  -3   6   25.35    3.46
  -1   3   6   31.43    3.32
  -1  -3   6   30.80    3.02
   1  -3  -5   42.26    2.29
  -1  -3   5   48.08    2.31
   1  -3  -5   50.06    4.73
   1   3  -5   43.87    3.87
   1  -3  -5   31.12    1.68
  -1  -3   5   46.75    3.20
   1   3  -5   31.40    0.98
  -1  -3   5   45.18    4.23
  -1   3   5   40.45    3.17
  -1   3   5   39.22    3.01
   1  -3  -5   49.08    3.43
   1  -3  -5   34.75    1.46
  -1  -3   5   40.30    3.61
   1  -3  -5   43.25    4.32
  -1   3   5   52.17    2.99
   1   3  -5   31.88    1.13
  -1  -3   4  239.27    7.58
   1  -3  -4  246.95    6.87
   1  -3  -4  253.29    7.00
  -1  -3   4  231.49    6.11
  -1  -3   4  251.85    8.41
   1  -3  -4  261.61   10.59
  -1  -3   4  250.30    5.09
  -1   3   4  228.54    7.81
   1  -3  -4  214.14    3.65
   1   3  -4  242.60    4.81
   1   3  -4  258.00    8.24
   1   3  -4  252.17    6.92
  -1   3   4  250.85    5.10
  -1   3   4  238.72    6.17
   1  -3  -4  207.29    3.57
  -1  -3   4  238.11    6.23
  -1   3   4  232.78    6.60
   1  -3  -4  260.59    8.77
   1   3  -4  255.88    6.84
   1  -3  -3  346.31    7.62
   1   3  -3  319.83    5.44
  -1   3   3  354.28   12.68
   1   3  -3  338.96    7.01
   1  -3  -3  295.70    4.71
  -1  -3   3  353.56    8.86
   1  -3  -3  341.06    6.98
  -1  -3   3  362.33    6.75
   1  -3  -3  338.19    8.67
  -1  -3   3  325.58    6.68
  -1   3   3  336.24   10.03
  -1   3   3  337.15    7.03
   1   3  -3  341.49    8.46
  -1   3   3  326.31    4.63
   1   3  -3  333.66    6.93
  -1  -3   3  343.57    8.37
  -1   3   3  319.69    4.61
  -1   3   3  338.95    7.45
   1  -3  -3  343.90    7.14
  -1  -3   3  338.76    6.07
  -1  -3   3  342.47    8.51
   1  -3  -3  348.10   12.01
  -1   3   3  331.76    7.49
  -1  -3   3  339.73    7.95
  -1  -3   3  337.82    6.75
  -1  -3   2  977.65   15.65
  -1   3   2  918.51   12.48
  -1  -3   2  880.60   11.19
  -1   3   2  873.08    9.08
   1   3  -2  896.41   10.61
  -1   3   2  877.18   18.05
  -1  -3   2  866.58   11.01
  -1  -3   2  822.54    7.76
   1  -3  -2  874.04   10.61
  -1   3   2  873.26   11.40
  -1   3   2  889.23   12.92
   1  -3  -2  915.87   11.30
  -1  -3   2  880.98   12.15
   1   3  -2  874.85   11.19
  -1   3   2  906.60   12.39
  -1   3   2  877.22   13.68
   1   3  -2  884.90   12.98
   1   3  -2  877.32   11.20
  -1   3   2  852.62   19.44
  -1  -3   2  906.45   13.75
   1  -3  -2  884.38   17.24
  -1   3   2  894.65   11.89
  -1  -3   2  875.63   13.32
   1  -3  -2  875.60   12.86
   1  -3  -2  905.88   12.38
   1   3  -1  736.68   10.87
   1  -3  -1  777.32   10.60
  -1  -3   1  730.69    8.38
   1   3  -1  745.39    9.95
   1  -3  -1  734.14   10.40
  -1  -3   1  720.38   11.24
  -1  -3   1  736.16   14.28
  -1   3   1  781.95   11.00
  -1   3   1  645.30   15.68
   1  -3  -1  776.22   13.52
  -1  -3   1  736.95   10.01
  -1   3   1  730.32   10.98
   1  -3  -1  774.08   10.95
   1   3  -1  765.16    9.78
   1   3  -1  725.01   11.86
   1   3  -1  718.13   10.26
  -1   3   1  741.78   10.39
  -1   3   1  758.58   11.43
   1   3  -1  741.62   10.71
  -1   3   1  756.28    9.13
  -1   3   1  677.85    6.60
  -1   3   1  763.62    9.51
   1   3  -1  765.81    9.80
  -1   3   1  784.44   18.53
  -1  -3   1  727.12   10.57
  -1  -3   1  741.62   11.18
   1  -3  -1  756.24   11.08
  -1   3   1  753.65   10.60
   1   3  -1  736.98    9.46
  -1  -3   1  697.45    9.29
   1   3   0   56.13    3.09
  -1  -3   0   53.06    2.19
   1  -3   0   54.67    2.34
   1   3   0   50.97    2.22
   1  -3   0   54.37    2.68
  -1   3   0   53.57    2.41
  -1   3   0   52.94    4.94
   1  -3   0   45.69    2.67
   1   3   0   51.01    2.46
  -1   3   0   55.35    2.65
  -1  -3   0   54.54    2.70
   1   3   0   52.32    1.85
  -1  -3   0   53.88    2.59
  -1   3   0   53.35    2.06
   1  -3   0   54.72    2.83
   1   3   0   53.39    2.82
   1   3   0   51.88    2.59
  -1   3   0   54.33    2.56
  -1  -3   0   55.07    4.11
   1   3   0   52.77    2.58
   1  -3   0   55.48    3.22
  -1   3   0   53.96    2.64
  -1  -3   0   50.33    2.62
  -1   3   0   55.62    2.87
   1   3   0   53.09    2.26
  -1  -3   0   55.38    2.59
   1  -3   0   50.61    2.45
   1  -3   0   55.88    2.62
  -1   3   0   54.26    2.50
  -1   3   0   43.47    3.63
  -1   3  -1 1404.62   17.10
  -1  -3  -1 1329.71   13.91
  -1  -3  -1 1413.58   23.31
  -1  -3  -1 1334.34   13.10
   1  -3   1 1354.39   14.06
  -1  -3  -1 1397.04   19.35
   1   3   1 1320.43   13.95
   1   3   1 1352.29   12.37
  -1  -3  -1 1389.63   14.21
  -1   3  -1 1310.49   24.26
   1   3   1 1346.73   17.17
   1  -3   1 1343.79   15.64
   1  -3   1 1405.35   16.33
  -1  -3  -1 1364.99   15.73
  -1   3  -1 1473.07   20.62
   1  -3   1 1323.82   19.89
  -1  -3  -1 1380.66   15.45
  -1   3  -1 1423.90   13.30
   1   3   1 1305.35   16.07
   1   3   1 1367.51   16.45
  -1   3  -1 1411.74   16.13
   1  -3   1 1349.79   13.72
   1  -3   1 1464.38   17.49
  -1   3  -1 1392.62   16.12
   1  -3   1 1423.79   20.67
   1   3   1 1327.41   14.78
  -1   3  -1 1434.38   17.93
  -1  -3  -1 1354.30   12.66
   1   3   1 1374.97   20.07
  -1   3  -1 1403.34   16.21
   1   3   1 1351.40   14.91
  -1  -3  -1 1349.26   16.06
  -1   3  -1 1311.30   14.11
   1  -3   2  501.93    8.96
   1  -3   2  501.53    9.63
  -1  -3  -2  442.40    7.14
   1  -3   2  529.78   13.00
  -1   3  -2  507.78   11.44
   1   3   2  468.74    7.00
  -1  -3  -2  517.55   13.49
   1   3   2  491.92   13.13
   1  -3   2  505.40    8.99
   1  -3   2  463.54    5.65
  -1   3  -2  467.79    6.94
   1  -3   2  501.70    9.23
  -1  -3  -2  480.59    8.13
  -1  -3  -2  473.99    7.89
  -1   3  -2  518.78    8.27
   1   3   2  492.84   10.37
  -1   3  -2  483.91    8.75
   1   3   2  481.02    6.13
  -1   3  -2  504.65    9.47
   1   3   2  457.29    8.27
   1   3   2  495.08    9.16
  -1   3  -2  511.43   13.56
  -1  -3  -2  460.05    5.88
  -1   3  -2  508.35    9.35
   1   3   2  474.12    7.43
  -1   3  -2  492.90    8.83
  -1  -3  -2  486.75    9.11
   1  -3   2  525.04   13.21
  -1  -3  -2  508.80   14.27
   1  -3   3  191.12    7.95
   1  -3   3  181.09    5.84
  -1  -3  -3  160.13    8.10
  -1   3  -3  183.57    7.55
  -1  -3  -3  146.85    7.31
  -1   3  -3  170.02    7.31
   1   3   3  168.22    5.61
  -1   3  -3  168.14    4.00
  -1   3  -3  174.90    5.50
   1   3   3  166.91    4.12
   1  -3   3  182.57    6.05
  -1  -3  -3  161.35    4.62
  -1  -3  -3  162.45    4.54
  -1  -3  -3  160.17    3.51
   1   3   3  168.89    4.89
   1  -3   3  174.68    5.45
   1   3   3  160.85    4.49
  -1  -3  -4  129.02    3.69
  -1  -3  -4  125.08    7.43
   1   3   4  135.53    4.67
  -1  -3  -4  125.96    6.87
   1  -3   4  147.79    7.21
  -1   3  -4  146.99    6.36
  -1  -3  -4  126.89    4.82
   1   3   4  133.75    5.46
  -1  -3  -4  137.66    4.60
  -1   3  -4  142.03    5.58
   1   3   4  135.21    4.51
   1  -3   4  138.13    5.41
   1   3   4  125.29    3.90
  -1   3  -4  137.78    3.95
  -1   3  -4  141.46    7.30
   1  -3   4  141.34    5.80
   1  -3   5  150.74    6.79
  -1   3  -5  141.24    5.89
   1   3   5  155.93    6.75
   1   3   5  154.57    5.84
  -1  -3  -5  133.54    7.68
  -1  -3  -5  144.01    4.70
   1  -3   5  147.82    7.52
   1   3   5  155.22    5.18
  -1  -3  -5  144.92    7.49
   1  -3   5  148.64    6.41
  -1   3  -5  158.46    8.22
   1  -3   6   43.61    4.11
  -1   3  -6   50.86    4.98
   1  -3   6   43.25    4.26
   1   3   6   38.17    2.96
   1   3   6   50.05    4.01
   1   3   6   44.72    3.01
   1   3   6   49.62    4.54
  -1  -3  -6   40.03    4.43
  -1  -3  -6   42.51    3.21
  -1  -3  -6   46.83    4.45
  -1   3  -6   36.25    2.77
   1  -3   6   41.45    4.20
  -1  -3  -7   13.23    2.67
   1   3   7   14.36    2.90
  -1  -3  -7   11.34    2.68
   1   3   7   14.36    1.81
  -1  -3  -7   13.56    2.19
   1  -3   7   13.15    3.12
   1   3   7   18.27    3.02
   1  -3   7   12.58    2.92
  -1   3  -7   20.10    3.33
   1  -3   7   16.79    3.01
   1  -3   8    6.47    2.24
  -1  -3  -8    7.48    2.27
   1   3   8    5.83    1.90
   1  -3   8    8.12    3.25
  -1   3  -8   15.22    2.85
  -1  -3  -8    8.67    1.90
   1   3   8    9.74    2.53
  -1  -3  -8    9.96    2.53
   1  -3   8   13.70    2.86
   1   3   9    0.17    1.62
  -1   3  -9    2.36    1.79
   1  -3   9    3.65    2.12
   1  -3   9   -2.57    3.40
  -1  -3  -9    2.45    1.89
   1  -3   9    2.17    2.61
   1   3   9   -3.11    2.48
  -1  -3  -9    0.14    1.65
   1  -3  10    3.46    2.55
  -1   3 -10    5.45    2.26
  -1  -3 -10    4.32    2.25
   1   3  10    4.25    2.38
  -1  -4  10    4.36    3.15
   1   4 -10    8.07    2.89
   1  -4 -10    6.85    2.54
   1   4  -9   24.69    4.01
  -1  -4   9   15.28    3.23
  -1  -4   9   21.42    4.52
   1  -4  -9   18.47    3.42
  -1   4   9   13.15    3.18
   1  -4  -9   21.85    3.58
  -1  -4   9   18.48    3.43
  -1  -4   8   30.17    3.99
  -1  -4   8   30.48    4.40
  -1   4   8   27.31    3.28
   1  -4  -8   33.41    4.42
  -1   4   8   33.74    3.50
   1  -4  -8   29.39    4.00
  -1  -4   8   31.92    4.79
   1   4  -8   30.04    4.45
  -1   4   8   34.22    4.49
   1   4  -7   67.28    5.81
  -1   4   7   83.50    5.82
  -1  -4   7   66.16    6.18
   1  -4  -7   71.04    6.24
   1  -4  -7   81.30    6.18
  -1   4   7   74.40    5.14
   1  -4  -7   73.71    3.68
  -1  -4   7   67.32    5.90
  -1  -4   7   82.58    5.72
  -1   4   7   87.92    5.00
  -1  -4   6   78.74    4.81
  -1   4   6   75.62    5.04
  -1  -4   6   62.18    5.62
  -1   4   6   79.61    3.85
   1  -4  -6   72.04    4.32
   1  -4  -6   61.69    2.24
  -1  -4   6   70.09    5.35
  -1  -4   6   74.74    3.09
   1  -4  -6   63.72    2.47
   1  -4  -6   79.19    6.54
   1  -4  -6   74.36    6.08
   1   4  -6   69.35    5.57
  -1   4   6   65.54    4.47
  -1  -4   5  139.28    5.63
   1   4  -5  141.86    5.98
  -1   4   5  127.75    5.68
   1   4  -5  147.38    7.37
   1  -4  -5  147.86    8.54
  -1  -4   5  141.68    4.25
  -1  -4   5  138.90    6.61
   1  -4  -5  141.38    5.46
   1   4  -5  144.39    3.98
  -1   4   5  144.56    6.41
  -1  -4   5  137.93    7.59
   1  -4  -5  138.17    7.71
  -1   4   5  135.53    4.01
   1   4  -4  258.57    7.19
  -1  -4   4  247.41    6.89
  -1   4   4  260.76    8.09
  -1  -4   4  253.90    6.00
   1  -4  -4  251.29    6.44
   1  -4  -4  256.21    9.12
   1   4  -4  269.38    9.05
   1  -4  -4  267.20   11.64
  -1   4   4  252.77    4.53
  -1   4   4  233.16    3.91
   1   4  -4  234.02    4.92
  -1  -4   4  255.18    9.04
  -1  -4   4  261.89    8.10
   1  -4  -4  228.03    4.88
  -1   4   4  254.50    7.60
  -1  -4   3  133.79    4.45
   1  -4  -3  134.37    8.21
   1   4  -3  139.04    4.78
   1  -4  -3  135.96    4.14
  -1   4   3  140.43    5.35
  -1   4   3  128.45    3.18
  -1   4   3  130.64    5.28
  -1  -4   3  133.20    4.13
   1  -4  -3  133.88    5.76
   1   4  -3  138.38    4.77
  -1  -4   3  135.86    5.26
   1  -4  -3  142.12    4.69
   1   4  -3  140.48    5.81
  -1  -4   3  142.40    5.88
   1   4  -3  135.71    3.82
  -1  -4   3  128.14    4.58
   1  -4  -2  170.97    5.65
   1   4  -2  170.77    5.76
   1   4  -2  179.15    5.15
  -1  -4   2  170.04    5.44
  -1   4   2  168.42    4.85
  -1   4   2  171.90    5.22
   1   4  -2  177.02    5.97
   1  -4  -2  181.62    4.83
   1   4  -2  179.06    5.18
   1   4  -2  170.94    4.63
   1   4  -2  164.48    2.86
  -1   4   2  177.02    4.09
  -1   4   2  165.56    5.84
  -1  -4   2  180.05    3.32
  -1   4   2  183.21    5.95
  -1  -4   2  186.07    7.29
   1   4  -2  169.04    5.06
   1  -4  -2  189.41    8.45
  -1  -4   2  170.11    5.06
   1  -4  -2  176.75    5.37
  -1   4   1  102.19    3.45
   1  -4  -1   94.24    3.91
  -1  -4   1   97.73    4.36
   1   4  -1   95.82    3.90
   1   4  -1   94.07    3.81
   1   4  -1   96.40    4.07
  -1   4   1  101.26    3.47
  -1  -4   1  108.62    7.35
   1   4  -1   79.88    1.72
  -1   4   1   97.48    4.44
  -1  -4   1   98.67    3.80
  -1   4   1   86.43    6.23
   1   4  -1  104.81    3.80
   1  -4  -1   96.51    3.81
  -1   4   1   97.53    4.39
  -1   4   1   85.55    1.83
   1  -4  -1   99.54    5.22
   1   4  -1  101.77    3.75
  -1   4   1  101.14    4.21
  -1   4   1   78.05    1.80
  -1  -4   1   95.35    2.94
  -1   4   1  103.08    4.18
   1   4  -1   93.76    3.59
   1  -4  -1   97.36    4.48
  -1  -4   1   91.07    3.54
   1   4  -1   94.31    4.52
   1   4  -1   98.62    3.32
   1   4  -1   89.61    4.00
   1   4   0    7.38    1.17
  -1  -4   0    7.77    1.21
   1  -4   0    7.86    1.35
   1   4   0    7.84    1.16
  -1   4   0    8.66    1.53
   1  -4   0    4.58    1.12
  -1  -4   0    5.28    1.91
   1  -4   0    5.39    1.04
  -1  -4   0    8.40    1.25
  -1   4   0    8.16    1.21
   1  -4   0    8.15    1.45
  -1   4   0    7.05    1.06
  -1   4   0   11.09    2.34
   1   4   0    7.34    1.41
   1   4   0    6.69    1.21
  -1  -4   0    9.40    1.27
  -1   4   0    7.75    1.25
  -1   4   0    5.82    1.26
  -1   4   0    7.44    0.99
   1   4   0    7.93    0.87
   1   4   0    7.50    1.44
   1  -4   0    7.25    1.31
   1   4   0    6.49    1.13
   1   4   0    6.65    1.16
  -1   4   0    6.91    1.27
   1  -4   0    8.48    1.13
   1   4   1   16.94    1.61
  -1   4  -1   17.64    1.34
   1  -4   1   16.01    2.25
   1   4   1   17.58    2.39
  -1  -4  -1   20.52    2.20
   1   4   1   18.34    1.94
   1   4   1   18.83    1.08
   1  -4   1   19.54    1.56
  -1   4  -1   17.55    1.92
  -1  -4  -1   18.06    1.75
   1   4   1   16.64    1.91
  -1   4  -1   18.38    1.62
  -1   4  -1   16.71    2.01
  -1  -4  -1   17.51    1.60
  -1  -4  -1   17.31    1.13
   1   4   1   16.81    1.50
  -1  -4  -1   17.21    1.78
   1  -4   1   15.05    1.34
  -1   4  -1   16.66    1.87
   1  -4   1   17.77    1.87
  -1  -4  -1   17.56    1.35
  -1   4  -1   19.80    2.20
  -1   4  -1   17.84    1.82
  -1  -4  -1   12.61    2.62
   1  -4   1   19.14    2.60
   1  -4   1   19.49    1.93
   1   4   1   17.14    1.67
   1  -4   2   46.72    3.12
  -1   4  -2   52.65    1.84
   1   4   2   51.22    3.25
  -1   4  -2   47.95    3.27
  -1   4  -2   49.44    2.33
   1  -4   2   52.75    1.98
  -1   4  -2   53.62    3.78
   1   4   2   47.93    3.09
  -1  -4  -2   49.31    2.76
  -1  -4  -2   49.09    2.38
   1  -4   2   55.79    4.58
  -1  -4  -2   41.35    1.59
  -1   4  -2   49.22    3.05
   1  -4   2   47.60    2.99
  -1  -4  -2   37.32    4.40
  -1  -4  -2   42.74    2.16
   1   4   2   49.25    2.54
  -1   4  -2   47.26    2.36
  -1  -4  -2   48.60    3.96
   1   4   2   44.96    1.57
   1   4   3   78.72    4.18
  -1   4  -3   70.16    2.76
  -1  -4  -3   65.12    2.91
   1  -4   3   83.52    5.79
  -1   4  -3   78.67    5.22
  -1  -4  -3   62.72    5.87
  -1   4  -3   76.27    3.94
  -1  -4  -3   74.95    5.83
   1   4   3   73.03    3.83
   1  -4   3   77.87    4.27
   1  -4   3   69.23    3.77
  -1  -4  -3   72.81    3.52
  -1  -4  -3   72.14    3.31
   1   4   3   69.06    3.00
  -1  -4  -3   63.63    1.94
  -1  -4  -4  269.88    7.13
   1   4   4  291.64    6.59
   1   4   4  308.88    8.74
   1  -4   4  315.80    8.64
  -1   4  -4  315.08    6.22
   1  -4   4  339.32   11.75
   1  -4   4  312.51    9.19
  -1  -4  -4  277.13    4.92
  -1   4  -4  333.23    9.03
  -1   4  -4  293.18   10.91
  -1  -4  -4  304.23   12.20
   1   4   4  300.98    6.99
   1   4   4  315.04    8.31
  -1  -4  -4  273.41   11.10
  -1  -4  -4  309.52    7.28
   1   4   5   83.92    4.92
   1   4   5   92.26    4.70
   1  -4   5   94.17    5.26
  -1  -4  -5   80.13    2.92
  -1  -4  -5   83.11    6.12
  -1  -4  -5   90.39    4.22
   1  -4   5   95.19    5.62
  -1   4  -5   91.80    5.24
  -1  -4  -5   87.74    6.70
   1   4   5   83.29    3.80
   1   4   5   91.86    4.24
  -1   4  -5   89.08    6.42
  -1   4  -5   91.56    3.50
   1  -4   5   87.00    6.01
   1   4   6   99.19    5.17
   1   4   6   97.97    5.13
  -1  -4  -6   94.74    6.55
   1  -4   6   95.01    6.35
  -1   4  -6  101.84    7.37
   1  -4   6  100.28    6.10
  -1  -4  -6   85.63    6.55
   1  -4   6   93.94    6.37
   1   4   6   97.98    6.11
  -1  -4  -7   62.17    5.60
   1   4   7   66.10    4.14
  -1   4  -7   83.00    6.84
   1  -4   7   67.91    5.78
   1  -4   7   63.35    5.88
  -1  -4  -7   65.16    4.13
   1  -4   7   63.11    5.46
   1   4   7   70.67    6.01
  -1  -4  -7   71.83    6.01
   1   4   7   79.77    5.39
   1  -4   8   30.92    4.04
  -1  -4  -8   29.13    4.19
   1   4   8   23.83    4.07
  -1  -4  -8   20.82    3.60
   1  -4   8   25.86    4.52
   1  -4   8   26.54    4.44
   1   4   8   27.26    3.69
  -1   4  -8   29.54    4.17
   1  -4   9   12.99    3.65
  -1   4  -9   18.44    3.40
   1   4   9    9.24    2.93
  -1  -4  -9   15.16    3.33
   1  -4   9   17.62    4.23
   1   4   9   14.20    2.84
   1  -4   9   18.46    3.56
  -1  -4  -9   15.89    3.36
  -1  -5   9    9.35    3.51
   1  -5  -9    7.47    2.61
  -1   5   9    4.64    2.54
   1   5  -9    6.60    3.04
  -1  -5   9    3.47    1.97
   1   5  -8    7.86    2.93
  -1  -5   8    7.14    3.00
  -1   5   8    9.60    2.90
  -1  -5   8    6.43    2.42
   1  -5  -8    5.75    2.79
  -1   5   8    5.18    2.11
  -1  -5   8   11.28    3.17
   1  -5  -8    5.65    2.33
   1  -5  -7    3.66    2.25
  -1  -5   7    1.04    1.95
   1  -5  -7    0.81    1.69
   1   5  -7   -0.09    2.05
  -1  -5   7    3.18    2.32
  -1   5   7    0.93    1.33
  -1  -5   7   -1.66    2.13
  -1   5   7    8.60    2.47
   1  -5  -6    5.58    2.48
  -1  -5   6   12.17    2.92
  -1  -5   6    5.42    2.00
  -1  -5   6   11.99    2.48
   1  -5  -6    9.80    2.82
  -1   5   6    9.84    2.23
  -1   5   6    5.56    1.43
   1   5  -6    5.76    2.34
  -1  -5   5   26.70    3.66
  -1  -5   5   25.34    2.60
   1  -5  -5   29.21    4.20
   1  -5  -5   28.83    3.81
   1   5  -5   28.60    2.92
  -1   5   5   29.64    3.36
   1   5  -5   32.93    4.02
  -1   5   5   27.60    3.06
  -1  -5   5   30.35    3.38
   1  -5  -4   85.03    5.47
   1   5  -4   88.08    5.58
  -1  -5   4   84.12    4.29
  -1   5   4   85.58    5.02
   1   5  -4   82.80    4.47
  -1  -5   4   84.14    5.65
  -1   5   4   79.78    2.41
   1  -5  -4   91.35    7.38
  -1   5   4   87.46    5.02
  -1  -5   4   81.60    4.69
   1   5  -4   78.56    3.02
   1  -5  -4   82.64    3.80
   1   5  -3  126.07    5.72
   1  -5  -3  126.27    8.51
  -1  -5   3  128.43    4.22
   1   5  -3  124.99    5.34
   1   5  -3  135.28    6.19
   1  -5  -3  125.61    5.92
   1   5  -3  134.90    5.26
  -1  -5   3  134.35    5.64
  -1  -5   3  130.41    5.18
   1  -5  -3  135.80    5.39
  -1   5   3  131.07    6.03
  -1   5   3  127.89    3.73
   1   5  -3  129.87    4.26
  -1   5   3  141.41    6.05
  -1  -5   3  139.89    6.46
  -1   5   2  266.72    8.04
  -1   5   2  234.98    7.83
   1  -5  -2  255.92    7.59
   1  -5  -2  270.93   10.92
  -1   5   2  238.62    6.32
   1   5  -2  254.92    7.82
   1   5  -2  260.79    7.10
  -1  -5   2  260.87    7.51
   1   5  -2  257.76    7.84
  -1   5   2  244.32    5.67
   1   5  -2  242.65    6.47
   1   5  -2  248.80    6.26
   1   5  -2  218.43    3.44
  -1  -5   2  267.00    4.88
  -1  -5   2  253.65    8.26
   1  -5  -2  252.52    8.07
  -1  -5   2  258.39    7.04
   1   5  -1  317.85    7.58
  -1  -5   1  301.64    6.10
   1  -5  -1  306.21    7.58
  -1   5   1  303.42    6.53
   1   5  -1  300.28    8.18
  -1  -5   1  328.65   11.95
   1  -5  -1  310.26    9.62
   1   5  -1  314.28    8.16
  -1   5   1  292.80    8.70
  -1  -5   1  305.31    7.49
   1  -5  -1  314.58   10.01
  -1   5   1  310.94    7.00
   1   5  -1  307.28    9.44
  -1   5   1  309.83    8.28
   1  -5  -1  318.27    8.21
   1   5  -1  298.26    6.28
  -1  -5   0   53.91    2.93
   1  -5   0   57.48    3.97
  -1  -5   0   57.57    6.19
   1   5   0   49.52    2.12
   1   5   0   51.44    3.48
   1  -5   0   57.69    3.68
   1  -5   0   56.12    2.99
   1   5   0   53.13    3.28
  -1   5   0   57.32    3.54
  -1  -5   0   49.55    2.90
   1  -5   0   52.46    3.36
  -1   5   0   52.51    3.38
  -1  -5   0   48.87    2.38
  -1   5   0   49.24    2.25
  -1   5   0   56.58    4.43
  -1   5   0   57.13    3.95
  -1   5   0   56.22    3.26
  -1   5   0   56.10    3.17
  -1   5   0   53.27    2.59
   1   5   0   50.58    3.75
  -1   5   0   57.28    3.74
  -1   5  -1  435.24   10.10
   1   5   1  417.56    5.80
   1  -5   1  432.38    8.58
   1   5   1  439.06   10.42
  -1   5  -1  448.66   11.37
   1  -5   1  474.44    8.55
   1  -5   1  485.20   13.42
  -1   5  -1  439.01   10.18
  -1   5  -1  436.35    7.72
   1   5   1  436.97    9.17
  -1   5  -1  467.93   10.43
  -1  -5  -1  437.31    8.89
  -1  -5  -1  414.08    7.37
  -1   5  -1  439.47    9.74
  -1   5  -1  419.67    9.88
   1  -5   1  442.13   10.16
   1  -5   1  436.82    9.78
  -1  -5  -1  438.92    9.98
  -1   5  -1  432.22    8.02
   1   5   1  422.87   10.76
  -1  -5  -1  397.79   15.52
  -1  -5  -2  171.01    9.91
  -1  -5  -2  185.01    7.42
   1  -5   2  205.35    9.18
   1   5   2  166.63    5.29
  -1   5  -2  181.85    5.65
  -1   5  -2  184.82    7.21
  -1  -5  -2  178.00    4.59
   1  -5   2  185.56    4.52
  -1   5  -2  188.48    7.32
   1  -5   2  183.17    6.44
  -1   5  -2  178.36    4.98
  -1   5  -2  180.93    6.59
  -1  -5  -2  163.48    4.48
   1   5   2  189.01    6.89
   1   5   2  171.01    6.71
  -1  -5  -2  175.92    5.96
  -1   5  -2  186.88    4.35
  -1   5  -2  192.77    6.68
   1  -5   2  186.56    6.71
  -1  -5  -3   68.88    3.10
  -1  -5  -3   79.69    3.99
   1   5   3   73.38    3.59
  -1  -5  -3   67.31    6.34
   1   5   3   79.10    4.79
  -1  -5  -3   71.68    3.41
  -1   5  -3   78.91    3.50
   1   5   3   74.23    4.57
  -1   5  -3   69.32    1.99
   1  -5   3   78.79    4.73
   1  -5   3   88.62    6.25
  -1   5  -3   82.72    4.59
  -1  -5  -3   85.96    6.07
  -1   5  -3   76.86    5.26
   1  -5   3   79.96    4.41
   1  -5   4   72.34    4.95
  -1  -5  -4   63.44    6.00
   1  -5   4   76.22    5.69
  -1   5  -4   68.74    5.60
   1  -5   4   72.00    4.43
  -1   5  -4   75.87    4.65
   1   5   4   74.42    4.74
  -1  -5  -4   71.46    3.90
   1   5   4   69.93    4.59
  -1  -5  -4   74.62    6.38
  -1  -5  -4   60.68    3.37
   1  -5   5   55.89    4.31
  -1  -5  -5   43.34    4.92
   1   5   5   58.04    3.39
  -1   5  -5   45.37    4.92
   1   5   5   54.73    4.38
  -1  -5  -5   44.65    4.98
   1   5   5   52.95    4.19
  -1   5  -5   59.18    4.44
   1  -5   5   51.83    4.91
   1  -5   5   55.33    4.57
  -1  -5  -6   11.02    2.77
   1   5   6   12.72    2.44
   1  -5   6   10.49    2.57
   1  -5   6   22.78    3.37
  -1  -5  -6   13.64    3.18
   1   5   6   15.63    2.10
  -1   5  -6   20.01    3.75
   1   5   6   14.65    2.44
   1  -5   6   14.75    2.91
   1  -5   7   13.44    3.27
  -1   5  -7    9.30    3.40
  -1  -5  -7    6.45    2.37
   1  -5   7    3.42    2.06
   1  -5   7    5.60    2.04
  -1  -5  -7    4.82    2.04
   1   5   7   11.15    2.98
   1   5   8    7.15    2.63
   1  -5   8    8.01    3.23
  -1   5  -8    4.63    2.52
   1  -5   8   -3.74    3.26
  -1  -5  -8    5.11    2.43
   1  -5   8    3.99    2.09
  -1  -5  -8    8.11    2.68
  -1  -6   8   12.42    3.01
  -1  -6   8   12.04    3.08
   1  -6  -7   21.44    3.90
   1   6  -7   20.52    3.77
  -1  -6   7   23.04    4.09
  -1  -6   7   20.76    3.36
  -1   6   7   21.55    3.30
  -1   6   7   29.56    4.11
  -1  -6   7   25.82    3.53
   1  -6  -7   23.64    4.61
  -1  -6   6   33.00    3.51
  -1   6   6   34.58    4.35
   1  -6  -6   31.61    4.57
  -1  -6   6   28.94    4.38
  -1  -6   6   30.31    3.89
   1  -6  -6   33.51    4.80
   1   6  -6   29.86    4.60
  -1   6   6   30.65    3.62
   1  -6  -5   55.52    5.24
  -1   6   5   54.65    4.57
   1  -6  -5   45.32    5.57
   1   6  -5   54.99    4.22
  -1  -6   5   47.71    5.22
  -1   6   5   54.52    4.88
  -1  -6   5   51.98    3.96
  -1  -6   5   50.09    4.45
   1   6  -5   56.70    5.40
   1   6  -5   47.85    4.56
  -1   6   4   85.63    5.67
   1   6  -4   88.20    5.40
   1  -6  -4   81.42    7.54
  -1   6   4   94.64    5.80
   1   6  -4   83.87    4.84
  -1  -6   4   90.14    6.53
   1   6  -4   81.04    5.12
  -1  -6   4   90.33    4.94
   1   6  -4   95.47    6.24
   1  -6  -4   86.47    5.83
  -1  -6   4   95.71    5.65
  -1  -6   3   44.40    2.64
   1   6  -3   42.32    3.84
  -1   6   3   43.02    3.91
  -1   6   3   41.89    3.85
   1   6  -3   40.94    3.71
  -1  -6   3   49.04    4.39
  -1  -6   3   44.98    3.47
   1   6  -3   44.62    3.46
  -1  -6   3   42.69    3.58
   1  -6  -3   42.60    3.73
   1   6  -3   39.03    3.14
   1  -6  -3   46.81    5.60
  -1   6   3   42.66    2.44
   1  -6  -2   54.93    5.34
  -1  -6   2   55.20    3.85
   1   6  -2   46.57    3.69
   1   6  -2   55.99    4.13
  -1  -6   2   60.52    4.22
  -1  -6   2   56.99    2.51
   1  -6  -2   51.59    3.68
  -1  -6   2   53.77    3.63
  -1   6   2   48.36    2.85
  -1   6   2   46.74    3.79
  -1  -6   2   54.07    3.70
  -1   6   2   47.53    4.01
   1   6  -2   50.98    3.53
   1   6  -2   48.47    3.02
   1  -6  -1   48.60    3.31
   1  -6  -1   39.83    3.22
   1  -6  -1   49.51    4.30
   1   6  -1   42.80    3.57
   1   6  -1   44.64    3.23
  -1   6   1   45.98    3.05
  -1  -6   1   44.65    4.22
  -1   6   1   40.79    3.74
   1   6  -1   44.91    3.43
   1   6  -1   42.18    2.47
  -1   6   1   42.20    2.60
  -1  -6   1   46.50    2.63
  -1   6   1   46.40    3.60
  -1  -6   1   42.32    3.14
   1   6   0   -0.48    0.57
   1  -6   0   -2.09    1.16
   1   6   0   -0.59    1.59
   1  -6   0    0.96    1.19
  -1  -6   0    0.60    0.93
  -1   6   0   -0.32    1.14
  -1  -6   0    0.56    0.82
  -1   6   0   -1.38    1.18
   1   6   0   -0.39    1.04
  -1   6   0   -0.15    0.62
   1   6   0   -0.50    1.11
  -1   6   0    1.50    1.21
  -1   6   0    0.67    1.42
   1   6   0   -0.65    0.99
   1  -6   0    0.44    0.74
   1  -6   0    0.25    0.91
  -1   6   0   -0.15    0.51
  -1  -6   0    0.32    0.52
  -1  -6   0   -4.35    2.70
   1   6   1    5.31    1.32
  -1   6  -1    7.58    1.68
   1  -6   1    5.95    1.10
   1  -6   1    5.47    1.17
  -1   6  -1    6.13    1.88
   1   6   1    7.57    1.78
  -1   6  -1    5.57    1.53
  -1   6  -1    6.16    1.00
  -1  -6  -1    3.41    2.16
   1   6   1    4.25    0.53
  -1   6  -1    5.52    1.74
  -1  -6  -1    4.73    1.29
   1   6   1    6.28    1.69
   1  -6   1    5.03    1.61
   1  -6   1    3.86    1.50
   1  -6   1    6.66    1.60
  -1  -6  -1    4.65    1.23
  -1   6  -2   18.19    1.69
  -1   6  -2   16.21    2.56
  -1   6  -2   19.19    2.69
   1   6   2   14.70    2.42
   1  -6   2   18.07    2.62
  -1  -6  -2   10.17    2.72
  -1   6  -2   16.81    2.40
   1   6   2   14.63    2.32
  -1   6  -2   21.06    2.65
   1  -6   2   15.01    2.57
  -1  -6  -2   14.45    2.24
   1  -6   2   19.06    2.55
   1  -6   2   18.31    1.63
  -1   6  -3   21.12    2.99
   1   6   3   16.76    2.68
   1  -6   3   18.21    2.53
  -1   6  -3   17.94    2.62
   1  -6   3   17.55    2.71
  -1   6  -3   20.11    3.11
   1   6   3   20.84    2.94
   1  -6   3   18.92    2.98
  -1  -6  -3   12.26    3.01
  -1  -6  -3   20.69    3.14
  -1  -6  -4  106.50    8.15
   1   6   4  122.34    6.73
  -1  -6  -4  122.17    8.25
   1   6   4  112.30    6.75
   1  -6   4  117.03    6.07
  -1   6  -4  120.12    7.59
  -1   6  -4  121.62    6.40
   1  -6   4  118.19    6.62
   1  -6   4  120.78    7.50
   1   6   5   36.17    3.85
  -1  -6  -5   36.43    4.91
  -1  -6  -5   26.95    4.26
   1  -6   5   33.96    4.19
   1  -6   5   38.88    3.84
  -1   6  -5   35.13    4.60
  -1   6  -5   43.12    4.06
   1   6   5   39.99    4.39
   1  -6   5   40.30    4.38
   1   6   6   33.37    3.98
  -1   6  -6   35.93    4.11
   1  -6   6   36.70    4.63
   1  -6   6   39.94    4.16
   1  -6   6   34.49    4.24
  -1   6  -6   32.89    4.87
  -1  -6  -6   32.58    4.79
  -1  -6  -6   29.57    4.46
   1   6   6   35.21    4.11
   1  -6   7   22.25    3.58
   1   6   7   29.59    4.49
  -1   6  -7   22.32    4.54
   1  -6   7   22.01    4.18
   1  -6   7   19.73    3.39
  -1  -6  -7   22.86    4.03
  -1  -6  -7   18.95    3.59
   1  -6   8   12.04    2.98
  -1  -7   7    5.20    2.67
  -1  -7   7   -0.27    1.73
  -1   7   7    2.33    2.31
   1   7  -7   -0.72    2.20
   1   7  -6    4.48    2.49
  -1  -7   6   -1.45    2.11
   1   7  -6    1.43    1.70
   1   7  -6    1.08    1.72
   1   7  -6   -3.54    2.35
  -1  -7   6    3.37    2.41
  -1  -7   6    3.72    1.99
  -1   7   6    3.51    2.31
  -1   7   6    2.68    1.80
   1  -7  -6    1.60    2.17
   1  -7  -6    4.73    2.56
   1  -7  -5   13.67    3.80
   1   7  -5   11.98    2.38
  -1   7   5   12.37    2.62
   1   7  -5    9.81    2.34
  -1   7   5   13.49    3.08
  -1  -7   5   14.06    2.79
  -1  -7   5   10.75    2.96
  -1  -7   5   11.47    2.31
   1  -7  -5   12.77    3.02
   1   7  -5    8.60    2.33
   1   7  -5   16.96    3.43
   1  -7  -4   19.40    3.11
  -1  -7   4   17.48    2.63
  -1  -7   4   15.75    3.18
  -1   7   4   17.82    3.23
  -1   7   4   22.63    3.29
  -1  -7   4   22.02    3.18
   1   7  -4   19.89    3.21
   1  -7  -4   23.15    4.79
   1   7  -4   20.99    2.85
   1   7  -4   19.77    2.98
   1   7  -4   17.13    2.59
   1   7  -3   31.90    2.89
   1   7  -3   38.62    3.91
  -1   7   3   37.02    3.87
   1  -7  -3   36.48    3.68
  -1  -7   3   35.08    3.61
  -1  -7   3   42.00    4.56
   1  -7  -3   41.39    5.61
   1   7  -3   39.18    3.94
  -1   7   3   37.75    4.26
   1   7  -3   37.20    3.46
  -1  -7   3   40.78    3.74
  -1   7   2   63.05    4.77
   1  -7  -2   61.44    5.84
  -1  -7   2   61.11    4.07
   1   7  -2   58.32    4.72
  -1  -7   2   62.35    4.89
  -1   7   2   58.47    3.48
   1   7  -2   59.40    4.11
  -1  -7   2   63.16    4.48
   1   7  -2   60.77    4.59
  -1   7   2   65.14    5.15
   1  -7  -2   61.93    4.35
   1   7  -2   57.80    3.42
   1  -7  -1   93.29    6.07
  -1  -7   1   87.17    5.85
  -1  -7   1   99.22    5.55
   1   7  -1   91.35    5.59
   1   7  -1   84.92    4.86
  -1  -7   1   87.75    4.95
  -1   7   1   92.86    5.38
  -1   7   1   88.46    6.07
   1  -7  -1   89.91    4.84
   1  -7  -1   89.33    5.20
  -1   7   1   86.20    4.54
   1   7  -1   90.08    5.23
  -1  -7   1   90.96    3.95
  -1   7   1   90.41    5.55
  -1   7   0   13.34    2.31
  -1  -7   0   19.19    2.50
  -1  -7   0   16.15    3.32
  -1   7   0   15.47    2.47
   1   7   0   17.25    2.37
  -1   7   0   17.92    2.36
   1   7   0   16.69    2.51
   1  -7   0   17.28    2.09
  -1  -7   0   18.46    2.09
   1  -7   0   16.82    2.53
  -1   7   0   18.00    2.87
   1   7   0   15.62    2.22
   1  -7   0   12.28    2.05
   1   7   1  114.97    5.52
  -1  -7  -1  118.24    5.62
   1  -7   1  115.95    5.18
   1   7   1  107.64    6.84
  -1  -7  -1  111.60    5.16
  -1   7  -1  125.28    6.33
  -1   7  -1  118.25    6.34
   1  -7   1  120.64    4.91
  -1   7  -1  119.77    7.14
   1  -7   1  121.60    6.29
  -1   7  -1  119.32    5.96
   1   7   1  118.02    6.38
  -1  -7  -1  121.67    9.55
  -1   7  -2   54.55    4.41
  -1  -7  -2   44.54    5.94
   1   7   2   44.22    4.52
  -1  -7  -2   51.57    4.15
   1   7   2   50.96    4.35
  -1   7  -2   50.70    4.40
   1  -7   2   49.66    4.29
  -1   7  -2   50.56    4.33
   1  -7   2   53.33    4.34
   1  -7   3   24.62    3.40
   1  -7   3   24.74    3.15
   1   7   3   20.55    3.12
  -1   7  -3   21.30    2.97
  -1  -7  -3   18.72    3.98
  -1   7  -3   25.01    3.32
   1   7   3   20.98    3.38
  -1   7  -3   25.65    3.58
  -1  -7  -3   17.79    2.90
  -1   7  -4   27.70    3.58
   1  -7   4   21.95    3.48
  -1  -7  -4   23.28    4.38
   1  -7   4   25.03    3.30
   1  -7   4   24.20    3.44
  -1   7  -4   27.76    4.24
  -1   7  -4   21.72    3.11
   1   7   4   24.21    4.01
   1   7   4   24.25    3.43
  -1  -7  -4   19.36    3.53
   1  -7   5   13.98    3.10
  -1   7  -5   11.83    3.21
  -1   7  -5   16.32    3.15
   1  -7   5   13.59    2.68
  -1  -7  -5   16.20    3.95
   1  -7   5   18.34    3.34
  -1   7  -5   12.29    2.68
   1   7   5   12.59    2.94
  -1  -7  -5   19.76    4.27
   1   7   5   13.24    2.74
   1  -7   6    7.21    2.59
  -1   7  -6    2.05    1.88
   1  -7   6    1.09    1.71
   1  -7   7    1.35    1.96
  -1   8   6    8.05    3.19
  -1  -8   5   13.81    2.67
  -1   8   5   16.77    4.01
   1   8  -5   12.69    2.62
  -1  -8   4   21.76    3.16
  -1   8   4   25.46    4.35
   1   8  -4   25.90    3.77
  -1  -8   4   25.28    3.66
   1  -8  -4   31.47    5.77
   1   8  -4   24.78    3.25
   1  -8  -4   23.49    3.43
   1  -8  -3   10.59    2.40
   1  -8  -3   15.53    3.85
  -1  -8   3    9.96    2.48
   1   8  -3   10.82    2.44
  -1   8   3    8.37    2.54
  -1   8   3   11.75    2.56
   1   8  -3    9.38    2.44
   1   8  -3    7.47    2.16
   1   8  -2   14.05    2.60
   1   8  -2   12.49    2.28
   1  -8  -2   11.74    2.95
   1   8  -2   13.25    2.74
  -1   8   2   12.05    2.45
  -1  -8   2    8.39    2.05
  -1   8   2   11.42    2.46
  -1   8   2   11.81    2.88
   1  -8  -2   10.04    2.04
   1   8  -1   14.13    2.55
   1  -8  -1    9.53    2.30
   1  -8  -1   15.61    2.64
   1   8  -1   14.56    2.68
  -1   8   1   12.96    2.96
  -1   8   1   13.93    2.57
   1  -8  -1   12.88    2.12
   1   8  -1   13.55    2.41
  -1   8   1   11.17    2.50
  -1  -8   1   13.05    2.43
   1   8   0   -0.23    1.18
  -1  -8   0    3.48    2.20
   1   8   0    2.02    1.60
  -1   8   0   -0.39    1.24
   1   8   0   -0.65    1.46
  -1  -8   0   -0.01    1.23
  -1   8   0   -0.40    1.49
   1  -8   0    0.22    1.50
  -1   8   0    1.38    1.81
  -1   8   0    0.36    1.34
   1   8   1    1.09    1.33
  -1  -8  -1    2.78    2.63
  -1   8  -1    2.38    1.89
  -1   8  -1    4.59    2.02
  -1   8  -1    1.72    1.62
   1   8   1    1.70    1.57
   1  -8   1    2.49    1.76
  -1   8  -1    0.29    1.24
  -1  -8  -2    6.98    3.24
  -1   8  -2    3.88    1.84
  -1   8  -2    4.27    1.93
   1  -8   2    1.68    1.66
   1   8   2    1.25    1.78
  -1  -8  -2    5.37    1.83
   1   8   2    3.78    1.66
  -1   8  -2    4.16    1.86
  -1   8  -3    8.13    2.47
   1  -8   3    6.48    2.15
  -1   8  -3    6.19    2.31
   1  -8   3    8.16    2.68
  -1  -8  -3    5.41    2.90
   1   8   3    3.44    2.32
  -1  -8  -3    5.13    2.06
  -1  -8  -4   30.61    4.30
   1   8   4   29.00    4.80
  -1   8  -4   35.33    4.83
   1   9  -2   16.62    2.99
   1   9  -1   16.42    2.82
  -1  -9   1   17.56    3.07
   1   9   0    1.67    1.48
   1   9   1   25.00    3.46
   2   0 -11    3.15    1.68
  -2   0  11    3.58    2.08
  -2   0  11    3.43    1.55
   2   0 -10   11.21    2.26
  -2   0  10    7.94    2.15
   2   0 -10    8.24    1.88
   2   0 -10   10.86    2.15
  -2   0  10    8.85    1.99
  -2   0   9    5.02    1.88
   2   0  -9    3.51    1.45
  -2   0   9    2.09    1.35
   2   0  -9    7.73    1.74
   2   0  -9    3.85    1.60
   2   0  -8    0.69    1.21
  -2   0   8    0.91    1.46
   2   0  -8    1.93    1.43
  -2   0   8    3.14    1.89
   2   0  -8    1.93    1.51
  -2   0   7    3.31    1.26
  -2   0   7    4.37    1.84
   2   0  -7    4.60    1.47
  -2   0   7    2.52    1.32
   2   0  -7    3.72    1.40
  -2   0   7    4.46    1.41
   2   0  -7    3.56    1.59
  -2   0   6    1.85    0.96
   2   0  -6    2.86    1.17
   2   0  -6    3.28    1.12
  -2   0   6    1.44    1.11
   2   0  -6    1.85    0.56
  -2   0   6    3.23    1.51
  -2   0   6    2.83    1.21
   2   0  -6    4.15    1.40
   2   0  -5   17.21    2.58
  -2   0   5   15.73    2.24
   2   0  -5   14.78    1.62
  -2   0   5   16.23    1.73
   2   0  -5   14.70    1.93
   2   0  -5   12.56    1.69
  -2   0   5   12.67    1.59
   2   0  -5   15.83    1.41
   2   0  -5   12.33    1.55
  -2   0   5   11.46    1.89
  -2   0   4  185.57    5.00
   2   0  -4  185.93    5.47
  -2   0   4  194.42    5.74
   2   0  -4  200.49    5.40
   2   0  -4  194.89    5.41
  -2   0   4  181.63    4.46
   2   0  -4  185.11    4.75
   2   0  -4  189.96    4.52
  -2   0   4  185.66    4.87
  -2   0   4  195.30    6.24
   2   0  -4  200.77    7.26
   2   0  -3  218.66    4.92
  -2   0   3  216.38    4.70
   2   0  -3  227.07    6.29
  -2   0   3  216.54    5.43
   2   0  -3  208.42    6.57
  -2   0   3  209.60    4.26
  -2   0   3  208.71    3.96
   2   0  -3  207.30    4.21
   2   0  -3  204.73    4.65
   2   0  -3  215.11    4.78
   2   0  -3  208.09    3.97
  -2   0   2  538.58    7.22
   2   0  -2  534.13   10.76
   2   0  -2  528.40    7.04
   2   0  -2  528.91    7.34
   2   0  -2  550.43    8.78
  -2   0   2  544.11    6.72
   2   0  -2  527.19    6.84
  -2   0   2  543.41    6.91
   2   0  -2  553.48    6.46
  -2   0   2  542.90    7.10
  -2   0   2  541.13    6.33
  -2   0   2  530.35    7.52
   2   0  -2  512.47    7.35
   2   0  -2  538.64    6.72
   2   0  -2  532.02    7.29
   2   0  -1 2353.16   20.02
   2   0  -1 2475.66   19.91
  -2   0   1 2271.32   17.70
  -2   0   1 2516.62   20.40
  -2   0   1 2151.60   27.32
   2   0  -1 2063.90   26.17
  -2   0   1 2412.15   19.51
  -2   0   1 2444.94   19.83
  -2   0   1 2339.88   20.01
   2   0  -1 2328.79   20.05
  -2   0   1 2407.06   19.63
  -2   0   0  973.07    9.09
   2   0   0  985.15    8.99
  -2   0   0  996.72    8.83
  -2   0   0  993.32   10.29
   2   0   0  991.12   10.24
   2   0   0 1005.23   10.34
  -2   0   0  961.58   15.91
  -2   0   0 1016.02   10.06
   2   0   0  976.98   11.15
   2   0   0  990.84    8.85
  -2   0   0  972.40    9.09
   2   0   0  996.37    9.05
  -2   0   0 1024.06   10.40
  -2   0   0  996.50   10.37
   2   0   0  985.89   10.02
   2   0   0 1008.46   16.43
   2   0   0 1019.11   10.41
  -2   0  -1 2416.29   21.71
   2   0   1 2419.68   21.04
  -2   0  -1 2470.93   25.38
  -2   0  -1 2572.81   27.89
   2   0   1 2402.94   20.32
   2   0   1 2484.77   27.73
   2   0   1 2361.71   19.00
  -2   0  -1 2379.45   20.23
  -2   0  -1 2357.96   19.00
  -2   0  -1 2380.80   20.66
   2   0   1 2378.58   20.92
   2   0   1 2420.13   21.59
   2   0   1 2427.87   21.80
  -2   0  -1 2455.91   21.73
   2   0   1 2202.34   26.14
  -2   0  -2  859.26   11.92
   2   0   2  866.40   12.46
   2   0   2  855.82   12.27
  -2   0  -2  811.02   14.59
   2   0   2  840.51   11.70
   2   0   2  931.33   13.26
  -2   0  -2  823.40   11.25
   2   0   2  833.84    9.40
  -2   0  -2  902.81   11.24
   2   0   2  846.98   10.09
   2   0   3 1168.12   18.01
  -2   0  -3 1312.00   15.50
   2   0   3 1287.59   17.20
  -2   0  -3 1264.80   20.36
  -2   0  -3 1267.96   16.52
   2   0   3 1269.50   14.33
  -2   0  -3 1265.38   16.98
   2   0   3 1289.58   14.48
   2   0   3 1247.23   14.41
   2   0   3 1147.52   17.74
  -2   0  -4  381.19   11.02
  -2   0  -4  364.55    9.82
   2   0   4  318.68   10.31
  -2   0  -4  385.87    8.71
   2   0   4  358.97    6.29
   2   0   4  352.15    8.29
   2   0   4  387.19   10.38
  -2   0  -4  390.56   10.04
   2   0   4  396.37    8.47
   2   0   4  349.19    5.16
   2   0   5   93.06    5.09
   2   0   5  114.19    6.95
  -2   0  -5   89.52    5.40
   2   0   5   96.40    5.79
  -2   0  -5  105.35    5.20
   2   0   5   94.05    2.60
   2   0   5   96.36    3.10
   2   0   5  110.20    5.18
   2   0   6    7.48    1.13
  -2   0  -6    6.90    1.84
   2   0   6    4.65    1.48
   2   0   6    6.24    1.96
  -2   0  -6    6.56    1.82
   2   0   6    3.80    1.36
   2   0   6    6.03    2.17
   2   0   7    7.75    2.76
  -2   0  -7    8.99    2.30
  -2   0  -7   10.62    2.14
   2   0   7    5.86    1.98
   2   0   7    7.05    2.20
   2   0   8   -1.21    1.56
  -2   0  -8   -1.17    1.16
   2   0   8    0.21    1.57
  -2   0  -8    3.18    1.88
   2   0   8    2.33    1.94
  -2   0  -9    4.88    1.93
   2   0   9    8.00    2.35
   2   0   9   14.22    3.09
   2   0   9   12.85    3.12
  -2   0 -10    6.56    2.19
   2   0  10    8.02    2.53
   2   0  10    7.26    2.32
  -2   0 -10    3.98    1.75
  -2   1  12    0.58    1.44
   2  -1 -12    0.48    1.62
  -2  -1  11    1.16    1.92
  -2   1  11    1.47    1.37
  -2   1  11    1.37    1.72
   2   1 -11    3.40    1.65
  -2  -1  11    4.37    2.35
   2  -1 -11    3.36    1.81
   2  -1 -11    1.14    1.39
   2  -1 -10   38.43    3.66
   2  -1 -10   51.45    4.67
  -2  -1  10   36.04    4.39
   2   1 -10   50.19    3.90
  -2   1  10   42.29    4.33
  -2   1  10   41.57    3.95
   2   1 -10   51.66    4.43
  -2  -1  10   41.88    4.51
  -2  -1  10   59.71    4.78
  -2  -1   9   62.89    5.76
   2  -1  -9   61.22    4.95
   2  -1  -9   53.18    4.26
  -2   1   9   55.86    4.58
  -2   1   9   54.28    4.46
  -2  -1   9   59.06    5.34
   2   1  -9   65.35    4.38
   2   1  -9   56.34    3.94
   2   1  -9   66.85    5.04
   2  -1  -9   66.00    4.04
  -2  -1   9   72.04    5.14
   2   1  -8   20.68    2.39
   2  -1  -8   22.94    3.21
   2  -1  -8   22.83    2.90
  -2  -1   8   21.55    3.53
   2  -1  -8   18.54    2.05
  -2   1   8   21.70    2.93
  -2  -1   8   21.00    2.35
   2   1  -8   29.18    3.62
   2   1  -8   27.73    2.95
   2  -1  -8   29.20    2.78
  -2  -1   8   26.94    3.20
   2   1  -7  302.56    8.09
   2  -1  -7  302.76    8.07
   2  -1  -7  405.17    9.86
   2   1  -7  328.43    5.72
   2   1  -7  341.23    9.17
  -2   1   7  345.35   11.50
  -2   1   7  364.50   11.20
  -2  -1   7  343.80    9.69
  -2  -1   7  339.85   10.04
   2  -1  -7  376.79   12.47
   2   1  -7  362.47   10.99
  -2  -1   7  327.62   12.20
   2  -1  -7  381.49   11.26
  -2  -1   6  575.58   11.18
   2   1  -6  594.79   12.82
   2  -1  -6  602.68   13.83
  -2  -1   6  585.52   14.68
   2   1  -6  664.14   10.27
  -2   1   6  607.04   14.46
   2  -1  -6  581.44   13.80
   2  -1  -6  585.22   10.37
   2  -1  -6  623.73   11.59
  -2  -1   6  576.98   12.35
  -2   1   6  549.85    9.32
   2   1  -6  548.55   10.16
   2   1  -6  551.36   10.42
  -2  -1   6  600.29   13.02
  -2   1   6  549.58   13.82
   2   1  -5  322.46    9.98
  -2   1   5  362.00    7.26
   2  -1  -5  282.83    8.64
  -2   1   5  302.39    6.87
  -2  -1   5  320.07    7.96
  -2   1   5  289.29    9.11
  -2   1   5  321.47    9.41
   2   1  -5  331.22    8.28
   2  -1  -5  326.86    9.23
   2  -1  -5  354.54    7.71
   2  -1  -5  324.26    8.92
   2  -1  -5  310.20    7.04
  -2  -1   5  337.20    8.21
  -2  -1   5  326.09    6.70
   2   1  -5  315.69    6.39
   2  -1  -5  320.29    8.72
   2  -1  -5  321.75    6.01
   2   1  -5  360.58    8.13
  -2   1   5  306.83    9.27
   2   1  -5  327.54    6.74
  -2  -1   5  339.65    9.43
   2   1  -4  387.66    7.56
   2  -1  -4  440.84    7.44
   2  -1  -4  400.47    9.31
  -2   1   4  414.34    9.29
  -2   1   4  416.12    9.04
   2  -1  -4  398.07    8.38
  -2   1   4  398.33    8.29
   2   1  -4  424.45    6.91
  -2  -1   4  413.52    6.65
   2   1  -4  419.08    8.49
   2  -1  -4  436.83    9.02
  -2  -1   4  428.10    8.08
   2   1  -4  408.62    6.00
   2  -1  -4  403.28    5.35
   2  -1  -4  416.67    8.58
   2   1  -4  424.21    8.22
  -2  -1   4  410.24    7.93
   2  -1  -4  417.00    7.40
  -2   1   4  405.43    8.34
  -2   1   4  422.86    6.90
  -2   1   4  426.94    9.39
   2  -1  -4  476.52    9.52
  -2  -1   3   92.06    2.63
   2  -1  -3   86.08    3.70
   2  -1  -3   87.90    3.16
  -2   1   3   89.06    2.92
   2  -1  -3   86.99    2.70
  -2   1   3   97.47    4.26
   2  -1  -3   87.23    2.60
  -2   1   3   90.79    3.65
   2   1  -3   85.50    2.02
  -2   1   3   83.17    3.18
   2   1  -3   86.92    3.10
   2  -1  -3   89.73    4.18
  -2   1   3   75.69    1.65
   2  -1  -3   76.71    1.59
  -2  -1   3   85.26    2.07
   2   1  -3   88.02    2.81
  -2   1   3   89.10    3.20
   2  -1  -3   83.97    3.12
  -2  -1   3   89.23    3.10
  -2   1   3   90.06    3.10
  -2  -1   3   86.18    2.96
   2   1  -3   86.57    2.92
   2   1  -3   86.12    3.30
   2  -1  -3   90.63    2.96
  -2   1   2  857.03   11.18
  -2  -1   2  879.13    8.23
  -2  -1   2  868.49    8.64
  -2  -1   2  866.69    8.61
   2  -1  -2  897.86    9.12
   2  -1  -2  910.31   11.54
  -2   1   2  899.94    9.27
  -2  -1   2  897.68   10.49
  -2  -1   2  877.14    8.98
  -2   1   2  886.45   10.58
   2  -1  -2  923.76    9.18
   2  -1  -2  879.11   10.28
  -2   1   2  914.19   10.49
   2   1  -2  885.11   10.57
   2  -1  -2  874.98    9.78
  -2   1   2  999.07   15.53
  -2   1   2  909.48    9.84
  -2   1   2  885.20    9.06
  -2   1   2  953.74   12.73
   2  -1  -2  872.86   10.48
   2   1  -2  882.91   10.41
   2   1  -2  850.58    8.72
  -2  -1   2  905.74   10.71
  -2  -1   2  854.03   10.14
   2   1  -2  879.05   10.14
  -2   1   2  864.57    7.60
   2  -1  -2  815.07   13.86
  -2   1   1   34.59    1.63
   2  -1  -1   34.79    1.72
   2  -1  -1   35.00    1.35
  -2   1   1   34.07    1.70
   2  -1  -1   33.70    1.48
  -2  -1   1   34.52    1.67
  -2   1   1   33.64    1.17
  -2   1   1   37.46    1.65
  -2   1   1   35.95    1.64
   2   1  -1   34.15    1.26
  -2   1   1   35.50    1.61
  -2   1   1   34.98    1.34
   2   1  -1   34.55    1.59
   2   1  -1   36.45    1.72
  -2  -1   1   35.78    1.68
  -2  -1   1   35.17    1.11
  -2  -1   1   35.31    1.58
  -2   1   1   35.02    1.68
   2  -1  -1   36.51    1.76
  -2   1   1   34.88    1.48
   2   1  -1   33.60    1.62
   2  -1  -1   32.34    1.16
   2  -1  -1   32.78    2.66
  -2   1   1   34.21    1.16
  -2   1   1   34.95    2.83
  -2   1   0   69.18    2.29
   2   1   0   69.66    2.17
   2  -1   0   69.13    2.14
  -2   1   0   69.79    2.12
   2  -1   0   71.53    2.21
  -2  -1   0   66.09    1.85
  -2   1   0   66.35    3.75
   2  -1   0   72.55    2.33
   2  -1   0   73.49    2.11
   2   1   0   69.34    1.95
  -2   1   0   68.21    2.20
   2   1   0   69.00    2.11
   2   1   0   69.06    2.41
   2  -1   0   68.98    2.02
  -2   1   0   69.40    2.14
  -2   1   0   69.21    2.14
   2  -1   0   78.88    4.10
  -2   1   0   71.35    2.12
  -2  -1   0   68.87    2.45
  -2   1   0   72.37    1.91
  -2  -1   0   69.72    2.31
  -2   1   0   72.40    2.26
  -2  -1   0   70.00    2.18
  -2  -1  -1   91.77    2.31
   2  -1   1   95.64    2.90
  -2   1  -1  116.29    4.67
  -2   1  -1   93.53    3.06
   2  -1   1   92.52    2.96
   2  -1   1   95.03    3.11
   2  -1   1  113.95    4.76
  -2  -1  -1   94.24    2.76
  -2  -1  -1   94.58    3.42
  -2  -1  -1   92.70    2.91
  -2   1  -1   94.59    2.70
   2  -1   1   94.25    2.85
   2   1   1   90.67    2.22
   2  -1   1   92.25    2.01
  -2   1  -1   93.34    2.46
  -2   1  -1   96.02    2.89
  -2   1  -1   92.07    4.35
  -2   1  -1   99.07    1.97
   2   1   1   94.47    3.00
  -2   1  -1   95.81    3.13
  -2  -1  -1   97.06    2.81
   2   1   1   89.75    2.74
  -2  -1  -1   84.11    1.73
  -2  -1  -1   96.09    3.12
   2   1   1   95.61    3.07
   2  -1   1   95.33    2.76
   2   1   1   90.37    2.73
  -2   1  -1   94.66    2.85
  -2   1  -2   14.74    1.51
  -2   1  -2   15.55    1.07
  -2  -1  -2   16.04    1.35
   2  -1   2   15.00    0.84
  -2   1  -2   16.99    1.47
  -2   1  -2   18.51    1.92
   2  -1   2   17.91    1.71
  -2   1  -2   14.36    1.52
   2  -1   2   15.48    1.30
   2  -1   2   17.35    1.61
   2   1   2   14.30    1.26
   2  -1   2   17.38    1.17
  -2  -1  -2   15.97    0.99
  -2   1  -2   15.01    1.42
  -2  -1  -2   14.30    1.33
   2  -1   2   15.76    1.42
   2   1   2   14.79    1.40
  -2   1  -2   17.13    2.20
  -2  -1  -2   16.14    1.67
  -2   1  -2   16.92    1.38
   2  -1   2   17.30    1.79
  -2  -1  -2   17.69    1.56
   2   1   2   18.31    1.75
   2   1   2   15.74    1.49
   2  -1   3   57.46    3.23
   2  -1   3   61.82    2.40
   2   1   3   61.87    3.92
   2   1   3   59.67    3.18
  -2  -1  -3   71.92    3.98
   2  -1   3   66.85    3.98
  -2  -1  -3   56.06    3.35
  -2   1  -3   54.33    3.95
  -2   1  -3   59.17    3.78
  -2   1  -3   61.43    2.49
   2  -1   3   55.51    2.89
   2  -1   3   59.74    3.22
  -2  -1  -3   58.94    2.13
  -2  -1  -3   56.35    3.10
  -2   1  -3   60.58    3.19
  -2  -1  -3   58.00    2.82
   2   1   3   63.46    3.30
  -2   1  -3   61.66    3.71
   2  -1   3   57.06    2.85
  -2   1  -3   63.22    4.23
   2  -1   3   58.37    1.96
  -2   1  -4  154.14    7.14
  -2  -1  -4  178.97    6.00
  -2  -1  -4  175.35    6.69
   2  -1   4  175.57    5.79
   2   1   4  154.70    7.02
  -2   1  -4  185.62    5.49
   2  -1   4  154.87    4.54
   2  -1   4  184.78    4.81
   2   1   4  156.04    4.98
   2  -1   4  166.34    6.54
   2   1   4  191.74    6.84
   2  -1   4  171.91    4.18
  -2   1  -4  175.65    4.99
   2  -1   4  180.15    7.58
   2   1   4  179.94    6.41
  -2  -1  -5  134.07    6.19
   2  -1   5  122.45    6.44
   2   1   5  144.30    6.84
   2  -1   5  130.00    4.61
  -2   1  -5  139.22    5.29
   2  -1   5  123.29    6.53
   2   1   5  110.28    3.43
   2   1   5  111.26    6.40
   2  -1   5  124.75    5.75
   2  -1   5  128.39    4.35
  -2  -1  -5  131.72    6.60
  -2   1  -5  111.46    6.20
  -2  -1  -6  124.83    6.50
  -2  -1  -6  128.89    7.12
   2  -1   6  122.81    7.02
   2   1   6  124.44    6.88
   2  -1   6  117.68    7.29
   2  -1   6  127.76    5.19
   2   1   6  120.21    7.04
   2  -1   6  131.62    5.23
   2  -1   6  118.62    6.59
  -2   1  -6  128.19    5.61
  -2   1  -6  128.17    6.78
   2  -1   7   75.56    6.72
  -2   1  -7   68.46    4.01
  -2  -1  -7   70.81    5.37
   2   1   7   71.95    5.62
  -2  -1  -7   65.91    5.22
   2  -1   7   79.73    5.86
   2  -1   7   65.90    5.70
  -2   1  -7   66.48    5.11
   2  -1   8   82.03    7.16
   2  -1   8   79.01    6.28
  -2   1  -8   67.71    3.93
  -2  -1  -8   64.51    5.26
   2   1   8   77.90    6.32
   2  -1   8   77.53    6.28
  -2  -1  -8   68.82    5.23
  -2   1  -8   70.44    5.37
   2   1   9   37.12    4.70
   2  -1   9   46.31    5.50
   2   1   9   38.46    4.48
  -2  -1  -9   33.14    3.77
   2  -1   9   39.69    4.74
   2  -1   9   45.16    4.92
   2   1   9   38.36    3.85
  -2   1  -9   36.94    4.10
  -2  -1  -9   39.84    4.18
   2   1  10   21.63    3.97
  -2  -1 -10   17.65    3.01
  -2   1 -10   16.57    3.01
   2  -1  10   16.16    3.24
  -2  -1 -10   16.54    3.08
  -2   2  12    9.63    2.44
  -2  -2  11    4.29    2.35
   2   2 -11    0.05    1.41
   2  -2 -11    4.60    2.00
  -2  -2  11   -1.80    2.17
   2  -2 -11    3.65    2.18
  -2   2  11    2.69    1.63
   2  -2 -11    3.29    1.68
  -2   2  11    1.84    1.51
   2   2 -10   10.70    2.63
  -2  -2  10    8.49    2.65
   2  -2 -10    8.99    2.27
  -2  -2  10   12.22    3.47
   2  -2 -10   13.08    2.89
  -2   2  10   11.07    2.44
   2  -2  -9    2.01    1.47
  -2  -2   9    7.47    3.02
  -2  -2   9    4.48    2.13
  -2   2   9    5.08    2.21
   2   2  -9    3.42    1.85
   2  -2  -9    6.22    2.15
  -2  -2   9    5.62    1.80
  -2   2   9    4.48    1.51
  -2  -2   8   -0.17    2.19
  -2  -2   8    1.09    1.13
  -2  -2   8    1.82    2.14
   2  -2  -8    2.67    1.52
   2   2  -8    0.73    0.53
   2  -2  -8    1.06    0.89
   2   2  -8   -0.28    1.80
  -2   2   8    0.69    1.17
   2   2  -8   -0.22    1.00
   2  -2  -8   -0.14    1.74
  -2   2   8   -1.70    1.90
  -2  -2   7   -0.40    1.76
  -2   2   7    0.75    0.59
   2  -2  -7    0.69    0.76
   2   2  -7   -0.98    1.55
  -2   2   7    0.49    1.02
  -2  -2   7   -0.18    1.94
   2  -2  -7    1.18    1.43
   2  -2  -7    2.02    0.92
  -2   2   7   -1.54    1.75
   2   2  -7   -0.25    0.72
  -2  -2   7    1.23    0.81
   2  -2  -7   -1.40    1.70
  -2  -2   7    0.89    1.24
  -2   2   6    2.02    1.26
  -2   2   6    4.41    1.04
  -2   2   6    2.11    1.09
   2  -2  -6    3.40    1.92
   2   2  -6    2.79    0.68
  -2  -2   6    6.14    1.08
   2  -2  -6    3.33    0.91
   2   2  -6    2.19    1.50
  -2  -2   6    3.62    1.77
   2  -2  -6    4.78    0.74
   2  -2  -6    4.25    1.87
  -2  -2   6    3.49    1.13
  -2  -2   6    1.54    1.31
  -2  -2   5   15.87    1.18
  -2  -2   5   15.25    1.69
  -2   2   5   16.18    2.13
  -2  -2   5   20.09    2.59
   2  -2  -5   16.51    1.96
  -2   2   5   13.14    1.82
   2  -2  -5   15.14    2.59
  -2  -2   5   13.97    1.91
   2  -2  -5   15.48    1.34
  -2   2   5   14.86    1.71
   2   2  -5   15.34    0.96
  -2  -2   5   17.44    2.16
   2   2  -5   18.25    2.30
   2  -2  -5   14.09    1.46
   2   2  -5   12.64    1.48
   2  -2  -5   10.78    1.91
   2  -2  -4  130.67    6.08
  -2  -2   4  141.48    4.38
  -2   2   4  133.32    5.22
   2  -2  -4  143.26    4.91
  -2   2   4  137.75    5.24
  -2   2   4  138.04    4.59
  -2  -2   4  138.46    4.32
   2   2  -4  144.13    5.21
  -2   2   4  144.51    5.08
   2   2  -4  134.90    3.99
  -2   2   4  139.32    6.48
   2  -2  -4  142.03    4.60
   2  -2  -4  141.48    3.63
   2  -2  -4  134.56    3.39
   2  -2  -4  135.00    5.26
  -2  -2   4  136.94    4.12
  -2  -2   4  142.19    5.03
  -2  -2   4  143.54    3.22
   2   2  -3  148.20    3.48
   2  -2  -3  150.93    5.73
  -2  -2   3  141.57    3.53
  -2   2   3  169.63    6.38
  -2   2   3  148.86    4.49
   2  -2  -3  158.93    4.30
  -2   2   3  156.04    4.26
  -2   2   3  144.07    4.27
  -2   2   3  149.61    3.44
  -2  -2   3  143.34    3.53
   2   2  -3  142.72    3.83
  -2   2   3  155.47    6.04
   2   2  -3  154.92    4.81
   2  -2  -3  146.51    4.74
  -2   2   3  151.06    4.83
  -2  -2   3  150.41    4.73
   2  -2  -3  150.34    6.37
   2  -2  -3  146.99    4.41
   2   2  -3  144.32    4.64
  -2  -2   3  144.41    3.92
   2  -2  -3  155.80    2.98
   2  -2  -2  354.67    4.43
  -2  -2   2  343.96    4.87
  -2   2   2  350.82    4.40
   2   2  -2  345.82    5.01
  -2   2   2  377.55    8.49
  -2   2   2  363.17    6.44
   2   2  -2  353.86    5.03
   2  -2  -2  325.66    9.82
   2  -2  -2  354.90    5.94
  -2   2   2  353.10    5.72
   2  -2  -2  353.21    6.31
  -2  -2   2  355.91    6.87
  -2   2   2  378.36   10.51
  -2   2   2  347.88    5.86
   2  -2  -2  358.86    7.72
  -2   2   2  378.25    6.79
  -2   2   2  320.23    4.02
   2   2  -2  355.88    6.84
   2   2  -2  338.06    3.93
   2  -2  -2  353.92    6.72
  -2   2   2  364.49    6.93
   2   2  -2  352.68    6.50
  -2  -2   2  344.06    6.16
   2   2  -2  354.03    6.13
  -2  -2   2  345.42    4.86
  -2   2   2  356.44    6.40
  -2  -2   1 1483.96   16.05
   2  -2  -1 1413.01   15.99
   2   2  -1 1428.82   12.59
  -2  -2   1 1475.32   15.10
  -2   2   1 1450.61   12.92
  -2   2   1 1532.71   17.36
  -2   2   1 1501.94   15.80
   2  -2  -1 1307.48   21.92
  -2  -2   1 1404.73   13.91
   2   2  -1 1440.38   15.78
  -2   2   1 1457.72   14.85
   2   2  -1 1477.22   12.62
   2   2  -1 1463.35   14.79
  -2   2   1 1550.47   14.85
   2   2  -1 1472.30   14.78
   2  -2  -1 1500.46   15.39
   2  -2  -1 1516.54   15.79
   2  -2  -1 1499.58   13.45
  -2  -2   1 1446.33   15.68
   2   2  -1 1485.41   15.56
  -2   2   1 1430.42   12.11
  -2   2   1 1493.27   15.35
  -2   2   1 1510.94   16.55
  -2   2   1 1479.58   23.37
   2  -2  -1 1509.88   15.36
  -2   2   1 1501.84   15.51
   2  -2   0  749.41    9.44
  -2   2   0  780.82    9.97
  -2   2   0  770.26   10.26
   2  -2   0  789.16    8.42
   2  -2   0  819.30   16.53
  -2  -2   0  743.50    9.62
   2  -2   0  769.79    9.99
  -2   2   0  867.45   10.81
  -2   2   0  789.33   10.16
  -2  -2   0  763.46    9.75
  -2   2   0  758.45    9.88
  -2  -2   0  749.39   10.28
  -2  -2   0  757.16    9.14
  -2  -2   0  745.84    7.49
   2   2   0  751.59    9.61
  -2   2   0  785.49    9.96
  -2   2   0  836.90   10.95
   2  -2   0  750.68    9.72
  -2  -2   0  740.95   10.57
  -2   2   0  821.65    9.55
   2   2   0  740.92   10.37
  -2  -2   0  743.54   11.36
  -2   2   0  706.60   15.13
  -2   2   0  754.01    8.84
  -2  -2   0  749.37    9.43
   2   2   0  768.79    9.07
  -2   2   0  696.75   12.89
   2  -2   0  801.73   10.03
  -2   2  -1 1520.40   15.08
   2  -2   1 1602.19   16.61
   2   2   1 1486.97   15.84
  -2   2  -1 1585.93   16.43
  -2   2  -1 1464.41   22.28
  -2  -2  -1 1524.85   14.86
  -2   2  -1 1553.48   22.96
   2   2   1 1534.38   16.20
   2   2   1 1494.57   17.27
   2   2   1 1462.43   13.56
  -2   2  -1 1543.69   16.60
   2  -2   1 1576.69   16.58
   2  -2   1 1555.82   16.23
  -2  -2  -1 1525.24   16.12
   2  -2   1 1566.28   16.36
  -2  -2  -1 1544.35   16.55
   2  -2   1 1707.87   23.89
  -2   2  -1 1570.46   15.72
   2  -2   1 1580.71   16.62
  -2   2  -1 1660.95   20.48
  -2  -2  -1 1456.97   14.21
  -2   2  -1 1601.99   16.39
  -2  -2  -1 1483.65   15.81
  -2  -2  -1 1475.34   17.39
  -2  -2  -1 1525.70   19.07
  -2   2  -1 1530.47   16.18
  -2   2  -1 1542.17   12.46
   2   2   1 1520.69   14.79
  -2   2  -1 1546.05   16.24
  -2   2  -2  600.09    7.70
  -2  -2  -2  592.81    8.45
   2  -2   2  638.40   11.48
  -2  -2  -2  576.24    9.15
  -2  -2  -2  591.10    9.63
   2  -2   2  596.92   12.37
  -2   2  -2  599.78    9.69
   2  -2   2  605.64    9.73
  -2   2  -2  577.97   12.80
  -2   2  -2  589.26    8.61
   2   2   2  560.07    6.13
  -2   2  -2  656.92   13.39
   2  -2   2  620.30    9.82
   2   2   2  597.88    9.39
   2   2   2  556.66    5.93
  -2   2  -2  622.31    9.18
   2   2   2  598.00    8.03
   2  -2   2  660.81   10.01
   2   2   2  593.07    8.39
   2   2   2  599.63   10.76
  -2   2  -2  620.42   11.03
  -2   2  -2  638.62    9.87
   2  -2   2  608.19    9.75
   2   2   2  589.65    9.65
  -2  -2  -2  587.72   11.82
  -2   2  -2  616.86    9.79
  -2   2  -2  685.88   15.85
   2  -2   3  891.88   16.93
  -2   2  -3  744.90   15.94
   2  -2   3  811.67   12.52
   2   2   3  802.58   13.21
   2   2   3  799.60   16.78
  -2  -2  -3  805.74   13.04
  -2  -2  -3  762.53   12.06
  -2   2  -3  868.09    9.91
  -2   2  -3  850.40   15.71
  -2  -2  -3  829.71   15.68
  -2   2  -3  852.82   14.89
   2  -2   3  849.84   12.32
   2  -2   3  808.33   12.79
   2   2   3  804.18   12.38
   2   2   3  811.28    9.52
   2   2   3  845.43   14.67
  -2   2  -3  831.88   13.11
  -2  -2  -3  778.65   11.04
  -2   2  -3  941.78   19.57
   2   2   4  265.97    7.46
   2   2   4  287.61    8.84
  -2   2  -4  267.19    7.47
   2  -2   4  253.13    9.30
   2  -2   4  274.09    7.75
  -2  -2  -4  281.47    9.73
  -2   2  -4  286.61    5.34
   2  -2   4  293.69    7.48
   2   2   4  264.54    4.73
   2  -2   4  282.48    8.15
  -2  -2  -4  262.90    6.63
  -2   2  -4  291.27   10.48
   2   2   5   89.24    5.04
   2  -2   5   88.98    5.35
  -2  -2  -5   84.14    5.98
  -2  -2  -5   64.44    2.00
  -2   2  -5   90.77    3.63
   2  -2   5   66.22    1.92
  -2   2  -5   76.66    3.71
   2  -2   5   86.06    4.51
   2  -2   5   78.96    5.45
   2   2   5   89.90    5.90
   2   2   5   78.79    2.55
  -2   2  -5   89.67    5.73
   2  -2   5   83.08    4.82
   2   2   6    8.75    2.21
  -2   2  -6    7.26    1.98
   2   2   6    5.44    1.18
   2  -2   6    8.05    2.23
  -2   2  -6    5.81    1.01
  -2   2  -6    5.70    1.05
   2  -2   6    5.63    1.93
  -2  -2  -6    0.96    1.61
  -2  -2  -6    8.09    2.05
   2   2   6    5.09    1.63
   2  -2   6    6.20    1.51
   2   2   6    5.38    0.71
   2  -2   6    5.89    0.81
   2  -2   6    9.39    2.58
   2  -2   6    5.52    0.80
  -2  -2  -6    5.21    0.68
   2   2   7    6.71    2.13
   2  -2   7    8.63    2.80
   2   2   7    1.00    2.33
  -2   2  -7    3.65    1.73
  -2  -2  -7    2.39    1.51
   2  -2   7    4.91    2.12
  -2  -2  -7    6.54    2.06
   2  -2   7    6.37    2.33
   2  -2   8    0.29    1.80
  -2  -2  -8   -1.27    1.71
   2   2   8    1.56    1.93
   2   2   8   -2.77    2.21
   2  -2   8    3.75    3.05
  -2   2  -8    0.88    1.39
  -2  -2  -8   -4.28    2.37
   2  -2   8    2.60    2.11
   2  -2   9   14.41    4.01
   2  -2   9   11.17    2.93
   2   2   9    8.02    2.53
  -2  -2  -9    7.99    2.14
   2  -2   9    7.52    2.82
  -2  -2  -9    5.63    1.98
  -2   2  -9    7.76    2.34
  -2  -2  -9    7.21    2.33
  -2  -2 -10    2.66    1.84
   2  -2  10    6.58    2.70
  -2   2 -10    6.92    2.40
   2   2  10    5.66    2.43
   2   3 -11   -1.18    1.77
   2  -3 -11    4.06    1.98
  -2  -3  11    8.28    3.65
  -2   3  10   24.04    4.39
  -2  -3  10   27.54    4.40
   2   3 -10   30.96    4.21
   2  -3 -10   24.29    3.58
  -2  -3  10   32.40    5.23
  -2   3  10   26.80    3.42
   2  -3 -10   29.70    4.12
  -2  -3  10   30.18    4.49
   2  -3  -9   32.97    4.01
  -2  -3   9   36.92    4.81
  -2  -3   9   36.93    5.05
  -2   3   9   29.41    4.24
  -2   3   9   37.15    3.70
  -2  -3   9   41.18    5.32
   2  -3  -9   39.49    4.69
   2   3  -9   45.55    5.06
   2  -3  -9   35.42    3.46
  -2  -3   8   15.14    3.32
  -2   3   8   14.73    2.86
  -2   3   8   19.89    2.73
   2  -3  -8   18.90    3.37
  -2  -3   8   17.43    3.35
   2  -3  -8   15.46    2.23
   2   3  -8   20.49    3.48
   2  -3  -8   19.45    3.17
  -2  -3   8   18.38    2.40
   2  -3  -7  251.86   10.33
  -2  -3   7  237.92    9.25
  -2   3   7  256.55   10.09
  -2   3   7  211.77    7.39
  -2   3   7  226.57    7.34
   2  -3  -7  238.79   11.22
  -2  -3   7  254.61    7.55
  -2  -3   7  223.41   10.68
   2   3  -7  229.26    9.77
   2  -3  -7  259.45    7.59
   2  -3  -6  343.49   12.35
  -2  -3   6  336.74    9.51
  -2  -3   6  320.26   11.37
  -2  -3   6  340.69    8.05
   2  -3  -6  324.25   11.66
   2   3  -6  333.27   10.84
   2  -3  -6  329.92    6.94
  -2   3   6  293.53    8.59
  -2   3   6  324.91    9.80
  -2   3   6  277.74    7.82
  -2  -3   5  240.52    6.72
  -2  -3   5  215.09    3.72
   2  -3  -5  243.70   10.50
  -2  -3   5  228.99    6.56
   2  -3  -5  231.36    4.44
  -2   3   5  239.38    6.30
  -2   3   5  222.37    6.90
   2  -3  -5  231.61    8.65
   2   3  -5  245.41    8.40
  -2   3   5  212.31    7.44
  -2  -3   5  241.83    6.24
   2   3  -5  224.59    5.63
  -2  -3   5  249.07    8.72
  -2   3   4  281.45    9.12
   2  -3  -4  258.79    3.78
  -2  -3   4  283.30    6.34
   2  -3  -4  292.69   10.39
   2  -3  -4  290.31    8.40
  -2   3   4  300.48    5.23
  -2   3   4  288.62    5.11
  -2  -3   4  284.55    6.39
  -2  -3   4  298.70    8.55
  -2   3   4  283.38    7.08
   2   3  -4  304.00    8.44
  -2  -3   4  281.56    5.63
  -2  -3   4  289.86    6.42
   2   3  -4  274.74    5.89
  -2  -3   4  282.11    4.49
   2  -3  -3  119.23    5.91
   2   3  -3  120.49    3.76
  -2   3   3  121.50    6.78
   2   3  -3  120.32    3.73
   2  -3  -3  119.37    4.75
  -2   3   3  129.56    6.53
  -2   3   3  112.86    3.15
  -2  -3   3  121.29    4.76
  -2   3   3  117.90    4.16
  -2  -3   3  117.62    3.93
   2  -3  -3  123.86    4.29
  -2   3   3  116.05    4.20
  -2  -3   3  118.17    3.61
   2  -3  -3  122.48    4.20
  -2  -3   3  115.25    3.88
   2   3  -3  116.08    3.66
  -2   3   3  127.49    4.50
   2   3  -3  124.24    4.82
  -2   3   3  118.18    4.82
   2   3  -3  114.72    2.73
  -2  -3   3  118.84    4.58
   2   3  -3  117.00    4.44
  -2  -3   3  118.71    3.61
  -2   3   2  313.45    6.80
  -2  -3   2  298.41    5.37
  -2   3   2  325.12    6.72
   2   3  -2  301.43    5.46
   2  -3  -2  307.53    6.36
  -2   3   2  327.31   10.25
  -2  -3   2  302.08    7.04
  -2  -3   2  299.35    6.32
   2   3  -2  299.37    6.68
   2  -3  -2  319.32    6.66
  -2   3   2  318.32    6.57
   2   3  -2  305.55    5.47
  -2   3   2  325.08    6.90
   2  -3  -2  325.01    6.48
  -2   3   2  310.91    7.36
   2   3  -2  307.19    7.11
   2  -3  -2  326.04    8.41
   2  -3  -2  309.16    6.94
  -2  -3   2  317.16    7.88
  -2   3   2  310.92    4.61
  -2   3   2  337.91   11.63
  -2   3   2  307.16    7.23
  -2  -3   2  295.65    4.24
  -2  -3   2  313.53    7.34
   2   3  -2  309.39    6.47
  -2  -3   2  309.85    6.60
   2   3  -2  305.55    6.25
  -2   3   2  316.74    6.02
   2  -3  -1   24.61    2.58
   2   3  -1   22.48    1.39
  -2   3   1   24.84    2.59
  -2  -3   1   21.36    2.09
  -2   3   1   21.51    1.55
  -2   3   1   22.19    1.79
  -2  -3   1   23.08    1.93
  -2   3   1   25.60    2.16
  -2   3   1   23.02    1.78
  -2   3   1   22.54    1.78
   2  -3  -1   24.08    1.89
   2   3  -1   21.13    1.50
  -2   3   1   24.12    1.60
  -2   3   1   25.79    3.70
  -2  -3   1   22.37    1.49
  -2   3   1   21.59    1.73
   2  -3  -1   22.62    1.79
   2   3  -1   21.26    1.38
   2  -3  -1   23.48    1.83
  -2  -3   1   21.55    1.84
   2  -3  -1   23.09    1.90
   2   3  -1   23.04    1.90
   2   3  -1   20.30    1.71
  -2  -3   1   21.09    1.85
  -2   3   1   22.65    1.10
   2   3  -1   22.75    1.75
   2  -3   0    7.08    0.99
  -2   3   0    8.89    1.04
   2   3   0    6.98    1.16
   2   3   0    5.97    0.78
   2  -3   0    5.28    1.02
  -2   3   0    7.21    1.18
  -2   3   0    5.55    1.15
  -2  -3   0    5.43    1.00
   2  -3   0    6.43    0.69
  -2   3   0    5.24    1.18
  -2  -3   0    6.16    0.90
  -2   3   0    4.82    0.95
  -2  -3   0    5.57    0.46
  -2   3   0    7.32    0.87
  -2   3   0    6.46    1.28
  -2  -3   0    6.56    1.04
   2  -3   0    5.20    1.44
  -2  -3   0    5.53    1.29
  -2   3   0    7.62    1.31
   2   3   0    5.51    0.73
  -2  -3   0    6.22    0.77
  -2   3   0    6.52    1.04
   2  -3   0    6.86    1.11
   2   3   0    6.20    1.09
  -2  -3   0    6.47    1.03
  -2  -3   0    6.04    0.81
  -2   3   0    5.60    1.73
   2  -3   0    7.52    1.08
  -2   3   0    5.76    0.92
  -2  -3   0    5.06    1.09
   2   3   0    5.77    0.97
   2   3   0    6.67    0.86
  -2  -3  -1   18.39    1.51
   2  -3   1   18.05    1.32
  -2   3  -1   18.72    1.70
   2  -3   1   20.70    1.77
  -2   3  -1   18.35    2.03
  -2  -3  -1   16.76    1.02
  -2   3  -1   16.44    1.49
  -2   3  -1   20.32    3.01
   2   3   1   18.22    1.69
   2   3   1   16.75    1.09
  -2   3  -1   16.86    1.71
  -2   3  -1   18.03    1.67
   2   3   1   15.38    1.58
  -2  -3  -1   17.26    1.66
  -2   3  -1   18.11    1.73
  -2  -3  -1   17.42    1.26
   2  -3   1   16.37    2.56
   2  -3   1   17.73    1.73
   2  -3   1   17.73    1.76
  -2  -3  -1   18.60    1.67
   2  -3   1   19.45    1.83
  -2  -3  -1   17.19    1.45
  -2   3  -1   17.78    1.46
  -2  -3  -1   15.64    2.08
   2   3   1   17.37    1.79
  -2   3  -1   17.80    2.21
  -2   3  -1   17.23    1.72
   2   3   1   16.84    1.24
  -2   3  -2   15.52    1.69
  -2   3  -2   12.78    1.34
   2  -3   2   15.23    1.85
  -2  -3  -2   14.32    1.20
  -2  -3  -2   12.64    1.18
  -2   3  -2    9.50    2.04
  -2  -3  -2   13.77    1.38
  -2   3  -2   15.47    2.26
   2   3   2   13.33    1.45
   2  -3   2   17.25    2.16
   2  -3   2   14.95    2.58
  -2   3  -2   13.24    1.33
   2   3   2   14.54    1.67
   2   3   2   12.46    1.40
  -2  -3  -2   17.26    2.69
   2   3   2   14.94    1.01
  -2  -3  -2   14.03    1.52
  -2   3  -2   15.57    1.80
   2  -3   2   15.02    1.74
   2   3   2   14.39    1.19
   2  -3   2   14.31    1.71
  -2  -3  -2   14.89    1.61
   2   3   2   13.21    0.78
  -2   3  -2   18.04    2.64
  -2   3  -2   14.88    1.82
  -2  -3  -3   47.84    2.87
   2   3   3   53.24    3.27
  -2  -3  -3   44.07    2.65
  -2   3  -3   41.59    1.92
  -2   3  -3   58.48    4.35
  -2  -3  -3   49.60    2.34
  -2  -3  -3   54.23    4.61
   2  -3   3   54.91    4.33
   2   3   3   49.46    1.88
   2  -3   3   53.93    3.29
   2  -3   3   58.24    3.46
   2   3   3   48.94    2.83
   2   3   3   53.34    2.80
  -2   3  -3   49.88    2.58
  -2   3  -3   52.25    3.24
   2  -3   3   51.10    3.25
  -2   3  -3   59.12    4.76
  -2   3  -3   48.55    3.02
  -2   3  -3   51.74    4.63
   2  -3   4  102.11    6.05
  -2  -3  -4  101.74    3.75
   2   3   4  103.49    3.18
   2  -3   4  112.90    5.19
   2  -3   4  110.69    5.18
  -2   3  -4   84.45    2.08
  -2   3  -4   90.14    2.01
   2   3   4  105.73    5.08
  -2   3  -4  115.91    5.27
   2   3   4  116.19    4.08
  -2  -3  -4  106.54    6.95
   2   3   4  108.04    4.61
  -2   3  -4  108.40    5.50
  -2   3  -4  137.37    7.78
  -2   3  -4  113.20    4.31
  -2   3  -5   80.30    4.51
   2  -3   5   94.53    5.36
   2  -3   5   88.08    6.02
   2   3   5  100.81    5.86
   2   3   5   97.73    3.87
  -2  -3  -5   76.35    6.36
   2  -3   5   94.62    5.46
   2   3   5   91.14    4.78
  -2   3  -5   98.75    6.68
  -2  -3  -5   85.09    3.99
   2   3   6  106.49    6.99
   2   3   6  102.00    6.04
   2  -3   6   97.40    6.18
   2  -3   6   99.51    6.62
  -2  -3  -6   83.19    6.78
   2  -3   6   89.82    6.05
  -2   3  -6   97.14    6.59
   2   3   6   89.51    3.56
  -2  -3  -7   55.64    4.42
   2  -3   7   51.43    5.17
  -2  -3  -7   58.00    5.62
   2   3   7   64.09    5.42
  -2  -3  -7   57.47    5.27
   2  -3   7   59.14    5.32
  -2   3  -7   56.84    5.08
   2  -3   7   47.23    4.87
   2   3   7   59.48    5.96
  -2  -3  -8   41.10    4.11
  -2  -3  -8   39.16    4.64
   2  -3   8   47.80    5.02
   2   3   8   45.18    5.57
   2   3   8   46.75    4.91
  -2  -3  -8   49.52    5.00
   2  -3   8   40.13    5.19
  -2   3  -8   45.95    4.83
   2  -3   8   37.23    4.93
  -2   3  -9   27.57    3.91
   2  -3   9   29.92    4.26
  -2  -3  -9   25.67    3.89
   2   3   9   34.34    5.37
   2   3   9   24.72    3.78
  -2  -3  -9   22.12    3.75
   2  -3   9   31.41    5.05
   2  -3   9   18.16    4.39
   2   3  10    8.63    2.75
  -2  -3 -10    9.24    2.65
  -2   4  10   -0.01    2.88
  -2  -4  10    2.09    2.41
   2  -4 -10    5.08    2.28
   2   4 -10    6.05    2.56
  -2  -4  10    6.85    3.57
  -2  -4  10    6.43    2.45
   2  -4 -10    9.15    2.93
  -2   4   9    2.24    2.17
  -2  -4   9   -2.76    2.79
   2   4  -9    0.89    2.09
  -2  -4   9    2.29    1.78
  -2  -4   9    0.26    2.72
   2  -4  -9    3.84    2.09
   2  -4  -9    7.44    2.81
  -2   4   8    2.58    2.06
  -2  -4   8   -0.66    2.01
   2   4  -8    1.49    2.00
  -2  -4   8   -3.05    2.97
  -2  -4   8   -2.07    2.54
   2  -4  -8    1.55    1.81
  -2   4   8    0.81    1.09
   2  -4  -8    0.55    1.92
   2  -4  -7    4.90    2.41
  -2   4   7    2.19    1.24
   2   4  -7    0.55    1.73
  -2   4   7    2.32    1.92
  -2  -4   7   -0.47    1.87
  -2  -4   7   -0.45    2.25
  -2  -4   7    1.55    1.58
   2  -4  -7   -0.81    2.10
  -2  -4   7    0.92    1.03
   2  -4  -6    0.78    0.36
  -2  -4   6    1.36    1.25
  -2   4   6   -0.96    1.30
   2   4  -6    2.03    1.91
   2  -4  -6    0.08    0.26
  -2   4   6    1.37    0.81
   2  -4  -6    4.01    2.24
  -2  -4   6   -0.85    2.07
  -2  -4   6    1.70    1.81
   2  -4  -6   -0.67    2.05
  -2  -4   6    1.31    1.01
   2   4  -6   -0.14    0.75
  -2  -4   5    6.91    1.89
  -2  -4   5    8.75    1.54
   2  -4  -5    8.47    2.80
  -2   4   5    6.03    0.77
   2   4  -5    8.41    2.08
   2  -4  -5    5.37    1.78
  -2   4   5    6.57    1.50
  -2  -4   5    4.42    0.57
  -2   4   5    7.05    1.64
  -2  -4   5   10.09    2.40
   2   4  -5    5.20    0.97
  -2  -4   5    9.53    1.51
   2   4  -4   73.88    3.68
   2   4  -4   73.18    3.60
  -2   4   4   72.85    3.97
  -2  -4   4   69.89    4.11
   2  -4  -4   66.86    4.33
  -2  -4   4   78.27    3.71
  -2   4   4   72.47    4.34
   2   4  -4   64.63    2.91
   2   4  -4   75.24    4.59
  -2  -4   4   70.28    3.50
  -2  -4   4   66.77    3.32
   2  -4  -4   69.75    5.85
   2   4  -4   67.41    4.10
  -2   4   4   65.52    2.44
   2  -4  -3   72.27    2.99
   2  -4  -3   95.46    5.96
   2   4  -3   86.86    3.53
  -2   4   3   82.08    2.19
   2   4  -3   87.35    3.54
  -2   4   3   87.92    3.08
  -2   4   3   84.00    4.43
  -2   4   3   85.18    3.94
  -2  -4   3   88.71    3.56
  -2  -4   3   87.47    4.08
  -2  -4   3   91.54    5.13
   2   4  -3   87.47    4.42
  -2   4   3   89.64    4.20
   2   4  -3   72.24    1.64
   2  -4  -3   84.42    4.38
  -2  -4   3   87.29    3.87
   2   4  -3   86.09    4.04
   2   4  -3   88.39    3.53
  -2  -4   2  176.78    4.85
   2  -4  -2  180.75    6.83
   2   4  -2  171.56    4.69
   2  -4  -2  181.95    7.05
  -2  -4   2  178.36    3.48
  -2   4   2  189.86    5.96
   2   4  -2  182.69    5.31
   2   4  -2  177.90    5.85
  -2   4   2  185.13    5.36
   2   4  -2  180.87    4.85
  -2  -4   2  179.60    5.26
  -2  -4   2  163.65    7.08
   2   4  -2  177.25    5.14
  -2   4   2  190.07    6.52
   2   4  -2  177.53    5.94
  -2   4   2  184.62    4.22
   2  -4  -2  183.85    5.83
  -2  -4   2  181.69    5.82
  -2   4   1  421.41   13.89
   2  -4  -1  446.47   12.83
   2   4  -1  491.76    8.29
  -2  -4   1  465.28   12.67
  -2   4   1  494.19    8.64
  -2   4   1  485.78    6.23
   2   4  -1  482.25    9.55
  -2   4   1  501.64    9.60
   2  -4  -1  507.52    9.46
   2   4  -1  484.05    9.73
  -2   4   1  485.49    9.76
   2   4  -1  504.56    8.30
   2   4  -1  491.31    8.25
  -2  -4   1  476.42    8.15
  -2  -4   1  494.51    8.64
   2  -4  -1  525.87   10.02
   2  -4  -1  500.12   10.34
  -2   4   1  482.17   10.46
  -2  -4   1  473.31   10.05
  -2   4   1  484.73    8.26
   2   4  -1  492.69    9.44
   2  -4   0  365.85    8.11
   2   4   0  363.85    6.90
   2  -4   0  350.51   11.98
   2  -4   0  366.51    7.64
  -2   4   0  312.86   10.89
   2   4   0  371.70    8.40
  -2  -4   0  366.16    8.36
  -2   4   0  367.52    8.17
  -2  -4   0  365.72    7.14
  -2   4   0  371.30    7.15
   2   4   0  377.44    8.22
  -2   4   0  381.99    8.50
  -2  -4   0  367.87    8.48
   2   4   0  362.57    6.38
  -2  -4   0  365.93    6.66
   2   4   0  344.28    7.06
   2  -4   0  370.03    5.68
   2  -4   0  400.90    8.00
  -2   4   0  386.91    9.20
  -2   4   0  377.47    6.70
  -2   4   0  366.23    7.94
  -2  -4   0  391.83    9.19
  -2   4   0  382.45    8.41
   2  -4   0  378.17    8.44
  -2  -4   0  368.99   11.69
   2   4   1  590.01    9.61
  -2  -4  -1  598.67    8.64
   2  -4   1  604.97   11.04
  -2   4  -1  592.17   14.00
  -2   4  -1  609.64    8.41
   2   4   1  597.82   11.94
   2  -4   1  662.67   11.04
   2   4   1  605.08   11.30
  -2  -4  -1  607.86   15.92
  -2  -4  -1  595.16    7.68
   2   4   1  550.60    8.65
   2  -4   1  629.21   11.49
  -2   4  -1  646.02   13.05
  -2  -4  -1  589.53   10.49
   2  -4   1  622.44    9.81
  -2   4  -1  622.25   11.94
  -2  -4  -1  604.28   11.04
   2   4   1  595.66    8.28
  -2   4  -1  586.24    9.96
  -2  -4  -1  667.03   15.13
  -2  -4  -1  591.40    8.64
  -2  -4  -1  609.34    9.79
   2  -4   1  599.94    9.16
  -2   4  -1  598.41   10.94
  -2   4  -1  639.89   11.46
  -2   4  -1  592.04   10.26
   2  -4   2  297.34    7.77
   2   4   2  266.96    5.34
  -2   4  -2  298.45    7.82
   2   4   2  305.92    8.11
  -2   4  -2  296.68    8.34
   2   4   2  287.12    5.43
  -2  -4  -2  283.11    6.35
  -2   4  -2  280.68    6.43
   2   4   2  255.34    4.49
  -2  -4  -2  268.48    6.46
   2  -4   2  298.74    8.00
  -2  -4  -2  291.99    6.70
   2  -4   2  325.77    9.64
  -2  -4  -2  283.47    7.27
  -2   4  -2  305.61    8.29
   2   4   2  296.10    8.09
  -2   4  -2  264.82    3.69
  -2  -4  -2  282.06   10.93
  -2  -4  -2  279.06    5.36
  -2   4  -2  312.55   10.21
  -2   4  -2  250.63    3.71
  -2   4  -2  307.19    8.16
  -2  -4  -2  294.69   11.56
   2  -4   3  306.63    8.38
  -2  -4  -3  278.25    6.94
  -2   4  -3  292.66   10.92
  -2   4  -3  318.18    8.50
   2  -4   3  332.52    9.24
   2   4   3  306.96    7.39
   2  -4   3  305.68   10.84
  -2  -4  -3  301.36    7.66
  -2  -4  -3  283.73    5.60
  -2  -4  -3  301.13   12.58
   2   4   3  310.50    8.40
   2   4   3  294.64    5.72
   2   4   3  313.20    8.71
  -2   4  -3  303.10    6.85
  -2   4  -3  324.00    8.73
  -2  -4  -3  258.01   10.44
  -2  -4  -3  318.73    8.72
  -2   4  -3  275.37    5.44
   2  -4   4  131.48    6.20
  -2  -4  -4  120.64    3.83
   2   4   4  128.74    5.01
   2  -4   4  132.08    7.26
   2   4   4  121.99    3.72
  -2   4  -4  141.38    6.10
  -2   4  -4  132.77    7.81
   2  -4   4  134.47    5.97
  -2   4  -4  132.44    4.73
   2   4   4  136.23    5.63
  -2  -4  -4  120.81    8.23
   2   4   4  124.81    5.77
  -2  -4  -4  119.61    7.23
   2  -4   5   47.98    4.05
   2  -4   5   39.30    4.19
  -2   4  -5   55.49    5.60
  -2  -4  -5   39.35    2.44
   2  -4   5   41.97    3.88
  -2   4  -5   46.84    4.02
   2   4   5   46.48    3.41
   2   4   5   48.45    3.99
   2   4   5   47.38    3.50
  -2  -4  -5   45.38    4.64
  -2  -4  -5   40.62    4.94
   2  -4   6    6.08    2.02
   2  -4   6    5.90    2.24
   2   4   6    5.90    2.14
   2   4   6    6.15    1.65
  -2   4  -6    8.55    2.86
  -2  -4  -6    5.86    2.39
   2  -4   6    4.04    1.86
   2   4   6    4.07    1.26
  -2  -4  -6    7.80    2.63
   2  -4   7    0.98    2.05
   2   4   7    3.04    2.37
   2  -4   7    3.93    2.11
  -2   4  -7    4.19    2.29
   2   4   7    0.64    1.41
  -2  -4  -7   -2.13    2.12
   2  -4   7   -4.25    2.81
  -2  -4  -7    1.97    1.65
   2  -4   8   -1.84    2.57
   2   4   8   -1.19    1.97
  -2  -4  -8   -0.72    2.07
  -2   4  -8   -0.38    1.54
   2   4   8   -0.22    2.28
   2  -4   8   -6.64    3.34
   2  -4   8    3.13    2.05
  -2  -4  -8    2.36    1.96
   2   4   9    3.79    2.13
  -2  -5  10   14.51    3.95
   2   5  -9   15.49    3.84
  -2  -5   9   18.34    3.73
  -2  -5   9   14.77    3.77
  -2  -5   9   12.25    3.48
  -2   5   9   17.85    3.73
   2  -5  -9   14.02    3.32
   2  -5  -9   15.37    3.58
  -2   5   9   17.41    3.27
  -2  -5   8   13.27    2.91
  -2   5   8   15.67    3.25
   2  -5  -8   10.64    3.00
  -2  -5   8    4.88    2.25
  -2  -5   8    4.43    2.43
   2   5  -8    7.35    2.95
  -2   5   8   10.32    2.77
   2  -5  -8    6.85    2.73
  -2  -5   7  125.62    6.50
   2  -5  -7  110.77    8.11
   2  -5  -7  119.28    8.67
   2   5  -7  109.89    7.77
  -2   5   7  107.52    6.39
  -2  -5   7  107.04    8.16
  -2  -5   7  108.72    7.64
  -2   5   7  109.46    7.19
   2  -5  -6  121.29    8.57
  -2   5   6  101.50    5.74
   2   5  -6  104.62    6.95
  -2  -5   6  107.08    4.92
  -2   5   6  125.23    7.43
   2  -5  -6  116.01    7.75
   2   5  -6  118.91    7.52
  -2  -5   6  114.08    6.88
  -2  -5   6  116.43    7.75
  -2  -5   6  122.12    5.72
   2  -5  -5  117.45    8.79
  -2   5   5   97.23    3.01
   2   5  -5  105.53    5.16
  -2  -5   5  111.84    6.84
  -2  -5   5  110.62    6.07
   2   5  -5  114.76    6.71
  -2  -5   5   98.43    4.69
   2   5  -5  104.35    6.03
  -2   5   5  117.71    6.69
   2  -5  -5  107.69    6.53
  -2  -5   5   99.92    4.81
  -2   5   5  100.02    5.33
  -2  -5   4  111.48    4.76
   2  -5  -4  112.85    7.92
  -2  -5   4  108.41    4.50
   2   5  -4  109.28    5.41
   2  -5  -4  118.68    6.13
   2   5  -4  100.02    2.68
  -2   5   4  112.33    3.57
   2   5  -4  110.44    4.85
  -2   5   4  118.27    6.13
   2   5  -4  117.94    6.17
  -2  -5   4  104.91    4.95
  -2   5   4  116.87    5.63
  -2  -5   4  111.85    5.43
   2   5  -4  109.17    4.18
  -2  -5   4  116.62    6.15
   2  -5  -3   71.22    3.96
   2  -5  -3   84.68    6.15
  -2   5   3   79.52    4.04
  -2  -5   3   79.68    3.89
  -2  -5   3   73.55    4.01
  -2   5   3   78.18    3.28
   2   5  -3   75.20    3.75
   2   5  -3   77.82    4.53
  -2   5   3   78.21    2.63
   2   5  -3   75.15    4.51
  -2   5   3   75.74    4.66
  -2   5   3   80.68    4.59
  -2  -5   3   83.76    5.61
   2  -5  -3   78.56    4.53
   2   5  -3   74.13    3.93
  -2  -5   3   76.82    4.28
   2  -5  -2   80.79    5.59
  -2   5   2   79.09    3.78
   2  -5  -2   82.37    4.29
   2  -5  -2   82.30    5.23
  -2   5   2   79.21    4.41
  -2  -5   2   86.68    4.22
   2   5  -2   73.13    3.53
   2   5  -2   78.15    4.38
  -2   5   2   78.34    3.13
  -2  -5   2   80.14    3.75
  -2   5   2   76.97    4.64
  -2  -5   2   81.78    2.59
   2   5  -2   78.80    3.65
   2   5  -2   75.82    4.27
  -2   5   1   11.74    1.52
   2   5  -1   11.31    1.77
  -2  -5   1   11.49    3.11
   2   5  -1   11.89    1.37
  -2   5   1   11.23    1.69
  -2   5   1   12.22    1.56
   2  -5  -1   12.08    2.65
   2   5  -1   11.18    1.84
   2  -5  -1   13.62    1.94
   2   5  -1   11.77    1.57
   2  -5  -1   12.68    1.89
  -2   5   1   12.05    2.01
   2  -5  -1   11.22    1.64
  -2  -5   1   11.87    1.59
  -2  -5   1   11.27    1.24
  -2   5   1   11.65    0.85
   2   5   0    1.04    0.91
   2  -5   0    1.15    1.13
   2  -5   0    0.12    0.77
  -2   5   0   -0.12    0.53
   2   5   0   -1.21    0.92
   2  -5   0   -0.89    1.13
  -2   5   0    0.15    1.51
  -2   5   0    1.33    1.04
  -2  -5   0   -0.11    0.80
  -2   5   0    0.39    0.70
  -2  -5   0   -3.45    2.59
  -2   5   0    0.57    0.97
  -2   5   0    1.81    1.33
   2   5   0   -0.70    0.90
   2  -5   0   -0.38    0.78
  -2   5   0   -0.52    1.12
   2  -5   0    1.66    0.54
  -2   5   0   -0.34    0.77
   2   5   0    0.26    0.51
  -2  -5   0   -0.24    0.53
  -2  -5   0   -0.02    0.77
  -2   5  -1    2.28    0.70
   2  -5   1    5.62    1.58
  -2  -5  -1    1.72    2.04
  -2   5  -1    1.78    1.23
  -2  -5  -1    3.38    0.88
  -2   5  -1    2.45    1.13
   2  -5   1    5.03    1.18
  -2   5  -1    4.03    1.49
   2   5   1    3.49    0.97
   2   5   1    3.84    1.36
  -2   5  -1    3.48    1.00
  -2  -5  -1    3.08    0.55
  -2   5  -1    2.88    1.46
  -2  -5  -1    5.18    1.54
   2  -5   1    3.18    0.86
   2   5   1    3.55    0.72
   2  -5   1    3.64    1.27
  -2  -5  -1    2.65    0.85
  -2   5  -1    2.21    1.24
   2   5   1    3.55    1.49
  -2   5  -1    2.63    0.97
   2  -5   1    3.52    1.06
  -2   5  -1    1.99    0.65
   2   5   2   10.55    1.88
   2  -5   2   11.15    2.03
  -2   5  -2   13.13    2.11
  -2  -5  -2   11.81    2.36
   2  -5   2   10.77    1.99
  -2  -5  -2    9.44    1.33
  -2  -5  -2   10.59    1.20
  -2   5  -2    9.66    1.82
  -2  -5  -2    5.87    2.50
   2   5   2    9.38    1.30
  -2   5  -2   12.87    1.72
   2  -5   2   13.61    2.26
  -2   5  -2   11.93    2.10
   2   5   2   11.09    1.04
  -2   5  -2   10.38    1.91
   2   5   2    7.91    1.84
  -2   5  -2   10.82    0.91
  -2   5  -2   10.35    1.49
   2  -5   2   10.49    1.18
   2  -5   3   28.74    2.90
  -2   5  -3   30.43    3.07
   2   5   3   32.02    3.19
  -2   5  -3   27.26    2.29
  -2   5  -3   28.66    3.79
   2  -5   3   29.93    3.82
  -2  -5  -3   24.90    2.16
   2   5   3   23.16    1.81
   2  -5   3   30.29    3.13
   2   5   3   26.95    3.06
  -2   5  -3   27.02    2.91
  -2  -5  -3   26.15    1.62
  -2  -5  -3   20.40    3.67
  -2  -5  -3   28.03    3.96
   2  -5   4   42.21    3.66
   2   5   4   38.97    3.50
   2  -5   4   41.56    4.42
  -2  -5  -4   34.80    4.88
   2  -5   4   46.78    4.15
  -2   5  -4   44.11    3.81
   2   5   4   44.04    3.79
  -2   5  -4   43.05    4.87
  -2  -5  -4   29.81    3.98
   2  -5   5   35.91    3.71
   2  -5   5   33.64    4.09
  -2  -5  -5   37.07    5.07
   2   5   5   36.50    3.08
  -2   5  -5   31.98    4.51
   2   5   5   31.84    3.49
  -2   5  -5   35.94    3.76
   2  -5   5   39.03    4.22
   2   5   5   34.40    3.50
  -2  -5  -5   28.48    3.93
   2   5   6   48.48    3.85
   2  -5   6   55.30    5.13
  -2  -5  -6   39.19    5.06
   2   5   6   54.06    5.01
   2  -5   6   51.33    5.23
   2  -5   6   44.37    4.86
  -2  -5  -6   49.92    5.25
  -2   5  -6   53.53    6.05
   2  -5   7   34.32    4.58
  -2   5  -7   35.75    5.21
   2  -5   7   27.63    4.25
   2  -5   7   30.44    4.26
   2   5   7   34.83    4.57
  -2  -5  -7   23.11    4.03
   2   5   7   35.09    3.82
  -2  -5  -7   29.07    4.24
   2  -5   8   23.99    3.90
  -2  -6   9    3.80    2.54
   2   6  -8   -2.19    2.78
  -2  -6   8    1.95    1.83
  -2  -6   8   -2.64    2.47
  -2   6   8    3.32    2.29
  -2  -6   8    5.86    3.24
  -2   6   8    6.19    2.53
   2  -6  -7    3.96    2.40
  -2  -6   7   -0.74    1.44
  -2  -6   7   -1.97    2.70
  -2   6   7   -1.95    1.87
   2   6  -7   -1.22    2.19
   2   6  -7    6.15    2.81
  -2   6   7    2.26    2.16
   2  -6  -7    1.65    2.02
  -2  -6   7    7.47    2.89
  -2  -6   6   -0.56    2.11
  -2  -6   6   -0.53    1.33
  -2   6   6   -0.41    1.25
  -2  -6   6   -1.26    2.03
  -2   6   6    1.45    2.03
   2  -6  -6    1.30    1.95
   2   6  -6    5.22    2.42
   2  -6  -6    0.39    1.70
   2   6  -6   -0.49    1.67
  -2  -6   5    2.16    1.39
   2   6  -5    0.68    1.25
  -2   6   5    1.56    1.74
  -2  -6   5    4.09    2.17
   2   6  -5    1.44    1.44
   2  -6  -5    3.55    2.95
   2   6  -5   -0.52    1.56
  -2  -6   5   -2.18    1.93
   2   6  -5   -0.24    1.34
   2  -6  -5    2.01    1.45
  -2   6   5    3.39    1.60
  -2  -6   4   25.63    2.67
   2   6  -4   26.66    2.73
   2  -6  -4   27.56    4.64
  -2  -6   4   29.47    3.59
  -2   6   4   28.03    3.32
  -2  -6   4   25.16    3.02
   2   6  -4   26.60    3.12
  -2   6   4   26.23    1.95
   2   6  -4   25.79    3.25
  -2   6   4   25.02    3.34
   2  -6  -4   24.65    3.09
   2   6  -4   22.43    2.64
  -2  -6   3   36.25    3.01
   2   6  -3   31.54    3.25
  -2  -6   3   32.38    3.13
   2   6  -3   33.23    3.37
   2  -6  -3   32.61    4.16
  -2  -6   3   42.44    3.77
  -2   6   3   34.59    3.48
   2   6  -3   38.05    3.01
  -2   6   3   34.44    2.44
  -2   6   3   34.45    2.05
  -2  -6   3   38.69    3.40
   2   6  -3   34.29    2.84
   2  -6  -3   36.06    3.35
  -2   6   3   39.91    3.82
   2  -6  -2   71.35    5.19
  -2  -6   2   76.09    6.25
   2   6  -2   70.24    4.56
  -2   6   2   68.70    4.49
   2  -6  -2   70.10    4.32
  -2   6   2   65.92    4.85
   2   6  -2   71.51    3.87
  -2   6   2   70.02    3.81
  -2  -6   2   71.07    4.12
   2   6  -2   68.31    3.59
  -2   6   2   68.41    3.28
   2   6  -2   68.93    4.49
  -2  -6   2   67.78    2.66
  -2   6   1  130.61    6.02
   2  -6  -1  130.30    6.15
   2   6  -1  130.13    4.46
   2  -6  -1  141.28    6.19
   2   6  -1  131.07    6.01
  -2  -6   1  163.64   10.94
  -2   6   1  133.76    5.03
   2  -6  -1  136.66    5.64
  -2   6   1  134.03    6.09
   2   6  -1  128.18    5.11
  -2  -6   1  130.58    5.31
   2   6  -1  129.99    5.92
  -2   6   1  135.25    6.80
  -2   6   1  134.76    5.13
  -2  -6   1  132.89    4.55
  -2   6   0  132.06    5.92
   2  -6   0  137.20    5.59
  -2  -6   0  135.11    5.31
  -2   6   0  138.21    6.82
   2   6   0  124.38    3.80
   2  -6   0  110.93    2.70
  -2  -6   0  129.73    4.97
  -2  -6   0  105.68    8.89
   2   6   0  139.48    5.97
   2  -6   0  141.06    6.30
  -2   6   0  136.35    6.13
   2  -6   0  147.05    5.56
  -2   6   0  144.23    5.76
  -2   6   0  140.15    5.01
   2   6   0  132.89    6.18
   2  -6   1  188.33    7.24
   2  -6   1  193.22    5.92
  -2   6  -1  198.59    8.34
  -2   6  -1  183.57    7.20
  -2   6  -1  190.94    5.81
  -2  -6  -1  165.55   10.85
   2  -6   1  190.08    5.53
   2   6   1  187.89    7.46
   2  -6   1  198.70    6.19
  -2   6  -1  191.93    7.50
  -2  -6  -1  173.62    5.53
  -2  -6  -1  187.18    7.24
  -2   6  -1  188.50    7.31
   2  -6   1  197.06    7.56
   2   6   1  181.78    4.23
   2  -6   2  112.00    5.79
  -2  -6  -2  100.87    8.34
  -2   6  -2  105.34    4.37
   2   6   2  112.02    5.94
   2  -6   2  114.61    5.66
  -2   6  -2  106.35    5.67
   2  -6   2  116.70    6.10
  -2   6  -2  117.38    6.04
  -2   6  -2  113.89    6.42
   2   6   2  105.80    6.41
  -2   6  -2  113.99    6.39
  -2  -6  -2  114.00    6.62
   2  -6   2  112.26    3.90
   2  -6   3  106.09    5.81
  -2  -6  -3   94.69    7.99
   2   6   3  103.64    5.99
  -2   6  -3  103.21    5.80
   2  -6   3  103.68    6.09
   2  -6   3  101.32    6.54
  -2   6  -3   94.19    5.46
   2   6   3   91.73    6.12
  -2   6  -3   91.63    5.88
  -2  -6  -3  100.94    7.42
  -2   6  -3  100.79    6.77
   2  -6   4   49.18    4.26
  -2  -6  -4   40.53    5.58
   2  -6   4   51.06    5.28
  -2   6  -4   48.25    4.31
   2  -6   4   54.00    4.69
   2   6   4   49.30    4.37
   2   6   4   49.20    4.75
  -2  -6  -4   42.30    5.34
  -2   6  -4   42.92    4.99
   2  -6   5   17.12    2.76
  -2   6  -5   11.66    3.09
   2  -6   5   18.74    3.51
  -2   6  -5   13.87    2.74
   2  -6   5   17.42    3.29
   2   6   5   13.98    2.59
  -2  -6  -5   11.28    3.23
  -2  -6  -5   14.84    3.25
   2   6   5   14.49    2.58
   2  -6   6    4.11    2.34
   2  -6   6    0.68    2.19
  -2   6  -6    0.70    2.38
   2   6   6    0.91    1.56
  -2  -6  -6    1.24    1.90
   2  -6   6    3.20    2.28
  -2  -6  -6    2.76    2.15
   2  -6   7    1.40    1.89
   2   7  -7   31.75    4.69
  -2  -7   7   36.80    4.07
  -2  -7   7   25.69    4.55
  -2   7   7   35.33    5.12
  -2  -7   6   33.15    3.60
  -2   7   6   29.47    3.84
   2  -7  -6   32.05    4.68
   2   7  -6   30.67    3.95
   2  -7  -6   31.65    5.27
   2   7  -6   33.50    4.82
  -2  -7   6   32.19    4.19
  -2   7   6   34.50    4.92
   2   7  -6   28.05    3.95
  -2  -7   6   23.58    4.13
  -2  -7   5   33.33    3.40
   2   7  -5   33.46    3.97
   2  -7  -5   26.88    5.02
  -2  -7   5   29.69    4.35
   2   7  -5   33.14    4.26
   2   7  -5   30.34    3.34
  -2  -7   5   34.24    4.00
  -2   7   5   30.18    3.72
  -2   7   5   35.36    4.49
   2  -7  -5   31.37    4.09
   2   7  -5   31.05    3.66
  -2  -7   4   29.48    3.09
  -2  -7   4   31.09    3.52
   2   7  -4   27.51    3.42
   2  -7  -4   24.95    4.33
  -2  -7   4   33.03    4.15
  -2   7   4   35.64    3.93
   2   7  -4   29.22    3.15
   2   7  -4   23.80    2.82
   2   7  -4   31.36    3.76
   2  -7  -4   30.31    3.67
  -2   7   4   27.25    3.80
  -2   7   3   28.59    3.75
   2  -7  -3   25.36    3.10
   2   7  -3   26.77    3.42
  -2  -7   3   35.86    3.96
  -2   7   3   29.89    3.53
   2  -7  -3   27.99    4.02
  -2  -7   3   30.97    3.25
   2   7  -3   31.95    3.13
   2   7  -3   27.18    2.68
   2   7  -3   30.96    3.56
   2   7  -2   14.60    2.40
  -2  -7   2   23.48    2.87
  -2  -7   2   16.94    2.81
  -2   7   2   17.09    2.58
   2   7  -2   19.54    2.86
  -2   7   2   15.17    2.02
   2  -7  -2   15.43    2.66
   2   7  -2   17.04    2.29
   2   7  -2   15.51    1.87
  -2  -7   2   19.95    2.62
  -2   7   2   18.81    3.04
   2  -7  -2   15.82    2.29
   2  -7  -1    2.48    1.41
   2   7  -1    4.10    1.58
   2   7  -1    2.99    1.44
  -2  -7   1    5.35    1.53
  -2   7   1    3.04    1.09
  -2   7   1    4.42    1.30
  -2   7   1    6.43    1.88
  -2  -7   1   -0.27    1.99
  -2   7   1    3.02    1.81
  -2   7   1    4.36    1.86
   2   7  -1    3.48    1.43
   2  -7  -1    3.18    1.53
   2  -7  -1    2.08    1.18
  -2   7   0   -0.35    1.41
  -2   7   0    0.48    0.98
   2   7   0   -0.79    1.22
   2   7   0    0.53    1.29
   2  -7   0    1.46    1.11
   2  -7   0    1.22    1.10
  -2  -7   0   -0.54    1.10
  -2   7   0   -0.63    1.35
   2  -7   0   -0.51    1.36
  -2  -7   0   -5.93    3.42
   2   7   0    0.85    1.24
  -2   7   0    0.64    0.84
  -2   7   0   -0.14    1.40
  -2  -7   0    0.84    0.85
  -2   7  -1    1.84    1.28
  -2  -7  -1   -3.52    3.13
   2   7   1    1.24    1.51
  -2   7  -1    1.40    1.51
   2  -7   1    2.24    1.72
  -2   7  -1    0.07    1.38
   2  -7   1    1.31    1.00
  -2  -7  -1   -1.23    1.29
  -2   7  -1    2.56    1.69
   2  -7   2    4.58    1.94
  -2   7  -2    3.29    1.87
   2   7   2    3.35    1.63
  -2   7  -2    3.22    1.54
  -2  -7  -2    2.72    2.64
   2  -7   2    1.61    1.47
  -2   7  -2    0.45    1.53
  -2   7  -2    3.44    1.75
  -2  -7  -2    2.51    1.28
   2  -7   3   12.23    2.57
  -2   7  -3    9.31    2.55
   2   7   3    7.85    2.15
  -2   7  -3    8.73    2.17
  -2  -7  -3    8.93    3.05
  -2   7  -3   10.50    2.26
   2  -7   3    8.92    2.38
  -2  -7  -3   12.93    2.90
  -2   7  -4   15.70    3.39
   2  -7   4   14.33    2.76
   2   7   4   11.57    2.65
  -2   7  -4    9.84    2.33
  -2  -7  -4    9.91    3.16
  -2   7  -4   17.23    3.16
   2  -7   4   18.60    3.26
  -2  -7  -4   13.94    3.67
  -2   7  -5    9.78    2.44
   2  -7   5    9.36    2.53
  -2   7  -5    5.20    2.71
  -2  -7  -5    6.51    2.79
  -2   7  -5   10.76    2.84
  -2  -7  -5    6.86    2.92
  -2  -8   5    2.03    1.91
   2   8  -5    0.35    1.58
  -2   8   5    1.12    2.26
   2   8  -4    7.01    2.39
   2  -8  -4    7.04    2.06
   2   8  -4    9.38    2.20
  -2  -8   4   10.97    2.61
   2  -8  -4    5.83    2.85
  -2   8   4    9.63    2.94
   2   8  -3   11.36    2.36
  -2  -8   3    9.11    2.25
   2   8  -3    7.81    2.20
   2  -8  -3    4.97    2.38
  -2   8   3    9.53    2.39
   2   8  -3    4.68    1.96
  -2   8   3    5.40    2.16
   2  -8  -3   10.74    2.32
  -2   8   2   16.40    2.75
   2   8  -2   17.74    2.83
  -2   8   2   17.90    2.90
   2  -8  -2   14.91    2.93
   2  -8  -2   16.79    2.57
   2   8  -2   17.05    2.89
   2   8  -2   14.89    2.42
  -2  -8   2   14.44    2.51
  -2   8   2   15.24    3.05
  -2   8   1   29.14    3.60
   2   8  -1   24.81    3.49
  -2   8   1   28.77    3.54
  -2  -8   1   27.92    3.06
   2   8  -1   31.97    3.70
   2  -8  -1   28.17    3.42
   2  -8  -1   31.71    3.28
  -2   8   1   34.73    4.32
   2   8  -1   26.90    3.01
   2  -8  -1   26.48    3.23
  -2   8   0   39.21    4.14
   2  -8   0   42.93    4.38
  -2  -8   0   41.81    5.85
  -2   8   0   34.49    3.81
   2   8   0   31.42    3.34
  -2   8   0   38.11    4.68
  -2  -8   0   33.28    3.17
   2   8   0   33.73    3.90
  -2   8  -1   39.93    3.93
   2   8   1   45.84    4.45
   2   8   1   41.44    3.70
  -2   8  -1   42.76    4.34
  -2   8  -1   48.66    4.55
   2  -8   1   52.70    4.80
  -2   8  -1   43.69    4.87
  -2  -8  -1   39.14    6.04
  -2   8  -2   24.96    3.42
  -2  -8  -2   18.57    4.28
  -2   8  -2   24.04    3.43
   2  -8   2   28.65    3.88
  -2  -8  -2   24.46    3.27
  -2   8  -2   32.61    3.99
  -2  -8  -3   18.95    4.45
  -2   8  -3   23.81    3.82
  -2  -8  -3   24.20    3.62
  -2  -8  -4   12.79    3.32
  -3   0  12    9.81    2.43
   3   0 -12    8.50    2.68
  -3   0  11    9.58    2.49
   3   0 -11   11.61    2.96
   3   0 -11   12.24    2.41
  -3   0  11    6.61    2.05
   3   0 -10    7.64    2.64
  -3   0  10    4.90    2.06
   3   0 -10    9.89    2.22
   3   0 -10    9.26    2.21
   3   0 -10    6.13    1.86
  -3   0  10    6.57    2.11
   3   0  -9   32.86    3.59
  -3   0   9   35.17    4.45
   3   0  -9   37.88    4.09
   3   0  -9   41.08    3.91
  -3   0   9   38.19    4.18
   3   0  -8  397.85   13.64
   3   0  -8  361.12   10.75
   3   0  -8  375.84   10.99
   3   0  -8  429.16   11.48
  -3   0   8  434.27   13.37
   3   0  -8  302.81    6.14
  -3   0   8  363.80   13.17
   3   0  -7   10.46    1.84
  -3   0   7    8.40    1.58
   3   0  -7    9.49    1.90
  -3   0   7   10.54    2.30
   3   0  -7    9.58    1.31
   3   0  -7    8.60    1.68
   3   0  -7   10.87    2.25
  -3   0   7   11.35    2.30
   3   0  -6  342.26    9.19
  -3   0   6  366.20    9.18
   3   0  -6  367.62   10.70
   3   0  -6  383.47    8.36
  -3   0   6  365.42   10.42
   3   0  -6  363.93    8.20
   3   0  -6  357.00    8.50
  -3   0   6  347.15   10.67
   3   0  -6  367.29    9.87
  -3   0   6  352.01    8.18
  -3   0   5  331.71    7.66
   3   0  -5  341.93    8.48
  -3   0   5  333.78    8.34
  -3   0   5  324.38    6.66
   3   0  -5  337.19    8.24
   3   0  -5  319.72    7.86
   3   0  -5  326.47    6.61
   3   0  -5  315.56    6.96
  -3   0   5  310.88    7.03
   3   0  -5  316.66    7.90
  -3   0   5  332.84    9.22
   3   0  -5  317.62    9.37
   3   0  -4  895.62   12.82
   3   0  -4  929.93   15.70
  -3   0   4  857.62   10.51
   3   0  -4  838.73   14.79
   3   0  -4  840.06   11.85
   3   0  -4  844.05   10.52
  -3   0   4  834.95   11.98
  -3   0   4  880.75   12.29
   3   0  -4  886.36   13.19
   3   0  -4  836.86   11.08
   3   0  -4  843.54   12.04
  -3   0   4  836.01   11.14
  -3   0   4  898.65   13.86
  -3   0   3  127.25    3.91
   3   0  -3  120.24    4.04
   3   0  -3  137.30    6.14
   3   0  -3  124.92    3.59
  -3   0   3  129.55    3.68
   3   0  -3  127.57    4.05
   3   0  -3  141.26    4.67
   3   0  -3  125.10    3.75
   3   0  -3  127.02    3.35
   3   0  -3  130.70    3.61
  -3   0   3  128.06    3.24
  -3   0   3  128.50    3.50
   3   0  -3  128.11    3.99
  -3   0   3  126.47    4.15
  -3   0   3  122.88    3.76
   3   0  -2  257.92    8.95
  -3   0   2  306.77   10.48
   3   0  -2  296.30    5.52
   3   0  -2  285.10    5.67
  -3   0   2  289.19    5.74
  -3   0   2  287.48    5.46
  -3   0   2  287.59    5.01
   3   0  -2  286.90    5.30
  -3   0   2  293.14    5.27
  -3   0   2  295.22    5.27
  -3   0   2  280.57    5.69
   3   0  -2  273.67    5.62
  -3   0   2  279.45    5.62
   3   0  -1  572.61    5.95
  -3   0   1  536.40    5.78
   3   0  -1  564.76    7.86
  -3   0   1  493.19   13.26
  -3   0   1  557.56    7.68
   3   0  -1  531.40    7.83
  -3   0   1  569.08    8.18
   3   0  -1  559.72    8.08
  -3   0   1  557.13    7.93
   3   0  -1  501.56   13.19
  -3   0   1  543.10    7.65
  -3   0   1  540.97    5.82
  -3   0   1  549.29    7.78
   3   0   0  905.30    9.24
  -3   0   0  872.30    9.42
  -3   0   0  899.53   11.04
  -3   0   0  913.59    9.19
   3   0   0  888.64   10.86
   3   0   0  907.77   10.96
  -3   0   0  881.74    9.43
   3   0   0  893.80    9.25
  -3   0   0  932.04    9.16
  -3   0   0  902.25   10.95
  -3   0   0  915.23   10.60
   3   0   0  870.22   10.46
   3   0   0  908.13   11.00
  -3   0   0  857.98   17.54
  -3   0   0  922.72   11.12
   3   0   1    5.43    0.92
  -3   0  -1    5.56    0.63
  -3   0  -1    5.07    0.86
  -3   0  -1    7.52    1.20
  -3   0  -1    6.03    0.92
   3   0   1    5.63    0.90
  -3   0  -1    4.43    0.78
   3   0   1    5.79    0.85
   3   0   1    4.95    0.61
   3   0   1    6.29    0.97
  -3   0  -1    5.61    0.83
   3   0   1    4.68    0.76
   3   0   1    6.49    1.62
  -3   0  -2   76.86    4.09
   3   0   2   83.78    3.51
  -3   0  -2   83.20    3.16
  -3   0  -2   85.30    3.54
   3   0   2   83.41    3.59
  -3   0  -2   86.38    3.63
   3   0   2   84.73    3.49
   3   0   2   86.58    2.57
   3   0   2   87.22    3.59
  -3   0  -2   84.43    3.02
   3   0   2   86.77    3.06
   3   0   2   89.29    4.47
   3   0   3   73.94    4.09
   3   0   3   75.57    3.71
  -3   0  -3   84.37    3.87
   3   0   3   76.76    4.08
   3   0   3   79.18    2.88
  -3   0  -3   68.06    4.26
  -3   0  -3   80.74    3.86
   3   0   3   81.40    3.28
   3   0   3   81.23    4.07
   3   0   4   32.14    3.18
   3   0   4   45.87    3.59
   3   0   4   40.27    2.61
  -3   0  -4   40.79    2.92
   3   0   4   36.91    2.41
   3   0   4   40.06    2.68
  -3   0  -5  348.53   11.37
  -3   0  -5  380.43   10.06
   3   0   5  361.72    7.28
   3   0   5  345.39    8.96
   3   0   5  368.53    9.36
   3   0   5  381.69   12.14
  -3   0  -6  140.19    7.70
   3   0   6  160.28    9.00
   3   0   6  143.43    3.80
   3   0   6  150.90    8.21
   3   0   6  143.90    6.73
  -3   0  -6  168.15    7.50
  -3   0  -7   67.21    5.78
   3   0   7   78.28    6.71
   3   0   7   70.81    5.92
  -3   0  -7   70.15    5.31
   3   0   7   67.58    5.47
   3   0   8   76.66    6.51
  -3   0  -8   70.24    5.28
   3   0   8   67.07    5.38
  -3   0  -8   74.43    6.06
   3   0   8   81.04    6.68
   3   0   9   15.36    3.45
   3   0   9   22.31    3.89
  -3   0  -9   16.15    3.18
  -3   0 -10    9.07    2.62
   3  -1 -12    0.91    1.60
  -3   1  12    0.85    1.73
   3  -1 -12    0.69    1.37
  -3   1  12    2.21    1.67
  -3   1  11   27.99    3.69
  -3   1  11   28.92    3.62
  -3  -1  11   24.62    4.01
   3  -1 -11   22.10    3.05
  -3  -1  11   23.93    3.51
   3   1 -11   33.49    3.82
  -3  -1  11   34.22    3.98
   3  -1 -11   29.63    3.77
   3  -1 -11   32.21    4.21
   3   1 -11   34.36    4.79
   3  -1 -10   10.61    2.52
  -3  -1  10    7.87    2.32
   3   1 -10    9.20    2.30
  -3   1  10    5.17    1.84
   3  -1 -10    5.21    1.77
  -3  -1  10   13.06    3.41
   3   1 -10    7.98    1.99
   3  -1 -10   10.99    2.59
  -3  -1  10   12.32    2.78
  -3   1  10   10.16    2.33
   3  -1  -9   39.80    4.12
  -3   1   9   41.05    4.12
  -3   1   9   37.08    3.99
   3   1  -9   39.16    3.47
  -3  -1   9   36.19    4.86
   3  -1  -9   46.20    4.78
   3  -1  -9   44.28    3.46
   3   1  -9   45.61    4.51
  -3  -1   9   44.61    4.33
   3  -1  -9   37.51    4.42
   3   1  -9   38.78    3.45
   3   1  -8   11.67    1.29
   3   1  -8   12.12    2.36
   3  -1  -8   12.15    2.51
   3  -1  -8   16.03    2.89
  -3  -1   8    9.03    2.42
  -3   1   8   14.12    2.73
  -3  -1   8   10.08    1.96
   3   1  -8   12.23    1.88
   3  -1  -8   15.18    2.00
   3  -1  -8   14.79    2.86
   3   1  -8    8.88    1.81
  -3  -1   8   12.04    2.32
  -3   1   8   16.69    2.94
   3  -1  -7   16.62    1.76
  -3   1   7   24.34    2.15
  -3  -1   7   20.13    2.16
   3   1  -7   23.31    2.05
   3  -1  -7   21.08    2.65
  -3   1   7   23.60    3.05
  -3   1   7   19.31    2.78
   3  -1  -7   18.96    2.82
   3   1  -7   23.88    2.77
   3  -1  -7   19.17    2.51
   3  -1  -7   25.21    2.65
   3  -1  -7   23.92    2.07
   3   1  -7   22.98    2.19
  -3  -1   7   23.27    3.28
  -3  -1   7   22.09    2.84
  -3   1   7   25.22    3.41
   3   1  -7   20.04    2.33
  -3   1   6   14.28    1.54
  -3  -1   6   13.67    1.57
  -3   1   6   12.26    2.08
   3   1  -6   14.62    1.53
   3  -1  -6   13.18    2.22
   3  -1  -6   13.51    1.77
   3  -1  -6   14.63    1.92
  -3   1   6   14.07    1.84
   3   1  -6   15.44    2.35
   3  -1  -6   16.18    2.04
   3  -1  -6   14.59    1.30
  -3  -1   6   17.59    2.56
   3   1  -6   15.44    1.98
   3  -1  -6   12.78    1.97
  -3   1   6   12.67    2.07
  -3  -1   6   14.44    1.86
  -3  -1   6   12.96    1.99
   3   1  -6   16.26    1.90
   3   1  -6   15.52    1.94
  -3   1   6   13.82    2.42
   3  -1  -5  108.30    5.22
   3   1  -5  108.73    4.39
  -3  -1   5  116.47    3.98
  -3   1   5   99.72    5.08
  -3   1   5  112.37    5.02
   3  -1  -5  112.72    4.97
   3  -1  -5  112.31    2.89
   3   1  -5  112.75    5.70
   3  -1  -5  132.80    5.58
  -3   1   5  120.02    4.95
   3  -1  -5  126.83    4.75
   3   1  -5  110.49    3.43
   3   1  -5  117.33    4.56
   3  -1  -5  112.05    4.61
   3  -1  -5  111.62    4.18
  -3  -1   5  108.15    3.59
  -3  -1   5  113.22    4.34
  -3  -1   5  117.86    4.84
   3   1  -5  110.30    4.93
   3   1  -5  105.56    4.50
  -3   1   5  111.73    4.61
  -3   1   5  112.21    5.04
   3   1  -5  124.25    5.72
  -3   1   5  109.73    3.24
  -3   1   5  107.65    5.77
  -3  -1   4    2.30    0.73
   3  -1  -4    3.76    0.81
   3  -1  -4    2.57    1.16
  -3   1   4    2.14    0.73
  -3   1   4    2.17    0.97
   3  -1  -4    3.20    1.14
  -3  -1   4    2.12    0.65
  -3   1   4    2.72    0.96
   3  -1  -4    1.11    0.53
   3   1  -4    1.93    0.69
  -3   1   4    1.18    0.64
  -3   1   4    2.88    0.47
   3  -1  -4    1.86    0.68
   3   1  -4    2.86    0.84
   3   1  -4    1.97    0.85
   3   1  -4    1.49    0.50
   3  -1  -4    2.52    0.90
  -3  -1   4    2.93    0.61
  -3   1   4    2.31    0.80
  -3  -1   4    2.33    0.94
   3  -1  -4    3.35    0.83
   3   1  -4    2.39    0.76
  -3   1   4   -0.27    1.21
   3  -1  -3 1785.48   19.89
  -3   1   3 1687.03   19.34
   3  -1  -3 1746.26   16.01
   3   1  -3 1669.63   16.41
   3  -1  -3 1774.35   17.07
   3  -1  -3 1701.28   23.77
  -3   1   3 1870.75   25.41
   3   1  -3 1708.58   17.93
   3  -1  -3 1693.42   17.75
   3   1  -3 1662.67   15.61
  -3   1   3 1741.04   18.30
  -3  -1   3 1679.65   16.70
  -3   1   3 1737.41   17.67
   3   1  -3 1689.82   18.41
  -3   1   3 1677.83   14.59
   3  -1  -3 1680.32   18.16
  -3  -1   3 1706.01   15.60
  -3  -1   3 1739.85   18.03
  -3   1   3 1758.68   18.40
  -3   1   3 1742.67   17.05
  -3   1   3 1698.49   16.98
  -3  -1   3 1656.57   18.30
   3  -1  -3 1730.25   18.23
   3   1  -3 1699.15   18.31
  -3   1   3 1807.81   21.06
  -3  -1   3 1745.52   18.71
  -3  -1   3 1713.45   17.46
  -3   1   2  535.86    7.27
  -3   1   2  528.87    8.66
  -3  -1   2  518.49    8.28
   3  -1  -2  568.89    8.67
   3   1  -2  546.18    8.35
  -3   1   2  549.05    8.23
  -3  -1   2  536.53    6.83
   3  -1  -2  514.62    5.85
  -3   1   2  562.77    7.63
   3   1  -2  543.77    8.82
   3   1  -2  553.33    8.47
  -3  -1   2  526.03    6.89
  -3  -1   2  550.12    8.29
  -3  -1   2  540.78    8.34
  -3   1   2  564.98    8.50
  -3   1   2  554.55    6.19
   3   1  -2  521.83    8.26
   3  -1  -2  546.95    8.21
  -3   1   2  531.26    8.53
  -3   1   2  552.40    8.17
   3  -1  -2  548.17    7.51
  -3   1   2  572.52   13.61
   3  -1  -2  461.12   11.76
   3  -1  -2  536.99    8.74
   3  -1  -1 1119.27   11.58
  -3   1   1 1044.10   12.69
  -3   1   1 1058.84   11.28
   3  -1  -1 1110.41   12.01
   3   1  -1 1067.84   12.40
  -3   1   1 1125.09   12.98
   3   1  -1 1056.41    9.95
  -3   1   1 1079.59    9.61
  -3  -1   1 1072.17   12.40
  -3   1   1 1130.36   12.96
   3   1  -1 1090.24   12.72
   3  -1  -1 1115.32   13.01
  -3  -1   1 1087.32   12.61
   3  -1  -1 1057.72   12.52
  -3   1   1 1118.75   12.10
  -3  -1   1 1132.85   13.06
  -3   1   1 1052.46   11.66
  -3   1   1 1084.02   11.34
  -3  -1   1 1061.23   12.79
   3   1  -1 1055.53   12.69
   3  -1  -1  946.69   17.89
   3  -1  -1 1142.12   13.17
  -3   1   1 1068.27   12.09
  -3   1   1  970.13   18.46
   3   1   0 1139.41   12.88
   3  -1   0 1147.67   12.23
  -3   1   0 1121.42   12.10
   3   1   0 1127.34   10.57
  -3   1   0 1037.58   18.84
  -3   1   0 1126.76   12.17
  -3  -1   0 1146.23   12.94
  -3  -1   0 1117.40   11.11
   3   1   0 1103.45   11.30
  -3   1   0 1212.81   12.93
  -3  -1   0 1141.02   13.30
   3   1   0 1119.40   13.22
  -3   1   0 1167.68   13.61
  -3  -1   0 1033.52    9.08
   3   1   0 1127.49   12.34
   3  -1   0 1141.41   12.46
  -3  -1   0 1083.31   12.44
  -3   1   0 1170.93   12.32
   3  -1   0 1187.92   12.43
   3  -1   0 1236.27   20.55
  -3   1   0 1126.81   13.08
   3  -1   0 1213.84   13.42
  -3  -1   0 1152.28   13.52
   3   1   0 1140.13   13.60
   3  -1   0 1136.22   12.14
   3   1   0 1124.20   10.54
  -3   1   0 1179.95   11.91
  -3   1   0 1133.07   13.00
  -3   1   0 1193.05   13.21
   3  -1   1  469.80    7.58
  -3  -1  -1  476.47    7.99
  -3   1  -1  483.63    7.79
  -3  -1  -1  450.75    7.01
  -3   1  -1  486.82   11.99
   3  -1   1  532.65   12.21
   3  -1   1  475.43    7.21
  -3  -1  -1  449.37    7.96
  -3   1  -1  482.26    8.42
   3   1   1  455.10    7.71
  -3  -1  -1  457.43    7.16
   3  -1   1  488.47    8.13
   3   1   1  463.39    8.19
   3  -1   1  477.33    7.64
  -3   1  -1  480.40    7.74
  -3   1  -1  470.17    7.13
   3   1   1  445.18    6.73
   3  -1   1  489.63    8.50
  -3   1  -1  477.36    6.75
  -3  -1  -1  464.86    8.08
   3   1   1  458.56    8.06
  -3   1  -1  468.47    6.27
   3   1   1  452.41    7.84
   3  -1   1  458.70    6.42
  -3   1  -1  467.09    8.13
   3   1   2  622.29   11.88
   3  -1   2  613.73    9.91
  -3  -1  -2  566.67    9.89
   3  -1   2  608.22    9.89
  -3   1  -2  629.85   10.43
   3  -1   2  624.61   12.34
  -3  -1  -2  599.10    8.41
  -3  -1  -2  622.72   10.35
  -3   1  -2  597.05   10.76
  -3  -1  -2  612.17   11.04
  -3   1  -2  656.78   13.44
   3  -1   2  626.17    9.21
   3  -1   2  594.24   10.44
  -3   1  -2  661.05   13.70
  -3   1  -2  629.78    9.25
  -3   1  -2  612.40   10.21
   3   1   2  557.90    6.00
   3   1   2  588.11    9.62
  -3   1  -2  584.96    7.48
  -3  -1  -2  595.52    9.92
  -3   1  -2  590.65    7.57
   3   1   2  623.42   10.51
  -3   1  -2  592.20   10.43
   3   1   2  598.13   10.04
   3  -1   2  591.34    7.57
  -3  -1  -2  583.01    9.65
  -3   1  -3  560.76   12.29
  -3   1  -3  492.89   12.48
   3  -1   3  502.26   10.15
   3  -1   3  482.41   10.12
   3   1   3  456.46   11.93
   3  -1   3  488.68    7.21
  -3  -1  -3  545.98   11.71
  -3  -1  -3  517.67   10.88
   3   1   3  479.36   11.29
  -3  -1  -3  514.36    8.16
  -3   1  -3  559.99   14.10
   3   1   3  482.51   10.01
   3   1   3  480.74    6.71
   3  -1   3  515.17   11.07
   3   1   3  518.55   10.15
  -3  -1  -3  468.86    9.28
   3  -1   3  486.33    8.68
  -3   1  -4   34.29    3.69
   3  -1   4   38.45    3.33
  -3  -1  -4   35.62    3.08
   3   1   4   30.45    3.22
  -3   1  -4   41.03    3.23
   3  -1   4   41.74    3.64
   3   1   4   32.62    2.59
  -3  -1  -4   39.70    2.42
   3   1   4   37.94    3.04
   3   1   4   32.79    2.16
  -3   1  -4   36.66    2.49
   3  -1   4   33.11    2.47
   3  -1   4   36.25    1.94
   3  -1   4   32.99    1.96
   3   1   4   38.16    3.20
   3  -1   4   36.62    2.67
  -3   1  -5  177.02    8.39
   3  -1   5  188.12    8.12
   3  -1   5  193.95    5.57
  -3   1  -5  209.30    6.55
   3   1   5  183.35    8.64
  -3  -1  -5  212.09    8.28
   3  -1   5  193.59    9.05
   3   1   5  172.60    5.26
   3   1   5  214.44    8.59
  -3  -1  -5  203.58    6.02
   3   1   5  182.22    6.26
   3  -1   5  203.62    7.14
   3  -1   5  192.98    5.41
   3  -1   5  216.19    5.36
  -3  -1  -6   38.62    4.21
   3  -1   6   34.49    4.23
  -3  -1  -6   39.08    4.08
   3  -1   6   39.32    4.24
  -3  -1  -6   36.46    2.78
   3   1   6   35.02    3.46
   3  -1   6   43.77    4.00
   3   1   6   41.80    2.27
  -3   1  -6   47.42    3.71
   3  -1   6   43.19    2.96
   3   1   6   44.00    4.44
   3   1   6   49.95    4.83
  -3   1  -6   34.49    4.08
   3   1   7    8.12    2.49
   3  -1   7   11.21    3.26
  -3  -1  -7    6.93    1.51
  -3  -1  -7    4.21    1.76
   3  -1   7    7.81    2.35
  -3   1  -7    6.99    2.31
  -3  -1  -7    3.76    1.82
  -3   1  -7    6.11    1.72
   3   1   7    8.90    2.30
   3  -1   7    7.09    2.37
   3   1   7    9.87    2.48
   3   1   8    1.23    1.97
   3   1   8   -0.24    1.64
  -3   1  -8   -5.56    2.44
  -3  -1  -8    0.20    1.54
   3  -1   8    4.66    2.77
   3  -1   8    0.90    1.88
  -3  -1  -8   -0.71    1.60
   3  -1   8    1.04    1.80
   3   1   9    3.30    2.10
   3   1   9    0.55    1.79
   3  -1   9    4.20    2.24
  -3  -1  -9    3.04    2.19
   3  -1   9    2.72    2.12
  -3   1  -9   -0.26    1.67
  -3  -1  -9   -0.74    1.64
   3  -1   9    5.76    3.01
  -3  -1 -10   -3.20    2.12
  -3   2  12    5.73    2.17
   3  -2 -12    3.79    1.80
   3   2 -12    6.43    2.33
  -3  -2  11   10.93    2.89
  -3   2  11   10.46    2.42
   3   2 -11   11.65    2.73
   3   2 -11   11.73    3.21
   3  -2 -11    9.54    2.57
   3  -2 -11    5.92    2.13
  -3  -2  11    4.29    2.24
   3  -2 -11    7.20    2.34
  -3   2  11    9.47    2.39
   3   2 -10    5.35    2.26
  -3  -2  10    5.29    2.27
  -3   2  10    4.34    1.71
   3  -2 -10    4.71    1.98
   3  -2 -10    8.01    2.35
   3  -2 -10    7.47    2.47
  -3  -2  10    8.53    2.25
  -3  -2  10    8.60    3.18
  -3   2  10    5.38    1.89
   3  -2  -9   28.30    3.65
  -3  -2   9   32.70    4.60
   3   2  -9   35.87    4.41
  -3   2   9   25.72    3.16
   3  -2  -9   25.65    3.52
  -3  -2   9   22.46    4.04
  -3   2   9   28.86    4.04
   3  -2  -9   30.41    4.27
  -3  -2   9   26.71    3.31
  -3   2   9   24.92    3.38
   3  -2  -8  321.50   11.67
  -3  -2   8  294.00   11.77
   3   2  -8  339.95    8.74
  -3   2   8  285.29   11.56
  -3   2   8  292.51    9.79
  -3  -2   8  306.91   13.01
   3  -2  -8  315.45   10.43
   3  -2  -8  284.00    5.89
   3   2  -8  299.97    7.13
   3  -2  -8  297.58   12.07
   3   2  -8  306.80   11.25
  -3  -2   8  288.05    9.79
   3   2  -7    6.62    1.58
   3  -2  -7    3.34    0.55
  -3  -2   7    2.83    1.58
  -3   2   7    5.10    1.23
  -3   2   7    1.79    1.61
  -3   2   7    3.70    1.38
  -3  -2   7    5.04    1.05
   3   2  -7    3.82    1.72
   3  -2  -7    4.25    1.10
  -3  -2   7    6.97    1.72
   3  -2  -7    5.04    1.80
   3   2  -7    5.65    0.97
  -3  -2   7    7.66    2.37
   3   2  -7    6.94    2.01
   3  -2  -7    6.03    1.90
   3  -2  -7    5.58    1.46
   3  -2  -6  252.17    9.65
  -3  -2   6  288.03    6.33
  -3  -2   6  254.22    8.56
  -3   2   6  247.90    7.67
  -3   2   6  282.74    9.30
  -3  -2   6  295.48    9.77
  -3  -2   6  238.70    8.34
  -3   2   6  288.49    9.46
   3   2  -6  293.75    5.19
   3  -2  -6  283.34    7.04
   3  -2  -6  332.12    8.13
   3   2  -6  299.22    9.19
   3  -2  -6  281.21    9.27
   3   2  -6  281.04    8.46
  -3  -2   6  291.13    8.26
   3   2  -6  289.20    9.75
  -3  -2   5  246.35    5.39
   3  -2  -5  221.03    8.34
  -3   2   5  220.37    7.42
  -3  -2   5  244.09    6.88
   3  -2  -5  243.66    8.21
  -3   2   5  249.85    7.26
   3  -2  -5  239.96    6.63
   3   2  -5  239.83    7.72
   3  -2  -5  232.00    5.37
  -3  -2   5  234.28    6.69
   3   2  -5  221.27    3.73
   3   2  -5  246.05    7.41
   3  -2  -5  230.87    7.40
  -3   2   5  229.22    7.33
  -3  -2   5  248.44    6.77
   3   2  -5  234.90    6.23
   3  -2  -5  253.89    6.30
   3   2  -5  229.78    6.34
   3   2  -4  533.99    8.11
   3  -2  -4  558.48    9.08
   3  -2  -4  592.05   12.46
  -3  -2   4  542.52    8.31
  -3   2   4  563.99   12.17
   3  -2  -4  603.15   13.90
   3  -2  -4  571.47   10.31
  -3   2   4  556.60   10.22
  -3   2   4  547.68    8.57
  -3  -2   4  540.74    8.30
  -3   2   4  551.00   12.56
  -3   2   4  558.55    9.31
   3   2  -4  572.01   10.53
   3  -2  -4  558.86   10.58
  -3   2   4  574.18   10.80
  -3  -2   4  537.89    6.19
   3  -2  -4  564.44    9.18
   3   2  -4  561.92   10.72
  -3  -2   4  572.90   10.45
  -3  -2   4  561.60    9.76
   3  -2  -4  583.57    8.11
   3   2  -4  523.50    9.35
  -3   2   4  555.99    9.37
  -3  -2   4  557.87    8.25
  -3   2   3  112.08    2.82
   3  -2  -3  127.75    3.60
   3  -2  -3  131.89    5.06
  -3  -2   3  121.04    2.72
  -3   2   3  123.05    4.95
  -3   2   3  125.64    3.65
   3  -2  -3  128.01    4.29
   3   2  -3  122.27    2.83
   3  -2  -3  130.73    3.22
   3  -2  -3  122.96    3.93
  -3   2   3  120.90    3.65
  -3  -2   3  119.03    2.75
  -3   2   3  133.22    4.52
   3   2  -3  123.85    4.27
   3   2  -3  122.88    4.31
  -3  -2   3  122.52    2.44
   3  -2  -3  126.19    4.42
  -3   2   3  132.33    4.55
  -3   2   3  126.85    3.18
  -3  -2   3  129.28    4.43
  -3  -2   3  122.86    4.08
   3   2  -3  125.86    4.01
  -3   2   3  142.63    6.74
  -3   2   3  128.18    4.31
   3  -2  -3  130.78    6.61
  -3  -2   2  206.93    2.97
  -3   2   2  221.99    5.11
   3  -2  -2  215.78    5.82
  -3   2   2  203.27    5.55
  -3   2   2  222.44    6.21
  -3   2   2  220.99    3.57
  -3   2   2  226.36    5.36
   3  -2  -2  200.00    8.47
  -3   2   2  252.43    9.71
  -3   2   2  213.59    4.31
   3  -2  -2  224.70    4.50
  -3  -2   2  217.76    3.45
  -3   2   2  223.69    5.17
  -3   2   2  227.49    4.35
  -3   2   2  243.07    5.72
   3   2  -2  222.28    5.62
   3   2  -2  218.19    4.65
   3  -2  -2  231.70    5.76
  -3  -2   2  231.31    5.76
  -3   2   2  230.55    5.77
  -3  -2   2  212.15    5.38
   3   2  -2  224.66    5.36
   3   2  -2  225.87    5.43
  -3  -2   2  233.79    5.60
  -3   2   2  234.53    6.40
   3  -2  -2  227.82    4.35
   3  -2  -1  296.84    5.93
  -3   2   1  290.65    5.82
  -3   2   1  292.63    6.56
  -3   2   1  286.38    8.17
  -3   2   1  281.97   10.24
  -3   2   1  286.00    5.11
   3   2  -1  281.80    5.19
  -3   2   1  302.78    4.76
  -3   2   1  296.57    6.04
  -3   2   1  302.24    6.36
  -3   2   1  302.28    6.13
  -3   2   1  278.81    5.66
   3  -2  -1  292.06    5.96
  -3  -2   1  298.43    5.97
  -3  -2   1  294.53    6.49
   3   2  -1  292.89    5.92
  -3   2   1  304.65    6.45
   3  -2  -1  280.87   10.14
   3  -2  -1  309.24    5.63
  -3  -2   1  288.86    6.44
  -3   2   1  302.10    5.24
   3   2  -1  288.40    6.32
   3  -2  -1  315.95    6.60
   3  -2  -1  305.64    4.57
   3  -2  -1  289.96    6.20
   3  -2   0  470.59    7.84
  -3   2   0  467.72    8.06
  -3   2   0  485.20    7.59
  -3   2   0  531.35   12.78
  -3   2   0  474.66    7.85
   3   2   0  479.27    7.74
  -3   2   0  459.37   13.08
   3   2   0  466.02    7.40
   3  -2   0  493.13    7.11
  -3  -2   0  453.08    7.13
  -3  -2   0  456.22    7.67
   3   2   0  464.43    7.33
   3  -2   0  541.91   14.43
  -3  -2   0  476.77    8.61
   3  -2   0  488.66    8.10
  -3   2   0  509.96    8.46
  -3   2   0  491.10    8.34
   3  -2   0  479.95    8.08
  -3  -2   0  456.90    7.45
  -3  -2   0  466.42    8.71
  -3   2   0  471.11    7.87
   3   2   0  451.17    8.49
  -3  -2   0  479.02    8.25
  -3   2   0  491.23    6.86
  -3   2   0  499.16    7.99
  -3   2   0  500.10    8.26
   3  -2   1    7.38    1.24
  -3   2  -1    6.38    1.01
   3   2   1    5.92    1.08
   3   2   1    6.97    1.03
  -3   2  -1    6.77    1.10
  -3  -2  -1    5.98    1.04
   3   2   1    7.08    1.02
  -3  -2  -1    6.78    0.98
  -3   2  -1    6.50    0.93
  -3   2  -1    7.65    2.27
  -3  -2  -1    8.54    1.58
   3  -2   1    6.42    1.11
  -3   2  -1    5.45    1.07
  -3   2  -1    6.62    1.06
   3  -2   1    6.46    1.08
   3   2   1    6.20    0.75
   3  -2   1    6.04    0.96
  -3   2  -1    5.67    0.94
  -3  -2  -1    5.78    0.71
  -3   2  -1    6.50    1.05
  -3   2  -1    5.55    0.93
  -3   2  -1    7.13    0.65
  -3  -2  -1    6.14    0.92
  -3  -2  -1    6.31    1.21
   3   2   1    6.64    1.18
  -3   2  -1    9.52    2.01
   3  -2   1    6.70    1.79
   3   2   2   46.22    2.71
  -3   2  -2   50.94    4.48
   3  -2   2   48.75    2.84
  -3   2  -2   48.67    2.84
  -3  -2  -2   46.23    2.50
  -3   2  -2   53.73    4.10
   3  -2   2   49.29    3.73
  -3  -2  -2   47.31    3.41
   3  -2   2   52.75    2.91
  -3  -2  -2   45.34    2.68
   3  -2   2   50.95    2.99
  -3   2  -2   48.82    2.85
  -3   2  -2   50.99    2.73
   3  -2   2   45.02    2.61
  -3  -2  -2   45.04    2.59
  -3   2  -2   46.81    2.58
  -3  -2  -2   42.07    1.45
  -3   2  -2   47.60    2.37
  -3   2  -2   49.45    3.03
   3   2   2   49.29    2.52
  -3   2  -2   41.86    1.33
   3   2   2   49.85    3.09
  -3   2  -2   46.69    3.22
   3  -2   2   40.19    1.68
   3   2   2   46.19    2.77
  -3   2  -2   49.01    2.42
  -3  -2  -3   60.62    3.09
  -3   2  -3   65.58    5.20
   3  -2   3   65.15    3.46
   3  -2   3   62.28    3.54
  -3   2  -3   70.55    4.47
   3  -2   3   61.43    3.88
   3   2   3   67.32    3.96
  -3  -2  -3   58.34    4.14
   3  -2   3   65.86    4.04
   3   2   3   62.91    3.54
   3  -2   3   69.03    3.24
   3   2   3   61.43    3.13
  -3  -2  -3   74.12    2.76
   3   2   3   51.21    1.68
  -3   2  -3   67.24    3.70
  -3   2  -3   63.79    2.93
   3  -2   4   30.27    2.89
  -3   2  -4   29.25    2.77
  -3   2  -4   33.41    2.07
   3  -2   4   30.88    3.40
   3   2   4   34.53    3.03
   3  -2   4   34.99    2.60
  -3  -2  -4   36.90    2.04
  -3  -2  -4   38.64    3.86
   3  -2   4   33.15    2.81
   3   2   4   36.49    3.47
  -3   2  -4   31.61    3.82
   3  -2   5  298.12    9.98
  -3   2  -5  311.51    7.14
   3   2   5  319.64    9.99
  -3  -2  -5  297.03   11.06
  -3   2  -5  280.25    8.32
  -3  -2  -5  280.42    5.68
   3  -2   5  290.71    9.05
   3  -2   5  329.90    8.77
   3   2   5  261.59    8.24
   3   2   5  282.43   11.20
   3  -2   5  272.64   10.87
  -3   2  -5  291.02   10.90
   3  -2   6  120.88    7.25
  -3   2  -6  122.78    5.22
   3  -2   6  104.64    6.92
  -3  -2  -6   84.66    2.99
   3  -2   6  115.05    6.50
   3   2   6  102.84    7.17
  -3  -2  -6  118.17    7.68
   3   2   6  107.31    4.70
   3  -2   6  116.88    3.04
  -3   2  -6  106.86    6.77
   3   2   6  130.56    7.31
  -3  -2  -7   56.97    5.00
   3  -2   7   59.66    5.95
   3  -2   7   59.27    5.46
   3  -2   7   50.40    5.00
  -3  -2  -7   55.44    5.55
   3   2   7   59.54    5.54
   3   2   7   58.16    5.88
  -3   2  -7   51.43    4.78
  -3  -2  -8   51.12    5.11
   3  -2   8   59.35    6.56
  -3  -2  -8   58.41    5.81
   3   2   8   63.44    5.99
   3   2   8   65.77    6.41
   3  -2   8   65.73    6.01
   3  -2   8   53.94    5.84
  -3   2  -8   63.59    5.56
  -3   2  -9   17.56    3.26
   3  -2   9   15.81    3.51
   3  -2   9   17.02    4.52
   3   2   9   16.41    3.29
  -3  -2  -9    7.23    2.20
  -3  -2  -9   16.20    3.20
   3  -2   9   13.14    3.13
   3   2   9   15.29    3.48
  -3  -3  11   21.91    4.40
   3   3 -11   26.31    4.12
   3  -3 -11   19.66    3.41
  -3   3  11   23.30    4.55
   3  -3 -11   21.44    3.77
  -3   3  11   19.47    3.29
   3   3 -10    6.19    3.00
   3  -3 -10    6.81    2.44
  -3  -3  10    5.80    2.69
   3   3 -10    7.91    2.94
  -3  -3  10    5.73    2.55
  -3   3  10    9.18    2.28
   3  -3 -10    2.41    1.84
  -3   3  10    5.17    2.44
   3  -3  -9   23.66    3.67
  -3  -3   9   21.29    3.87
  -3   3   9   25.41    3.00
  -3   3   9   18.23    3.34
   3   3  -9   23.29    4.30
   3  -3  -9   23.60    2.99
  -3  -3   9   15.33    3.52
   3  -3  -9   24.04    4.12
  -3  -3   9   18.03    2.73
   3   3  -9   26.09    4.03
   3  -3  -8   11.92    1.92
  -3   3   8   12.64    2.09
  -3  -3   8   12.24    3.09
  -3   3   8    7.04    1.93
   3  -3  -8   13.43    2.86
   3   3  -8    5.60    2.11
   3   3  -8   10.49    2.58
  -3  -3   8   14.57    3.02
   3  -3  -8   11.36    2.89
  -3  -3   8   10.93    2.18
  -3  -3   7   32.96    3.55
  -3  -3   7   23.48    1.71
   3   3  -7   25.58    3.46
  -3   3   7   26.26    3.39
  -3  -3   7   27.06    3.78
  -3   3   7   24.31    2.50
   3  -3  -7   26.59    3.99
   3  -3  -7   22.78    2.19
   3  -3  -7   24.35    2.10
   3   3  -7   20.55    3.22
  -3  -3   7   29.32    2.93
   3  -3  -7   23.32    3.32
  -3  -3   6   11.41    1.11
  -3  -3   6   12.45    1.80
  -3   3   6   15.62    2.36
   3   3  -6    8.80    1.43
  -3   3   6   10.68    1.59
   3   3  -6   11.81    1.75
   3  -3  -6   10.04    1.19
   3   3  -6    7.48    1.90
  -3  -3   6   13.55    2.69
   3  -3  -6    9.61    2.46
   3  -3  -6    7.98    1.84
  -3  -3   6    9.46    1.70
   3   3  -6   12.56    2.32
  -3  -3   5   64.04    2.48
   3  -3  -5   57.23    4.72
  -3  -3   5   63.13    3.11
  -3  -3   5   58.39    3.01
  -3   3   5   59.02    2.71
  -3   3   5   62.74    3.53
  -3   3   5   57.49    2.86
   3   3  -5   60.90    2.95
   3  -3  -5   66.08    2.37
   3   3  -5   67.45    4.21
   3  -3  -5   64.90    4.24
  -3  -3   5   65.94    3.57
   3   3  -5   60.27    3.08
   3   3  -5   62.56    4.17
  -3  -3   4    3.78    0.90
  -3   3   4    2.52    0.56
   3  -3  -4    4.11    1.00
   3   3  -4    3.73    0.66
  -3   3   4    3.51    0.82
  -3  -3   4    3.10    0.86
   3   3  -4    2.70    1.12
   3  -3  -4    2.93    0.53
  -3   3   4    3.51    0.98
   3  -3  -4    3.63    1.21
   3   3  -4    2.54    1.12
  -3   3   4    2.86    1.01
  -3  -3   4    3.01    0.99
   3  -3  -4    2.21    1.43
   3   3  -4    3.41    0.87
   3  -3  -3  703.17   13.58
   3   3  -3  699.21   12.05
   3   3  -3  682.16    9.12
  -3   3   3  705.27   16.84
   3  -3  -3  693.80   17.55
  -3  -3   3  686.64    8.60
  -3   3   3  688.48   10.41
   3   3  -3  646.15    6.56
   3  -3  -3  726.75   11.40
  -3   3   3  719.05   11.44
  -3  -3   3  611.99    6.26
  -3   3   3  671.20    9.82
  -3  -3   3  682.01   11.67
   3   3  -3  690.73    9.07
   3  -3  -3  738.00   10.88
   3   3  -3  684.09   11.25
   3  -3  -3  697.38   11.94
  -3   3   3  677.28    7.69
  -3  -3   3  677.01   11.10
   3   3  -3  667.81   10.72
   3  -3  -3  701.21    7.81
   3  -3  -2  303.87    7.25
  -3   3   2  304.06    6.93
   3  -3  -2  305.19    7.72
   3   3  -2  287.91    4.81
  -3   3   2  315.81    9.12
  -3   3   2  311.35    6.69
  -3   3   2  348.19   12.89
   3  -3  -2  284.80   11.47
  -3   3   2  307.89    6.84
  -3   3   2  313.85    6.53
   3   3  -2  305.08    7.38
  -3   3   2  308.30    5.00
   3  -3  -2  301.83    6.41
   3   3  -2  296.97    4.83
   3   3  -2  310.17    6.80
  -3  -3   2  302.53    7.55
  -3  -3   2  280.33    6.07
   3  -3  -2  300.33    5.15
  -3  -3   2  305.68    8.03
  -3  -3   2  315.92    7.69
  -3   3   2  317.28    7.54
  -3  -3   2  292.31    7.09
   3   3  -2  300.09    6.90
  -3   3   2  311.74    5.77
   3   3  -2  296.67    6.65
  -3  -3   2  304.69    4.94
   3  -3  -1  547.93    9.50
   3  -3  -1  547.73    9.65
  -3   3   1  563.53    9.70
   3   3  -1  538.28    6.86
  -3   3   1  532.19    7.59
   3   3  -1  543.97    8.98
  -3   3   1  587.27   11.69
  -3   3   1  524.71   16.09
  -3   3   1  503.87    8.77
  -3  -3   1  552.40   11.04
   3  -3  -1  556.56    6.17
  -3   3   1  581.28    9.18
   3   3  -1  544.42    8.88
   3   3  -1  559.16    6.98
  -3  -3   1  520.59    7.44
  -3   3   1  548.24    9.63
   3   3  -1  572.16   10.25
   3  -3  -1  567.67    9.84
   3  -3  -1  585.98   10.20
  -3   3   1  596.91   10.80
  -3  -3   1  558.59   10.31
  -3  -3   1  541.88    9.98
  -3   3   1  556.08    9.90
  -3   3   1  571.59    9.98
  -3  -3   1  523.23   10.03
  -3  -3   1  562.54    9.37
  -3   3   1  538.24    9.04
   3   3  -1  548.17    9.91
   3  -3  -1  519.92   15.90
  -3   3   1  593.44   11.08
   3   3   0  623.92    8.01
   3  -3   0  676.07   10.83
  -3   3   0  686.50   10.96
  -3   3   0  696.12   12.02
   3   3   0  666.37    9.71
  -3   3   0  631.24   17.27
   3  -3   0  758.17   19.40
  -3  -3   0  645.82   12.79
   3  -3   0  703.20    8.68
  -3  -3   0  646.22   10.19
  -3   3   0  692.46   13.13
   3   3   0  648.96   10.34
  -3   3   0  685.74   10.19
   3  -3   0  680.86   10.75
   3   3   0  615.43    9.52
  -3   3   0  676.56   10.98
  -3  -3   0  638.17    7.30
   3  -3   0  687.39   11.04
  -3  -3   0  669.75   11.38
  -3   3   0  685.42   10.82
  -3  -3   0  644.83   10.23
  -3  -3   0  667.72   11.95
   3   3   0  644.64   11.36
  -3  -3   0  651.57   10.47
  -3   3   0  707.74   10.16
  -3   3   0  643.96    8.83
  -3  -3   0  669.88    9.93
  -3   3   0  650.55   14.03
  -3   3   0  698.70   11.63
   3  -3   0  670.51   10.24
   3  -3   1  292.83    7.07
  -3   3  -1  286.74    7.03
  -3   3  -1  304.98    9.79
   3   3   1  293.20    6.94
   3  -3   1  297.18    6.40
  -3  -3  -1  291.87    6.97
  -3  -3  -1  286.49    7.19
   3   3   1  274.33    5.28
  -3  -3  -1  283.68    6.11
  -3   3  -1  287.61    6.99
  -3   3  -1  287.26    6.64
  -3  -3  -1  275.55    5.88
  -3   3  -1  298.05    7.17
  -3   3  -1  298.42    7.04
  -3  -3  -1  279.68    7.78
  -3  -3  -1  274.93    8.70
   3  -3   1  303.32    7.30
  -3   3  -1  302.72   11.30
  -3   3  -1  306.26    4.64
  -3  -3  -1  276.80    6.66
   3   3   1  300.18    6.25
  -3   3  -1  277.87   10.00
   3  -3   2  438.69    9.37
  -3   3  -2  423.72    8.25
   3   3   2  425.00    8.95
   3   3   2  419.28    9.04
  -3   3  -2  446.23   13.06
  -3  -3  -2  422.93    7.89
  -3  -3  -2  421.43   11.56
   3  -3   2  444.63    9.56
   3   3   2  396.35    5.79
   3  -3   2  427.58    9.15
  -3   3  -2  423.78    9.04
  -3   3  -2  428.92    8.50
  -3  -3  -2  394.98    6.66
  -3   3  -2  420.46    8.71
   3   3   2  427.11    7.84
  -3   3  -2  471.73   14.15
  -3   3  -3  327.50    6.90
   3  -3   3  351.53    8.83
  -3  -3  -3  332.13    7.20
   3  -3   3  371.87   10.43
  -3  -3  -3  348.62   11.33
   3   3   3  329.88    8.63
   3   3   3  336.73    8.30
  -3   3  -3  357.53    8.94
   3  -3   3  374.42    9.26
   3   3   3  337.07    7.36
  -3   3  -3  353.68    8.08
  -3   3  -3  356.54    8.16
  -3   3  -3  411.55   13.77
  -3   3  -4   21.53    1.72
   3  -3   4   25.20    2.77
   3   3   4   29.49    3.07
  -3   3  -4   26.81    1.59
  -3   3  -4   24.71    2.69
  -3   3  -4   25.74    3.80
  -3  -3  -4   27.38    3.84
   3   3   4   21.37    1.15
   3  -3   4   22.18    2.62
   3  -3   4   30.02    3.80
   3   3   4   26.46    2.58
   3  -3   5  126.48    6.51
  -3  -3  -5  119.66    7.87
  -3   3  -5  128.22    3.75
   3  -3   5  117.43    7.33
   3  -3   5  126.49    6.36
   3   3   5  119.59    5.95
  -3   3  -5  129.94    7.61
   3   3   5  135.05    7.32
   3  -3   6   29.04    3.58
  -3  -3  -6   24.45    4.08
   3   3   6   29.16    3.36
  -3   3  -6   27.24    3.62
   3   3   6   28.75    4.17
   3  -3   6   28.31    3.46
   3  -3   6   30.64    4.07
   3  -3   7    5.58    1.99
   3   3   7    0.67    2.56
   3   3   7    4.71    1.62
  -3   3  -7    8.80    2.44
  -3  -3  -7    1.92    1.71
  -3  -3  -7   11.10    2.45
   3  -3   7    9.52    2.77
   3  -3   7    1.94    2.14
   3  -3   8   -0.05    2.46
   3  -3   8    1.50    1.83
   3   3   8   -0.30    1.81
  -3   3  -8    2.32    1.79
   3   3   8   -3.75    2.97
  -3  -3  -8   -0.09    1.63
  -3  -3  -8    1.09    1.52
   3  -3   8   -6.02    3.16
  -3  -3  -8   -1.45    2.17
  -3  -3  -9   -3.28    2.27
   3  -3   9    1.07    2.48
   3   3   9   -1.52    2.28
  -3  -4  11   -0.36    3.04
   3   4 -10    7.90    3.34
  -3  -4  10    0.73    2.64
  -3   4  10    0.04    2.65
   3  -4 -10    3.96    2.03
  -3  -4  10   -2.75    2.76
  -3  -4  10    4.39    2.59
   3  -4 -10    6.06    2.71
   3   4 -10    9.63    3.31
  -3  -4   9   12.10    2.71
   3   4  -9   12.53    3.10
  -3  -4   9   19.39    4.40
  -3   4   9   14.44    3.31
  -3  -4   9   14.43    3.45
   3   4  -9   13.49    3.66
   3  -4  -9   15.97    3.64
   3  -4  -9   16.02    3.46
   3  -4  -8  161.61    9.37
  -3  -4   8  158.94    7.73
  -3   4   8  155.95    8.55
  -3  -4   8  148.79    9.74
  -3  -4   8  138.82    9.39
   3   4  -8  151.16    8.92
   3  -4  -8  147.92    9.68
  -3  -4   8  157.49    7.04
   3   4  -8  135.33    8.98
  -3  -4   7    1.09    1.39
   3   4  -7    2.18    1.98
  -3   4   7   -0.22    1.10
  -3   4   7    6.45    2.02
   3   4  -7   -0.57    1.73
  -3  -4   7    0.55    2.28
  -3  -4   7    3.19    2.15
   3  -4  -7    4.10    2.02
   3  -4  -7   -0.62    1.62
  -3  -4   7    2.74    1.47
  -3  -4   6  146.55    5.58
  -3  -4   6  141.62    3.35
   3  -4  -6  146.98    9.11
  -3   4   6  133.93    6.03
  -3  -4   6  163.46    8.03
  -3   4   6  165.80    4.58
   3   4  -6  140.57    5.09
  -3  -4   6  145.46    7.77
   3   4  -6  164.65    7.85
   3  -4  -6  150.06    7.80
  -3  -4   6  154.71    6.11
   3   4  -6  144.06    7.41
  -3  -4   6  144.65    4.63
  -3  -4   5  119.60    4.49
   3  -4  -5  123.50    7.60
   3   4  -5  119.47    3.57
  -3   4   5  117.05    3.90
  -3   4   5  116.50    5.10
  -3  -4   5  111.94    4.73
  -3  -4   5  127.88    6.41
   3   4  -5  131.81    6.34
   3  -4  -5  120.32    6.32
  -3  -4   5  126.59    5.24
   3   4  -5  122.06    6.00
  -3  -4   5  121.46    3.35
  -3  -4   4  222.56    5.62
   3  -4  -4  227.48    9.29
   3   4  -4  218.20    6.06
  -3  -4   4  195.63    6.64
  -3   4   4  215.79    6.64
  -3   4   4  217.84    6.95
  -3   4   4  214.13    7.70
  -3  -4   4  217.24    7.23
   3   4  -4  219.68    5.97
   3   4  -4  194.44    3.24
   3   4  -4  221.40    7.59
   3  -4  -4  216.37    7.49
   3   4  -4  210.67    7.03
  -3  -4   4  219.09    6.75
  -3   4   4  206.17    5.20
   3  -4  -3   80.44    4.29
   3  -4  -3   82.15    5.00
   3   4  -3   81.56    3.20
  -3  -4   3   74.85    4.32
  -3   4   3   83.67    3.96
  -3   4   3   81.86    3.98
   3   4  -3   80.00    3.88
  -3  -4   3   83.69    3.23
   3   4  -3   82.04    3.20
  -3  -4   3   79.52    3.88
   3   4  -3   88.03    4.48
  -3   4   3   83.52    4.59
  -3   4   3   75.53    2.10
  -3  -4   3   69.96    1.61
   3   4  -3   83.42    4.15
  -3  -4   3   81.30    4.02
  -3   4   3   84.53    3.46
   3  -4  -2  134.71    5.59
   3   4  -2  119.96    3.60
   3   4  -2  122.79    3.63
   3   4  -2  129.68    4.60
  -3   4   2  126.04    2.89
  -3   4   2  128.43    4.88
  -3   4   2  133.76    4.77
   3  -4  -2  131.88    5.13
  -3  -4   2  124.96    4.25
  -3   4   2  124.58    4.61
   3   4  -2  130.71    5.25
  -3   4   2  138.07    5.84
   3   4  -2  121.30    4.82
  -3  -4   2  121.55    5.04
  -3   4   2  125.50    3.66
  -3  -4   2  125.98    3.85
  -3  -4   2  124.08    5.83
  -3   4   1   86.23    3.88
  -3   4   1   86.85    2.81
   3  -4  -1   87.85    4.05
   3   4  -1   83.32    2.95
  -3   4   1   89.17    5.67
  -3  -4   1   83.82    4.99
  -3   4   1   86.32    3.70
   3   4  -1   85.30    3.93
  -3  -4   1   88.55    3.24
  -3   4   1   90.29    4.59
   3  -4  -1   88.31    4.16
   3   4  -1   91.27    4.34
   3  -4  -1   92.50    4.19
  -3  -4   1   88.34    4.46
   3   4  -1   88.05    3.07
  -3   4   1   90.51    3.82
   3   4  -1   83.25    3.45
   3  -4  -1   85.71    3.96
   3  -4   0  146.31    4.77
   3  -4   0  140.91    5.16
   3   4   0  130.56    3.83
  -3   4   0  133.38    6.51
  -3   4   0  138.04    4.95
   3   4   0  135.21    5.01
  -3   4   0  137.85    4.69
  -3  -4   0  113.89    2.15
  -3  -4   0  133.44    6.62
  -3   4   0  141.52    5.31
  -3  -4   0  130.86    3.48
   3  -4   0  146.39    5.39
   3  -4   0  147.65    5.07
   3   4   0  135.74    4.17
  -3   4   0  148.05    5.85
  -3  -4   0  136.05    5.74
  -3  -4   0  141.03    4.53
  -3   4   0  148.73    4.48
  -3   4   0  159.65    6.25
  -3   4   0  137.73    4.36
  -3  -4   0  132.93    4.62
   3  -4   0  144.96    3.45
   3  -4   1    4.49    1.00
   3   4   1    3.87    0.95
   3  -4   1    5.60    1.50
  -3  -4  -1    4.12    0.85
  -3   4  -1    4.11    0.99
  -3  -4  -1    3.45    0.66
   3  -4   1    4.28    0.89
  -3   4  -1    3.05    1.79
   3   4   1    3.67    1.06
   3   4   1    4.68    0.90
  -3  -4  -1    2.71    1.56
   3   4   1    3.83    0.72
   3  -4   1    3.41    1.22
  -3   4  -1    4.88    1.41
  -3  -4  -1    3.04    0.89
  -3   4  -1    3.96    1.19
  -3   4  -1    5.59    1.46
  -3   4  -1    4.68    1.10
  -3   4  -1    5.15    0.77
  -3   4  -1    4.00    1.33
   3  -4   2   15.57    2.09
  -3   4  -2   17.19    2.60
   3   4   2   14.55    2.01
  -3   4  -2   13.48    2.69
   3   4   2   12.21    0.98
  -3  -4  -2   12.86    1.35
  -3  -4  -2   13.39    2.98
   3   4   2   11.52    1.02
  -3   4  -2   14.21    2.04
   3  -4   2   16.39    2.26
  -3   4  -2   13.81    1.64
  -3  -4  -2   10.69    1.30
  -3   4  -2   13.70    1.87
   3   4   2   11.90    1.35
   3  -4   2   16.14    1.93
  -3   4  -2   12.12    1.76
   3   4   3   37.26    3.06
   3  -4   3   40.50    3.29
  -3   4  -3   46.29    2.79
  -3  -4  -3   35.08    2.25
  -3  -4  -3   40.40    4.58
   3   4   3   38.92    2.93
   3  -4   3   45.56    4.01
   3   4   3   33.19    1.48
  -3   4  -3   41.68    3.41
   3  -4   3   39.79    3.37
   3   4   3   37.21    2.39
  -3   4  -3   38.91    3.08
  -3   4  -3   37.35    4.40
   3  -4   4   19.89    2.70
  -3  -4  -4   16.77    3.42
  -3  -4  -4   16.61    1.71
  -3   4  -4   13.77    0.89
   3   4   4   16.60    2.16
   3  -4   4   20.04    3.36
  -3   4  -4   19.60    3.68
   3   4   4   14.13    2.12
  -3   4  -4   19.79    2.60
   3  -4   4   18.94    2.66
   3  -4   5  183.40    8.10
  -3  -4  -5  170.04   10.39
   3  -4   5  166.86    9.03
   3   4   5  172.33    7.06
   3  -4   5  184.64    8.32
   3   4   5  173.92    8.10
   3  -4   6   61.84    5.33
   3   4   6   65.18    5.84
   3  -4   6   57.93    5.63
   3  -4   6   52.02    5.00
   3   4   6   59.74    4.68
  -3  -4  -6   58.55    5.67
  -3   4  -6   61.05    5.80
  -3  -4  -6   43.86    5.49
   3  -4   7   33.74    4.58
   3   4   7   34.64    4.20
   3   4   7   41.14    5.56
   3  -4   7   35.84    4.73
  -3  -4  -7   31.50    4.91
   3  -4   7   26.93    4.28
  -3   4  -7   39.83    4.85
  -3  -4  -7   31.45    4.28
  -3  -4  -8   28.11    4.66
   3  -4   8   33.96    4.58
   3   4   8   33.69    5.39
   3  -4   8   27.94    4.87
   3   4   8   36.82    4.71
   3   4   9    6.36    2.34
  -3  -5  10    4.32    2.90
  -3  -5   9   12.62    3.05
   3   5  -9    4.47    2.60
  -3  -5   9    8.95    2.84
   3  -5  -9    7.84    2.83
  -3   5   9   13.13    3.43
  -3  -5   9   11.25    3.83
   3   5  -9    1.47    2.26
  -3   5   9    9.08    2.82
   3  -5  -9    9.78    3.35
   3   5  -8    5.51    2.32
  -3  -5   8   11.93    2.70
   3   5  -8    5.78    2.75
   3  -5  -8   11.99    3.21
  -3   5   8   10.92    2.78
  -3  -5   8    9.20    3.14
  -3  -5   8    1.82    2.22
  -3   5   8    4.37    2.31
   3  -5  -8    8.32    3.10
  -3  -5   7   20.74    2.78
  -3  -5   7   17.61    3.50
   3   5  -7   15.26    3.28
   3  -5  -7   17.81    3.84
  -3   5   7   12.16    2.30
   3   5  -7    9.91    2.66
  -3  -5   7   15.06    3.45
  -3   5   7   15.20    3.15
   3  -5  -7   15.01    3.35
  -3  -5   7   15.74    2.38
  -3  -5   6    8.15    1.63
   3   5  -6    4.88    1.87
   3   5  -6    7.24    2.31
   3  -5  -6    3.88    2.52
  -3   5   6    6.93    1.79
  -3  -5   6   11.51    2.73
  -3   5   6    9.72    2.54
   3  -5  -6    7.27    2.22
  -3  -5   6    6.15    1.70
  -3  -5   6   12.93    2.78
  -3  -5   5   24.35    2.31
   3  -5  -5   16.16    3.23
  -3  -5   5   27.21    3.45
  -3   5   5   22.40    2.63
   3   5  -5   21.02    2.77
  -3  -5   5   25.22    2.40
  -3   5   5   26.66    2.00
  -3  -5   5   26.84    3.08
  -3   5   5   23.09    3.17
  -3  -5   5   23.35    2.63
   3   5  -5   23.36    3.08
   3  -5  -5   22.95    3.03
   3  -5  -4    1.15    1.89
  -3  -5   4    3.70    1.13
   3   5  -4    1.53    1.22
   3   5  -4    3.31    1.24
  -3   5   4    4.52    1.41
  -3   5   4    1.07    1.17
   3   5  -4    2.54    0.93
  -3  -5   4    6.62    2.04
  -3   5   4    2.88    0.89
  -3  -5   4    4.84    1.59
  -3   5   4    2.75    1.56
   3   5  -4    3.40    1.39
   3  -5  -4    5.05    1.65
  -3  -5   4    4.09    1.43
  -3  -5   3  180.73    8.86
   3  -5  -3  202.30    8.50
   3   5  -3  181.09    5.44
  -3   5   3  203.95    7.04
   3   5  -3  200.67    7.23
  -3   5   3  197.09    5.81
  -3   5   3  193.78    6.53
   3   5  -3  199.98    7.38
   3   5  -3  189.36    5.51
  -3  -5   3  184.29    6.13
  -3   5   3  183.66    4.01
  -3   5   3  195.81    7.77
   3  -5  -3  201.45    7.24
   3   5  -3  191.24    6.36
  -3  -5   3  195.66    7.19
  -3  -5   3  205.03    5.87
   3  -5  -2  138.42    6.24
   3   5  -2  127.15    4.32
  -3  -5   2  130.52    7.60
  -3   5   2  139.29    5.66
   3   5  -2  136.28    5.73
   3   5  -2  135.46    4.43
  -3   5   2  135.52    5.25
   3   5  -2  132.66    4.95
   3  -5  -2  140.24    5.73
  -3  -5   2  140.36    5.07
   3   5  -2  139.37    5.97
  -3   5   2  138.80    6.33
  -3   5   2  137.02    4.29
  -3  -5   2  136.40    3.86
  -3  -5   2  129.74    5.93
  -3   5   1  203.76    4.44
   3  -5  -1  211.02    6.89
   3   5  -1  198.89    5.42
   3  -5  -1  248.20    9.87
  -3   5   1  213.43    6.38
  -3   5   1  222.07    7.39
   3   5  -1  207.04    5.78
   3  -5  -1  222.68    7.02
   3   5  -1  199.56    5.39
   3   5  -1  202.32    6.84
  -3  -5   1  202.22    5.51
   3  -5  -1  225.41    7.32
   3   5  -1  219.78    7.37
  -3   5   1  230.21    8.23
  -3  -5   1  206.23    6.17
  -3   5   1  208.82    6.08
  -3   5   1  210.82    6.86
  -3  -5   1  202.04    9.70
   3  -5   0  263.38    7.91
   3  -5   0  268.77    7.11
   3   5   0  236.22    6.05
   3   5   0  251.94    5.95
   3   5   0  247.97    7.75
   3  -5   0  241.37    4.46
  -3   5   0  244.65    7.47
  -3  -5   0  254.32   11.14
  -3   5   0  271.14    8.18
  -3  -5   0  242.04    5.63
   3  -5   0  264.43    8.12
   3  -5   0  270.10    7.47
  -3   5   0  270.71    8.76
  -3   5   0  250.18    6.84
  -3  -5   0  265.74    8.73
  -3   5   0  268.96    7.99
  -3   5   0  265.49    6.23
   3  -5   1   97.02    4.99
  -3   5  -1  103.37    6.82
  -3  -5  -1  100.10    7.39
   3   5   1  102.14    5.10
   3  -5   1  103.44    3.81
  -3   5  -1   95.71    4.20
  -3  -5  -1   93.36    2.57
  -3   5  -1  101.97    5.21
   3  -5   1  103.05    5.14
  -3   5  -1  105.04    5.44
  -3   5  -1   97.42    3.35
  -3  -5  -1  109.70    6.87
  -3   5  -1   97.96    4.82
  -3   5  -1  112.84    6.01
  -3   5  -1   98.12    3.32
  -3  -5  -1   96.66    3.83
   3   5   1  105.47    3.77
   3  -5   1  103.03    4.06
  -3  -5  -2  180.32   10.32
   3  -5   2  193.93    7.18
   3   5   2  189.22    7.17
   3  -5   2  196.53    6.61
  -3   5  -2  199.57    7.37
  -3  -5  -2  178.29    4.84
   3  -5   2  197.22    7.51
  -3   5  -2  191.62    7.40
  -3  -5  -2  174.24    4.98
   3   5   2  183.92    5.02
  -3  -5  -2  156.45    8.70
  -3   5  -2  187.34    8.73
   3  -5   3  147.77    6.62
   3   5   3  152.48    6.73
   3  -5   3  167.94    7.50
  -3   5  -3  162.93    6.89
   3  -5   3  160.25    7.04
   3   5   3  143.78    4.63
  -3   5  -3  156.26    6.86
  -3   5  -3  140.45    8.32
  -3  -5  -3  144.54    9.73
   3  -5   4   11.86    2.42
  -3   5  -4   12.85    3.00
   3  -5   4   14.22    3.04
   3   5   4    8.31    1.80
  -3  -5  -4    8.10    2.70
  -3   5  -4   11.89    2.44
   3  -5   4    8.81    2.32
  -3  -5  -4    8.72    2.61
   3   5   5   47.58    4.39
   3  -5   5   54.61    4.68
   3  -5   5   53.37    5.71
   3   5   5   53.44    4.01
  -3   5  -5   56.03    4.72
  -3  -5  -5   48.50    6.02
   3  -5   5   53.01    4.77
  -3  -5  -5   52.44    5.42
  -3   5  -5   59.46    6.40
   3  -5   6   19.16    3.58
  -3   5  -6   17.08    3.96
   3  -5   6   18.57    3.72
   3   5   6   19.68    3.47
  -3  -5  -6   13.50    3.58
   3   5   6   16.61    2.65
   3  -5   6   11.53    3.00
  -3  -5  -6   15.67    3.31
   3  -5   7    7.14    3.01
   3  -5   7    4.35    2.62
  -3   5  -7    3.19    2.20
   3   5   7    4.74    2.10
   3   5   7    4.44    2.72
  -3  -5  -7    4.28    2.54
  -3  -5  -7    1.68    1.88
   3  -5   7    5.66    2.48
  -3   6   9    5.07    2.71
  -3  -6   8   52.79    4.58
  -3  -6   8   49.23    6.27
  -3  -6   8   56.22    6.42
  -3   6   8   46.26    5.57
   3   6  -8   53.65    6.08
   3  -6  -8   53.69    6.64
  -3   6   8   57.96    5.54
   3   6  -8   44.02    5.63
   3   6  -7    0.34    1.71
  -3  -6   7    0.75    1.24
   3   6  -7   -0.68    2.03
   3  -6  -7    5.97    3.07
  -3   6   7   -0.54    1.44
  -3  -6   7    8.42    3.05
  -3   6   7    0.40    2.04
   3  -6  -7    1.31    2.07
  -3  -6   7    2.36    2.13
  -3  -6   6   53.16    3.81
   3  -6  -6   56.50    7.00
  -3   6   6   49.14    4.27
   3   6  -6   61.41    5.59
   3   6  -6   51.18    4.51
  -3  -6   6   61.49    5.30
  -3  -6   6   59.14    5.74
  -3   6   6   54.19    5.51
   3  -6  -6   55.87    5.48
   3   6  -6   51.42    4.83
  -3  -6   5   46.65    3.47
  -3  -6   5   51.62    4.91
  -3   6   5   46.69    4.10
   3   6  -5   46.74    4.16
   3  -6  -5   35.31    5.09
  -3  -6   5   44.18    3.90
   3   6  -5   46.71    3.59
   3   6  -5   51.57    4.71
  -3   6   5   50.55    4.92
   3   6  -5   43.87    3.98
   3  -6  -5   49.24    4.65
  -3  -6   5   48.41    4.13
  -3  -6   4   68.14    3.96
   3  -6  -4   63.67    5.85
   3   6  -4   68.84    4.86
  -3   6   4   63.97    4.36
  -3   6   4   68.68    3.48
  -3   6   4   75.10    4.97
   3   6  -4   64.35    3.87
  -3  -6   4   69.23    4.45
   3   6  -4   70.89    5.11
  -3   6   4   68.51    5.34
   3  -6  -4   66.14    4.82
  -3  -6   4   64.13    5.02
   3   6  -4   63.24    4.22
   3  -6  -3   32.00    3.83
   3   6  -3   31.67    3.34
  -3   6   3   33.55    2.65
  -3   6   3   33.46    3.07
   3   6  -3   29.57    2.56
   3   6  -3   32.92    2.85
  -3  -6   3   32.10    3.04
   3   6  -3   30.47    3.23
  -3   6   3   36.25    3.85
   3  -6  -3   30.48    3.07
  -3   6   3   29.25    3.10
  -3  -6   3   41.61    5.29
   3  -6  -2   50.25    4.16
  -3  -6   2   56.00    6.82
  -3   6   2   53.11    3.99
   3   6  -2   51.41    3.24
  -3   6   2   54.92    3.69
   3   6  -2   52.42    3.16
  -3  -6   2   48.19    3.27
   3   6  -2   54.31    4.09
   3  -6  -2   53.07    3.85
  -3   6   2   54.97    4.55
  -3   6   2   53.82    2.99
  -3  -6   2   52.33    2.49
   3   6  -2   52.16    3.98
   3  -6  -1   26.40    2.74
   3   6  -1   24.12    2.07
  -3   6   1   28.36    3.07
  -3   6   1   25.95    2.81
  -3   6   1   24.72    2.38
   3   6  -1   24.41    2.27
  -3  -6   1   20.49    4.47
  -3  -6   1   24.72    2.22
   3   6  -1   27.60    2.98
   3  -6  -1   26.76    2.71
   3  -6  -1   24.99    2.81
  -3   6   1   23.74    3.07
  -3   6   1   23.91    2.31
  -3  -6   1   26.51    2.24
   3   6  -1   24.19    2.78
   3  -6   0   46.17    3.19
   3   6   0   39.75    2.39
   3   6   0   40.40    3.56
  -3   6   0   40.09    3.43
  -3   6   0   45.17    3.16
  -3  -6   0   36.94    5.55
  -3   6   0   44.11    3.79
  -3  -6   0   38.69    2.56
   3  -6   0   45.40    3.78
   3  -6   0   45.85    3.34
  -3   6   0   42.00    3.99
  -3   6   0   42.45    3.30
  -3  -6   0   41.59    3.32
   3  -6   0   43.05    3.55
   3  -6   1    2.31    1.64
  -3   6  -1   -0.56    1.37
  -3   6  -1    2.28    1.02
   3   6   1    2.83    0.87
   3   6   1    2.80    1.38
   3  -6   1    2.04    0.94
  -3   6  -1    3.67    1.47
  -3   6  -1    0.82    1.44
   3  -6   1    1.88    1.35
  -3   6  -1    0.34    1.30
  -3  -6  -1   -1.09    2.64
  -3  -6  -1    0.39    1.34
   3  -6   1    1.54    0.76
   3  -6   2    2.06    1.66
   3   6   2    3.65    1.66
  -3   6  -2    3.48    1.41
  -3   6  -2    2.41    1.70
   3  -6   2    0.27    0.95
  -3   6  -2    2.62    1.17
  -3  -6  -2   -1.31    2.62
  -3   6  -2    5.74    1.97
   3  -6   2    2.06    1.37
  -3   6  -2    2.88    1.45
  -3  -6  -2    3.92    1.87
   3  -6   3   18.87    2.81
  -3   6  -3   12.12    2.75
   3  -6   3   17.87    2.58
   3   6   3   18.49    2.77
  -3   6  -3   15.13    2.45
   3  -6   3   21.09    3.17
  -3   6  -3   20.10    2.99
  -3  -6  -3   14.12    3.83
  -3   6  -3   16.18    2.68
  -3  -6  -3   16.33    3.39
   3  -6   4    7.79    2.22
   3   6   4    6.20    1.96
  -3   6  -4    7.15    2.48
   3  -6   4    9.13    2.57
  -3   6  -4    8.89    2.40
   3  -6   4    8.95    2.53
  -3  -6  -4    4.19    2.42
  -3  -6  -4    2.86    1.89
   3  -6   5   72.71    5.64
  -3  -6  -5   69.69    7.32
   3  -6   5   69.00    6.68
  -3   6  -5   78.88    5.94
   3  -6   5   78.19    6.15
  -3  -6  -5   62.97    6.13
  -3   6  -5   72.90    7.11
   3   6   5   67.50    5.44
   3   6   6   27.56    4.24
   3  -6   6   25.45    4.31
  -3   6  -6   18.52    4.34
  -3  -6  -6   20.87    3.88
   3  -6   7   15.13    3.63
  -3  -7   7    4.67    2.61
  -3   7   7    8.73    3.23
   3   7  -7    6.07    2.27
  -3   7   6    2.06    1.55
   3   7  -6    2.96    2.11
   3   7  -6    3.05    1.85
   3  -7  -6    2.08    2.65
  -3  -7   6    6.18    2.52
  -3  -7   6    1.48    1.95
   3   7  -6    2.58    1.63
  -3   7   6    4.59    2.76
   3  -7  -6    5.02    2.23
   3   7  -5    5.31    1.87
  -3  -7   5    8.02    1.88
  -3  -7   5   12.83    3.05
   3  -7  -5    2.48    2.08
  -3   7   5    7.10    2.27
   3   7  -5    4.79    1.97
   3   7  -5    5.23    1.71
  -3  -7   5    8.82    2.49
   3   7  -5    6.54    2.43
  -3   7   5    6.32    2.47
   3  -7  -5    5.93    1.92
   3  -7  -4    2.60    1.97
  -3   7   4    3.03    1.85
   3   7  -4    3.59    1.79
   3   7  -4    4.11    1.69
  -3  -7   4    2.91    1.64
   3   7  -4   -0.48    1.14
  -3  -7   4    5.82    2.22
  -3   7   4    2.16    2.03
   3  -7  -4    1.39    1.28
   3   7  -4    1.24    1.44
   3  -7  -3   47.89    4.83
  -3   7   3   48.96    4.36
  -3   7   3   43.05    3.59
   3   7  -3   44.77    3.44
  -3   7   3   48.36    3.43
   3   7  -3   49.55    4.37
   3   7  -3   49.90    3.57
  -3  -7   3   46.20    3.71
   3   7  -3   46.42    4.28
   3  -7  -3   48.34    4.14
  -3   7   3   50.98    4.83
   3  -7  -2   42.44    4.11
  -3  -7   2   50.16    6.33
   3   7  -2   43.14    4.09
  -3   7   2   40.28    3.85
  -3   7   2   40.39    3.37
  -3   7   2   44.60    3.59
  -3   7   2   44.88    4.21
  -3  -7   2   44.73    3.54
   3   7  -2   41.54    3.98
   3   7  -2   40.22    3.16
   3  -7  -2   43.11    3.78
  -3   7   2   47.97    4.65
   3  -7  -1   62.25    4.38
   3   7  -1   56.45    3.62
   3   7  -1   57.98    4.59
  -3   7   1   52.47    4.42
  -3   7   1   62.31    3.98
  -3   7   1   58.75    4.65
   3   7  -1   63.56    4.82
  -3  -7   1   57.85    3.66
   3  -7  -1   61.65    4.29
  -3   7   1   62.98    5.27
  -3   7   1   58.12    3.75
   3  -7  -1   60.81    4.68
  -3  -7   1   61.33    7.61
   3  -7   0   71.95    4.32
   3   7   0   69.52    4.06
   3  -7   0   74.36    5.41
   3   7   0   72.33    5.10
  -3   7   0   71.61    4.88
  -3   7   0   75.31    4.25
  -3  -7   0   60.71    7.30
  -3   7   0   69.21    5.03
  -3  -7   0   64.97    3.71
   3  -7   0   71.56    4.39
  -3   7   0   79.14    5.83
  -3   7   0   70.68    4.47
  -3  -7   0   70.50    4.24
   3   7   1   22.14    2.95
  -3   7  -1   23.78    2.47
  -3   7  -1   20.92    2.83
  -3  -7  -1   28.36    5.17
  -3   7  -1   22.43    3.12
   3  -7   1   27.62    3.49
  -3   7  -1   25.69    3.51
  -3  -7  -1   27.14    3.19
  -3   7  -1   25.55    3.18
   3  -7   1   28.58    3.49
   3  -7   2   63.15    4.99
  -3  -7  -2   47.11    6.32
   3   7   2   57.82    4.87
  -3   7  -2   52.53    4.45
  -3   7  -2   62.80    5.07
   3  -7   2   57.55    4.93
  -3   7  -2   61.78    5.41
  -3  -7  -2   56.44    5.26
  -3   7  -2   59.30    5.14
   3  -7   3   48.55    4.52
   3   7   3   47.17    4.52
  -3   7  -3   42.64    4.14
  -3  -7  -3   38.49    5.79
  -3   7  -3   50.15    4.81
   3  -7   3   44.28    4.54
  -3  -7  -3   49.70    5.84
  -3   7  -3   45.05    5.09
   3  -7   4    3.54    2.04
  -3   7  -4    1.62    1.99
   3   7   4    3.14    1.78
  -3  -7  -4    1.53    2.32
  -3   7  -4    2.12    1.68
  -3   7  -4    4.10    2.27
   3  -7   4    0.69    1.89
  -3  -7  -4    2.92    2.46
  -3  -8   5   15.12    3.05
   3  -8  -4   17.80    3.83
  -3   8   4   18.11    3.25
  -3  -8   4   23.57    3.35
   3  -8  -4   17.59    3.08
   3   8  -3    5.55    2.09
   3  -8  -3   12.06    2.75
  -3   8   3    6.54    2.15
   3   8  -3    8.98    2.40
  -3  -8   3    9.26    2.21
  -3   8   3    8.77    2.79
   3  -8  -3    8.69    2.18
   3   8  -2   17.18    2.97
   3  -8  -2   14.83    2.68
  -3   8   2   16.51    2.84
   3   8  -2   14.32    2.83
  -3   8   2   17.82    3.18
  -3  -8   2   15.54    2.46
  -3   8   2   18.05    3.52
   3  -8  -2   16.25    2.65
   3   8  -1    5.59    1.88
   3   8  -1    4.07    1.99
  -3   8   1    5.97    2.02
  -3   8   1    6.05    2.16
  -3   8   1    3.80    2.08
   3  -8  -1    5.96    1.71
  -3  -8   0    5.50    2.59
   3   8   0    9.28    2.43
  -3   8   0    9.34    2.20
  -3   8   0   10.65    2.55
   3  -8   0   14.27    2.99
  -3   8   0    9.87    2.56
  -3   8  -1    1.17    1.40
  -3   8  -1    1.40    1.56
  -3  -8  -1   -0.99    2.70
  -3  -8  -2   -0.78    2.27
  -3   8  -2    2.49    1.90
  -3   8  -3    9.10    2.95
  -3  -8  -3    1.23    1.82
   4   0 -12   21.20    3.90
  -4   0  12   16.16    3.36
  -4   0  12   24.52    3.74
   4   0 -11    8.36    2.87
  -4   0  11    3.55    1.87
   4   0 -11    5.10    1.97
  -4   0  11    9.06    2.55
   4   0 -10   13.38    2.45
   4   0 -10   14.73    3.36
  -4   0  10   11.51    3.02
   4   0 -10   13.65    2.74
   4   0 -10   10.88    2.36
  -4   0  10   17.33    3.24
  -4   0   9    4.33    1.83
   4   0  -9    5.36    2.27
   4   0  -9    6.19    1.97
   4   0  -9    4.71    1.56
   4   0  -9    3.36    1.55
  -4   0   9    2.57    1.78
   4   0  -8   25.67    3.06
   4   0  -8   30.25    2.81
   4   0  -8   28.35    2.96
   4   0  -8   32.54    3.75
   4   0  -8   26.96    2.37
  -4   0   8   28.00    3.81
  -4   0   8   26.84    3.58
  -4   0   8   27.11    2.89
   4   0  -7    8.14    1.51
   4   0  -7    6.03    1.79
  -4   0   7    4.76    1.11
  -4   0   7    9.60    2.36
   4   0  -7    7.42    1.85
   4   0  -7    6.37    1.42
   4   0  -7    9.45    1.74
  -4   0   7    7.25    2.23
   4   0  -6    3.93    1.42
  -4   0   6    5.89    1.68
   4   0  -6    4.24    1.32
   4   0  -6    4.24    1.28
   4   0  -6    4.68    1.34
  -4   0   6    5.04    0.97
   4   0  -6    4.52    1.11
   4   0  -6    4.63    1.06
  -4   0   6    4.95    1.18
  -4   0   6    6.50    1.92
  -4   0   5   68.72    3.57
  -4   0   5   75.09    4.45
   4   0  -5   69.11    4.52
   4   0  -5   56.55    3.47
   4   0  -5   64.34    3.28
  -4   0   5   61.60    3.32
   4   0  -5   67.88    3.88
   4   0  -5   67.16    2.92
   4   0  -5   61.87    3.41
   4   0  -5   65.11    3.13
  -4   0   5   65.47    3.10
  -4   0   5   62.13    2.76
   4   0  -5   68.82    3.82
  -4   0   4  182.96    5.47
   4   0  -4  169.15    4.91
   4   0  -4  182.21    5.40
  -4   0   4  171.70    4.99
   4   0  -4  177.75    5.20
   4   0  -4  183.43    4.66
   4   0  -4  199.22    8.15
   4   0  -4  173.74    4.85
  -4   0   4  181.41    4.52
  -4   0   4  177.65    4.76
  -4   0   4  177.26    5.85
   4   0  -4  162.01    5.59
   4   0  -4  179.64    5.78
  -4   0   4  173.88    5.24
   4   0  -4  183.17    5.66
  -4   0   3    9.43    1.22
   4   0  -3    9.43    1.15
   4   0  -3    9.75    2.23
   4   0  -3    8.65    0.71
   4   0  -3    8.10    1.24
  -4   0   3    8.53    1.11
   4   0  -3    9.06    1.22
  -4   0   3    9.32    1.05
  -4   0   3   11.12    1.28
  -4   0   3   10.49    1.15
   4   0  -3    7.33    1.04
  -4   0   3    8.57    1.23
   4   0  -3    8.29    1.27
  -4   0   2  463.68    5.74
   4   0  -2  484.79    8.17
  -4   0   2  471.81    8.07
  -4   0   2  481.79    7.89
  -4   0   2  465.26    8.39
  -4   0   2  487.84    7.85
  -4   0   2  481.38    7.95
  -4   0   2  472.37    8.43
   4   0  -2  455.75    8.31
   4   0  -2  481.56    8.50
  -4   0   2  445.74    8.24
   4   0  -1  684.36    7.53
  -4   0   1  663.96    7.54
   4   0  -1  675.94    9.96
  -4   0   1  657.02    7.55
  -4   0   1  665.15    9.86
   4   0  -1  678.01   10.21
  -4   0   1  677.64    8.45
  -4   0   1  655.10    9.79
  -4   0   1  672.48    9.73
  -4   0   1  675.95    9.94
   4   0  -1  643.68    9.81
  -4   0   1  672.22   10.26
   4   0   0  531.26    7.12
  -4   0   0  512.75    7.47
  -4   0   0  545.39    9.11
   4   0   0  542.34    8.97
   4   0   0  524.95    7.13
  -4   0   0  535.76    8.94
  -4   0   0  507.58    6.50
  -4   0   0  546.27    9.00
  -4   0   0  515.74    7.46
  -4   0   0  536.26    8.46
   4   0   0  529.62    8.90
  -4   0   0  548.91    7.06
   4   0   0  520.49    8.52
   4   0   0  527.32    8.91
  -4   0  -1  889.52   12.97
   4   0   1  871.70   11.17
   4   0   1  857.15   11.10
  -4   0  -1  872.65   12.80
  -4   0  -1  838.94   12.15
  -4   0  -1  867.64    9.71
   4   0   1  885.68    9.88
   4   0   1  862.44   12.69
  -4   0  -1  897.64   11.76
   4   0   1  869.28   11.85
   4   0   1  882.03   12.97
   4   0   2  552.59    9.67
   4   0   2  547.97   10.54
  -4   0  -2  538.74    9.61
   4   0   2  567.99   12.98
   4   0   2  549.99    9.62
   4   0   2  564.46    7.63
   4   0   2  548.86   10.30
  -4   0  -2  566.48    9.19
   4   0   2  553.43    9.29
   4   0   3  284.02    8.03
  -4   0  -3  303.74    7.95
   4   0   3  273.17    8.06
  -4   0  -3  287.40    7.38
   4   0   3  285.86    6.93
   4   0   3  284.05    5.78
   4   0   4  701.51   15.26
  -4   0  -4  775.43   14.23
   4   0   4  706.37   13.05
  -4   0  -4  790.92   14.27
   4   0   4  748.54   11.43
   4   0   4  729.16   12.84
   4   0   4  767.20   15.73
   4   0   5    9.05    2.31
   4   0   5   13.58    1.68
  -4   0  -5   10.62    1.79
  -4   0  -5   13.22    2.71
   4   0   5   12.42    1.77
   4   0   5   16.15    2.79
  -4   0  -5    9.72    1.96
  -4   0  -6   60.29    5.59
   4   0   6   61.92    5.81
   4   0   6   73.40    3.47
   4   0   6   81.22    6.53
  -4   0  -6   60.79    4.34
   4   0   6   72.57    4.64
  -4   0  -6   73.31    5.08
   4   0   7    5.74    2.48
   4   0   7    4.13    2.62
  -4   0  -7    5.55    1.99
  -4   0  -7    3.77    2.11
   4   0   7    7.81    2.31
  -4   0  -7    5.60    1.68
   4   0   8    7.16    2.91
  -4   0  -8    5.29    2.31
   4   0   8    3.21    2.49
  -4   0  -8    0.71    1.43
  -4   0  -9   12.80    3.28
  -4   1  12   -0.32    1.53
   4  -1 -12    1.61    1.89
   4  -1 -12   -0.06    1.47
  -4  -1  12    2.92    1.97
  -4   1  12    1.81    1.81
   4   1 -11    2.34    1.91
   4  -1 -11   -1.69    1.80
  -4  -1  11   -0.39    1.95
  -4   1  11   -0.03    1.70
   4  -1 -11    2.00    1.57
  -4  -1  11   -1.58    1.82
   4   1 -11    3.11    2.40
  -4  -1  11    4.57    2.14
  -4   1  11    0.40    1.53
   4  -1 -11    1.85    1.92
   4  -1 -10   20.65    3.68
   4  -1 -10   17.48    2.96
  -4  -1  10   14.23    2.68
   4   1 -10   15.84    2.64
  -4  -1  10   19.94    3.83
  -4   1  10   16.93    3.15
   4   1 -10   25.57    3.67
   4   1 -10   18.26    4.19
   4  -1 -10   19.30    3.36
  -4  -1  10   23.06    3.57
  -4   1  10   21.29    3.34
   4  -1  -9   15.70    1.97
   4   1  -9   14.45    2.77
   4   1  -9   11.24    2.17
   4  -1  -9   12.71    2.66
  -4   1   9    9.45    2.52
  -4  -1   9   11.95    3.13
   4   1  -9   12.58    3.27
   4  -1  -9   13.36    2.95
   4   1  -9   11.67    1.93
   4  -1  -9    9.89    2.36
  -4  -1   9   14.28    2.76
  -4   1   9   12.97    2.86
   4  -1  -8   14.84    1.92
   4   1  -8   12.01    2.15
  -4  -1   8   20.44    3.54
  -4   1   8   13.21    2.62
   4  -1  -8   12.26    2.28
   4   1  -8   13.48    2.70
   4  -1  -8   17.32    2.60
   4   1  -8   14.67    1.87
   4  -1  -8   17.59    1.81
   4   1  -8   19.15    2.73
   4   1  -8   13.74    1.89
   4  -1  -8   14.65    2.44
  -4  -1   8   14.57    2.64
  -4   1   8   17.33    3.17
  -4   1   7  447.00    9.35
   4  -1  -7  418.57   12.20
  -4  -1   7  491.78   10.74
   4  -1  -7  448.61   10.63
   4   1  -7  497.41   11.44
  -4  -1   7  519.53   13.82
  -4   1   7  483.70   13.04
   4  -1  -7  504.08    8.51
   4   1  -7  506.68   11.75
   4   1  -7  480.14    9.68
   4  -1  -7  481.00   11.43
   4  -1  -7  468.39   11.77
   4   1  -7  485.01   13.19
  -4  -1   7  468.43   12.82
  -4   1   7  468.07   14.41
   4  -1  -6  141.09    6.54
  -4  -1   6  156.50    5.35
  -4   1   6  131.16    6.33
   4  -1  -6  149.96    6.34
   4   1  -6  158.88    7.47
   4  -1  -6  175.92    6.91
  -4   1   6  155.24    6.89
   4  -1  -6  153.29    4.01
   4  -1  -6  152.57    5.49
   4   1  -6  158.61    5.69
   4   1  -6  148.91    4.68
   4  -1  -6  152.27    5.90
   4   1  -6  164.71    7.11
   4   1  -6  151.47    6.33
  -4  -1   6  141.88    4.66
  -4  -1   6  151.31    5.45
  -4  -1   6  154.14    6.55
  -4   1   6  140.58    7.22
  -4   1   6  155.27    6.26
  -4   1   6  141.52    4.12
   4  -1  -5  441.14   10.63
  -4  -1   5  434.61    8.66
   4  -1  -5  417.35   11.32
   4   1  -5  416.65   10.87
   4  -1  -5  442.06    8.76
   4   1  -5  401.07    8.18
  -4   1   5  408.45    9.15
  -4   1   5  398.32   10.34
   4  -1  -5  437.49    9.41
   4  -1  -5  412.47    8.38
   4   1  -5  426.11    8.74
   4   1  -5  413.85    7.40
   4   1  -5  403.12    9.31
   4  -1  -5  403.34    8.91
  -4  -1   5  412.07    7.26
  -4   1   5  420.66    9.08
  -4  -1   5  409.89    8.44
  -4   1   5  410.45    6.40
  -4   1   5  420.31   11.79
  -4  -1   5  424.42    9.83
  -4   1   5  444.70   11.70
   4   1  -5  483.31   13.02
   4  -1  -4  386.67    9.02
  -4  -1   4  376.59    7.64
  -4   1   4  377.80    8.70
  -4   1   4  416.68   12.43
   4   1  -4  360.84    6.88
  -4   1   4  360.39    8.52
   4  -1  -4  366.90    6.21
   4  -1  -4  370.82    7.95
   4  -1  -4  380.88    7.41
  -4   1   4  374.25    7.96
  -4  -1   4  372.64    7.22
   4   1  -4  439.17   13.16
   4  -1  -4  385.51    8.10
   4   1  -4  375.71    9.10
  -4   1   4  372.17    7.82
   4  -1  -4  393.38   11.48
   4   1  -4  373.02    8.19
   4   1  -4  381.02    7.77
   4   1  -4  363.80    6.44
   4  -1  -4  371.23    7.95
  -4   1   4  367.99    5.70
  -4  -1   4  373.04    6.41
  -4   1   4  386.65    8.05
  -4  -1   4  376.28    7.61
  -4  -1   4  376.09    8.33
  -4   1   4  391.47    9.56
   4   1  -4  364.30    8.08
  -4   1   4  378.35    7.43
  -4   1   3 1023.21   14.61
   4   1  -3 1075.20   21.96
   4  -1  -3 1047.78   13.82
  -4   1   3 1165.31   22.85
   4  -1  -3  989.96   19.89
  -4   1   3 1135.42   12.44
   4  -1  -3 1012.28   10.07
  -4   1   3 1069.04   13.90
  -4  -1   3 1033.45   12.25
   4   1  -3 1042.84   14.01
  -4   1   3 1050.24   13.88
   4   1  -3 1015.02   14.60
   4   1  -3 1093.86   14.04
  -4   1   3 1050.93   11.38
  -4   1   3 1066.36   13.11
   4  -1  -3 1056.30   14.08
   4  -1  -3 1100.01   13.24
  -4  -1   3 1035.46   12.03
  -4  -1   3 1048.94   13.54
  -4   1   3 1072.57   13.97
   4  -1  -3 1033.26   13.96
  -4  -1   3 1071.71   14.24
  -4  -1   3 1019.38   14.15
   4   1  -3 1005.97   14.11
  -4   1   3 1040.89   14.75
  -4  -1   3 1040.74   13.54
   4  -1  -3 1068.11   14.95
  -4   1   3 1009.26   12.11
  -4   1   2  134.83    4.48
  -4   1   2  143.19    3.64
  -4   1   2  144.23    3.82
   4  -1  -2  144.45    4.12
   4   1  -2  122.69    7.43
   4  -1  -2  143.51    4.44
  -4   1   2  137.12    2.33
   4   1  -2  142.85    4.43
  -4   1   2  141.75    4.35
  -4  -1   2  145.44    3.71
   4  -1  -2  125.98    7.06
  -4   1   2  141.01    4.46
   4   1  -2  145.83    4.67
  -4  -1   2  142.02    4.36
  -4   1   2  154.51    4.35
  -4  -1   2  144.99    4.38
  -4  -1   2  139.11    3.80
   4  -1  -2  147.90    4.60
  -4   1   2  145.10    4.41
  -4   1   2  138.11    7.73
  -4  -1   2  140.02    4.49
   4   1  -2  136.55    4.47
  -4   1   2  138.89    4.34
   4  -1  -2  135.00    4.55
  -4   1   2  142.01    4.06
   4   1  -2  134.37    2.55
   4  -1  -1  154.43    3.82
  -4   1   1  151.62    4.75
  -4   1   1  146.72    3.71
   4   1  -1  148.50    4.43
  -4   1   1  141.50    7.68
  -4  -1   1  148.09    4.38
   4   1  -1  147.44    4.37
   4   1  -1  148.78    2.92
  -4   1   1  149.66    4.04
  -4  -1   1  147.51    4.45
  -4   1   1  142.51    2.50
  -4  -1   1  146.87    2.82
  -4   1   1  143.75    3.72
  -4  -1   1  146.20    4.47
  -4   1   1  145.60    4.17
  -4  -1   1  150.93    4.69
  -4   1   1  150.28    4.02
  -4   1   1  156.36    4.66
   4  -1  -1  139.98    7.59
  -4  -1   1  149.70    4.61
   4   1  -1  145.01    4.54
  -4   1   1  157.67    4.35
   4  -1  -1  147.50    4.34
   4  -1  -1  151.49    4.34
  -4   1   1  142.84    4.50
   4  -1   0   47.07    2.22
  -4   1   0   49.95    2.64
  -4   1   0   50.45    2.33
   4   1   0   48.23    1.67
   4   1   0   53.58    5.45
   4  -1   0   57.81    4.96
   4   1   0   49.23    2.16
  -4  -1   0   45.78    1.81
   4  -1   0   44.15    2.36
  -4  -1   0   47.03    2.41
   4   1   0   47.45    2.39
   4   1   0   47.45    2.66
  -4   1   0   48.25    2.31
   4   1   0   47.70    1.66
  -4   1   0   51.04    4.69
  -4   1   0   50.35    2.30
  -4  -1   0   45.99    1.35
   4  -1   0   50.29    2.31
  -4   1   0   46.43    2.52
  -4   1   0   48.88    2.68
   4  -1   0   47.23    2.62
  -4  -1   0   48.56    2.66
  -4  -1   0   45.89    2.58
  -4  -1   0   47.24    2.55
   4   1   0   47.70    2.62
  -4   1   0   49.58    2.24
   4  -1   0   47.95    2.33
  -4   1   0   49.59    2.52
  -4   1   0   47.54    2.56
   4   1   0   48.25    2.57
   4  -1   1  158.22    4.55
  -4   1  -1  162.59    4.78
   4   1   1  154.86    4.25
  -4  -1  -1  161.16    5.02
  -4   1  -1  155.72    5.00
   4   1   1  171.19    8.74
  -4   1  -1  184.96    8.62
   4  -1   1  184.30    8.03
   4   1   1  164.37    5.55
  -4  -1  -1  153.40    4.14
  -4   1  -1  162.22    5.09
  -4  -1  -1  157.44    5.11
   4   1   1  153.34    5.14
   4   1   1  152.42    4.31
   4  -1   1  161.36    4.61
   4  -1   1  155.25    4.92
  -4  -1  -1  155.03    4.52
  -4   1  -1  162.58    4.75
   4   1   1  153.28    4.21
  -4   1  -1  160.83    4.26
   4  -1   1  161.17    4.29
  -4   1  -1  170.98    6.53
  -4   1  -1  157.16    3.86
   4  -1   1  161.23    5.20
  -4  -1  -1  154.23    4.91
  -4   1  -1  161.55    3.99
   4   1   1  159.61    4.97
   4   1   1  158.32    5.02
   4  -1   1  155.17    4.11
  -4   1  -1  169.18    5.33
   4  -1   2   62.48    3.19
   4   1   2   60.27    3.31
  -4   1  -2   67.94    3.53
  -4   1  -2   76.51    5.39
   4  -1   2   62.99    4.24
  -4   1  -2   70.68    4.82
   4   1   2   59.98    4.07
  -4  -1  -2   60.99    3.18
   4  -1   2   63.23    3.51
   4   1   2   59.66    3.46
   4  -1   2   65.97    2.88
  -4   1  -2   66.55    2.94
   4   1   2   56.48    3.18
  -4   1  -2   65.06    3.40
   4  -1   2   63.43    3.54
   4   1   2   55.77    1.50
   4  -1   2   64.42    3.23
  -4  -1  -2   59.58    2.83
  -4   1  -2   60.89    2.24
   4   1   2   66.19    3.34
  -4  -1  -2   62.15    3.30
  -4   1  -2   65.49    2.58
  -4  -1  -2   69.55    3.90
   4   1   2   61.68    3.27
   4  -1   2   63.20    2.64
   4   1   2   63.38    4.78
   4  -1   3   57.46    3.53
  -4   1  -3   62.18    4.79
   4   1   3   48.35    3.66
  -4   1  -3   68.80    4.96
   4  -1   3   55.95    3.75
   4   1   3   51.74    4.13
  -4   1  -3   75.20    5.31
   4  -1   3   66.02    4.07
  -4  -1  -3   62.27    3.97
   4   1   3   60.86    3.70
  -4  -1  -3   60.67    3.14
   4   1   3   51.63    3.78
   4  -1   3   62.72    3.13
   4   1   3   58.51    1.91
   4   1   3   59.02    3.45
   4   1   3   54.56    4.02
  -4   1  -3   62.40    2.30
   4  -1   3   59.49    2.69
  -4   1  -4  183.75    8.52
   4  -1   4  196.53    7.48
   4   1   4  162.27    7.89
   4   1   4  190.66    4.51
   4   1   4  190.11    7.38
  -4  -1  -4  192.25    7.50
  -4   1  -4  205.36    6.39
   4  -1   4  202.15    8.12
  -4  -1  -4  205.47    6.30
   4  -1   4  205.03    6.40
   4  -1   4  185.38    5.16
   4   1   4  168.10    6.40
   4   1   4  185.11    8.43
   4  -1   4  192.43    6.72
   4   1   5    0.83    0.73
   4  -1   5    2.85    1.88
   4  -1   5    3.03    1.19
   4   1   5    0.59    1.37
   4  -1   5   -1.27    1.57
   4   1   5    2.92    1.93
   4   1   5    0.10    1.96
  -4   1  -5    0.06    1.65
  -4  -1  -5    2.35    1.12
  -4  -1  -5   -1.11    1.55
  -4   1  -5    1.08    0.86
   4   1   5    2.24    1.11
   4  -1   5    1.34    1.13
   4  -1   5    2.66    0.98
  -4   1  -6   79.78    6.53
  -4  -1  -6   95.57    6.59
   4  -1   6   76.77    6.17
   4   1   6   96.12    6.86
   4   1   6   93.51    4.14
   4  -1   6   87.65    6.85
   4   1   6  102.34    7.12
  -4  -1  -6   76.62    4.24
  -4  -1  -6   99.35    6.47
   4   1   6   91.88    4.83
   4  -1   6   83.61    5.22
  -4   1  -6  101.09    5.40
  -4  -1  -7   70.37    6.09
   4  -1   7   71.94    6.65
   4   1   7   86.44    6.64
  -4   1  -7   78.79    5.50
  -4  -1  -7   74.82    6.30
   4  -1   7   78.32    6.74
   4   1   7   78.78    6.63
   4  -1   7   70.65    5.43
  -4   1  -7   81.32    6.79
   4  -1   8   12.48    3.76
   4  -1   8    4.12    2.21
   4   1   8    6.73    2.45
  -4   1  -8   11.73    3.11
  -4  -1  -8    4.14    1.90
  -4  -1  -8    1.50    1.81
   4  -1   8    4.89    2.29
   4   1   8   10.34    2.93
  -4  -1  -9   22.59    4.04
  -4  -2  12   14.86    3.30
   4  -2 -12   12.78    2.67
   4  -2 -12    9.63    2.70
   4   2 -11   13.51    3.16
   4  -2 -11    3.29    1.79
   4  -2 -11    3.38    1.90
  -4   2  11    4.36    1.89
  -4  -2  11    8.20    2.80
  -4  -2  11    2.21    2.01
   4   2 -11    9.36    3.53
   4  -2 -11    3.93    2.38
  -4   2  11    5.74    2.08
  -4  -2  10   12.44    3.14
   4  -2 -10   10.52    2.49
  -4   2  10    9.03    2.07
   4  -2 -10   10.85    2.63
   4   2 -10   13.02    3.06
  -4  -2  10    5.83    2.28
   4  -2 -10   13.31    3.26
   4   2 -10   12.63    3.68
  -4  -2  10   11.15    2.60
  -4   2  10   11.33    2.58
  -4  -2   9    5.08    2.37
   4  -2  -9    5.91    2.01
  -4   2   9    2.44    1.16
   4  -2  -9    2.19    1.83
  -4   2   9    5.29    2.08
  -4  -2   9    5.08    2.57
   4  -2  -9    1.88    1.91
   4   2  -9    3.25    2.32
  -4  -2   9    4.66    1.93
   4   2  -9    2.39    1.65
  -4   2   9    7.09    2.34
  -4  -2   8   13.92    2.81
   4   2  -8   20.09    3.06
   4  -2  -8   18.37    2.46
   4   2  -8   20.48    2.63
  -4  -2   8   20.08    3.53
  -4   2   8   17.43    2.73
   4  -2  -8   12.00    2.78
  -4   2   8   14.05    2.49
   4   2  -8   17.25    3.23
   4   2  -8   19.60    1.80
   4  -2  -8   17.13    2.85
  -4  -2   8   15.11    2.66
  -4   2   8   19.90    3.45
  -4  -2   7    1.13    1.42
   4   2  -7    4.91    1.81
  -4   2   7    4.92    1.47
  -4  -2   7    8.40    2.37
  -4   2   7    3.73    1.22
   4  -2  -7    5.49    2.22
  -4   2   7    1.57    1.53
   4   2  -7    6.42    2.05
   4   2  -7    6.08    0.99
   4  -2  -7    2.52    1.16
  -4  -2   7    6.31    1.23
   4  -2  -7    5.18    1.73
   4  -2  -7    6.05    1.39
   4   2  -7    5.13    1.70
  -4  -2   7    7.57    1.99
  -4   2   7    5.28    2.23
  -4  -2   6    2.68    1.21
   4  -2  -6    5.16    1.47
   4  -2  -6    5.74    1.96
  -4  -2   6    3.32    0.86
  -4   2   6    4.02    1.47
   4   2  -6    6.04    1.58
   4   2  -6    4.85    1.22
   4  -2  -6    4.11    1.18
   4  -2  -6    2.84    0.90
  -4  -2   6    2.58    1.23
  -4   2   6    4.18    1.28
   4   2  -6    3.51    1.41
   4   2  -6    4.41    0.72
   4  -2  -6    4.12    1.54
  -4  -2   6    4.91    1.55
  -4   2   6    2.50    1.56
  -4   2   6    2.84    1.20
  -4  -2   5   41.33    2.42
   4  -2  -5   44.80    3.77
  -4  -2   5   40.94    2.49
  -4   2   5   42.65    2.99
  -4   2   5   39.23    3.55
   4  -2  -5   46.46    4.14
  -4   2   5   43.08    2.79
   4  -2  -5   40.57    2.45
   4  -2  -5   42.91    2.42
   4   2  -5   38.57    2.28
  -4   2   5   40.29    3.04
   4  -2  -5   46.61    2.99
  -4  -2   5   40.11    2.50
   4   2  -5   41.80    3.01
   4   2  -5   41.36    3.16
   4  -2  -5   39.42    3.11
  -4  -2   5   41.68    1.81
  -4  -2   5   43.58    3.08
  -4   2   5   37.01    3.91
   4  -2  -4  166.32    6.33
  -4  -2   4  157.08    3.51
   4  -2  -4  168.18    8.02
  -4   2   4  152.05    4.48
   4  -2  -4  160.22    4.35
   4   2  -4  151.56    3.94
  -4   2   4  161.29    5.38
  -4   2   4  161.28    7.59
  -4   2   4  151.87    4.73
  -4  -2   4  148.50    3.42
   4  -2  -4  167.10    4.46
   4   2  -4  154.89    5.41
   4   2  -4  164.45    5.48
   4  -2  -4  148.42    5.35
  -4  -2   4  156.50    3.43
  -4  -2   4  152.87    5.31
  -4   2   4  153.83    4.32
   4   2  -4  149.69    5.12
  -4   2   4  170.15    7.09
  -4  -2   4  161.97    4.70
   4  -2  -4  163.96    5.19
  -4   2   3    1.71    0.57
   4   2  -3    3.96    1.11
  -4   2   3    1.47    0.67
  -4  -2   3    2.80    0.85
  -4  -2   3    1.74    0.32
  -4  -2   3    2.84    0.90
   4  -2  -3    4.33    1.81
  -4   2   3    1.44    0.84
  -4   2   3    2.38    0.85
   4  -2  -3    1.79    0.91
  -4  -2   3    2.20    0.57
   4  -2  -3    2.64    0.59
   4   2  -3    1.88    0.90
   4  -2  -3    2.49    0.75
  -4   2   3    2.44    0.84
   4  -2  -3    2.21    0.66
  -4   2   3    3.39    0.98
  -4   2   3    2.77    1.59
  -4   2   3    2.96    0.73
  -4   2   3    2.48    0.55
  -4  -2   3    2.61    0.56
   4  -2  -3    1.57    0.83
  -4   2   3    3.41    0.95
  -4  -2   3    3.32    1.11
   4   2  -3    2.74    0.91
  -4   2   3    1.48    0.91
  -4   2   2  351.03    6.94
  -4   2   2  340.99    8.06
   4   2  -2  350.71    7.82
   4  -2  -2  311.82   11.59
  -4   2   2  336.64    5.43
  -4   2   2  371.23    7.69
   4   2  -2  348.60    5.97
  -4   2   2  365.92    6.65
   4   2  -2  357.21    7.53
  -4   2   2  358.05    7.53
  -4  -2   2  352.14    5.39
  -4   2   2  377.82    7.76
  -4   2   2  373.97   13.23
   4  -2  -2  372.78    8.11
  -4  -2   2  360.83    7.90
  -4  -2   2  355.89    7.55
  -4   2   2  368.18    7.96
  -4   2   2  368.13    5.95
  -4  -2   2  336.28    7.64
   4   2  -2  345.13    7.71
  -4   2   2  344.63    7.41
   4  -2  -2  371.05    6.76
   4  -2  -2  354.83    8.00
   4  -2  -1  458.99    8.06
  -4   2   1  446.59    8.93
  -4   2   1  464.41    8.14
  -4   2   1  458.39    7.80
  -4   2   1  421.49   14.05
   4  -2  -1  441.24   14.05
   4   2  -1  447.52    6.99
  -4   2   1  471.89    7.45
  -4   2   1  471.20    6.80
  -4  -2   1  454.95    7.02
  -4   2   1  476.75    9.06
  -4   2   1  454.57    8.07
   4   2  -1  446.60    8.35
   4   2  -1  446.35    8.38
  -4  -2   1  451.31    8.45
  -4   2   1  477.16    8.56
   4  -2  -1  465.68    8.34
  -4  -2   1  470.98    9.17
   4  -2  -1  484.04    9.25
  -4   2   1  474.89    8.96
   4  -2  -1  470.60    7.16
   4  -2  -1  487.68    8.39
  -4  -2   1  452.67    9.05
   4   2  -1  457.20    9.01
  -4   2   1  467.77    7.96
  -4  -2   1  451.26    8.68
  -4   2   0  385.74    8.12
   4  -2   0  398.88    7.68
   4   2   0  408.37    7.93
  -4   2   0  384.67    7.51
  -4   2   0  400.59   13.38
   4   2   0  402.30    7.11
  -4   2   0  403.60    7.56
   4  -2   0  390.92    7.11
  -4  -2   0  391.21    8.28
  -4  -2   0  395.61    7.86
  -4   2   0  405.65    8.59
   4   2   0  389.59    7.20
  -4   2   0  388.82    7.57
  -4   2   0  429.90    8.13
  -4  -2   0  391.56    8.64
   4  -2   0  416.67    7.96
  -4   2   0  400.24    8.17
  -4   2   0  407.03    7.85
   4  -2   0  412.46    8.28
  -4  -2   0  398.74    8.68
   4   2   0  391.58    8.59
  -4   2   0  427.64    6.94
  -4  -2   0  376.99    6.63
   4  -2   0  457.86   14.35
  -4   2   0  405.66    7.97
   4  -2   1  677.61   11.09
  -4   2  -1  748.73   16.53
  -4   2  -1  662.03   10.83
   4  -2   1  750.81   17.42
  -4   2  -1  733.75   17.80
  -4  -2  -1  664.19   10.96
  -4  -2  -1  669.18   10.25
   4   2   1  625.93   10.26
  -4   2  -1  672.71   11.57
  -4  -2  -1  650.35   12.76
   4   2   1  652.23   11.43
   4  -2   1  692.48   11.16
   4   2   1  627.88    9.27
   4  -2   1  674.32   10.91
  -4   2  -1  637.59   10.67
  -4   2  -1  702.15   10.96
   4  -2   1  663.21   11.76
   4  -2   1  667.02   10.72
  -4   2  -1  641.27   10.93
  -4   2  -1  659.61   10.15
  -4  -2  -1  636.07    8.35
  -4  -2  -1  650.59   11.97
  -4   2  -1  669.94    8.30
   4   2   1  664.96   10.80
   4  -2   1  696.67   10.14
  -4   2  -1  678.12   11.65
  -4   2  -1  677.96   11.14
  -4   2  -2  408.94   12.76
   4   2   2  407.71    9.36
  -4  -2  -2  448.77    8.50
   4  -2   2  423.69    9.06
  -4   2  -2  459.95   13.31
   4  -2   2  432.01   12.00
   4   2   2  400.65    9.21
  -4  -2  -2  411.09   10.57
  -4  -2  -2  398.46    8.43
  -4   2  -2  420.95    9.21
   4  -2   2  415.38    8.53
  -4  -2  -2  360.41    4.82
  -4   2  -2  405.52    7.56
   4   2   2  403.70    8.54
  -4  -2  -2  405.89    9.54
  -4   2  -2  431.83    6.05
   4  -2   2  422.01    9.47
   4  -2   2  421.74    7.02
  -4   2  -2  448.36    9.09
  -4   2  -3  201.88    9.12
   4  -2   3  218.74    7.02
   4   2   3  206.64    6.98
   4  -2   3  210.81    7.89
  -4  -2  -3  223.91    8.25
   4  -2   3  222.93    7.69
  -4   2  -3  219.04    7.29
   4   2   3  218.19    7.98
  -4  -2  -3  242.93    6.17
   4  -2   3  215.37    6.48
   4   2   3  208.27    6.40
  -4   2  -3  216.25    5.54
  -4   2  -3  228.73    8.92
   4  -2   3  210.62    4.54
  -4   2  -4  552.82   15.99
   4  -2   4  598.47   13.11
   4   2   4  520.88   13.60
  -4   2  -4  588.18   14.19
   4  -2   4  552.43   12.56
  -4  -2  -4  608.99   14.84
  -4   2  -4  642.40   10.77
   4  -2   4  624.04   15.18
   4   2   4  583.97   13.02
  -4  -2  -4  632.68   10.40
   4  -2   4  630.68   12.61
   4   2   4  593.71   15.61
   4  -2   4  531.05    7.67
   4  -2   5    7.77    1.90
   4   2   5   10.03    1.91
   4  -2   5   12.38    2.71
   4   2   5    6.68    1.46
   4   2   5    9.28    2.01
  -4   2  -5    8.10    2.37
  -4  -2  -5   11.41    2.63
  -4  -2  -5   10.62    1.40
  -4   2  -5    8.44    1.43
   4   2   5    9.26    1.14
   4  -2   5   12.07    2.20
   4  -2   6   42.31    4.50
   4   2   6   45.74    3.34
  -4  -2  -6   53.54    5.44
   4   2   6   48.03    5.03
  -4   2  -6   59.60    3.77
   4  -2   6   44.42    5.10
   4   2   6   54.53    5.09
   4  -2   6   42.62    4.17
  -4   2  -6   49.45    5.08
   4  -2   7   -2.54    2.96
   4   2   7    4.30    1.81
   4   2   7    2.71    1.90
   4  -2   7    6.20    2.48
  -4   2  -7    8.53    2.60
  -4  -2  -7    1.54    1.88
  -4  -2  -7    7.60    2.38
   4  -2   7    4.04    2.11
   4   2   7    5.41    2.47
   4   2   8    3.55    2.15
   4  -2   8    4.02    2.49
   4   2   8    3.69    2.40
  -4   2  -8    2.38    1.82
   4  -2   8    0.46    2.64
  -4  -2  -8    1.40    1.85
  -4  -2  -8   -0.46    1.87
   4  -2   8    0.79    2.44
  -4  -2  -9    2.08    1.88
  -4  -2  -9    5.78    2.44
  -4  -3  11    5.12    3.25
   4   3 -11    5.17    2.58
   4  -3 -11    2.01    1.85
   4  -3 -11   -1.98    2.12
  -4  -3  10    8.34    3.03
   4  -3 -10    9.30    2.75
  -4   3  10   11.18    3.13
   4   3 -10   12.53    3.98
   4   3 -10   14.59    3.70
   4  -3 -10   10.93    3.29
  -4  -3  10   10.68    3.16
  -4   3  10    9.02    2.59
   4   3  -9   10.68    2.92
  -4   3   9   11.59    1.95
   4  -3  -9   12.82    3.08
  -4   3   9    5.32    1.94
   4   3  -9    7.64    2.68
  -4  -3   9   14.13    3.77
   4  -3  -9   13.88    2.24
   4  -3  -9    9.00    2.89
  -4  -3   9   10.84    2.33
  -4  -3   9    9.54    2.58
  -4   3   9   11.94    2.58
  -4  -3   8   13.03    2.64
   4   3  -8   10.91    2.70
   4   3  -8    7.61    2.60
  -4   3   8   10.84    1.91
   4  -3  -8    8.02    2.55
  -4   3   8    9.57    2.36
  -4  -3   8   12.54    3.15
   4  -3  -8   10.57    1.70
   4  -3  -8   11.94    2.92
  -4  -3   8    7.90    2.01
  -4   3   8   11.16    2.69
   4  -3  -7  274.74   11.78
  -4  -3   7  305.31    6.94
  -4  -3   7  312.95    9.27
  -4   3   7  313.57   10.75
  -4  -3   7  320.03   11.47
  -4   3   7  298.95    8.65
   4  -3  -7  304.46    7.23
   4   3  -7  317.73   10.87
   4  -3  -7  298.85   10.95
   4   3  -7  299.55   11.09
  -4  -3   7  317.44    9.89
  -4   3   7  329.44   13.44
  -4  -3   6   93.54    3.59
   4  -3  -6   90.24    6.32
  -4  -3   6   92.94    4.08
  -4   3   6   98.73    4.73
   4  -3  -6   95.61    3.52
   4   3  -6   88.15    3.82
  -4  -3   6   85.96    3.98
   4   3  -6  104.79    5.69
   4  -3  -6   95.64    5.57
   4   3  -6   94.63    5.54
  -4  -3   6   99.05    5.06
  -4   3   6   99.45    5.12
   4  -3  -5  249.26    9.45
  -4  -3   5  239.51    5.49
   4  -3  -5  253.90    5.32
   4  -3  -5  251.63   10.18
  -4   3   5  241.40    6.80
   4   3  -5  234.74    5.19
  -4   3   5  243.90    7.63
  -4  -3   5  226.94    5.41
  -4   3   5  230.76    6.04
   4   3  -5  261.86    8.23
   4   3  -5  244.06    7.91
   4  -3  -5  246.71    8.12
  -4  -3   5  254.87    7.68
  -4   3   5  225.58   10.10
  -4   3   5  234.99    6.74
  -4  -3   5  236.54    5.79
   4  -3  -4  253.73    5.12
   4  -3  -4  259.61    8.64
  -4  -3   4  259.23    4.87
   4  -3  -4  258.43   10.81
  -4   3   4  247.41    5.23
  -4   3   4  243.75    6.27
  -4   3   4  253.96    4.38
   4   3  -4  249.26    4.50
  -4   3   4  253.67    7.23
  -4  -3   4  254.21    4.90
  -4   3   4  243.77    6.13
   4   3  -4  239.47    7.17
   4   3  -4  253.85    7.62
   4  -3  -4  248.81    7.57
  -4  -3   4  239.26    3.69
  -4  -3   4  249.68    7.17
  -4   3   4  256.86    9.69
  -4   3   4  238.66    5.09
   4  -3  -4  264.05    6.44
  -4  -3   3  541.57    6.54
   4  -3  -3  525.69   11.37
  -4   3   3  497.26    6.14
  -4   3   3  516.20    8.70
  -4   3   3  526.86   10.13
  -4   3   3  526.84    9.53
   4  -3  -3  530.74    8.95
  -4   3   3  519.68    7.80
   4   3  -3  528.46   10.77
   4   3  -3  520.65    9.47
   4  -3  -3  508.32   16.03
  -4  -3   3  516.94    7.03
   4   3  -3  524.76   10.23
   4  -3  -3  520.60   10.72
  -4  -3   3  496.73   10.17
   4  -3  -3  538.55    8.03
  -4   3   3  560.77   12.52
  -4   3   3  541.07    8.22
   4  -3  -2  124.45    4.89
   4   3  -2  108.64    2.32
   4  -3  -2  113.33    7.75
  -4   3   2  124.82    2.98
  -4   3   2  122.40    3.66
   4   3  -2  119.44    4.00
   4   3  -2  120.64    4.44
  -4   3   2  118.54    4.43
  -4  -3   2  115.97    2.31
  -4   3   2  127.49    4.68
  -4  -3   2  117.32    3.76
   4   3  -2  113.83    2.32
   4   3  -2  129.11    5.07
   4  -3  -2  132.16    5.09
   4  -3  -2  128.81    3.89
  -4  -3   2  118.29    4.83
  -4   3   2  125.78    4.86
  -4   3   2  126.08    3.94
  -4   3   2  131.48    5.54
   4  -3  -1  118.67    4.41
  -4   3   1  119.33    3.70
   4   3  -1  103.99    2.34
  -4   3   1  117.11    5.04
  -4   3   1  114.69    3.75
   4  -3  -1  113.73    7.78
   4   3  -1  113.27    4.18
   4  -3  -1  115.94    4.45
  -4  -3   1  119.12    5.29
   4   3  -1  110.45    3.93
   4  -3  -1  122.22    3.13
  -4  -3   1  104.17    2.41
  -4   3   1  114.46    4.32
  -4   3   1  119.36    4.74
  -4   3   1  118.68    3.92
   4   3  -1  112.41    2.38
   4   3  -1  109.05    4.18
  -4  -3   1  110.06    2.89
   4  -3  -1  114.42    4.03
   4  -3  -1  118.77    4.70
  -4  -3   1  121.37    4.37
  -4   3   1  119.71    4.51
  -4   3   1  118.32    4.80
  -4  -3   1  107.12    4.35
  -4  -3   1  109.63    4.74
  -4   3   1  115.16    3.93
   4  -3  -1  115.48    4.53
  -4   3   1  105.97    5.90
   4   3   0    6.10    0.73
   4  -3   0    5.48    1.27
   4  -3   0   10.74    3.05
  -4   3   0    6.17    1.09
  -4   3   0    5.04    1.20
  -4   3   0    6.48    1.12
   4   3   0    5.58    1.04
  -4   3   0    5.82    1.04
  -4   3   0    5.02    2.09
   4   3   0    7.19    1.09
   4  -3   0    5.74    0.93
  -4  -3   0    7.61    1.82
   4   3   0    7.36    1.19
  -4   3   0    6.12    1.35
  -4  -3   0    5.99    1.01
  -4  -3   0    7.15    1.13
   4  -3   0    7.97    1.43
  -4   3   0    7.18    1.31
  -4  -3   0    6.42    1.11
  -4  -3   0    4.93    1.34
  -4   3   0    6.02    0.93
   4  -3   1   63.71    3.49
  -4   3  -1   64.94    3.59
   4  -3   1   67.14    5.56
   4   3   1   66.58    3.40
  -4  -3  -1   59.97    4.24
  -4   3  -1   70.80    4.42
   4  -3   1   66.45    3.19
  -4  -3  -1   66.75    3.25
   4   3   1   56.92    2.51
  -4   3  -1   61.81    3.42
  -4  -3  -1   58.67    3.15
   4  -3   1   64.89    3.49
  -4   3  -1   64.41    3.43
  -4  -3  -1   59.44    2.62
  -4  -3  -1   60.81    3.92
  -4   3  -1   65.03    2.14
   4   3   1   71.28    3.36
  -4   3  -1   73.06    6.13
  -4   3  -2   36.48    2.70
   4  -3   2   32.76    2.84
   4  -3   2   36.85    3.93
   4  -3   2   35.02    2.74
  -4  -3  -2   33.00    3.45
   4   3   2   33.20    1.81
  -4   3  -2   32.10    2.71
   4  -3   2   36.32    2.89
  -4  -3  -2   34.59    1.79
  -4   3  -2   32.35    2.41
   4   3   2   35.55    2.52
  -4   3  -2   32.41    1.19
   4   3   2   32.65    2.63
   4   3   2   33.31    2.83
  -4   3  -2   40.07    4.85
  -4   3  -3   37.79    2.76
   4  -3   3   38.06    3.22
  -4  -3  -3   31.30    3.50
   4   3   3   40.72    3.40
   4  -3   3   34.52    3.17
   4   3   3   35.27    3.00
  -4   3  -3   37.94    3.24
   4  -3   3   38.93    3.14
   4   3   3   34.88    2.62
  -4   3  -3   37.28    2.73
  -4   3  -3   43.86    4.94
   4  -3   4  118.63    6.02
  -4  -3  -4  116.60    7.32
   4   3   4  120.41    6.51
   4  -3   4  121.48    6.95
  -4   3  -4  123.54    4.10
   4   3   4  112.49    5.63
  -4   3  -4  122.68    6.22
   4  -3   4  119.99    5.74
  -4   3  -4  127.63    7.87
   4  -3   5    3.20    1.99
   4  -3   5    1.39    1.84
   4   3   5    2.53    1.93
  -4   3  -5    2.02    1.79
   4   3   5    0.33    1.15
  -4  -3  -5    3.62    2.38
   4  -3   5    1.31    1.59
   4  -3   6   68.12    5.72
   4   3   6   63.74    4.96
  -4  -3  -6   63.56    6.40
   4  -3   6   67.23    6.14
   4   3   6   54.19    5.66
   4  -3   6   71.38    5.72
   4   3   6   68.63    5.45
  -4   3  -6   64.76    5.65
   4  -3   7   54.63    5.74
   4   3   7   47.78    5.85
   4  -3   7   55.25    5.78
   4   3   7   61.75    5.88
  -4  -3  -7   45.41    5.82
   4  -3   7   57.37    5.81
  -4   3  -7   49.70    5.18
   4   3   8    4.31    2.64
   4  -3   8    6.74    2.72
   4   3   8    7.41    2.51
  -4  -3  -8    1.81    2.21
  -4  -3  -8    4.80    2.06
   4  -3   8    4.58    2.89
   4  -3   9   21.44    4.64
  -4  -4  10    3.05    2.10
   4   4 -10   11.22    3.33
   4   4 -10    6.13    3.36
  -4  -4  10    6.67    2.28
   4  -4 -10    5.66    2.63
  -4   4  10    0.40    2.46
  -4  -4  10   13.79    4.05
   4  -4 -10    5.02    2.64
  -4   4  10    5.48    2.15
  -4  -4   9    1.34    1.78
   4   4  -9    4.11    2.33
   4   4  -9    2.78    2.08
  -4  -4   9    2.90    2.46
   4  -4  -9    3.15    2.36
  -4   4   9    1.52    1.93
  -4  -4   9    1.92    2.80
   4  -4  -9    4.43    2.41
   4   4  -8    5.45    2.61
  -4  -4   8    7.07    2.65
  -4  -4   8    6.39    1.95
   4  -4  -8    7.34    2.89
  -4   4   8    8.17    2.48
  -4  -4   8   -1.63    3.25
   4   4  -8    8.78    2.72
   4  -4  -8    7.39    2.60
  -4  -4   8    5.20    1.96
  -4   4   7    3.20    1.69
  -4  -4   7    1.21    1.25
  -4  -4   7    5.11    2.27
   4  -4  -7    3.27    2.44
  -4  -4   7   -2.46    3.03
   4   4  -7    1.72    1.79
   4   4  -7    3.91    1.89
   4  -4  -7    3.59    2.19
  -4  -4   7    3.83    1.64
  -4  -4   6    3.11    1.01
  -4   4   6    2.27    0.63
   4  -4  -6    1.94    1.73
  -4   4   6    2.43    1.01
   4  -4  -6    2.96    0.63
  -4   4   6    2.42    0.93
   4   4  -6    1.79    1.42
   4   4  -6    2.84    1.54
  -4  -4   6   -0.32    2.00
   4  -4  -6    3.32    1.69
  -4  -4   6    3.18    1.39
  -4  -4   5   12.84    1.45
   4   4  -5   13.01    2.22
   4   4  -5   11.35    1.99
   4  -4  -5   13.24    2.76
   4   4  -5   11.70    0.97
  -4   4   5   10.47    1.66
  -4   4   5   12.50    2.09
  -4   4   5   10.26    1.46
  -4  -4   5   12.48    2.31
   4  -4  -5   11.08    0.94
   4  -4  -5   12.73    2.33
  -4  -4   5   14.05    2.10
  -4  -4   5   10.47    1.31
  -4  -4   4   98.08    3.38
   4  -4  -4   95.94    5.77
  -4   4   4   90.49    4.19
  -4  -4   4   91.97    4.93
   4   4  -4   89.87    4.54
  -4   4   4   92.22    4.63
  -4   4   4   88.55    3.82
  -4  -4   4   96.88    4.80
   4   4  -4   90.52    4.62
   4   4  -4   99.55    5.15
   4  -4  -4   88.14    2.74
   4  -4  -4   93.27    4.98
  -4  -4   4   92.43    4.72
   4   4  -3    5.27    1.35
   4   4  -3    7.47    1.59
  -4  -4   3    9.18    2.09
   4  -4  -3    9.10    1.93
  -4   4   3    5.66    1.23
  -4   4   3    5.16    1.39
   4   4  -3    7.69    1.39
  -4   4   3    6.80    0.85
  -4   4   3    6.26    1.29
   4   4  -3    5.38    0.83
  -4  -4   3    9.18    1.51
  -4   4   3    7.33    1.73
  -4   4   3    5.91    0.79
   4  -4  -3    5.26    1.38
  -4  -4   3    7.65    1.60
   4   4  -3    5.40    0.87
   4  -4  -3    6.03    0.93
   4  -4  -2  151.20    5.88
   4   4  -2  149.74    3.60
   4   4  -2  153.15    5.33
  -4  -4   2  155.13    6.76
  -4   4   2  159.59    4.13
  -4   4   2  161.94    5.35
   4   4  -2  154.47    5.37
  -4   4   2  160.98    5.59
  -4   4   2  163.33    5.73
   4   4  -2  155.44    3.63
  -4  -4   2  147.27    4.45
   4   4  -2  159.07    6.17
   4  -4  -2  162.83    6.11
  -4   4   2  167.39    6.53
  -4  -4   2  155.10    6.07
  -4   4   2  166.52    5.05
  -4   4   2  164.67    6.41
   4  -4  -1  197.40    6.23
   4   4  -1  184.69    4.07
  -4   4   1  193.56    5.02
  -4   4   1  185.12    5.92
   4   4  -1  193.56    5.73
  -4  -4   1  194.55    7.81
  -4   4   1  192.06    5.37
   4   4  -1  191.19    6.01
  -4   4   1  197.73    5.90
   4   4  -1  189.18    4.09
  -4   4   1  200.56    6.55
  -4  -4   1  196.44    4.58
   4  -4  -1  202.47    6.56
   4  -4  -1  208.86    6.69
  -4   4   1  207.60    7.22
  -4  -4   1  184.22    6.84
  -4   4   1  192.32    5.73
  -4   4   1  206.08    7.11
   4  -4  -1  194.59    6.30
   4  -4   0  209.35    6.70
   4   4   0  192.85    4.49
   4   4   0  201.59    5.74
  -4   4   0  209.00    7.91
  -4  -4   0  206.75    8.41
   4   4   0  199.90    6.32
   4  -4   0  206.98    4.70
  -4   4   0  212.72    6.25
  -4   4   0  213.12    6.84
   4   4   0  190.30    5.48
  -4  -4   0  196.42    3.75
   4  -4   0  211.08    6.84
  -4  -4   0  210.19    6.06
  -4   4   0  218.17    7.21
  -4   4   0  181.73    6.93
  -4  -4   0  196.42    7.40
  -4   4   0  215.56    5.22
  -4   4   0  205.81    8.44
  -4   4   0  215.26    6.05
   4  -4   0  220.19    6.32
   4  -4   1  337.84    8.89
  -4   4  -1  313.24    9.27
  -4  -4  -1  322.00   11.05
   4   4   1  330.72    8.54
   4  -4   1  343.12    7.46
  -4   4  -1  330.31    8.77
  -4  -4  -1  308.87    7.41
  -4   4  -1  326.03   10.93
   4  -4   1  341.92    9.01
   4   4   1  299.67    6.36
  -4  -4  -1  311.36    7.25
  -4   4  -1  339.22    8.94
  -4   4  -1  349.24    5.62
   4   4   1  349.12    7.78
  -4   4  -1  308.10   11.56
   4   4   1  314.33    6.53
   4  -4   2  194.39    6.97
  -4   4  -2  164.73    6.34
  -4  -4  -2  181.06    8.82
   4   4   2  187.60    6.72
   4  -4   2  202.88    6.67
   4   4   2  176.58    4.26
  -4   4  -2  191.56    6.83
   4  -4   2  197.99    7.13
  -4  -4  -2  177.49    5.05
  -4   4  -2  186.43    6.60
   4   4   2  195.47    5.93
  -4   4  -2  194.31    9.79
   4  -4   3  106.69    5.46
  -4   4  -3  111.25    5.53
  -4  -4  -3  112.62    7.42
   4   4   3   99.23    5.22
   4  -4   3  106.44    5.43
  -4   4  -3  107.50    5.17
   4  -4   3  115.91    5.95
   4   4   3  102.99    4.41
  -4   4  -3  127.11    8.53
   4  -4   4  325.27   10.39
  -4  -4  -4  318.65   13.41
   4   4   4  301.32    9.43
   4  -4   4  335.97   12.08
  -4   4  -4  326.60   10.28
   4  -4   4  317.32   10.11
   4   4   4  325.11   10.62
   4  -4   5    8.19    2.34
   4  -4   5    1.62    1.84
   4   4   5    7.52    1.91
   4   4   5    8.35    2.48
  -4   4  -5    6.54    2.57
  -4  -4  -5    3.17    2.27
   4  -4   5    8.09    2.43
   4  -4   6   29.35    4.14
   4  -4   6   21.88    4.02
   4   4   6   28.23    4.30
  -4   4  -6   25.17    4.05
  -4  -4  -6   16.62    3.97
   4   4   6   27.52    3.63
   4  -4   6   25.83    3.86
   4  -4   7    4.93    2.95
   4  -4   7    1.50    1.84
   4   4   7   -2.83    2.90
   4   4   7    3.68    2.17
  -4   4  -7    5.57    2.34
  -4  -4  -7   -0.17    1.96
   4  -4   7    2.04    2.40
   4   4   8    1.24    2.28
   4  -4   8   -0.62    2.71
  -4   5  10    5.37    2.46
   4   5  -9    7.90    2.90
  -4  -5   9    5.85    2.60
   4  -5  -9    6.52    2.85
  -4   5   9    8.06    2.75
  -4  -5   9   -3.87    3.44
  -4   5   9    6.34    2.50
   4  -5  -9    3.32    2.39
   4   5  -9    3.31    2.52
  -4  -5   8    7.45    2.18
   4   5  -8    5.92    2.46
  -4  -5   8    8.72    3.09
   4  -5  -8    6.52    3.12
  -4   5   8    6.45    2.28
  -4  -5   8    1.58    2.47
  -4   5   8    1.91    2.00
   4   5  -8    0.43    1.84
   4  -5  -8    4.72    2.63
  -4  -5   7  122.94    5.52
   4  -5  -7  127.61    9.78
  -4   5   7  113.33    6.25
   4   5  -7  124.74    7.79
  -4  -5   7  118.40    7.91
  -4   5   7  128.28    8.52
  -4  -5   7  132.72    8.41
   4  -5  -7  126.65    8.03
   4   5  -7  129.00    7.82
  -4  -5   7  126.65    6.83
  -4  -5   6   39.11    2.80
  -4   5   6   34.22    3.26
  -4  -5   6   46.40    4.54
   4  -5  -6   37.38    5.05
  -4   5   6   39.17    2.69
  -4  -5   6   38.32    4.10
  -4   5   6   39.74    4.61
   4   5  -6   41.38    4.30
   4   5  -6   37.80    3.98
   4  -5  -6   41.40    4.32
  -4  -5   6   42.98    3.91
  -4  -5   5  103.03    4.22
   4  -5  -5  105.18    7.28
   4   5  -5  102.04    5.49
  -4   5   5   95.47    5.07
  -4   5   5  102.23    4.28
  -4  -5   5  107.55    5.80
   4   5  -5   99.49    5.49
   4   5  -5  110.50    6.21
  -4   5   5  109.73    6.70
   4  -5  -5  101.97    6.06
  -4  -5   5  101.98    5.60
  -4  -5   5  103.85    6.08
  -4   5   5  100.33    5.56
  -4  -5   4  125.06    4.39
   4  -5  -4  125.66    7.14
   4   5  -4  116.49    4.53
  -4  -5   4  103.98    6.27
  -4   5   4  121.12    5.47
  -4   5   4  118.32    4.71
   4   5  -4  117.81    5.80
  -4   5   4  117.73    5.63
  -4  -5   4  117.38    5.40
   4   5  -4  114.22    5.43
   4   5  -4  119.36    4.50
   4   5  -4  126.43    6.26
  -4   5   4  127.43    6.81
   4  -5  -4  114.47    5.97
  -4  -5   4  113.74    5.75
   4  -5  -3  178.68    7.64
   4   5  -3  162.67    4.78
  -4  -5   3  156.89    7.83
  -4   5   3  174.52    6.41
  -4   5   3  170.75    6.41
   4   5  -3  173.42    6.64
   4   5  -3  168.90    6.26
  -4   5   3  179.53    6.14
   4   5  -3  167.49    4.82
  -4  -5   3  166.26    5.67
   4   5  -3  174.94    7.08
  -4   5   3  183.75    7.86
   4  -5  -3  182.44    7.15
  -4   5   3  175.77    4.32
  -4  -5   3  168.75    3.81
  -4  -5   3  163.40    6.88
   4  -5  -2   54.18    3.82
   4   5  -2   48.40    2.45
  -4  -5   2   44.57    4.29
   4   5  -2   49.30    3.50
   4   5  -2   54.92    3.39
  -4   5   2   51.36    3.44
  -4   5   2   54.01    3.59
   4   5  -2   51.88    2.52
  -4   5   2   49.41    2.17
  -4   5   2   50.69    3.41
  -4  -5   2   53.99    3.04
   4   5  -2   54.33    3.94
   4  -5  -2   57.50    3.92
  -4   5   2   54.33    4.18
  -4  -5   2   51.74    4.02
  -4   5   2   52.20    2.85
  -4  -5   2   50.51    2.95
   4  -5  -1   45.03    3.21
   4   5  -1   43.86    2.33
  -4   5   1   46.05    2.44
   4   5  -1   46.79    2.92
   4   5  -1   45.32    3.37
  -4  -5   1   42.27    4.21
  -4   5   1   46.35    3.30
   4   5  -1   47.03    2.41
  -4   5   1   45.41    3.18
  -4   5   1   49.05    3.61
  -4  -5   1   45.84    2.46
   4  -5  -1   47.04    3.56
   4  -5  -1   50.96    3.60
  -4   5   1   48.03    3.95
  -4  -5   1   45.81    3.84
  -4  -5   1   48.30    3.82
  -4   5   1   52.57    3.45
  -4   5   1   46.67    3.21
   4  -5   0    0.31    1.21
   4   5   0    1.06    0.74
   4  -5   0    0.68    0.74
  -4   5   0    2.90    1.61
   4  -5   0    0.35    0.43
  -4   5   0    0.43    0.70
   4   5   0    0.37    0.91
  -4   5   0    1.43    0.96
  -4   5   0   -0.02    0.86
  -4  -5   0   -0.12    1.50
   4   5   0    1.74    0.82
  -4   5   0    0.87    1.42
  -4  -5   0    0.34    0.57
   4  -5   0   -0.25    1.17
  -4   5   0    0.11    1.07
   4  -5   0    0.94    0.89
  -4   5   0    1.01    0.81
   4  -5   1   18.45    2.49
   4  -5   1   17.10    1.70
  -4   5  -1   18.01    2.27
  -4   5  -1   20.27    3.12
   4   5   1   18.06    2.33
  -4  -5  -1   20.81    3.69
  -4   5  -1   20.25    2.61
   4  -5   1   18.09    2.53
  -4   5  -1   17.46    2.43
  -4   5  -1   18.91    1.38
   4   5   1   18.35    1.88
   4  -5   2   12.82    2.37
   4   5   2   13.32    1.62
   4  -5   2   10.27    1.69
   4   5   2   15.67    2.29
  -4   5  -2    9.88    2.63
  -4  -5  -2   15.83    3.59
  -4   5  -2   15.70    2.38
   4  -5   2   12.40    2.14
  -4   5  -2   13.02    2.17
   4  -5   3   16.29    2.52
   4  -5   3   16.35    2.46
  -4   5  -3   18.81    3.54
   4   5   3   13.28    2.20
  -4  -5  -3   14.25    3.42
  -4   5  -3   17.74    2.67
   4   5   3   18.20    1.92
   4  -5   3   23.10    3.06
  -4   5  -3   14.90    2.34
   4  -5   4   44.56    4.09
  -4  -5  -4   49.22    6.14
   4   5   4   41.59    3.90
   4  -5   4   45.07    4.49
  -4   5  -4   47.29    4.25
   4  -5   4   55.18    4.74
  -4   5  -4   57.03    6.38
   4  -5   5    0.57    1.73
   4  -5   5   -3.81    2.60
  -4   5  -5    4.12    2.81
   4   5   5    5.99    2.28
  -4  -5  -5   -1.22    2.54
  -4   5  -5   -1.55    2.17
   4  -5   5    3.17    2.06
  -4  -5  -5    0.71    1.67
   4  -5   6   39.43    4.80
   4   5   6   35.27    4.01
   4  -5   6   32.24    4.75
  -4  -5  -6   25.19    4.64
   4   5   6   35.66    4.78
   4  -5   6   37.74    4.70
  -4   5  -6   47.21    5.80
  -4  -5  -6   30.06    4.48
   4   5   7   29.08    4.26
   4  -5   7   24.13    4.36
  -4   6   9    1.57    2.15
  -4  -6   8    4.19    2.63
  -4   6   8    4.37    2.11
   4   6  -8    1.77    2.09
  -4  -6   8    0.79    2.36
  -4   6   8   -0.91    2.36
   4   6  -7    1.23    2.07
   4   6  -7    1.66    1.78
  -4  -6   7    3.55    2.41
   4  -6  -7    0.16    2.64
  -4   6   7    0.66    1.28
   4   6  -7    1.06    1.38
  -4  -6   7    4.80    2.53
  -4   6   7    1.60    2.12
   4  -6  -7   -3.19    2.09
   4   6  -6    2.31    1.70
   4   6  -6    0.75    1.77
   4  -6  -6   -1.41    2.49
  -4   6   6    0.89    1.22
   4   6  -6    0.09    1.19
  -4  -6   6    5.73    2.53
  -4  -6   6    8.45    2.52
  -4   6   6    2.20    2.28
   4  -6  -6   -0.58    1.43
  -4  -6   6   -0.54    1.54
  -4  -6   5    2.25    1.09
   4   6  -5    1.36    1.42
   4  -6  -5    3.19    2.35
  -4   6   5    2.55    1.61
   4   6  -5    1.14    1.25
  -4   6   5    0.15    1.23
  -4  -6   5    5.69    1.94
  -4   6   5    3.39    2.05
   4  -6  -5    0.96    1.42
   4   6  -5    2.14    1.42
  -4  -6   5    2.72    1.62
   4  -6  -4   38.77    4.52
  -4   6   4   34.94    3.44
   4   6  -4   31.69    3.42
  -4   6   4   31.86    3.27
  -4   6   4   36.52    2.88
  -4  -6   4   42.73    5.04
   4   6  -4   30.33    3.03
   4   6  -4   33.60    2.69
  -4  -6   4   33.95    3.09
   4   6  -4   31.17    3.52
  -4   6   4   31.82    3.82
   4  -6  -4   31.39    3.40
  -4  -6   4   33.15    3.68
   4   6  -3    4.98    1.62
   4   6  -3    1.80    1.15
   4  -6  -3    3.08    1.81
  -4   6   3    1.46    1.25
   4   6  -3    3.05    1.46
  -4   6   3    2.23    1.29
  -4  -6   3    4.57    2.51
  -4   6   3    2.82    1.17
   4   6  -3    3.41    1.21
  -4  -6   3    2.67    1.30
  -4   6   3    3.14    1.68
   4  -6  -3    3.20    1.47
  -4  -6   3    2.40    1.63
   4  -6  -2   52.58    4.08
  -4   6   2   51.26    3.70
   4   6  -2   48.92    3.97
  -4   6   2   47.29    3.78
   4   6  -2   47.72    3.31
  -4   6   2   47.80    4.07
   4   6  -2   44.78    2.77
  -4  -6   2   49.01    3.13
   4   6  -2   53.02    4.30
  -4   6   2   50.01    3.72
   4  -6  -2   53.64    4.05
  -4   6   2   54.38    4.65
  -4   6   2   51.07    3.03
  -4  -6   2   51.04    2.81
  -4  -6   2   48.20    5.89
   4  -6  -1   63.75    4.09
   4   6  -1   58.74    3.37
  -4  -6   1   63.06    6.50
   4   6  -1   57.76    4.22
  -4   6   1   59.52    3.96
  -4   6   1   63.00    4.25
  -4   6   1   61.81    4.50
   4   6  -1   59.48    3.14
  -4  -6   1   56.10    3.03
   4  -6  -1   64.40    4.54
   4  -6  -1   65.76    4.32
  -4   6   1   62.52    4.86
  -4   6   1   57.83    3.59
  -4  -6   1   60.08    3.77
  -4   6   1   56.63    3.98
   4   6   0   76.87    3.66
  -4  -6   0   80.72    7.43
   4   6   0   73.86    4.75
  -4   6   0   78.01    4.35
  -4   6   0   80.77    5.20
   4  -6   0   79.34    5.30
  -4  -6   0   70.31    3.12
   4  -6   0   82.14    4.65
  -4   6   0   84.31    5.55
  -4  -6   0   79.67    5.31
  -4   6   0   83.13    4.98
  -4   6   0   76.24    3.71
  -4   6   0   75.98    4.68
   4  -6   0   85.62    4.43
   4  -6   0   77.86    4.94
   4  -6   1  126.14    6.48
  -4  -6  -1  114.85    9.08
   4   6   1  124.31    6.35
  -4   6  -1  117.05    5.87
  -4   6  -1  117.10    5.35
  -4   6  -1  127.23    6.55
   4  -6   1  129.45    6.67
  -4   6  -1  129.16    6.85
  -4  -6  -1  124.10    8.02
  -4   6  -1  133.12    7.21
   4   6   1  118.95    4.52
   4  -6   2   66.62    4.91
  -4  -6  -2   59.28    6.77
   4   6   2   63.93    4.76
  -4   6  -2   61.76    4.46
  -4   6  -2   71.81    5.15
   4  -6   2   63.46    4.85
  -4   6  -2   63.09    4.89
  -4  -6  -2   49.26    5.30
  -4   6  -2   67.15    5.89
   4  -6   3   39.10    3.96
   4  -6   3   39.13    3.53
   4   6   3   31.30    3.52
  -4   6  -3   34.80    4.85
  -4   6  -3   33.11    3.43
  -4  -6  -3   28.15    5.02
  -4   6  -3   43.12    4.17
   4  -6   3   35.65    3.98
  -4   6  -3   35.85    3.76
  -4  -6  -3   26.32    4.13
   4  -6   4  125.35    7.17
  -4  -6  -4  105.46    9.38
   4   6   4  116.85    6.87
   4  -6   4  118.82    7.15
  -4   6  -4  124.45    7.29
   4  -6   4  138.67    7.93
  -4  -6  -4  102.53    7.81
  -4   6  -4  123.60    9.06
   4  -6   5   -0.59    2.10
  -4   6  -5    2.41    2.63
   4  -6   5   -0.68    2.07
   4   6   5    9.02    2.92
  -4  -6  -5    1.64    2.69
  -4   6  -5    2.30    1.94
   4  -6   5    6.84    2.87
  -4  -6  -5    3.62    2.36
   4  -6   6    9.94    2.91
  -4   7   7   31.55    3.92
  -4  -7   7   42.32    5.55
   4   7  -7   37.50    4.65
  -4  -7   7   37.18    4.72
  -4  -7   6   19.41    3.86
   4  -7  -6   16.29    4.28
  -4   7   6   11.73    2.52
   4   7  -6   13.93    2.78
  -4  -7   6   12.80    2.74
  -4   7   6   13.51    3.49
   4   7  -6   14.08    2.72
   4  -7  -6    9.85    2.65
   4   7  -5   27.73    3.87
  -4  -7   5   41.01    4.75
  -4   7   5   34.07    3.82
   4   7  -5   25.24    3.44
   4  -7  -5   32.57    4.90
   4   7  -5   29.07    3.38
  -4  -7   5   32.97    3.71
  -4   7   5   36.63    4.87
   4  -7  -5   30.43    3.83
   4  -7  -4   37.67    4.57
  -4   7   4   36.66    3.98
   4   7  -4   40.55    4.06
  -4   7   4   34.28    3.51
   4   7  -4   36.77    3.49
  -4  -7   4   41.00    3.75
   4   7  -4   37.55    4.18
   4  -7  -4   36.51    3.91
  -4   7   4   42.21    4.83
   4  -7  -3   47.07    4.57
  -4   7   3   47.09    4.21
   4   7  -3   41.19    3.39
  -4   7   3   44.56    3.91
  -4   7   3   48.66    3.72
  -4  -7   3   45.28    3.54
   4   7  -3   49.73    4.52
   4  -7  -3   50.98    4.39
  -4   7   3   46.12    4.80
   4   7  -3   46.03    4.37
  -4   7   2   18.47    2.58
   4   7  -2   14.87    2.63
   4  -7  -2   19.42    2.86
  -4   7   2   13.16    2.34
   4   7  -2   11.61    2.39
  -4   7   2   14.98    2.28
  -4  -7   2   14.45    4.16
  -4   7   2   17.28    2.97
  -4  -7   2   14.47    2.06
  -4   7   2   15.20    2.94
   4  -7  -2   15.24    2.60
   4  -7  -1   14.10    2.21
   4   7  -1   12.09    2.42
  -4   7   1   13.13    2.33
  -4   7   1   13.08    2.15
  -4   7   1   13.87    2.66
  -4  -7   1    6.13    2.46
   4  -7  -1   14.09    2.69
  -4   7   1   15.94    3.02
   4  -7  -1   13.86    2.27
  -4   7   0    2.24    1.25
   4   7   0    0.66    1.31
  -4   7   0   -1.55    1.25
  -4   7   0    0.50    1.24
  -4  -7   0   -1.03    2.46
  -4   7   0   -0.81    1.62
   4  -7   0    0.54    1.59
  -4   7   0    2.61    1.89
  -4  -7   0    1.81    1.41
  -4  -7  -1    3.48    2.61
   4  -7   1    4.83    2.09
  -4   7  -1    4.91    1.88
   4   7   1    2.75    1.53
  -4   7  -1    3.45    1.34
  -4   7  -1    4.56    1.75
  -4   7  -1    2.98    1.86
   4  -7   1    4.79    2.15
  -4   7  -1    2.29    1.44
  -4  -7  -1    6.21    2.26
   4   7   2    5.11    1.77
   4  -7   2    5.21    2.20
  -4   7  -2    2.09    1.28
  -4   7  -2    1.89    1.95
  -4   7  -2    3.24    1.45
  -4  -7  -2   -0.86    2.24
  -4   7  -2    4.72    2.02
   4  -7   2    4.12    2.07
  -4   7  -2    3.65    1.74
  -4  -7  -2    4.39    2.44
   4  -7   3    5.67    2.18
   4   7   3    7.20    2.13
  -4   7  -3    5.85    2.14
  -4  -7  -3    0.27    2.26
  -4   7  -3    3.90    2.49
  -4   7  -3    8.61    2.70
   4  -7   3    8.03    2.62
  -4   7  -3    6.20    2.16
  -4  -7  -3    6.33    2.85
  -4   7  -4    9.12    3.13
  -4  -7  -4    8.81    2.85
  -4  -8   5    7.38    2.82
  -4  -8   5    1.53    1.78
   4  -8  -4   10.97    3.07
  -4   8   4   11.74    2.70
  -4  -8   4    6.62    2.01
   4  -8  -4   11.70    2.81
   4   8  -3   -0.87    1.59
   4  -8  -3    0.86    1.46
  -4   8   3    0.79    1.35
   4  -8  -3    2.80    1.70
   4   8  -2   13.43    2.85
   4  -8  -2   10.88    2.42
  -4   8   2   10.55    2.40
   4   8  -2   13.48    2.77
   4  -8  -2   11.52    2.37
   4   8  -1   12.16    2.64
  -4   8   1   12.70    2.61
  -4  -8   1   11.84    4.38
  -4   8   1   10.76    2.39
   4  -8  -1   13.59    2.35
  -4   8   0   18.76    3.05
  -4  -8   0   10.56    3.65
  -4  -8  -1   28.22    5.53
  -4   8  -2   14.13    3.08
  -5   0  12    1.04    1.77
   5   0 -12    0.13    1.94
   5   0 -11    2.49    1.81
  -5   0  11   -1.08    2.50
   5   0 -11   -1.68    2.18
  -5   0  11    2.87    2.39
   5   0 -10   11.71    2.65
  -5   0  10   12.53    3.25
   5   0 -10   12.81    3.26
   5   0 -10   11.62    2.45
  -5   0  10   22.22    4.07
   5   0  -9   58.07    3.89
  -5   0   9   66.88    6.20
   5   0  -9   74.47    4.71
   5   0  -9   61.88    5.54
   5   0  -9   61.01    4.53
  -5   0   9   61.10    5.72
   5   0  -9   52.96    4.79
   5   0  -8   68.02    4.44
  -5   0   8   80.71    5.92
   5   0  -8   83.61    4.45
   5   0  -8   68.24    5.12
   5   0  -8   70.57    4.49
  -5   0   8   64.36    5.65
   5   0  -8   60.52    4.85
   5   0  -7  133.63    6.47
  -5   0   7  145.47    6.71
   5   0  -7  128.75    6.02
   5   0  -7  143.51    5.26
   5   0  -7  135.08    5.65
  -5   0   7  131.10    7.32
  -5   0   7  134.11    5.04
   5   0  -7  133.08    6.57
   5   0  -6  128.26    6.67
   5   0  -6  117.51    5.22
   5   0  -6  128.83    4.64
   5   0  -6  119.48    4.90
  -5   0   6  116.74    4.26
  -5   0   6  124.28    6.42
   5   0  -6  124.16    5.88
   5   0  -5  344.58    7.77
  -5   0   5  329.05    7.94
   5   0  -5  330.05    8.27
   5   0  -5  344.99    7.93
  -5   0   5  345.43    7.62
  -5   0   5  334.56    7.04
  -5   0   5  353.15    9.60
   5   0  -4  215.86    4.12
   5   0  -4  220.21    6.27
   5   0  -4  221.67    6.02
  -5   0   4  231.57    6.15
   5   0  -4  213.02    5.84
  -5   0   4  216.86    5.48
  -5   0   4  222.26    5.77
  -5   0   4  212.26    6.65
  -5   0   3  292.03    4.92
   5   0  -3  277.47   11.63
   5   0  -3  298.16    7.07
  -5   0   3  303.19    6.88
  -5   0   3  287.94    7.34
  -5   0   3  290.05    6.98
  -5   0   3  282.89    6.32
  -5   0   3  290.90    6.64
  -5   0   3  279.17    7.16
  -5   0   2  197.67    3.76
   5   0  -2  197.56    5.60
  -5   0   2  194.65    5.37
  -5   0   2  196.78    5.36
  -5   0   2  195.74    5.49
   5   0  -2  196.06    5.78
  -5   0   2  205.64    3.81
  -5   0   2  200.34    5.91
  -5   0   2  198.86    5.49
  -5   0   2  197.71    5.73
   5   0  -2  188.86    5.68
  -5   0   2  184.21    5.61
   5   0  -1  296.34    4.91
  -5   0   1  280.90    5.00
   5   0  -1  284.52   12.58
  -5   0   1  288.19    6.89
  -5   0   1  291.44    6.84
   5   0  -1  294.39    7.09
  -5   0   1  299.89    7.28
  -5   0   1  287.00    5.04
  -5   0   1  298.39    5.57
  -5   0   1  292.86    6.96
  -5   0   1  303.81    6.99
   5   0  -1  288.40    6.91
   5   0  -1  293.04    6.95
   5   0   0  120.75    3.39
  -5   0   0  117.34    3.78
   5   0   0  135.08    8.39
  -5   0   0  115.62    2.89
   5   0   0  117.63    4.49
   5   0   0  115.02    3.32
  -5   0   0  117.07    4.47
  -5   0   0  114.74    3.71
  -5   0   0  121.36    3.33
  -5   0   0  119.47    4.19
   5   0   0  115.90    4.23
   5   0   0  118.25    4.57
   5   0   1    9.34    1.22
   5   0   1    8.54    1.45
   5   0   1   10.54    2.24
   5   0   1    8.44    1.46
  -5   0  -1    9.91    1.25
  -5   0  -1    8.39    1.41
  -5   0  -1    9.54    0.99
   5   0   1    8.33    1.11
  -5   0  -1    8.38    1.21
   5   0   1    9.33    1.36
   5   0   2    8.02    1.50
   5   0   2    6.50    1.22
   5   0   2    9.45    2.07
   5   0   2    5.49    1.36
  -5   0  -2    4.17    1.06
  -5   0  -2    8.48    1.52
   5   0   2    6.25    1.16
   5   0   2    7.93    1.00
  -5   0  -2    6.34    0.60
  -5   0  -2    8.93    1.40
   5   0   2    7.51    1.29
   5   0   3    3.30    1.45
   5   0   3    0.10    0.91
   5   0   3   -1.14    1.34
  -5   0  -3    1.04    0.97
  -5   0  -3    2.15    1.22
   5   0   3    1.37    0.74
   5   0   3    1.45    0.89
   5   0   4   34.89    3.46
   5   0   4   30.63    2.88
  -5   0  -4   35.79    3.33
   5   0   4   37.05    3.65
  -5   0  -4   33.28    3.21
   5   0   4   33.02    2.27
  -5   0  -5  114.50    7.37
   5   0   5   97.07    6.37
   5   0   5  102.40    5.10
  -5   0  -5  113.28    6.08
   5   0   5  120.94    7.16
  -5   0  -5  108.12    5.89
   5   0   5  113.17    4.77
  -5   0  -6   38.67    4.84
   5   0   6   39.31    4.86
  -5   0  -6   57.58    4.70
   5   0   6   54.80    5.80
  -5   0  -6   39.52    3.74
   5   0   6   50.47    3.91
   5   0   7   34.96    5.06
  -5   0  -7   32.85    4.07
   5   0   7   24.81    4.17
  -5   0  -7   23.97    4.07
  -5   0  -7   23.16    2.97
  -5   0  -8   49.34    5.84
   5   0   8   66.41    6.76
  -5  -1  12   -1.29    1.74
   5  -1 -12    0.68    1.87
  -5   1  12   -1.65    2.17
  -5  -1  12   -0.45    1.75
  -5  -1  11    6.79    2.22
   5  -1 -11    3.62    2.10
  -5  -1  11    4.31    2.50
  -5   1  11    6.81    2.38
   5  -1 -11    7.44    2.44
   5   1 -11    8.28    3.10
   5  -1 -11    7.27    2.59
  -5  -1  11   12.14    3.32
  -5   1  11    9.00    2.62
   5   1 -10   30.97    3.93
  -5  -1  10   29.43    4.85
  -5   1  10   26.39    4.17
   5  -1 -10   27.75    4.08
   5   1 -10   35.21    5.15
   5  -1 -10   33.67    4.48
   5  -1 -10   28.12    3.72
  -5   1  10   37.13    4.82
  -5  -1  10   29.07    4.11
   5  -1  -9    7.49    2.23
   5   1  -9    8.64    2.15
   5  -1  -9    4.81    1.46
   5   1  -9    5.26    1.35
   5  -1  -9    7.99    2.35
  -5  -1   9    9.04    2.80
  -5   1   9    5.11    1.90
   5   1  -9    6.14    2.26
   5   1  -9    5.70    1.59
   5  -1  -9    7.25    2.16
  -5  -1   9    6.08    2.31
  -5   1   9    7.60    2.74
   5   1  -8   15.35    2.26
   5  -1  -8   14.39    2.23
   5  -1  -8    9.56    2.35
  -5   1   8   13.84    2.83
   5   1  -8   16.44    2.93
  -5  -1   8   17.79    3.18
   5  -1  -8   16.42    1.78
   5   1  -8   14.12    1.96
   5  -1  -8   11.73    2.21
   5   1  -8   14.86    2.34
  -5  -1   8   12.06    2.47
   5  -1  -8   13.79    2.29
  -5   1   8   13.35    2.98
   5  -1  -7   34.25    3.68
   5   1  -7   35.26    3.49
   5  -1  -7   30.56    3.29
  -5   1   7   34.55    3.49
   5  -1  -7   30.47    2.76
   5   1  -7   35.90    3.04
   5   1  -7   31.60    3.35
   5   1  -7   34.96    2.67
   5  -1  -7   32.33    3.06
  -5  -1   7   31.80    2.48
  -5  -1   7   34.10    3.69
  -5   1   7   36.36    4.28
  -5   1   7   30.89    2.13
   5   1  -6   20.81    3.08
   5  -1  -6   17.55    1.91
   5   1  -6   15.57    2.35
  -5   1   6   13.41    2.01
   5  -1  -6   17.40    1.99
   5  -1  -6   20.19    2.70
   5  -1  -6   19.06    2.72
   5   1  -6   18.12    2.08
   5   1  -6   15.75    1.71
  -5  -1   6   19.76    1.76
  -5   1   6   17.28    1.46
   5  -1  -6   16.96    2.08
   5   1  -6   16.45    2.23
  -5  -1   6   19.20    2.60
  -5   1   6   20.36    3.02
   5  -1  -5    3.20    1.25
   5   1  -5    3.48    1.04
   5   1  -5    4.78    1.86
   5  -1  -5    4.12    1.10
   5  -1  -5    5.74    1.95
  -5   1   5    6.91    1.76
   5  -1  -5    3.23    0.68
   5   1  -5    4.16    0.98
  -5   1   5    3.60    1.12
  -5  -1   5    5.03    1.13
   5   1  -5    4.99    1.34
   5   1  -5    4.31    1.19
   5   1  -5    3.33    0.86
   5  -1  -5    3.08    1.16
  -5  -1   5    4.90    0.88
  -5   1   5    4.50    0.79
  -5  -1   5    4.29    1.39
  -5   1   5    5.98    1.92
   5   1  -4  105.09    7.11
   5  -1  -4   99.05    6.66
   5   1  -4   94.86    4.03
  -5   1   4  102.97    4.37
   5  -1  -4   93.77    3.91
   5  -1  -4   90.13    2.46
  -5   1   4   93.93    4.22
  -5  -1   4   91.96    3.57
   5   1  -4   90.95    4.21
  -5   1   4   86.44    4.05
  -5   1   4   88.06    3.05
   5  -1  -4   89.80    4.11
  -5  -1   4   89.94    3.34
  -5  -1   4   89.96    3.83
  -5   1   4   94.31    3.94
  -5  -1   4   85.76    4.19
  -5   1   4   93.02    4.57
   5  -1  -4   92.68    4.57
  -5   1   4   89.82    3.37
  -5   1   3  178.71    4.49
   5   1  -3  188.94    9.99
   5  -1  -3  160.88    8.71
  -5   1   3  149.27    3.84
   5   1  -3  180.21    5.64
  -5   1   3  175.36    4.86
  -5   1   3  189.28    5.65
  -5  -1   3  181.62    4.78
  -5   1   3  183.34    5.72
   5  -1  -3  181.16    5.23
  -5   1   3  185.78    5.30
  -5   1   3  175.57    4.51
   5  -1  -3  181.43    5.62
  -5  -1   3  179.42    5.34
  -5  -1   3  180.69    4.85
   5   1  -3  162.99    2.92
  -5  -1   3  170.80    5.68
  -5   1   3  173.35    5.57
  -5  -1   3  172.97    5.45
   5  -1  -2  266.99    6.42
  -5   1   2  269.02    5.53
   5  -1  -2  232.17   10.74
   5   1  -2  260.55    6.63
   5   1  -2  248.05    3.59
  -5   1   2  268.87    6.12
  -5   1   2  264.04    6.30
  -5   1   2  273.75    6.71
  -5  -1   2  265.97    5.83
  -5   1   2  268.89    5.59
   5   1  -2  259.20    6.77
  -5   1   2  268.12    7.00
  -5   1   2  283.53    6.53
  -5  -1   2  268.64    6.75
  -5  -1   2  261.72    6.18
  -5  -1   2  256.77    6.87
  -5   1   2  262.36    6.56
   5  -1  -2  251.63    6.80
   5   1  -2  236.72   11.79
   5  -1  -1  419.82    7.10
   5   1  -1  364.89    4.36
   5   1  -1  417.96    8.55
  -5   1   1  411.84    7.15
   5   1  -1  416.72   16.32
  -5   1   1  426.66    8.12
  -5   1   1  362.83    4.54
  -5  -1   1  383.11    5.12
   5  -1  -1  413.80   14.75
   5   1  -1  404.60    8.32
  -5   1   1  413.23    8.83
  -5   1   1  410.18    7.19
  -5  -1   1  403.12    8.48
  -5   1   1  328.83    6.77
  -5   1   1  425.09    7.59
  -5  -1   1  389.10    5.67
  -5  -1   1  407.21    8.63
  -5   1   1  436.82    8.26
   5  -1  -1  404.59    8.30
   5  -1  -1  423.47    8.48
  -5   1   1  401.52    8.12
   5   1  -1  421.15    6.29
  -5   1   1  390.56    8.56
   5  -1   0  730.96   10.41
   5  -1   0  721.55   11.46
   5   1   0  712.06    8.39
  -5   1   0  726.17   10.71
   5   1   0  818.03   22.16
   5  -1   0  856.00   20.95
  -5   1   0  644.09   12.43
   5   1   0  817.95   13.31
  -5   1   0  747.73   11.93
  -5  -1   0  707.90    8.87
   5   1   0  712.50   11.28
  -5   1   0  722.29   12.25
   5   1   0  688.58    8.36
  -5  -1   0  699.95   11.60
  -5   1   0  732.15   10.73
  -5   1   0  798.22   11.08
  -5  -1   0  704.98    7.63
   5  -1   0  730.68   12.18
  -5  -1   0  724.82   12.02
  -5   1   0  735.60   10.72
   5  -1   0  723.81   11.30
   5   1   0  729.28   12.03
  -5   1   0  704.01   12.15
   5  -1   1  402.35    8.03
   5   1   1  387.03    7.02
  -5   1  -1  413.02    8.65
   5  -1   1  450.97   13.85
   5   1   1  376.23   10.34
  -5   1  -1  416.59   11.23
  -5  -1  -1  389.58    7.24
   5  -1   1  400.46    8.90
   5   1   1  401.16    9.29
   5   1   1  414.38   14.33
  -5   1  -1  390.70    9.00
   5  -1   1  408.63    8.10
  -5  -1  -1  394.23    8.52
   5   1   1  374.71    6.96
  -5   1  -1  411.70    7.62
  -5   1  -1  399.15    8.42
   5  -1   1  411.18    7.71
  -5   1  -1  380.83    6.77
   5  -1   1  399.34    9.16
  -5  -1  -1  390.45    8.69
  -5   1  -1  399.17    7.39
   5   1   1  400.14    8.92
   5  -1   1  396.96    7.92
   5  -1   2  387.80    8.64
   5   1   2  393.26    8.60
   5   1   2  365.57   12.19
   5  -1   2  374.41   11.45
  -5   1  -2  432.62   12.37
  -5  -1  -2  383.55    8.49
   5   1   2  391.62    9.76
  -5   1  -2  372.35    9.28
  -5  -1  -2  393.93    8.68
   5  -1   2  385.90    9.51
   5   1   2  371.22    8.37
  -5   1  -2  400.31    7.91
   5  -1   2  388.98    7.74
   5  -1   2  382.68    9.61
  -5   1  -2  378.64    6.45
   5   1   2  380.85    9.06
   5   1   2  375.66   11.48
  -5  -1  -2  395.90    9.21
  -5   1  -2  398.51    7.58
   5  -1   2  380.12    7.78
   5  -1   3  209.43    7.01
   5   1   3  210.69    7.44
   5   1   3  179.78    7.76
   5  -1   3  199.92    7.80
  -5  -1  -3  223.13    7.99
   5  -1   3  214.02    7.68
   5   1   3  209.40    7.49
  -5   1  -3  214.56    7.62
  -5  -1  -3  225.83    6.88
   5   1   3  211.15    8.98
   5  -1   3  219.02    6.05
   5   1   3  195.86    3.61
   5   1   3  203.42    6.91
  -5   1  -3  204.19    4.34
   5  -1   3  204.91    5.79
  -5   1  -4   63.57    5.44
   5  -1   4   54.56    4.10
   5   1   4   53.33    4.44
   5   1   4   50.97    3.86
  -5  -1  -4   62.62    4.61
   5  -1   4   60.13    4.10
  -5   1  -4   59.92    3.91
   5  -1   4   61.51    4.75
   5   1   4   56.87    4.32
  -5   1  -4   59.14    4.59
  -5  -1  -4   61.77    3.96
   5  -1   4   61.52    3.52
   5   1   4   57.15    2.25
   5  -1   4   55.22    3.17
  -5   1  -5  102.87    7.22
   5  -1   5  104.61    6.38
   5   1   5  105.62    7.11
   5   1   5  101.21    5.18
   5  -1   5  120.47    5.75
  -5  -1  -5  118.38    6.65
  -5   1  -5  119.49    5.73
   5  -1   5  120.77    7.54
   5   1   5  117.32    6.89
  -5   1  -5  108.44    6.57
  -5  -1  -5  109.67    5.34
   5  -1   5  120.61    5.56
   5  -1   6   12.58    2.96
   5   1   6   17.65    3.74
   5  -1   6   21.51    4.01
   5   1   6   19.93    3.53
  -5   1  -6   14.68    3.26
  -5  -1  -6   19.16    3.23
  -5   1  -6   12.62    2.59
  -5   1  -6   20.17    2.75
  -5  -1  -6   12.54    2.04
  -5  -1  -6   19.79    3.38
   5  -1   6   18.36    2.87
   5  -1   7    0.34    2.57
   5   1   7    3.59    2.57
   5  -1   7    1.69    1.97
  -5   1  -7    6.65    2.64
  -5  -1  -7    4.04    2.14
  -5   1  -7    2.65    1.65
  -5  -1  -7    2.58    1.98
   5   1   7    6.08    3.01
   5  -1   8   -2.24    3.04
   5   1   8   -0.43    2.08
  -5   1  -8    2.82    2.16
  -5  -1  -8   -4.36    2.53
  -5  -1  -8   -1.77    2.18
   5  -2 -12    1.08    1.46
   5  -2 -12   -0.52    2.09
  -5  -2  11   -0.35    2.01
   5   2 -11    5.24    2.40
  -5  -2  11    0.95    2.69
  -5   2  11   -0.25    1.40
   5  -2 -11    2.11    1.88
   5   2 -11    1.23    2.64
   5  -2 -11   -0.40    2.31
  -5  -2  11    1.84    1.99
  -5   2  11    2.93    1.95
  -5  -2  10   12.13    3.11
   5   2 -10   11.93    3.05
   5  -2 -10    7.21    2.64
  -5  -2  10   12.76    3.61
  -5   2  10   10.60    2.29
   5   2 -10    9.48    3.10
   5  -2 -10   11.10    2.61
   5  -2 -10    5.79    2.33
  -5  -2  10   12.22    2.85
  -5   2  10   13.55    3.15
   5  -2  -9   43.97    5.11
  -5  -2   9   48.38    4.87
   5   2  -9   52.43    4.11
  -5  -2   9   52.65    5.79
  -5   2   9   40.79    4.42
   5  -2  -9   51.97    4.37
   5   2  -9   51.24    4.91
   5  -2  -9   47.09    4.87
   5   2  -9   48.81    5.43
  -5  -2   9   42.65    4.70
  -5   2   9   53.42    5.61
   5  -2  -8   54.74    5.21
  -5  -2   8   48.85    4.42
   5   2  -8   64.93    4.96
   5  -2  -8   48.66    4.05
  -5  -2   8   67.79    5.74
  -5   2   8   51.18    4.57
   5  -2  -8   62.96    4.12
   5   2  -8   62.21    3.16
   5   2  -8   65.94    5.02
   5  -2  -8   59.70    4.97
   5   2  -8   62.20    5.45
  -5  -2   8   63.56    5.13
  -5   2   8   58.89    4.85
  -5   2   8   58.30    5.93
   5  -2  -7  110.31    6.80
  -5  -2   7   93.03    5.15
   5   2  -7  118.16    6.99
  -5   2   7   89.55    5.56
   5  -2  -7  101.33    5.99
  -5   2   7  110.09    5.90
   5  -2  -7  107.22    4.79
  -5  -2   7   86.35    5.04
   5   2  -7  116.02    5.91
   5   2  -7  104.77    6.14
   5  -2  -7  108.79    5.95
  -5  -2   7  108.73    6.13
  -5   2   7  106.77    7.20
   5  -2  -6  103.49    6.08
  -5  -2   6  105.82    4.54
   5   2  -6  117.28    7.31
  -5   2   6  106.18    5.56
   5  -2  -6  112.65    6.62
  -5   2   6  107.25    4.92
   5  -2  -6  103.70    4.21
   5  -2  -6  105.78    4.36
  -5   2   6  103.39    5.19
  -5  -2   6   98.58    4.36
   5   2  -6  102.42    5.41
   5   2  -6  116.81    5.41
   5  -2  -6  102.68    5.28
  -5  -2   6  105.24    3.50
  -5  -2   6  112.41    5.58
  -5   2   6  105.50    6.71
   5  -2  -5  269.59    8.99
  -5  -2   5  257.60    5.22
   5  -2  -5  276.69   10.87
  -5   2   5  265.55    7.27
   5  -2  -5  269.37    6.64
   5  -2  -5  258.25    5.91
   5   2  -5  241.74    5.89
  -5   2   5  260.27    7.66
  -5   2   5  243.98    6.90
  -5  -2   5  244.64    5.12
   5   2  -5  249.14    7.69
   5   2  -5  260.21    7.66
   5  -2  -5  247.92    7.66
  -5  -2   5  258.79    5.34
  -5   2   5  219.93    4.01
  -5  -2   5  253.84    7.87
  -5   2   5  270.24    9.75
  -5   2   5  249.80    6.48
  -5  -2   4  145.63    2.58
   5  -2  -4  181.22    5.17
   5  -2  -4  172.34    8.91
  -5   2   4  169.83    4.54
   5  -2  -4  167.72    4.12
  -5   2   4  179.80    6.04
  -5  -2   4  170.55    4.65
   5   2  -4  164.60    5.89
  -5  -2   4  140.78    2.56
  -5   2   4  170.34    5.57
   5   2  -4  183.61    6.20
  -5   2   4  169.81    3.80
   5  -2  -4  175.47    6.13
  -5  -2   4  174.34    4.36
  -5   2   4  174.03    5.11
  -5  -2   4  168.90    6.05
  -5   2   4  174.02    6.79
   5  -2  -4  172.48    6.62
   5  -2  -3  216.13    5.61
  -5   2   3  217.59    5.75
  -5   2   3  215.94    5.15
   5  -2  -3  187.57    9.62
  -5   2   3  215.88    4.41
   5   2  -3  204.46    4.57
   5   2  -3  211.15    6.38
  -5   2   3  220.41    6.55
  -5  -2   3  211.03    4.78
  -5   2   3  207.82    6.21
  -5   2   3  217.01    5.71
  -5  -2   3  207.77    5.11
   5  -2  -3  219.98    6.73
  -5  -2   3  207.34    6.54
  -5   2   3  206.56    6.47
   5  -2  -3  212.61    6.83
  -5   2   2  145.84    4.67
   5   2  -2  147.22    5.12
  -5   2   2  143.00    3.19
   5   2  -2  141.43    3.63
  -5   2   2  151.32    4.34
  -5   2   2  147.34    4.62
  -5   2   2  151.70    5.28
  -5  -2   2  145.29    3.81
  -5   2   2  154.80    4.85
  -5   2   2  148.05    5.34
   5  -2  -2  152.02    5.49
  -5  -2   2  143.79    5.37
  -5   2   2  143.67    4.87
   5  -2  -2  154.00    4.86
   5  -2  -1  214.33    5.63
  -5   2   1  214.47    5.72
   5   2  -1  211.24    6.12
  -5   2   1  204.10    5.66
   5  -2  -1  212.05   10.70
   5   2  -1  209.00    4.77
  -5   2   1  218.40    5.59
   5  -2  -1  207.71    5.27
  -5   2   1  213.07    4.29
  -5  -2   1  198.01    4.45
  -5   2   1  215.15    6.57
   5   2  -1  201.06    5.82
  -5   2   1  207.02    5.63
   5  -2  -1  216.78    6.12
  -5  -2   1  202.01    6.41
  -5   2   1  215.29    5.66
   5  -2  -1  223.08    6.79
  -5   2   0   93.19    4.27
   5  -2   0   93.24    3.83
   5   2   0   85.36    2.39
   5  -2   0  102.62    7.28
   5   2   0   86.09    3.29
  -5   2   0   91.22    3.87
   5  -2   0   88.50    3.63
  -5  -2   0   83.98    3.05
  -5   2   0   88.01    4.23
   5   2   0   89.71    3.65
  -5   2   0   90.98    3.87
   5   2   0   83.29    2.36
   5  -2   0   94.09    3.94
  -5   2   0   88.87    3.75
   5  -2   0   94.07    4.26
  -5  -2   0   90.85    4.41
  -5   2   0   91.79    3.36
   5  -2   0   95.48    4.17
   5   2   0   90.87    4.10
   5  -2   1    8.51    1.47
   5   2   1    6.62    1.06
   5  -2   1    8.90    2.37
   5   2   1    8.65    1.47
  -5   2  -1    9.18    1.51
   5   2   1    7.09    1.57
   5   2   1    9.82    1.57
  -5  -2  -1    6.86    1.12
  -5   2  -1    7.06    1.62
   5   2   1    7.37    1.09
  -5  -2  -1    6.40    1.33
  -5   2  -1    9.88    2.53
  -5  -2  -1   12.04    2.16
  -5   2  -1   10.02    1.58
   5   2   1    5.81    0.88
   5  -2   1    7.12    1.35
  -5   2  -1    8.44    1.28
  -5  -2  -1    7.60    0.90
  -5  -2  -1    6.58    1.49
  -5   2  -1    8.89    1.08
   5  -2   1    7.70    1.40
   5  -2   1    8.42    1.32
   5  -2   1    7.13    1.41
   5   2   2    4.21    1.16
   5  -2   2    5.09    1.42
   5   2   2    0.51    1.29
   5   2   2    2.38    1.86
   5  -2   2    3.52    1.53
  -5   2  -2    4.70    1.16
  -5   2  -2    3.47    1.38
   5   2   2    4.86    1.48
   5   2   2    4.86    1.51
  -5   2  -2    3.58    1.37
  -5  -2  -2    4.04    1.19
  -5   2  -2    5.36    2.12
  -5  -2  -2    4.15    1.73
  -5   2  -2    3.38    1.16
   5   2   2    1.29    1.01
   5  -2   2    2.74    1.16
  -5  -2  -2    2.41    0.37
  -5   2  -2    4.34    0.96
   5  -2   2    5.37    1.44
  -5  -2  -2    2.68    1.21
  -5   2  -2    5.00    0.86
   5  -2   2    4.56    1.07
   5   2   3    1.40    0.92
   5  -2   3    1.01    1.14
   5   2   3   -0.10    1.23
   5  -2   3   -0.14    1.04
   5  -2   3    1.81    1.19
   5   2   3    1.62    1.35
   5   2   3    0.89    1.16
  -5   2  -3   -0.70    1.61
  -5  -2  -3    2.31    1.04
  -5  -2  -3    1.43    1.39
   5  -2   3    2.13    1.14
  -5   2  -3    1.65    0.76
   5   2   3   -3.29    2.29
   5  -2   3    3.04    0.93
   5  -2   4   28.52    3.14
   5   2   4   25.93    3.58
   5  -2   4   28.45    3.06
  -5   2  -4   35.94    2.79
   5  -2   4   31.03    3.71
   5   2   4   28.80    3.14
   5   2   4   23.90    3.14
   5   2   4   22.84    3.05
  -5  -2  -4   30.25    2.54
  -5   2  -4   26.11    3.81
  -5  -2  -4   25.72    3.31
   5  -2   4   32.47    2.97
  -5   2  -5   79.23    6.68
   5  -2   5   87.35    5.86
   5   2   5   85.57    6.45
   5   2   5   81.60    5.25
   5   2   5   77.84    6.19
   5  -2   5   88.54    5.31
  -5  -2  -5   93.51    6.62
   5  -2   5  102.78    7.18
   5   2   5   88.64    5.81
  -5  -2  -5   69.89    3.77
   5  -2   5   89.93    5.29
  -5   2  -5   92.43    4.64
   5   2   6   40.22    4.59
   5  -2   6   36.60    4.35
   5   2   6   41.82    4.95
  -5  -2  -6   43.03    5.04
   5  -2   6   41.35    5.28
   5   2   6   37.16    4.29
   5  -2   6   42.87    4.27
  -5   2  -6   37.38    4.78
   5  -2   7   13.16    2.97
   5   2   7   21.83    3.63
   5  -2   7   24.00    4.36
   5   2   7   26.03    4.19
  -5   2  -7   25.21    4.10
  -5  -2  -7   24.68    4.27
  -5  -2  -7   27.13    4.20
   5  -2   7   25.55    3.99
   5   2   8   53.45    5.51
  -5  -2  -8   40.71    5.59
  -5  -2  -8   38.34    4.95
   5   3 -11    8.48    2.85
   5  -3 -11    6.85    2.60
   5  -3 -11    0.55    2.42
   5   3 -10   20.05    4.04
  -5  -3  10   15.91    3.91
   5  -3 -10   15.37    3.43
  -5   3  10   14.37    3.24
  -5  -3  10   14.04    3.05
   5   3 -10   17.67    4.11
   5  -3 -10   11.66    3.07
  -5  -3  10   15.93    3.15
  -5   3  10   22.15    3.85
  -5  -3   9    6.18    2.19
   5   3  -9    6.15    2.47
  -5  -3   9   11.84    3.48
   5  -3  -9    5.27    2.46
  -5   3   9    2.62    1.09
   5  -3  -9    3.33    1.23
  -5   3   9    0.01    2.13
   5   3  -9    4.46    2.19
   5  -3  -9    3.23    1.98
  -5  -3   9    5.74    2.02
  -5   3   9    8.05    2.98
  -5  -3   8   13.84    2.52
   5   3  -8    8.98    2.40
   5   3  -8   12.55    2.74
   5  -3  -8   12.44    1.81
  -5  -3   8   16.81    3.46
   5  -3  -8    7.23    2.32
  -5   3   8    7.62    1.93
   5   3  -8   11.92    2.70
   5  -3  -8   13.60    3.01
  -5  -3   8    9.48    2.11
  -5   3   8   15.87    3.46
  -5   3   8   11.99    2.14
  -5  -3   7   24.13    2.35
   5   3  -7   22.78    3.03
   5  -3  -7   21.21    3.08
   5  -3  -7   24.08    2.12
  -5   3   7   19.59    2.39
   5  -3  -7   19.10    3.32
  -5   3   7   23.16    3.08
   5   3  -7   24.63    3.37
   5  -3  -7   23.50    3.21
  -5  -3   7   25.83    3.16
  -5   3   7   20.39    3.62
   5   3  -6    9.06    1.98
  -5  -3   6    8.79    1.26
   5   3  -6    9.28    1.98
   5  -3  -6   10.46    2.65
  -5   3   6   10.02    1.91
   5   3  -6    8.14    1.17
  -5   3   6    7.74    1.75
  -5  -3   6    8.50    1.19
  -5  -3   6    6.90    0.74
   5  -3  -6    8.36    1.19
   5  -3  -6    8.74    1.93
  -5   3   6    7.05    1.41
  -5  -3   6    6.80    1.61
   5  -3  -6   10.39    2.48
  -5   3   6    8.22    2.48
   5   3  -5    3.12    1.50
  -5  -3   5    1.67    0.63
   5  -3  -5    0.50    1.67
  -5   3   5    4.62    1.05
  -5   3   5    0.90    0.74
   5   3  -5    2.22    0.73
   5  -3  -5    1.22    0.75
  -5   3   5    1.28    1.16
   5  -3  -5    5.41    1.93
  -5   3   5    1.15    0.82
  -5  -3   5    1.21    0.52
   5  -3  -5    1.34    0.73
   5   3  -5    1.08    0.97
   5  -3  -5    1.18    1.15
  -5  -3   5    1.49    0.47
  -5  -3   5    3.22    1.45
  -5   3   5    1.95    1.64
   5  -3  -4   30.67    3.11
  -5  -3   4   31.15    1.23
   5  -3  -4   35.93    4.70
  -5   3   4   30.62    2.15
  -5   3   4   33.77    1.76
   5  -3  -4   32.58    2.17
   5   3  -4   32.13    2.41
  -5   3   4   31.00    2.78
   5   3  -4   31.17    2.74
  -5   3   4   31.56    2.50
  -5   3   4   27.51    1.38
   5   3  -4   33.23    2.90
   5  -3  -4   28.92    2.86
  -5  -3   4   32.79    1.74
  -5   3   4   29.83    2.01
  -5  -3   4   30.87    2.81
  -5   3   4   33.60    3.37
   5  -3  -4   34.72    2.18
  -5   3   4   33.57    2.13
  -5   3   3  101.23    5.07
   5  -3  -3   98.57    7.73
  -5   3   3  103.79    3.57
  -5   3   3  111.90    3.20
   5   3  -3  108.15    4.76
  -5   3   3  109.00    4.81
  -5  -3   3  107.13    2.93
   5   3  -3  105.34    3.93
  -5   3   3  103.99    3.81
  -5   3   3  106.54    4.54
   5   3  -3  107.17    5.03
  -5  -3   3  103.93    3.46
   5  -3  -3  109.11    5.13
  -5  -3   3  104.69    4.94
   5  -3  -3  110.04    3.98
  -5   3   3  101.17    4.93
   5  -3  -3  108.28    5.20
  -5   3   2  147.32    7.26
   5  -3  -2  151.41    9.65
   5   3  -2  169.13    5.76
  -5   3   2  167.36    4.98
  -5   3   2  169.50    4.31
  -5   3   2  167.60    4.49
   5   3  -2  168.88    4.85
  -5   3   2  166.12    5.77
  -5  -3   2  167.25    3.54
  -5   3   2  172.74    5.79
  -5   3   2  178.46    6.15
  -5  -3   2  160.91    4.41
   5  -3  -2  175.14    6.30
   5  -3  -2  179.67    5.33
  -5  -3   2  162.81    6.13
  -5   3   2  166.84    5.53
   5  -3  -2  173.22    6.18
   5  -3  -1  279.11    7.27
  -5   3   1  245.36   10.55
  -5   3   1  268.04    6.69
   5   3  -1  265.09    7.10
   5  -3  -1  276.82   13.20
   5   3  -1  265.05    6.33
  -5   3   1  268.58    6.36
   5  -3  -1  272.74    5.77
  -5   3   1  272.48    6.07
  -5   3   1  274.75    7.49
  -5   3   1  280.37    7.90
  -5   3   1  274.27    7.33
  -5  -3   1  255.09    4.30
   5  -3  -1  279.95    7.42
   5  -3  -1  277.48    7.17
  -5   3   1  283.54    7.81
  -5  -3   1  260.88    7.94
  -5   3   1  283.23    6.68
   5   3   0  389.37    8.83
   5  -3   0  403.33    9.09
  -5   3   0  447.42   15.47
   5  -3   0  447.61   16.33
   5   3   0  392.88    8.34
  -5   3   0  390.83    8.92
  -5  -3   0  383.35   10.66
   5  -3   0  394.11    7.76
  -5  -3   0  374.96    7.86
  -5   3   0  399.76    7.83
  -5   3   0  404.50   10.03
   5   3   0  371.73    7.90
  -5   3   0  397.38    9.06
   5  -3   0  394.57    9.34
   5  -3   0  421.10    9.61
  -5   3   0  411.75    9.55
  -5  -3   0  371.06    7.85
  -5  -3   0  377.70    9.98
  -5   3   0  435.83    7.76
  -5   3  -1  309.59   13.39
   5  -3   1  265.00    7.55
   5  -3   1  280.50   11.90
  -5  -3  -1  255.80    9.03
   5  -3   1  264.23    7.02
   5   3   1  235.79    5.88
   5   3   1  243.46    6.88
  -5   3  -1  261.79    7.50
   5  -3   1  269.55    7.68
  -5   3  -1  262.10    7.21
  -5  -3  -1  242.21    5.49
  -5  -3  -1  250.62    8.39
  -5   3  -1  259.48    5.02
   5   3   1  270.10    7.46
  -5   3  -2  271.54   12.34
  -5   3  -2  271.24    8.45
   5  -3   2  254.74    7.90
   5  -3   2  247.38   10.33
   5   3   2  242.66    7.68
  -5  -3  -2  255.73    9.62
   5  -3   2  252.97    7.77
   5   3   2  246.56    8.10
  -5   3  -2  255.61    7.95
   5  -3   2  251.87    7.64
  -5  -3  -2  250.72    4.87
  -5   3  -2  244.52    6.85
   5   3   2  261.12    7.58
  -5   3  -2  262.38    4.64
   5  -3   3  159.08    6.71
   5  -3   3  145.24    7.58
   5   3   3  158.90    7.17
  -5  -3  -3  154.23    7.93
   5   3   3  146.09    6.51
   5  -3   3  157.81    6.90
  -5   3  -3  155.52    6.67
   5  -3   3  158.71    6.53
   5   3   3  147.47    5.91
  -5   3  -3  155.69    5.64
  -5   3  -3  152.74    9.15
   5  -3   4   39.11    3.76
   5   3   4   34.78    3.97
   5  -3   4   39.41    4.19
   5   3   4   38.24    3.66
  -5  -3  -4   35.58    4.07
   5  -3   4   36.48    3.44
  -5   3  -4   37.06    4.63
   5  -3   5   81.07    5.78
   5   3   5   74.10    6.40
  -5  -3  -5   88.25    7.03
   5  -3   5   87.11    6.89
   5   3   5   77.12    5.56
   5   3   5   74.95    5.91
   5  -3   5   84.33    5.51
  -5   3  -5   73.83    6.32
   5  -3   6   15.24    3.18
   5  -3   6   11.48    3.20
   5   3   6    4.78    1.87
   5   3   6   13.84    2.83
  -5   3  -6    8.98    2.55
  -5  -3  -6    9.29    2.95
   5  -3   6   13.24    2.95
   5  -3   7    5.14    2.77
   5   3   7    0.63    2.03
   5   3   7   -1.00    2.12
   5  -3   7    3.11    2.35
   5   3   7    3.24    2.22
  -5   3  -7   -0.56    2.01
  -5  -3  -7    0.80    2.33
   5  -3   7    5.07    2.58
  -5  -3  -8   -2.90    1.92
   5  -3   8   -2.75    2.56
  -5   4  11   -0.38    2.10
   5   4 -10   -1.28    2.51
   5  -4 -10    2.08    2.37
  -5   4  10    1.50    2.54
   5  -4 -10    4.00    2.73
   5   4  -9   21.96    4.18
   5   4  -9   20.22    3.75
  -5  -4   9   31.61    5.03
   5  -4  -9   23.54    4.50
  -5   4   9   14.67    3.01
   5  -4  -9   19.12    3.68
  -5  -4   9   22.83    3.55
  -5   4   9   23.07    4.01
  -5  -4   8   40.72    3.39
  -5   4   8   39.59    4.44
  -5  -4   8   41.12    5.02
   5  -4  -8   36.42    5.28
   5   4  -8   44.41    4.88
   5   4  -8   37.12    4.49
   5  -4  -8   36.94    4.61
  -5  -4   8   40.19    4.35
  -5   4   8   42.58    5.44
   5  -4  -7   54.75    5.86
  -5   4   7   58.99    4.56
  -5  -4   7   58.54    3.35
   5   4  -7   57.73    5.00
   5   4  -7   63.87    5.17
   5  -4  -7   56.48    5.03
  -5  -4   7   61.48    4.88
  -5   4   7   60.34    6.69
   5  -4  -6   70.00    5.95
  -5  -4   6   61.85    2.96
  -5   4   6   59.74    4.42
  -5   4   6   59.88    3.56
   5   4  -6   61.28    4.63
   5   4  -6   62.56    4.80
   5  -4  -6   60.96    4.82
  -5   4   6   60.17    3.87
  -5  -4   6   70.04    4.85
  -5   4   6   58.39    6.04
   5  -4  -6   64.84    2.74
  -5  -4   5  117.62    3.54
   5  -4  -5  118.20    6.90
   5   4  -5  110.99    5.11
  -5   4   5  114.36    5.63
  -5   4   5  110.24    4.80
  -5   4   5  112.30    4.76
  -5  -4   5  117.18    6.27
   5   4  -5  112.77    5.65
   5   4  -5  120.76    6.08
   5  -4  -5  114.22    5.99
  -5  -4   5  121.09    5.98
   5  -4  -5  119.27    3.77
  -5   4   5  111.83    7.52
   5  -4  -4   99.01    5.79
   5  -4  -4  105.67    8.25
  -5   4   4   91.76    4.13
   5   4  -4   91.62    4.53
  -5   4   4   95.61    4.93
   5   4  -4   93.89    4.89
  -5   4   4   91.62    4.30
  -5  -4   4   98.94    4.84
   5   4  -4   99.48    5.33
  -5  -4   4   98.84    2.77
   5  -4  -4   98.60    5.30
   5  -4  -4   92.57    3.43
  -5   4   4   86.17    3.15
  -5  -4   4   89.84    5.01
  -5   4   4  100.29    6.20
   5  -4  -3  102.91    5.34
   5  -4  -3   96.63    8.21
  -5   4   3  102.47    4.17
  -5  -4   3  107.54    5.81
   5   4  -3  103.66    4.47
   5   4  -3  103.84    4.87
  -5   4   3  101.51    4.87
  -5   4   3  104.62    4.77
  -5   4   3   97.77    3.51
  -5  -4   3  100.21    4.08
   5   4  -3  110.64    5.49
   5  -4  -3  107.28    3.95
   5  -4  -3  109.01    5.42
  -5   4   3  103.29    5.41
  -5  -4   3   98.91    5.17
  -5   4   3  103.99    5.50
  -5   4   3  105.05    3.83
   5   4  -2   67.79    1.89
   5   4  -2   80.08    4.14
  -5   4   2   70.11    3.47
  -5   4   2   77.99    3.32
  -5  -4   2   84.48    5.23
  -5   4   2   77.29    3.67
   5   4  -2   76.84    3.83
  -5   4   2   73.55    4.07
   5  -4  -2   68.18    7.16
  -5   4   2   82.01    4.46
  -5   4   2   84.84    4.51
   5   4  -2   68.85    1.89
  -5  -4   2   76.02    3.04
   5  -4  -2   78.78    3.66
   5  -4  -2   83.75    4.68
  -5   4   2   83.14    4.82
  -5  -4   2   74.42    4.52
  -5   4   2   75.51    4.02
  -5   4   2   84.04    4.60
   5  -4  -2   80.83    4.40
   5   4  -1   77.27    2.21
   5   4  -1   88.08    4.14
  -5   4   1   90.75    5.05
  -5  -4   1   87.93    5.45
   5   4  -1   86.58    4.08
  -5   4   1   88.21    3.92
  -5   4   1   86.11    4.32
  -5  -4   1   71.54    1.93
  -5   4   1   87.54    4.73
   5   4  -1   78.24    2.21
  -5   4   1   83.52    4.48
   5  -4  -1   90.35    8.34
  -5  -4   1   84.68    2.57
   5  -4  -1   88.38    4.50
   5  -4  -1   89.76    4.78
  -5   4   1   88.12    4.88
  -5  -4   1   82.90    4.90
  -5   4   1   93.36    4.00
  -5   4   1   83.65    5.49
   5  -4  -1   89.69    4.47
   5  -4  -1   87.21    4.47
   5  -4   0   46.44    3.41
   5   4   0   44.38    2.95
   5   4   0   41.69    1.91
   5  -4   0   48.38    6.00
  -5  -4   0   43.72    4.16
  -5   4   0   45.39    4.20
   5   4   0   45.24    3.07
   5  -4   0   43.19    2.41
  -5   4   0   43.50    2.90
  -5   4   0   44.54    3.56
  -5   4   0   42.20    3.29
   5  -4   0   48.67    3.62
  -5   4   0   42.21    3.36
  -5  -4   0   41.22    3.72
  -5   4   0   48.19    2.58
  -5   4   0   39.33    4.41
   5  -4   1    4.36    1.53
   5   4   1    4.38    1.28
   5  -4   1    3.75    1.01
   5   4   1    5.73    1.39
  -5   4  -1    3.49    2.05
   5   4   1    3.99    0.91
  -5  -4  -1    5.38    1.82
  -5   4  -1    5.98    1.61
   5  -4   1    4.34    1.60
  -5  -4  -1    3.68    0.95
  -5   4  -1    4.88    1.43
  -5   4  -1    5.73    0.82
   5  -4   2    1.19    1.23
   5   4   2    0.52    0.87
   5  -4   2    2.37    1.22
   5   4   2    1.19    1.04
  -5   4  -2   -2.54    2.67
  -5  -4  -2   -1.14    1.91
  -5   4  -2    0.84    1.31
   5  -4   2    1.39    1.24
  -5   4  -2   -0.20    0.98
   5   4   3    0.21    0.90
   5  -4   3    0.69    1.41
   5  -4   3    2.36    1.52
   5   4   3    3.74    1.61
  -5   4  -3    1.41    2.26
  -5  -4  -3    0.02    1.67
  -5   4  -3    2.18    1.54
   5  -4   3   -0.29    1.41
  -5   4  -3    2.18    1.17
   5  -4   4   17.16    2.80
   5  -4   4   18.25    3.07
   5   4   4   18.16    2.72
   5   4   4   22.76    3.23
  -5   4  -4   26.32    4.25
  -5  -4  -4   21.08    3.93
  -5   4  -4   17.96    2.80
   5  -4   4   21.94    3.12
   5  -4   5   51.81    4.90
  -5  -4  -5   47.40    5.76
   5  -4   5   47.60    5.36
   5   4   5   47.73    4.47
   5  -4   5   53.42    4.95
   5   4   5   52.39    5.40
  -5   4  -5   43.60    5.20
   5  -4   6   31.57    4.45
  -5  -4  -6   20.19    4.27
   5  -4   6   28.80    4.97
   5   4   6   21.61    3.98
   5   4   6   27.78    3.92
  -5   4  -6   21.80    3.82
   5  -4   6   25.62    3.88
   5  -4   7   14.52    3.69
   5   4   7   17.23    3.69
   5  -4   7   12.41    3.52
  -5   5  10    1.42    2.15
   5   5  -9    2.13    2.27
  -5   5   9    3.09    2.08
  -5  -5   9    6.38    2.94
  -5  -5   9    0.75    3.10
   5   5  -9    3.88    2.57
   5   5  -8    9.20    2.86
   5   5  -8    7.38    2.82
   5  -5  -8    8.81    3.14
  -5   5   8   10.50    2.71
  -5  -5   8    8.67    3.36
  -5  -5   8   11.29    3.12
   5  -5  -8    5.36    2.35
  -5  -5   8    6.49    2.28
  -5   5   8    7.27    3.11
   5   5  -7   13.46    2.89
   5   5  -7    8.77    2.51
  -5  -5   7   16.55    3.24
   5  -5  -7   11.07    3.19
  -5   5   7   11.66    2.28
  -5  -5   7   12.04    2.89
   5  -5  -7   10.73    2.64
  -5  -5   7   11.48    2.60
  -5   5   7    8.49    3.34
   5   5  -6    0.39    1.46
   5  -5  -6    2.66    2.34
  -5   5   6    2.80    1.32
  -5   5   6    0.12    1.29
   5   5  -6    1.42    1.22
  -5   5   6    3.37    1.20
  -5  -5   6    5.13    1.95
  -5  -5   6    3.22    2.02
  -5   5   6    3.44    2.02
   5   5  -6    3.88    1.59
   5  -5  -6    1.24    1.67
  -5  -5   6    3.75    1.73
  -5   5   6   -3.22    2.91
   5   5  -5    1.94    1.69
   5  -5  -5    3.17    1.99
  -5   5   5    1.31    1.09
  -5   5   5    1.15    1.25
   5   5  -5    1.25    1.14
  -5   5   5    1.92    1.06
  -5  -5   5    0.19    1.29
   5   5  -5    0.96    1.29
  -5  -5   5    1.22    1.31
  -5   5   5   -1.15    1.89
   5  -5  -5   -0.09    1.18
  -5  -5   5    2.07    1.53
   5   5  -4    7.19    1.86
   5  -5  -4   10.36    2.32
   5   5  -4    6.24    1.70
  -5   5   4    8.58    1.75
  -5   5   4    8.76    1.98
   5   5  -4    8.95    1.81
  -5   5   4    9.45    1.69
  -5  -5   4    8.05    2.24
  -5  -5   4    9.62    1.81
  -5   5   4    9.44    2.26
   5  -5  -4    8.32    1.90
  -5  -5   4    9.05    2.13
  -5   5   4    5.96    1.97
   5  -5  -3   40.78    3.61
  -5  -5   3   42.53    4.34
   5   5  -3   42.46    3.35
  -5   5   3   42.40    3.18
   5   5  -3   44.30    3.39
  -5   5   3   45.47    3.56
  -5   5   3   47.88    3.53
   5   5  -3   42.69    2.07
  -5  -5   3   42.60    2.82
   5   5  -3   45.36    3.89
   5  -5  -3   46.18    3.86
  -5   5   3   47.08    4.18
  -5  -5   3   43.85    3.84
  -5   5   3   41.33    2.31
  -5  -5   3   42.53    2.68
  -5   5   3   43.41    3.98
  -5  -5   2   69.35    5.53
  -5   5   2   72.86    4.09
   5   5  -2   69.76    4.14
  -5   5   2   71.81    4.30
  -5   5   2   72.81    4.50
  -5   5   2   73.91    4.64
   5   5  -2   72.61    4.09
   5   5  -2   68.00    2.50
  -5  -5   2   74.73    3.34
   5  -5  -2   75.56    4.71
  -5   5   2   75.42    5.01
  -5  -5   2   72.39    4.94
  -5   5   2   71.82    3.75
  -5   5   2   70.22    4.25
   5  -5  -2   69.39    4.41
  -5  -5   1  115.04    7.18
   5   5  -1  115.37    4.93
   5   5  -1  116.59    5.36
  -5   5   1  116.70    5.10
  -5   5   1  116.74    5.36
  -5   5   1  125.48    6.19
   5   5  -1  114.22    3.39
  -5   5   1  121.58    5.91
  -5  -5   1  112.69    3.42
   5  -5  -1  125.22    5.88
   5  -5  -1  127.03    5.92
  -5   5   1  124.44    6.35
  -5  -5   1  111.61    6.30
  -5   5   1  120.12    4.81
  -5   5   1  130.18    6.16
   5  -5  -1  124.00    5.57
   5  -5  -1  121.68    5.72
   5  -5   0  142.90    6.39
   5   5   0  135.25    5.25
  -5  -5   0  133.17    7.97
   5  -5   0  138.33    4.08
   5   5   0  142.66    6.07
  -5   5   0  140.86    5.78
  -5   5   0  134.92    5.82
  -5   5   0  138.31    6.35
   5  -5   0  157.47    6.88
  -5   5   0  150.64    6.84
  -5   5   0  152.60    4.79
  -5   5   0  153.26    7.81
   5  -5   1  120.13    6.07
  -5  -5  -1  110.33    7.64
   5   5   1  119.03    5.74
   5  -5   1  112.09    4.38
  -5   5  -1  114.50    5.38
  -5   5  -1  126.50    6.20
   5  -5   1  116.26    6.00
  -5   5  -1  113.83    5.88
   5   5   1  116.67    5.00
  -5   5  -1  110.14    7.47
   5  -5   2  112.90    6.08
   5  -5   2  116.97    5.26
  -5   5  -2   99.95    5.19
   5   5   2  103.27    5.57
  -5   5  -2  117.90    6.12
   5  -5   2  108.86    6.09
  -5   5  -2  105.54    5.67
  -5  -5  -2  110.83    8.00
   5   5   2  113.53    5.03
  -5   5  -2  111.78    8.21
   5  -5   3   72.51    5.12
  -5  -5  -3   70.12    6.91
   5   5   3   64.61    4.73
   5  -5   3   79.09    5.09
  -5   5  -3   73.83    5.21
   5  -5   3   69.89    5.13
   5   5   3   70.85    4.09
  -5   5  -3   71.67    4.85
  -5   5  -3   78.57    7.44
   5  -5   4   11.27    2.51
   5  -5   4   13.28    2.67
   5   5   4   17.80    3.05
  -5   5  -4   14.54    3.85
  -5  -5  -4   14.02    3.77
  -5   5  -4   13.39    2.65
   5  -5   4   14.01    2.75
   5  -5   5   35.60    4.16
   5   5   5   39.32    4.82
   5  -5   5   40.06    5.04
  -5  -5  -5   34.43    5.67
   5  -5   5   47.10    4.99
  -5   5  -5   49.36    6.23
   5  -5   6    0.97    2.42
   5   5   6    9.19    3.09
   5  -5   6   10.18    3.16
  -5   6   9    8.26    2.77
   5   6  -8   19.14    3.78
  -5  -6   8   22.08    4.37
  -5   6   8   17.20    3.31
   5   6  -8   17.55    3.12
  -5  -6   8   17.79    4.07
  -5   6   8   15.76    4.10
   5   6  -7   24.71    3.96
  -5  -6   7   25.86    4.26
   5  -6  -7   21.49    4.65
  -5   6   7   14.79    2.60
   5   6  -7   19.12    3.05
  -5  -6   7   23.21    3.94
  -5   6   7   23.22    4.58
   5  -6  -7   19.69    3.56
   5   6  -7   18.83    3.38
  -5   6   7   13.87    4.03
   5   6  -6   27.53    3.87
  -5   6   6   22.97    2.89
   5   6  -6   22.12    3.14
   5  -6  -6   24.24    4.32
  -5  -6   6   28.74    3.69
   5   6  -6   21.55    3.11
  -5   6   6   27.07    4.41
   5  -6  -6   23.12    3.52
  -5  -6   6   24.46    3.42
  -5   6   6   15.00    3.84
   5  -6  -5   40.86    4.80
  -5   6   5   36.15    3.51
   5   6  -5   33.54    3.52
  -5   6   5   30.61    3.42
   5   6  -5   31.48    3.34
  -5   6   5   39.68    3.15
  -5  -6   5   38.30    3.58
   5   6  -5   43.84    4.42
  -5   6   5   46.19    5.04
   5  -6  -5   38.81    4.09
  -5  -6   5   37.48    4.09
  -5   6   5   25.48    4.46
   5  -6  -4   40.08    4.33
  -5   6   4   37.87    3.49
   5   6  -4   38.54    3.64
   5   6  -4   37.79    3.50
  -5   6   4   37.77    3.69
  -5   6   4   36.86    3.14
  -5  -6   4   28.62    4.23
  -5  -6   4   37.51    3.11
   5   6  -4   34.90    3.77
   5  -6  -4   41.80    4.04
  -5   6   4   36.29    4.20
  -5  -6   4   38.49    4.05
  -5   6   4   32.69    4.32
   5  -6  -3   36.37    3.64
  -5   6   3   37.28    3.39
   5   6  -3   36.74    3.51
   5   6  -3   35.91    3.21
  -5   6   3   36.89    3.49
  -5   6   3   35.75    3.33
  -5  -6   3   24.55    3.97
  -5  -6   3   40.45    3.09
   5   6  -3   40.61    4.01
   5  -6  -3   38.88    3.79
  -5   6   3   39.99    4.28
  -5  -6   3   34.76    3.91
  -5   6   3   37.55    4.09
   5  -6  -2   32.22    3.24
   5   6  -2   28.22    2.68
  -5   6   2   29.24    3.01
   5   6  -2   29.79    3.18
  -5   6   2   28.64    3.02
  -5   6   2   32.00    3.31
  -5   6   2   32.64    3.49
  -5  -6   2   28.62    2.28
   5  -6  -2   30.42    3.30
  -5   6   2   32.13    3.78
  -5  -6   2   28.72    3.61
  -5   6   2   31.17    3.17
  -5  -6   2   34.95    4.74
   5   6  -1   24.28    2.41
   5   6  -1   26.16    2.95
  -5   6   1   24.41    2.69
  -5   6   1   27.36    2.88
  -5   6   1   31.01    3.40
  -5   6   1   27.32    3.15
  -5  -6   1   28.98    4.56
   5  -6  -1   28.43    3.13
   5  -6  -1   27.14    3.18
  -5   6   1   28.06    3.50
  -5  -6   1   27.71    3.19
  -5   6   1   22.81    2.50
  -5   6   1   28.21    2.60
   5  -6  -1   31.32    3.07
   5  -6   0   19.63    2.86
   5   6   0   13.58    2.29
  -5   6   0   13.73    2.10
  -5   6   0   16.66    2.32
  -5  -6   0   20.11    4.07
  -5   6   0   17.15    2.66
   5  -6   0   15.42    2.59
  -5   6   0   15.23    2.62
  -5   6   0   21.13    3.17
  -5  -6   0   17.53    3.37
   5   6   0   17.53    2.05
   5  -6   1    3.22    1.74
   5   6   1    2.26    1.02
  -5   6  -1    5.64    2.38
   5   6   1    1.57    1.28
  -5   6  -1    2.32    1.16
  -5   6  -1    1.41    1.24
  -5  -6  -1    7.75    3.17
  -5   6  -1    5.56    1.90
   5  -6   1    5.08    1.90
  -5   6  -1    1.40    1.47
  -5  -6  -1    0.83    1.75
   5  -6   2    1.93    1.74
  -5   6  -2    2.43    2.17
   5   6   2   -0.60    1.29
  -5   6  -2   -0.73    1.13
  -5  -6  -2   -1.62    2.11
  -5   6  -2    3.83    2.03
   5  -6   2    2.33    1.76
  -5   6  -2    0.13    1.24
  -5  -6  -2   -2.55    2.19
   5  -6   3    2.51    1.73
  -5   6  -3    1.84    2.13
   5   6   3   -1.59    1.61
  -5   6  -3   -0.81    1.41
  -5  -6  -3    0.13    2.18
  -5   6  -3    1.86    2.05
   5  -6   3    1.28    1.64
  -5   6  -3    0.63    1.33
  -5  -6  -3    1.55    1.85
  -5   6  -4    9.87    3.38
   5   6   4    4.45    1.68
   5  -6   4    6.60    2.37
  -5  -6  -4    6.12    2.85
  -5   7   7    3.81    1.85
  -5  -7   7    3.91    2.29
   5   7  -7    4.32    2.12
  -5  -7   6    3.27    2.22
  -5   7   6    0.23    1.34
   5   7  -6    0.55    1.33
   5   7  -6    0.65    1.31
  -5  -7   6    0.48    1.68
   5   7  -5    4.13    2.00
   5  -7  -5    5.36    2.51
   5   7  -5    0.91    1.30
  -5   7   5   -1.49    1.23
   5   7  -5    1.87    1.49
  -5   7   5   -1.23    1.81
  -5  -7   5    2.43    1.71
  -5   7   5    4.01    2.73
   5  -7  -5    2.64    1.71
  -5  -7   5    2.76    2.11
  -5   7   5   -2.68    3.44
   5   7  -4    1.62    1.49
   5   7  -4    0.77    1.08
   5  -7  -4    4.01    2.05
  -5   7   4    1.71    1.47
   5   7  -4    2.17    1.50
  -5   7   4   -0.51    1.33
  -5  -7   4    4.45    1.77
  -5   7   4    2.95    1.80
   5  -7  -4    2.18    1.75
  -5   7   4    1.32    2.09
   5   7  -3   12.48    2.62
   5  -7  -3   11.98    2.44
  -5   7   3   11.52    2.29
   5   7  -3   11.35    2.33
  -5   7   3   13.34    2.42
  -5  -7   3   11.84    3.99
  -5   7   3   12.90    2.31
  -5   7   3   13.39    2.80
  -5   7   3   13.36    2.84
   5  -7  -3   15.27    2.75
   5   7  -3   14.71    2.33
  -5   7   3    7.78    2.30
   5  -7  -2   18.48    2.64
  -5   7   2   21.86    2.92
  -5   7   2   21.69    2.96
   5   7  -2   22.22    3.13
  -5  -7   2   15.19    4.03
  -5   7   2   20.57    2.86
  -5   7   2   20.38    3.14
   5  -7  -2   25.38    3.25
  -5   7   2   21.77    3.49
   5   7  -1   37.37    3.89
  -5   7   1   34.82    3.68
  -5   7   1   37.30    3.55
  -5   7   1   34.70    3.77
  -5   7   1   35.63    3.92
  -5  -7   1   35.53    5.88
   5  -7  -1   42.55    3.92
  -5   7   1   43.45    4.63
   5  -7  -1   41.41    3.62
   5   7   0   36.61    3.84
  -5   7   0   35.83    3.66
  -5   7   0   33.16    3.33
  -5  -7   0   35.61    6.08
  -5   7   0   38.52    4.13
   5  -7   0   42.39    4.33
  -5   7   0   41.06    4.47
  -5   7   0   38.66    3.83
   5   7   1   37.53    4.10
  -5   7  -1   39.22    3.89
  -5   7  -1   32.62    3.32
  -5  -7  -1   31.43    5.64
  -5   7  -1   38.45    4.26
   5  -7   1   41.41    4.47
  -5   7  -1   37.02    4.28
  -5  -7  -1   40.07    5.05
  -5   7  -1   36.36    4.21
   5  -7   1   41.17    4.31
   5   7   2   33.80    3.89
  -5   7  -2   26.93    4.02
  -5   7  -2   32.18    3.64
  -5   7  -2   30.12    3.30
  -5  -7  -2   34.34    6.15
  -5   7  -2   29.79    3.89
  -5  -7  -2   30.51    4.74
  -5   7  -3   19.70    3.92
  -5   7  -3   20.57    2.85
  -5   7  -3   20.53    3.07
  -5   7  -3   23.03    3.51
  -5  -7  -3   15.85    3.64
   5  -8  -3    7.64    2.31
  -5   8   3    8.60    2.20
   5  -8  -3    9.44    2.52
  -5   8   2    4.47    1.76
  -5   8   2    6.72    2.06
   5  -8  -2    7.10    2.01
  -5   8   1    6.50    2.05
  -5  -8   1    3.65    3.15
  -5   8   1    6.57    2.05
  -5  -8   0    1.32    2.57
   6   0 -12    8.42    3.10
  -6   0  12   11.16    3.32
   6   0 -11    1.91    2.11
  -6   0  11    0.12    2.44
  -6   0  11    6.74    2.88
  -6   0  10   18.39    3.67
   6   0 -10   19.81    3.05
   6   0 -10   17.96    3.51
  -6   0  10   17.01    3.63
   6   0  -9   31.12    3.26
  -6   0   9   46.35    4.97
   6   0  -9   35.15    4.16
   6   0  -9   40.05    3.54
   6   0  -9   33.09    3.54
  -6   0   9   34.68    4.67
   6   0  -8   19.21    2.24
   6   0  -8   17.74    2.70
  -6   0   8   21.15    3.18
   6   0  -8   17.44    2.65
   6   0  -8   17.79    2.44
  -6   0   8   17.27    3.01
   6   0  -7   -0.94    1.40
   6   0  -7    0.86    0.90
   6   0  -7   -0.26    1.01
   6   0  -7    1.05    1.15
  -6   0   7    1.01    1.50
   6   0  -6    1.99    1.48
  -6   0   6    2.87    0.93
   6   0  -6    2.27    1.16
   6   0  -6    2.41    0.88
  -6   0   6    4.14    1.28
   6   0  -6    2.51    1.14
  -6   0   6    1.53    1.53
  -6   0   5    2.77    0.70
   6   0  -5    3.78    1.21
   6   0  -5    4.08    0.69
  -6   0   5    5.17    1.29
  -6   0   5    2.73    0.85
   6   0  -5    3.69    1.89
   6   0  -5    2.94    1.03
  -6   0   5    4.57    1.49
  -6   0   4   21.34    1.45
   6   0  -4   20.93    2.15
  -6   0   4   18.43    1.92
  -6   0   4   18.73    1.81
   6   0  -4   24.51    3.93
  -6   0   4   20.41    2.32
  -6   0   3  224.54    4.41
   6   0  -3  212.26    6.51
  -6   0   3  222.73    6.36
  -6   0   3  226.47    4.39
  -6   0   3  215.17    6.88
  -6   0   3  214.61    6.76
   6   0  -2   98.80    4.35
  -6   0   2   98.05    2.85
  -6   0   2   99.51    4.16
  -6   0   2   98.02    4.54
  -6   0   2  102.04    2.88
  -6   0   2   97.70    3.60
  -6   0   2  102.12    4.50
   6   0  -1   91.31    2.86
  -6   0   1   87.33    3.04
   6   0  -1  101.23    8.48
  -6   0   1   87.49    4.32
  -6   0   1   88.25    3.02
  -6   0   1   90.28    3.19
  -6   0   1   95.11    4.26
   6   0  -1   86.56    4.13
   6   0   0  268.24    5.65
  -6   0   0  260.91    4.72
   6   0   0  261.22    7.53
   6   0   0  264.61    5.68
  -6   0   0  271.86    7.61
  -6   0   0  289.98    5.88
  -6   0   0  265.30    7.05
   6   0   0  287.78    8.03
   6   0   1  241.07    6.02
   6   0   1  254.01   11.21
  -6   0  -1  224.83    5.72
   6   0   1  241.59    7.62
  -6   0  -1  238.54    7.33
   6   0   1  228.53    5.90
  -6   0  -1  227.89    4.97
   6   0   1  239.09    7.50
  -6   0  -1  235.66    6.65
   6   0   2  277.90    7.26
   6   0   2  260.44   10.32
  -6   0  -2  279.26    8.12
   6   0   2  277.69    8.66
  -6   0  -2  281.59    8.39
   6   0   2  267.99    5.59
   6   0   2  271.86    8.33
  -6   0  -2  281.04    7.57
   6   0   3  190.65    6.90
  -6   0  -3  196.28    7.61
  -6   0  -3  205.25    7.75
   6   0   3  196.05    7.79
   6   0   3  186.18    7.36
   6   0   3  195.73    5.03
   6   0   4   98.78    5.68
   6   0   4   95.97    5.62
  -6   0  -4  110.40    6.04
   6   0   4  102.49    6.25
  -6   0  -4  113.09    6.19
   6   0   4  101.95    3.92
   6   0   5  107.57    6.95
  -6   0  -5  124.10    8.21
   6   0   5  112.18    5.93
  -6   0  -5  119.96    6.69
   6   0   5  116.27    7.32
  -6   0  -5  103.57    6.12
   6   0   6   21.45    4.00
   6   0   6   25.21    4.15
  -6   0  -6   15.67    2.60
  -6   0  -6   18.82    2.95
  -6   0  -6   17.75    3.69
   6   0   7   18.95    4.11
  -6   0  -7    6.82    2.83
   6  -1 -12    1.47    1.72
  -6   1  12   -0.49    1.79
   6  -1 -12   -3.60    2.66
  -6  -1  12    0.41    1.98
   6   1 -11   12.37    3.76
  -6  -1  11   12.15    2.84
   6  -1 -11   16.38    3.40
  -6  -1  11   13.51    3.52
  -6   1  11   12.38    3.40
   6  -1 -11   14.61    3.51
   6  -1 -11   16.51    3.38
  -6  -1  11   20.03    4.03
  -6   1  11   21.54    4.09
   6   1 -10    0.31    1.85
   6   1 -10   -0.30    1.50
   6  -1 -10    0.20    1.80
  -6  -1  10    0.52    1.65
  -6   1  10   -2.69    2.48
   6  -1 -10    0.96    1.66
   6  -1 -10    3.25    1.90
  -6  -1  10    1.46    2.18
  -6   1  10    0.27    2.19
   6   1  -9   20.73    2.93
   6   1  -9   13.73    2.33
   6  -1  -9   13.29    2.32
   6  -1  -9   13.98    2.99
  -6  -1   9   17.82    3.40
   6  -1  -9   16.90    2.87
   6   1  -9   14.40    2.35
   6  -1  -9   13.66    2.62
  -6   1   9   16.80    3.18
  -6  -1   9   18.02    3.38
  -6   1   9   15.32    3.55
   6   1  -9   14.41    3.07
   6   1  -8   29.41    3.42
   6  -1  -8   29.94    3.43
  -6   1   8   30.36    3.67
   6  -1  -8   27.09    3.70
   6  -1  -8   28.37    3.06
   6   1  -8   28.77    3.44
   6   1  -8   34.41    3.30
   6   1  -8   31.90    2.83
   6  -1  -8   29.70    3.38
  -6  -1   8   30.79    4.07
  -6   1   8   29.71    4.25
   6   1  -7   70.67    5.41
   6  -1  -7   68.47    5.26
   6   1  -7   73.77    4.75
   6  -1  -7   69.32    3.87
   6  -1  -7   69.16    4.26
  -6   1   7   64.27    4.44
   6   1  -7   63.35    4.53
   6   1  -7   73.07    4.39
   6   1  -7   68.24    3.79
   6  -1  -7   70.32    4.59
  -6   1   7   67.13    3.09
  -6  -1   7   74.69    5.43
  -6   1   7   72.63    5.90
   6  -1  -7   75.07    5.48
   6   1  -6  232.85   10.40
   6  -1  -6  222.92    9.98
   6  -1  -6  206.34    5.25
   6  -1  -6  215.95    7.05
  -6   1   6  214.89    7.42
  -6  -1   6  205.60    6.74
   6   1  -6  206.10    7.42
   6   1  -6  227.27    7.70
   6   1  -6  222.00    7.17
   6  -1  -6  210.38    7.33
  -6  -1   6  208.88    6.02
  -6   1   6  199.96    5.18
  -6  -1   6  222.26    8.38
  -6   1   6  233.07    9.30
   6  -1  -6  225.41    8.73
  -6   1   5  181.81    5.32
   6   1  -5  226.29   10.94
   6   1  -5  207.23    6.52
   6  -1  -5  200.92    6.49
   6  -1  -5  176.69    3.84
   6   1  -5  186.98    6.66
  -6   1   5  197.26    6.76
  -6  -1   5  187.38    5.86
   6  -1  -5  187.41    6.55
  -6   1   5  188.63    5.10
  -6  -1   5  190.98    5.54
   6  -1  -5  207.07   10.19
  -6  -1   5  191.57    7.08
  -6   1   5  199.27    7.58
  -6   1   4  173.37    4.89
  -6  -1   4  156.67    2.81
   6   1  -4  190.05   10.51
   6  -1  -4  171.60    5.74
   6  -1  -4  173.03    9.81
   6   1  -4  154.57    4.63
   6   1  -4  173.00    6.19
   6   1  -4  146.68    2.93
  -6   1   4  183.38    6.17
  -6  -1   4  173.29    5.34
  -6   1   4  164.28    6.15
  -6   1   4  163.20    4.75
   6  -1  -4  163.86    5.93
  -6  -1   4  169.59    5.18
  -6  -1   4  164.61    6.21
  -6   1   4  164.42    6.29
  -6   1   3  513.09    8.60
   6  -1  -3  506.11   10.10
   6   1  -3  486.61   17.61
  -6   1   3  494.50    9.51
   6   1  -3  486.64   10.33
  -6   1   3  520.32   10.43
  -6  -1   3  504.27    9.20
  -6   1   3  508.89   10.87
  -6  -1   3  478.42   10.56
  -6   1   3  473.66   10.12
  -6   1   2  323.44    6.61
   6   1  -2  320.30    8.11
   6   1  -2  280.80   13.98
   6  -1  -2  272.33   13.07
  -6  -1   2  318.33    7.11
  -6   1   2  323.14    8.06
  -6   1   2  320.03    8.46
  -6   1   2  327.53    6.67
  -6  -1   2  328.61    8.47
  -6   1   2  323.26    8.01
   6  -1  -2  318.88    7.95
   6   1  -1   83.78    2.02
   6  -1  -1   93.24    3.39
  -6   1   1   94.46    3.59
   6   1  -1   96.14    8.57
   6  -1  -1   98.65    8.23
   6   1  -1   86.36    3.84
  -6   1   1   81.70    2.02
  -6  -1   1   78.52    2.10
  -6   1   1   94.38    4.54
  -6  -1   1   88.73    4.31
  -6   1   1   98.52    3.68
  -6   1   1   96.03    3.74
  -6  -1   1   92.00    2.78
  -6  -1   1   92.34    4.40
  -6   1   1   92.51    4.03
   6  -1  -1   94.44    4.40
   6   1  -1   91.04    4.25
   6  -1   0   64.89    3.07
   6   1   0   69.19    2.42
  -6   1   0   70.47    3.39
   6   1   0   77.98    7.33
   6  -1   0   85.84    7.24
   6   1   0   72.05    4.51
  -6  -1   0   62.39    2.38
   6  -1   0   65.89    3.64
  -6   1   0   75.87    3.46
   6   1   0   63.65    2.32
  -6   1   0   69.08    3.96
  -6  -1   0   64.94    3.71
  -6   1   0   69.94    3.39
  -6  -1   0   64.78    2.05
  -6   1   0   76.98    3.45
   6  -1   0   69.91    3.92
  -6  -1   0   66.90    3.78
  -6   1   0   67.32    3.29
   6  -1   0   68.96    3.62
   6   1   0   67.64    3.83
   6  -1   1    5.41    1.30
   6  -1   1    6.07    1.35
   6   1   1    5.43    0.98
   6   1   1    6.15    1.43
   6   1   1    4.83    1.93
   6  -1   1    6.47    2.13
   6   1   1    6.06    1.82
   6  -1   1    5.35    1.35
   6   1   1    8.50    1.79
  -6   1  -1    5.20    1.48
  -6  -1  -1    5.16    0.96
  -6   1  -1    6.93    1.48
  -6  -1  -1    5.23    1.30
   6   1   1    4.58    0.87
  -6   1  -1    4.72    1.13
  -6   1  -1    7.21    1.18
   6  -1   1    6.69    1.25
  -6   1  -1    5.58    0.95
  -6  -1  -1    6.03    1.43
  -6   1  -1    4.97    1.05
   6  -1   1    6.11    1.23
   6   1   2   -0.18    0.97
   6  -1   2    1.35    1.29
   6   1   2    3.22    1.34
   6   1   2   -0.46    1.37
   6  -1   2   -0.51    1.25
   6  -1   2   -1.00    1.23
   6   1   2    0.63    1.03
  -6   1  -2    0.82    1.04
  -6  -1  -2   -0.50    0.75
  -6   1  -2    0.53    1.03
  -6  -1  -2    1.30    1.12
   6   1   2    1.22    1.01
  -6   1  -2    0.74    0.81
   6  -1   2    0.21    0.84
  -6   1  -2   -0.46    0.55
  -6  -1  -2   -1.09    1.20
  -6   1  -2    0.52    0.77
   6  -1   2    1.79    1.02
   6  -1   2   -1.17    1.25
   6  -1   3   28.74    2.86
   6   1   3   33.95    3.11
   6   1   3   23.86    3.13
   6  -1   3   27.52    3.22
  -6  -1  -3   34.35    3.48
   6  -1   3   33.48    3.34
   6   1   3   27.52    3.02
  -6   1  -3   33.85    3.44
  -6  -1  -3   34.15    3.15
   6  -1   3   32.85    2.54
   6   1   3   29.33    2.90
  -6   1  -3   25.48    1.55
   6  -1   3   30.42    2.57
   6  -1   4   18.48    2.72
   6   1   4   20.34    2.93
   6   1   4   17.57    2.61
   6  -1   4   19.25    2.63
  -6   1  -4   21.60    2.68
   6  -1   4   22.50    3.11
   6   1   4   19.13    2.80
  -6   1  -4   22.54    3.25
  -6  -1  -4   19.66    2.59
  -6  -1  -4   20.11    3.02
  -6   1  -4   16.99    3.39
   6  -1   4   20.41    2.24
  -6   1  -5   38.44    4.98
   6  -1   5   35.26    3.95
   6   1   5   32.08    4.20
   6   1   5   34.71    3.44
   6  -1   5   43.62    3.95
  -6  -1  -5   41.38    4.20
  -6   1  -5   39.31    3.61
   6  -1   5   45.73    4.97
   6   1   5   40.29    4.35
  -6   1  -5   32.41    3.94
  -6  -1  -5   36.36    3.40
   6  -1   5   47.34    3.69
   6  -1   6   13.10    2.97
   6   1   6   14.85    3.71
   6  -1   6   20.17    4.19
   6   1   6   17.76    3.57
  -6   1  -6    9.53    2.94
  -6   1  -6   12.92    2.74
  -6  -1  -6   19.73    3.43
  -6   1  -6   17.16    2.65
  -6  -1  -6   20.81    3.80
   6  -1   7   17.46    3.95
   6   1   7   28.45    4.61
  -6   1  -7   25.79    4.58
  -6  -1  -7   30.13    4.50
  -6   1  -7   20.42    3.26
  -6  -1  -7   23.98    4.15
   6   2 -11    6.22    2.69
   6   2 -11    2.45    2.30
   6  -2 -11    3.89    2.26
  -6  -2  11    5.08    3.21
   6  -2 -11    4.69    2.56
  -6  -2  11    3.57    2.28
  -6   2  11    8.46    2.90
   6   2 -10   18.14    3.37
   6   2 -10   16.47    3.77
   6  -2 -10   13.20    3.54
  -6  -2  10   22.78    4.28
  -6   2  10   11.52    2.65
   6  -2 -10   13.27    2.68
  -6  -2  10   21.99    3.82
   6  -2 -10   13.51    3.13
  -6  -2  10   16.25    3.54
  -6   2  10   20.32    3.93
   6   2  -9   27.97    3.70
   6   2  -9   27.06    3.32
  -6  -2   9   26.36    3.56
   6  -2  -9   25.11    3.23
  -6  -2   9   31.17    4.47
   6  -2  -9   19.46    3.73
  -6   2   9   21.98    3.26
   6  -2  -9   26.33    3.19
   6   2  -9   28.11    4.27
   6  -2  -9   22.57    3.52
  -6  -2   9   28.02    3.96
  -6   2   9   25.69    4.30
   6   2  -8   15.92    2.56
  -6  -2   8   12.11    2.14
   6   2  -8   17.26    2.98
   6  -2  -8   11.10    2.35
   6  -2  -8   14.22    2.20
   6  -2  -8   13.15    2.90
  -6   2   8   14.72    2.66
   6  -2  -8   14.85    2.70
   6   2  -8   17.30    3.10
  -6  -2   8   19.44    3.37
  -6   2   8   16.11    3.35
   6  -2  -7    1.16    1.08
   6   2  -7    0.05    1.14
  -6  -2   7    0.55    1.04
   6   2  -7    1.91    1.55
   6  -2  -7    1.60    1.31
   6  -2  -7    0.41    1.57
  -6   2   7    2.53    1.43
  -6   2   7    0.93    1.18
  -6   2   7   -1.92    1.52
   6   2  -7    1.59    1.36
   6  -2  -7   -0.15    1.13
  -6  -2   7    0.39    1.41
  -6   2   7    1.64    1.90
   6   2  -6    0.73    1.11
  -6  -2   6    4.01    1.05
   6  -2  -6    3.73    1.92
  -6   2   6    1.60    0.52
   6  -2  -6    4.17    1.98
   6   2  -6    1.17    1.57
   6   2  -6    2.50    1.23
  -6   2   6   -1.42    1.40
   6  -2  -6    2.78    0.82
  -6   2   6    1.50    1.28
   6   2  -6   -0.47    1.05
  -6  -2   6    1.30    0.81
   6  -2  -6    0.62    1.06
  -6  -2   6    1.49    0.63
   6  -2  -6    2.37    1.05
  -6  -2   6    2.31    1.35
  -6   2   6    3.35    2.09
   6   2  -5    2.87    1.33
  -6  -2   5    0.55    0.31
  -6   2   5    0.54    0.48
   6   2  -5   -0.33    2.11
   6  -2  -5    2.74    2.20
   6  -2  -5    1.90    1.36
   6   2  -5    1.31    1.13
  -6   2   5   -0.86    1.15
  -6   2   5    0.88    1.02
   6  -2  -5    1.28    0.56
  -6  -2   5    0.27    0.69
  -6   2   5    0.66    0.97
  -6  -2   5    1.00    0.37
   6  -2  -5    1.61    0.87
   6  -2  -5   -0.16    1.02
  -6  -2   5    1.41    0.69
  -6  -2   5    1.22    1.17
  -6   2   5    4.56    1.89
   6   2  -4   14.79    2.06
   6   2  -4   15.10    3.29
  -6   2   4   18.19    1.49
   6  -2  -4   16.63    3.31
   6  -2  -4   17.41    2.47
  -6   2   4   16.19    1.68
   6   2  -4   15.41    1.34
  -6  -2   4   15.01    1.52
  -6   2   4   14.25    2.08
  -6   2   4   16.21    2.12
   6  -2  -4   15.75    1.75
  -6   2   4   14.26    1.38
  -6  -2   4   18.08    1.69
   6  -2  -4   16.70    2.18
  -6  -2   4   14.33    2.03
  -6   2   4   14.01    2.09
   6   2  -3  153.87   10.36
   6  -2  -3  161.69    9.98
  -6   2   3  163.69    3.41
   6   2  -3  172.44    6.22
   6   2  -3  171.78    3.91
  -6   2   3  180.86    5.39
  -6   2   3  176.46    6.21
  -6  -2   3  169.44    4.69
  -6   2   3  176.46    6.27
   6  -2  -3  170.03    6.39
  -6  -2   3  174.24    5.33
  -6  -2   3  167.66    6.37
  -6   2   3  166.56    5.96
   6  -2  -3  176.68    5.75
   6   2  -2   55.58    6.60
   6   2  -2   70.55    3.86
   6  -2  -2   65.47    6.50
   6   2  -2   72.94    2.59
  -6   2   2   66.56    2.00
  -6   2   2   71.36    3.43
  -6   2   2   73.80    3.95
  -6  -2   2   68.38    2.96
  -6   2   2   71.09    3.54
  -6   2   2   71.08    4.02
  -6  -2   2   71.87    4.19
   6  -2  -2   71.54    3.76
  -6   2   2   71.39    3.69
   6  -2  -1   88.95    3.86
   6   2  -1   87.41    4.30
   6   2  -1   83.20    8.53
   6  -2  -1   99.73    8.28
   6   2  -1   81.99    3.03
  -6   2   1   90.10    4.04
  -6   2   1   91.34    2.67
  -6   2   1   86.11    4.58
  -6   2   1   90.06    3.99
  -6  -2   1   77.44    2.17
   6  -2  -1   90.68    4.41
  -6  -2   1   85.60    4.55
  -6   2   1   94.87    4.09
   6  -2  -1   91.74    4.65
   6  -2   0  231.91    6.53
   6   2   0  216.13    3.92
   6   2   0  251.85   13.37
  -6   2   0  261.13    8.05
   6  -2   0  262.12   12.55
   6  -2   0  231.05    6.66
  -6  -2   0  212.78    5.22
  -6   2   0  228.26    7.44
   6   2   0  206.35    3.88
  -6   2   0  234.15    6.71
   6  -2   0  234.25    6.64
   6   2   0  225.60    6.22
  -6   2   0  223.89    6.33
   6  -2   0  228.28    7.38
  -6  -2   0  221.72    7.43
  -6   2   0  241.70    6.08
   6  -2   0  246.76    7.48
   6   2   0  236.60    7.30
   6  -2   1  197.54    6.35
   6   2   1  198.46    7.11
   6   2   1  185.59    4.85
   6   2   1  181.14   10.61
   6  -2   1  200.57    9.96
  -6  -2  -1  180.77    5.42
   6  -2   1  190.19    6.55
  -6   2  -1  186.11    7.06
  -6  -2  -1  200.22    7.07
   6   2   1  180.29    4.77
  -6   2  -1  196.14    6.63
   6  -2   1  207.36    6.52
   6  -2   1  193.06    7.13
  -6   2  -1  188.68    5.62
  -6  -2  -1  181.19    4.36
  -6  -2  -1  188.30    6.99
  -6   2  -1  194.10    5.20
   6   2   1  210.83    7.25
   6  -2   1  200.35    6.55
  -6   2  -1  204.04    8.44
   6  -2   2  217.03    7.22
  -6   2  -2  213.85    9.85
   6   2   2  215.88    6.64
   6   2   2  189.14    9.95
   6  -2   2  215.24    9.67
   6   2   2  202.47    8.45
  -6  -2  -2  221.94    8.78
   6  -2   2  217.67    7.62
   6   2   2  216.92    7.99
  -6   2  -2  204.96    7.90
  -6  -2  -2  237.80    7.91
   6   2   2  204.22    6.47
  -6   2  -2  232.51    7.90
   6  -2   2  221.65    6.88
  -6   2  -2  208.69    5.78
   6   2   2  216.76    7.48
  -6  -2  -2  202.57    7.62
  -6   2  -2  228.62    5.73
   6  -2   2  217.96    6.71
  -6   2  -3  142.66    8.42
   6  -2   3  161.58    6.74
   6   2   3  150.89    6.68
   6   2   3  132.51    7.86
   6  -2   3  143.44    7.54
   6   2   3  126.82    7.18
  -6  -2  -3  159.69    7.81
   6  -2   3  158.16    7.17
   6   2   3  153.80    7.07
  -6   2  -3  161.46    7.63
  -6  -2  -3  161.99    6.50
   6  -2   3  153.74    5.99
   6   2   3  153.01    6.58
  -6   2  -3  154.02    4.90
  -6   2  -4   75.26    6.56
   6  -2   4   90.36    5.61
   6   2   4   72.21    5.52
   6   2   4   73.47    5.65
   6   2   4   72.33    5.87
   6  -2   4   83.60    5.64
  -6  -2  -4   88.90    6.32
  -6   2  -4   95.96    4.99
   6  -2   4   92.59    6.28
   6   2   4   83.36    5.63
  -6   2  -4   86.95    6.44
  -6  -2  -4   75.49    4.34
   6  -2   4   85.51    4.84
  -6   2  -5   88.86    7.53
   6  -2   5   90.77    6.28
   6   2   5   87.73    6.94
   6   2   5   82.15    5.57
   6   2   5   82.83    6.51
   6  -2   5   90.83    5.78
  -6  -2  -5   84.89    6.52
  -6   2  -5   96.57    5.21
   6  -2   5  100.25    7.41
   6   2   5   92.55    6.44
  -6   2  -5   86.26    6.65
   6  -2   5  100.87    5.82
   6  -2   6   19.95    3.66
   6   2   6   15.27    3.51
   6  -2   6   20.70    4.14
   6   2   6   17.73    3.47
  -6   2  -6   11.10    3.22
  -6  -2  -6   20.94    3.91
  -6   2  -6   14.41    3.05
   6  -2   6   21.18    3.35
   6   2   7   12.20    3.16
  -6  -2  -7   12.63    3.64
  -6   2  -7   13.95    3.22
  -6  -2  -7   13.90    3.32
   6   3 -11    9.64    3.41
   6  -3 -11    7.36    2.93
   6   3 -10    0.66    1.90
   6   3 -10   -0.10    2.00
   6  -3 -10    1.86    2.41
  -6  -3  10    3.58    2.60
  -6   3  10    4.40    2.29
   6  -3 -10   -1.29    2.31
  -6  -3  10   -1.85    2.06
  -6   3  10    1.05    2.29
   6   3  -9   14.75    3.38
   6   3  -9    9.97    2.75
   6   3  -9   10.76    2.70
  -6  -3   9   13.40    3.51
   6  -3  -9    6.98    2.66
  -6   3   9    6.03    2.07
   6  -3  -9    8.48    2.67
  -6  -3   9   10.45    2.72
  -6   3   9   11.36    3.49
   6   3  -8   23.05    3.44
   6   3  -8   20.65    3.54
   6  -3  -8   14.16    2.75
   6  -3  -8   18.62    2.24
   6  -3  -8   18.21    3.34
  -6   3   8   12.75    2.13
  -6   3   8   11.24    2.33
   6  -3  -8   20.00    3.17
  -6  -3   8   18.47    3.14
   6   3  -8   19.38    3.30
  -6   3   8   16.78    3.77
   6  -3  -7   35.70    4.31
  -6  -3   7   34.54    2.30
   6   3  -7   41.07    5.00
   6  -3  -7   36.74    2.78
   6  -3  -7   33.16    4.16
  -6   3   7   33.38    3.70
  -6   3   7   30.99    3.02
  -6   3   7   31.76    3.42
   6   3  -7   35.60    3.73
   6   3  -7   41.11    3.99
   6  -3  -7   36.68    3.85
  -6  -3   7   37.77    3.91
  -6   3   7   32.32    4.52
   6  -3  -6  147.10    7.83
  -6  -3   6  142.93    3.54
   6  -3  -6  147.87    5.18
   6  -3  -6  149.33    8.90
  -6   3   6  150.93    6.20
  -6   3   6  148.57    5.46
  -6   3   6  146.58    6.70
   6   3  -6  143.14    6.75
  -6   3   6  133.28    5.67
   6   3  -6  153.71    7.00
   6  -3  -6  146.71    6.99
  -6  -3   6  150.78    7.12
  -6   3   6  148.34    8.50
  -6   3   5  127.49    4.35
   6  -3  -5  133.53    4.76
   6  -3  -5  133.75    8.83
  -6   3   5  128.54    4.72
  -6   3   5  128.76    4.23
   6  -3  -5  131.14    4.42
   6   3  -5  129.02    4.73
  -6   3   5  131.27    5.97
   6   3  -5  125.43    5.91
  -6   3   5  122.81    5.27
   6   3  -5  138.91    6.38
   6  -3  -5  130.85    6.19
  -6  -3   5  137.42    3.95
  -6  -3   5  132.46    6.22
  -6   3   5  143.19    7.40
   6  -3  -5  139.47    6.98
  -6   3   4  105.43    5.32
   6  -3  -4  109.27    8.36
  -6   3   4  105.65    3.79
  -6   3   4  108.92    3.77
   6   3  -4  105.03    4.02
   6   3  -4  106.91    5.24
  -6   3   4  107.75    5.23
  -6  -3   4  106.59    3.57
  -6   3   4  110.66    5.06
   6  -3  -4  113.08    5.56
  -6  -3   4  111.72    3.93
  -6  -3   4  104.36    5.41
  -6   3   4  112.22    5.72
   6  -3  -4  109.20    4.34
   6  -3  -4  100.25    5.58
  -6   3   3  288.53   10.43
   6   3  -3  302.97    8.60
  -6   3   3  299.51    6.11
  -6   3   3  306.38    6.58
   6   3  -3  296.50    6.55
  -6   3   3  296.02    8.54
  -6  -3   3  297.92    5.74
  -6   3   3  283.66    8.36
  -6  -3   3  299.11    6.99
   6  -3  -3  299.53    8.94
  -6  -3   3  291.70    8.88
   6  -3  -3  315.26    7.85
  -6   3   3  289.84    8.32
   6  -3  -3  292.30    8.89
  -6   3   2  206.75    9.99
   6  -3  -2  171.36   11.06
   6   3  -2  186.75    6.50
   6   3  -2  192.25    5.24
  -6   3   2  193.07    5.45
  -6   3   2  195.93    4.77
  -6   3   2  193.36    6.73
  -6  -3   2  185.09    4.39
  -6   3   2  198.24    7.03
  -6   3   2  203.92    6.55
   6  -3  -2  201.18    6.37
  -6  -3   2  192.91    7.18
  -6   3   2  199.30    6.30
   6  -3  -1   68.37    3.79
  -6   3   1   83.32    7.09
   6   3  -1   66.66    3.88
   6  -3  -1   67.09    7.16
   6   3  -1   65.58    3.19
  -6   3   1   67.41    3.51
  -6   3   1   68.28    2.94
  -6   3   1   70.05    4.09
  -6   3   1   65.84    4.25
  -6   3   1   69.12    3.89
  -6  -3   1   50.46    1.59
   6  -3  -1   67.23    3.89
  -6   3   1   69.38    4.02
  -6  -3   1   62.30    4.14
  -6   3   1   72.79    3.63
   6  -3   0   38.65    3.07
  -6   3   0   51.82    6.00
   6   3   0   36.70    1.60
   6  -3   0   44.83    5.70
   6   3   0   38.96    2.59
  -6  -3   0   38.96    3.74
   6  -3   0   38.83    2.68
  -6  -3   0   35.41    2.45
  -6   3   0   37.26    2.43
  -6   3   0   39.33    3.43
  -6   3   0   38.38    3.04
   6   3   0   34.47    1.53
   6  -3   0   40.74    3.32
   6  -3   0   39.51    3.06
  -6   3   0   38.52    3.05
  -6  -3   0   38.53    2.50
  -6  -3   0   35.97    3.36
  -6   3   0   40.48    2.45
   6   3   0   37.95    3.05
   6  -3   1    8.39    1.76
   6   3   1    8.11    1.31
   6  -3   1    8.25    2.63
   6   3   1    8.38    1.68
   6  -3   1    8.49    1.55
   6   3   1    7.71    1.41
  -6   3  -1    8.05    1.89
  -6   3  -1    9.37    3.08
  -6  -3  -1    8.97    2.19
  -6   3  -1    9.23    1.81
   6   3   1    6.97    1.16
   6  -3   1    8.93    1.77
  -6   3  -1    8.74    1.51
  -6  -3  -1    8.55    1.10
  -6  -3  -1    7.04    1.85
  -6   3  -1    7.99    1.05
   6  -3   2    0.22    1.13
   6   3   2    0.91    1.12
   6   3   2   -0.32    1.54
   6  -3   2   -0.15    1.65
   6  -3   2   -0.79    1.06
   6   3   2    2.81    1.49
  -6   3  -2   -1.32    2.07
  -6   3  -2    1.00    1.47
  -6  -3  -2   -0.48    1.38
  -6   3  -2    0.57    1.22
   6  -3   2   -0.76    1.28
  -6   3  -2   -0.58    0.78
  -6   3  -2    0.57    0.63
   6   3   3   16.09    2.23
   6  -3   3   20.06    2.76
   6   3   3   14.30    2.39
   6   3   3   14.96    3.27
   6  -3   3   18.97    3.08
   6  -3   3   21.32    2.95
   6   3   3   15.83    2.68
   6   3   3   16.85    2.69
  -6   3  -3   16.26    3.48
  -6   3  -3   16.60    3.03
  -6  -3  -3   16.93    3.07
  -6   3  -3   17.24    2.57
   6  -3   3   18.81    2.54
  -6   3  -3   16.95    2.07
   6  -3   4   16.21    2.94
   6   3   4    9.21    2.46
   6   3   4   11.13    2.59
   6  -3   4   17.13    2.98
   6  -3   4   15.51    2.87
   6   3   4    8.72    2.21
   6   3   4   14.55    2.67
  -6   3  -4   13.36    3.18
  -6  -3  -4   11.45    2.68
   6  -3   4   12.57    2.24
   6  -3   5   32.56    4.09
   6   3   5   26.56    3.86
   6   3   5   26.82    3.72
   6  -3   5   33.09    4.64
   6   3   5   29.30    3.94
   6   3   5   17.70    3.33
  -6   3  -5   31.76    4.73
  -6  -3  -5   32.88    4.75
   6  -3   5   32.26    3.93
   6  -3   6   14.70    3.42
   6   3   6   12.49    3.04
   6   3   6   11.15    3.13
   6  -3   6   12.42    3.49
   6   3   6   12.87    3.10
  -6   3  -6   15.34    3.58
  -6  -3  -6   12.33    3.61
   6  -3   6   18.95    3.55
   6   3   7   18.33    3.65
  -6   3  -7   18.97    3.89
   6   4 -10   13.99    3.43
  -6   4  10    5.64    2.09
   6   4  -9   12.99    3.38
   6   4  -9   11.51    3.08
   6   4  -9   14.72    3.49
  -6  -4   9   18.29    3.96
   6  -4  -9   13.05    3.75
  -6   4   9    8.76    2.44
   6  -4  -9   14.91    3.45
  -6  -4   9   16.04    3.48
  -6   4   9   18.62    4.32
   6   4  -8   13.71    3.01
   6  -4  -8    7.12    2.64
  -6   4   8   10.46    2.53
   6  -4  -8    5.88    2.20
   6   4  -8   12.82    2.90
  -6  -4   8   10.56    2.74
  -6   4   8    8.65    3.44
   6   4  -7    1.69    1.59
   6  -4  -7    1.11    1.88
  -6   4   7    2.78    1.68
  -6   4   7   -2.35    1.76
   6   4  -7    0.07    1.29
   6  -4  -7   -0.70    1.50
  -6  -4   7    2.05    2.10
  -6   4   7   -0.41    2.11
   6   4  -6   -1.12    1.59
   6  -4  -6    0.56    1.88
   6  -4  -6    2.13    1.89
   6  -4  -6    1.70    0.89
  -6   4   6   -0.26    0.90
  -6   4   6    0.02    1.15
   6   4  -6    0.25    0.91
  -6   4   6    0.10    0.91
   6   4  -6   -1.01    1.19
   6  -4  -6    0.37    1.35
  -6  -4   6    1.24    1.71
  -6   4   6   -1.58    1.96
   6   4  -5    0.93    1.23
   6  -4  -5    1.36    2.06
   6  -4  -5   -0.13    0.63
   6  -4  -5    0.58    1.39
   6   4  -5    0.88    1.27
  -6   4   5    1.19    0.88
  -6   4   5    1.90    1.42
   6   4  -5   -0.16    0.79
  -6   4   5    0.36    0.93
   6  -4  -5    1.47    1.39
  -6  -4   5   -0.08    1.27
  -6   4   5    1.81    1.85
   6   4  -4    8.34    1.85
   6  -4  -4    7.85    1.30
   6   4  -4    8.30    1.89
   6  -4  -4    9.20    3.25
   6  -4  -4    7.72    1.90
  -6   4   4    7.12    1.04
  -6   4   4    9.97    1.54
  -6   4   4    7.02    1.74
   6   4  -4    7.43    1.40
  -6   4   4    7.45    1.73
  -6  -4   4    6.91    1.45
   6  -4  -4    7.95    2.03
  -6  -4   4    8.69    1.97
  -6   4   4    9.36    2.29
   6  -4  -3   84.75    8.09
   6   4  -3   92.72    4.94
  -6   4   3   88.52    3.84
   6   4  -3   91.73    4.20
  -6   4   3   90.28    4.94
  -6   4   3   95.03    5.04
  -6  -4   3   93.97    3.88
   6  -4  -3   96.89    5.41
  -6   4   3   94.80    5.49
   6  -4  -3   93.78    4.23
  -6  -4   3   90.90    5.35
  -6   4   3   92.41    5.01
  -6   4   3  102.57    5.16
   6  -4  -3   91.28    5.27
   6   4  -2   24.89    2.55
   6  -4  -2   26.33    4.83
   6   4  -2   24.62    2.19
  -6  -4   2   31.29    3.56
  -6   4   2   26.69    2.16
  -6   4   2   25.83    2.68
  -6  -4   2   23.84    1.25
  -6   4   2   27.57    2.97
  -6   4   2   27.88    2.86
  -6  -4   2   27.58    1.74
   6  -4  -2   27.76    2.49
   6  -4  -2   23.80    2.89
  -6   4   2   29.72    3.10
  -6  -4   2   25.24    2.91
  -6   4   2   24.20    2.43
  -6   4   2   32.21    3.84
   6   4  -1   58.07    3.66
   6  -4  -1   66.61    7.66
   6   4  -1   56.80    3.39
  -6  -4   1   58.35    4.81
  -6   4   1   58.59    3.19
  -6  -4   1   52.35    2.11
  -6   4   1   56.02    3.85
  -6   4   1   59.75    4.24
  -6   4   1   61.44    4.06
  -6  -4   1   41.95    1.44
  -6   4   1   63.33    4.40
  -6  -4   1   52.65    4.16
  -6   4   1   63.98    3.48
  -6   4   1   57.53    5.61
   6  -4  -1   62.26    4.01
   6  -4   0  131.44    5.94
   6  -4   0  153.62   10.84
   6   4   0  129.19    5.35
  -6  -4   0  122.58    7.00
   6  -4   0  126.52    4.60
  -6   4   0  130.99    5.07
  -6   4   0  127.73    6.33
  -6   4   0  129.97    5.96
   6  -4   0  132.63    6.04
  -6   4   0  128.75    5.89
  -6  -4   0  121.21    6.50
  -6   4   0  137.08    4.51
   6   4   0  125.74    5.51
  -6   4   0  131.05    9.08
   6  -4   1  106.52    5.52
   6  -4   1  101.46    8.07
   6   4   1   94.94    4.84
  -6  -4  -1   99.91    6.58
   6  -4   1  100.99    4.59
  -6   4  -1   98.09    4.57
  -6   4  -1  104.75    6.06
  -6   4  -1  109.08    5.57
   6  -4   1  108.75    5.61
  -6   4  -1   98.98    5.08
  -6  -4  -1   94.91    5.99
   6   4   1  107.36    5.22
  -6   4  -1  121.93    9.32
   6  -4   2  111.13    5.95
   6   4   2  105.47    5.62
  -6  -4  -2  108.10    7.22
   6  -4   2  105.59    5.29
  -6   4  -2  110.51    6.91
  -6   4  -2  113.49    5.97
   6  -4   2  111.66    5.93
   6  -4   2   97.68    7.54
  -6   4  -2   99.28    5.07
   6   4   2  106.37    5.39
  -6   4  -2  123.68    9.40
   6  -4   3   82.48    5.42
  -6  -4  -3   82.06    6.74
   6   4   3   90.97    5.96
   6  -4   3   88.96    5.59
  -6   4  -3   83.29    5.49
   6  -4   3   81.88    5.33
   6   4   3   87.62    5.00
  -6   4  -3   88.72    4.96
  -6   4  -3  107.59    8.50
   6  -4   4   45.29    4.35
  -6  -4  -4   56.74    6.11
   6   4   4   55.70    5.37
   6  -4   4   57.42    5.18
   6  -4   4   46.97    4.43
  -6   4  -4   54.28    6.00
   6  -4   5   55.74    5.31
  -6  -4  -5   56.80    6.74
   6  -4   5   60.95    6.12
   6   4   5   54.17    5.13
   6   4   5   40.32    5.16
   6  -4   5   50.65    4.93
  -6   4  -5   51.60    5.71
   6   4   6    4.94    2.21
   6  -4   6   11.52    3.56
   6   4   6   11.49    3.15
   6  -4   6    8.39    2.95
  -6   5   9    5.07    2.29
  -6  -5   9   -5.47    3.62
   6   5  -8   10.17    3.02
  -6  -5   8   15.50    3.47
   6  -5  -8    6.45    2.96
  -6   5   8    9.30    2.43
  -6  -5   8   10.09    3.34
   6   5  -8    8.26    2.56
   6  -5  -8    6.47    2.53
  -6  -5   8   10.06    2.94
  -6   5   8   10.84    3.43
  -6   5   7   17.89    2.79
   6   5  -7   14.94    3.10
   6  -5  -7   14.13    3.54
  -6   5   7   11.15    2.46
   6   5  -7   12.06    2.32
  -6  -5   7   13.13    3.18
   6   5  -7   12.95    2.66
   6  -5  -7   15.61    3.07
  -6  -5   7   12.76    2.93
  -6   5   7   11.19    3.51
   6  -5  -6   72.52    6.44
  -6   5   6   65.50    4.31
  -6  -5   6   64.32    5.54
   6   5  -6   65.06    4.54
  -6   5   6   62.09    4.88
   6   5  -6   63.29    4.90
  -6   5   6   67.92    4.23
  -6  -5   6   71.89    5.49
   6   5  -6   74.68    5.66
  -6   5   6   77.24    6.61
   6  -5  -6   68.02    5.44
  -6  -5   6   76.84    5.77
  -6   5   6   64.43    6.61
   6  -5  -5   58.43    5.15
  -6   5   5   55.32    3.73
  -6  -5   5   59.96    5.39
   6   5  -5   60.72    4.17
   6   5  -5   56.06    4.37
  -6   5   5   52.87    4.36
  -6   5   5   57.44    3.88
  -6  -5   5   60.04    4.26
   6   5  -5   62.46    4.99
  -6   5   5   57.90    5.16
   6  -5  -5   58.26    4.77
  -6  -5   5   55.88    4.76
  -6   5   5   61.20    5.83
   6  -5  -4   44.71    4.20
  -6   5   4   41.71    3.20
  -6  -5   4   45.23    4.71
   6   5  -4   38.98    3.27
   6   5  -4   38.49    3.54
  -6   5   4   41.25    3.70
  -6   5   4   43.20    3.52
  -6  -5   4   40.48    3.10
   6   5  -4   46.28    4.16
   6  -5  -4   45.94    4.18
  -6   5   4   43.20    4.29
  -6  -5   4   40.49    3.90
  -6   5   4   47.12    4.46
   6   5  -3  125.34    5.98
  -6  -5   3  132.99    7.79
  -6   5   3  122.88    5.24
   6   5  -3  118.86    5.50
  -6   5   3  122.88    5.99
  -6   5   3  121.24    6.17
  -6   5   3  132.20    6.24
  -6  -5   3  121.49    4.50
   6  -5  -3  130.62    6.59
  -6   5   3  134.11    7.12
  -6  -5   3  115.66    6.44
  -6   5   3  124.57    4.65
  -6   5   3  121.15    6.08
   6  -5  -3  124.64    6.38
   6   5  -2   80.46    4.57
  -6  -5   2   80.36    6.14
   6   5  -2   82.28    4.54
  -6   5   2   84.85    4.37
  -6   5   2   81.50    4.88
  -6   5   2   93.51    5.48
  -6   5   2   86.17    5.15
  -6  -5   2   85.98    3.34
   6  -5  -2   85.44    5.29
  -6   5   2   91.31    5.78
  -6  -5   2   83.12    5.55
  -6   5   2   88.35    4.63
  -6   5   2   90.80    5.00
   6  -5  -2   87.13    5.14
   6   5  -1   31.18    2.87
  -6  -5   1   33.93    4.22
   6   5  -1   30.64    2.85
  -6   5   1   29.97    2.70
  -6   5   1   30.90    3.10
  -6   5   1   33.13    3.44
  -6   5   1   34.04    3.38
  -6   5   1   35.36    3.61
  -6  -5   1   28.28    3.51
  -6   5   1   34.33    2.66
  -6   5   1   32.69    3.76
   6  -5  -1   30.19    3.13
   6  -5   0   13.23    2.31
   6  -5   0   12.07    1.46
   6   5   0   13.98    2.01
  -6   5   0   11.83    2.60
   6   5   0   14.56    2.16
  -6   5   0   14.50    2.21
  -6   5   0   11.39    1.86
  -6   5   0   13.65    2.53
  -6  -5   0   13.32    2.83
  -6   5   0   15.60    2.45
   6  -5   0   16.54    2.60
  -6   5   0   14.43    2.43
  -6  -5   0   11.34    2.46
   6  -5   1    8.16    2.08
   6   5   1    5.30    1.47
   6  -5   1    4.76    1.24
   6   5   1    7.04    1.59
  -6   5  -1    4.55    2.29
  -6   5  -1    6.50    1.56
  -6   5  -1    4.98    1.69
  -6  -5  -1    2.93    2.05
  -6   5  -1    7.53    2.07
   6  -5   1    6.47    1.90
  -6   5  -1    5.93    1.70
   6  -5   2    3.47    1.73
   6   5   2   -0.23    1.00
   6  -5   2    0.66    0.92
   6   5   2   -1.61    1.36
  -6   5  -2    1.38    2.30
  -6   5  -2    0.25    0.96
  -6  -5  -2   -1.71    2.13
  -6   5  -2    0.82    1.52
   6  -5   2    1.16    1.67
  -6   5  -2    1.31    1.34
   6   5   3    6.33    1.61
   6  -5   3    7.29    2.24
   6  -5   3   12.64    2.44
   6   5   3   11.99    2.72
  -6   5  -3   11.80    3.80
  -6  -5  -3    7.96    3.08
  -6   5  -3    6.33    2.15
   6  -5   3    5.56    2.09
  -6   5  -3    6.37    1.80
   6  -5   4   11.36    2.77
   6  -5   4   12.96    2.76
   6   5   4   10.68    2.79
  -6   5  -4   11.00    3.73
  -6  -5  -4    7.90    3.50
  -6   5  -4    4.54    2.11
   6  -5   4    4.53    2.19
   6  -5   5   17.65    3.59
   6   5   5   10.57    2.90
   6  -5   5   12.41    2.86
  -6   6   8    8.94    2.55
   6   6  -8    4.70    2.05
  -6  -6   8    6.13    3.25
   6  -6  -7    0.34    2.07
  -6   6   7   -0.67    1.40
   6   6  -7    1.71    1.53
   6   6  -7   -1.78    1.56
  -6  -6   7    4.16    2.74
  -6   6   7   -2.40    2.37
  -6  -6   7    1.11    2.03
  -6   6   7   -3.81    3.69
   6   6  -6    3.03    1.81
   6  -6  -6   -1.64    1.96
  -6   6   6    0.77    1.10
   6   6  -6   -1.12    1.36
   6   6  -6   -0.29    1.33
  -6   6   6   -1.61    1.76
  -6  -6   6   -0.67    1.57
  -6   6   6    1.51    2.29
   6  -6  -6    1.17    1.63
  -6  -6   6    1.35    1.71
  -6   6   6   -1.00    2.43
   6   6  -5    2.07    1.80
   6   6  -5   -0.76    1.33
   6  -6  -5    0.96    1.49
  -6   6   5    1.54    1.21
   6   6  -5    1.32    1.17
  -6   6   5   -1.68    1.50
  -6   6   5    0.62    1.14
  -6  -6   5    3.42    1.64
  -6   6   5    0.17    1.73
   6  -6  -5    1.46    1.60
  -6  -6   5    1.20    1.86
  -6   6   5    1.00    1.91
   6   6  -4    1.96    1.40
   6   6  -4    1.29    1.73
   6  -6  -4    0.96    1.39
  -6   6   4    4.14    1.52
   6   6  -4    2.77    1.30
  -6   6   4    2.24    1.44
  -6   6   4    2.14    1.34
  -6  -6   4    1.90    2.06
  -6  -6   4    2.52    1.31
  -6   6   4    2.77    1.97
   6  -6  -4    2.62    1.67
  -6  -6   4   -0.44    1.55
  -6   6   4    4.09    1.99
   6   6  -3   32.74    3.23
  -6   6   3   36.90    3.27
   6   6  -3   38.86    3.65
  -6   6   3   37.03    3.69
  -6   6   3   34.76    3.87
  -6   6   3   38.76    3.72
  -6  -6   3   30.53    4.47
   6  -6  -3   40.25    4.00
  -6   6   3   37.90    4.15
  -6  -6   3   34.10    4.04
  -6   6   3   37.10    3.75
   6  -6  -3   36.40    3.77
   6  -6  -2    7.06    1.92
   6   6  -2    6.25    1.72
  -6   6   2    6.22    1.56
  -6   6   2    6.63    1.86
  -6   6   2    5.97    1.84
  -6  -6   2    0.76    2.10
  -6   6   2    6.84    2.13
   6   6  -2    5.00    1.56
  -6   6   2    6.67    2.28
   6  -6  -2    6.77    1.87
  -6  -6   2    5.69    1.96
  -6   6   2    9.84    1.94
   6   6  -1   22.46    2.53
  -6   6   1   20.89    2.55
   6   6  -1   21.71    2.78
  -6   6   1   22.34    2.76
  -6   6   1   20.83    3.00
  -6  -6   1   19.63    3.70
  -6   6   1   22.19    3.08
  -6   6   1   22.16    3.27
  -6   6   1   25.72    3.12
  -6  -6   0   54.11    6.26
   6   6   0   48.61    4.10
  -6   6   0   47.30    3.78
  -6   6   0   42.45    3.72
  -6   6   0   47.44    4.50
  -6   6   0   45.80    4.19
   6  -6   0   50.81    4.57
  -6   6   0   48.60    4.46
  -6   6   0   55.35    5.14
   6   6   0   44.59    3.39
   6  -6   0   50.67    4.45
   6  -6   1   43.63    4.36
  -6  -6  -1   38.65    5.46
   6   6   1   34.93    3.66
  -6   6  -1   34.58    3.36
  -6   6  -1   31.61    3.36
  -6   6  -1   34.93    4.15
  -6   6  -1   42.37    4.25
   6  -6   1   40.63    4.18
  -6   6  -1   34.11    3.77
  -6   6  -1   41.40    5.18
   6  -6   2   42.43    4.35
   6   6   2   30.63    3.42
  -6   6  -2   35.58    3.57
  -6   6  -2   34.97    5.22
  -6  -6  -2   39.14    5.57
  -6   6  -2   38.87    4.24
   6  -6   2   43.24    4.53
  -6   6  -2   36.98    3.96
  -6   6  -3   29.27    3.49
  -6   6  -3   32.81    5.55
   6   6   3   27.44    3.54
   6  -6   3   32.47    4.12
  -6   6  -3   27.57    3.55
   6   6   4   24.00    3.85
  -6  -7   7    2.30    1.90
   6   7  -6   20.66    3.25
  -6   7   6   23.08    3.13
   6   7  -6   20.19    3.13
  -6   7   6   20.39    3.36
  -6   7   6   18.47    4.60
   6   7  -5   16.16    2.75
   6  -7  -5   20.70    3.72
  -6   7   5   17.98    2.85
   6   7  -5   18.46    3.00
  -6   7   5   14.26    2.71
  -6  -7   5   16.20    3.38
  -6   7   5   17.09    3.85
   6  -7  -4   11.73    2.77
  -6   7   4   13.03    2.51
   6   7  -4   12.32    2.55
  -6   7   4   11.24    2.52
  -6   7   4   12.45    2.31
   6  -7  -4   11.37    2.69
  -6  -7   4   12.08    2.92
   6   7  -4   11.31    2.25
  -6   7   4   14.18    3.15
   6   7  -3   38.04    3.60
  -6   7   3   32.29    3.52
   6   7  -3   37.27    3.89
  -6   7   3   38.12    4.01
  -6   7   3   42.60    4.06
  -6   7   3   41.32    4.39
  -6  -7   3   33.90    5.86
   6  -7  -3   41.15    4.24
  -6   7   3   41.78    4.88
   6  -7  -3   36.77    4.05
  -6   7   2   27.33    3.24
  -6   7   2   31.14    3.47
   6   7  -2   24.75    3.28
  -6  -7   2   27.11    5.32
  -6   7   2   27.84    3.51
  -6   7   2   27.36    3.63
   6  -7  -2   29.63    3.61
  -6   7   2   34.45    4.40
   6  -7  -2   26.87    3.27
   6   7  -1    9.07    2.08
  -6   7   1    8.21    1.90
  -6   7   1   10.97    2.31
  -6  -7   1   15.74    4.48
  -6   7   1    7.79    2.07
  -6   7   1    7.30    2.32
  -6   7   1    6.53    2.23
   6   7   0    6.45    2.12
  -6   7   0    4.37    1.81
  -6   7   0    2.54    1.40
  -6  -7   0    4.60    3.20
  -6   7   0   -0.31    1.70
  -6   7   0    3.35    2.11
  -6   7  -1    2.89    2.21
   6   7   1    2.79    1.79
  -6   7  -1    1.63    1.47
  -6   7  -1    4.00    1.75
  -6   7  -1    6.24    2.24
  -6   7  -2   -0.92    1.26
  -6   7  -2   -0.10    1.41
  -6  -7  -2   -4.16    2.85
  -7   0  11    2.90    2.39
   7   0 -11    2.94    2.37
  -7   0  11    0.43    2.34
  -7   0  10   25.67    4.20
   7   0 -10   22.30    3.84
   7   0 -10   21.50    3.17
  -7   0  10   22.25    4.33
   7   0  -9   13.71    2.59
  -7   0   9   19.65    3.50
   7   0  -9   17.90    3.03
   7   0  -9   17.74    2.78
  -7   0   9   15.03    3.32
   7   0  -8   38.29    4.28
   7   0  -8   35.70    3.69
   7   0  -8   39.12    3.66
  -7   0   8   39.14    4.53
   7   0  -7   85.94    6.56
   7   0  -7   84.56    5.14
  -7   0   7   79.21    4.76
   7   0  -7   86.61    4.89
  -7   0   7   95.03    6.44
   7   0  -6  111.32    7.73
   7   0  -6   93.79    2.89
   7   0  -6  108.44    5.46
  -7   0   6  107.25    5.22
  -7   0   6  104.19    5.98
  -7   0   6   98.55    3.74
  -7   0   5  170.42    4.51
   7   0  -5  186.65   10.59
   7   0  -5  167.55    6.53
  -7   0   5  171.40    6.29
  -7   0   5  168.11    6.97
  -7   0   4  337.15    6.02
   7   0  -4  320.79   14.54
   7   0  -4  319.48    8.85
  -7   0   4  338.73    8.69
  -7   0   4  338.23    6.02
  -7   0   4  315.47    9.18
  -7   0   3    9.87    0.98
   7   0  -3   11.70    3.29
  -7   0   3    9.55    1.59
  -7   0   3   10.76    1.86
   7   0  -3   10.69    1.81
  -7   0   3   10.18    0.99
  -7   0   3   10.19    1.77
  -7   0   2  217.14    4.84
   7   0  -2  207.41   12.58
  -7   0   2  233.88    7.00
  -7   0   2  222.38    7.58
  -7   0   2  222.54    4.85
  -7   0   2  222.67    5.79
  -7   0   2  240.93    7.62
   7   0  -2  231.41    7.39
   7   0  -1   98.81    3.18
   7   0  -1  107.87    9.35
  -7   0   1   98.05    5.04
  -7   0   1   96.85    3.57
  -7   0   1   99.27    4.71
   7   0  -1   96.11    4.85
   7   0   0   89.82    3.39
   7   0   0   92.76    7.82
  -7   0   0   82.18    2.54
  -7   0   0   90.99    4.88
  -7   0   0   88.79    3.29
   7   0   0   92.49    4.91
  -7   0   0   92.04    4.45
   7   0   1   -0.36    1.01
   7   0   1    1.34    0.93
   7   0   1   -0.31    1.54
   7   0   1    0.60    1.12
  -7   0  -1    1.34    0.75
  -7   0  -1    0.75    1.15
  -7   0  -1    1.52    0.73
  -7   0  -1    1.12    1.09
   7   0   2   18.86    2.49
   7   0   2   22.93    2.41
   7   0   2   16.63    2.83
   7   0   2   23.25    2.90
  -7   0  -2   21.45    2.72
  -7   0  -2   21.44    2.39
   7   0   3    0.26    1.11
   7   0   3    3.08    1.69
   7   0   3   -0.55    1.25
  -7   0  -3    2.73    1.73
  -7   0  -3    3.31    1.74
   7   0   4    1.36    1.37
   7   0   4    0.21    1.25
   7   0   4    1.56    1.49
  -7   0  -4    1.86    1.55
  -7   0  -4    2.40    1.64
   7   0   5   13.32    2.78
   7   0   5   14.77    3.11
  -7   0  -5   14.01    2.69
  -7   0  -5   13.57    2.72
  -7   0  -5   14.54    3.47
   7   0   6    8.99    2.72
  -7   0  -6   16.95    3.16
  -7   0  -6   16.28    3.67
   7  -1 -11    8.16    2.72
  -7  -1  11   14.85    3.87
  -7   1  11    9.00    3.09
   7  -1 -11   14.16    3.36
   7   1 -11   15.92    3.70
   7  -1 -11   15.72    3.31
  -7  -1  11   16.90    3.80
  -7   1  11   21.44    4.62
   7   1 -10    2.56    1.88
   7  -1 -10    0.76    1.85
  -7  -1  10    5.02    2.74
  -7   1  10    1.65    2.15
   7  -1 -10    3.12    1.99
   7   1 -10    4.15    2.55
   7  -1 -10    2.76    1.97
  -7  -1  10    0.32    1.94
  -7   1  10   -3.77    2.77
   7   1  -9   20.40    3.05
   7   1  -9   13.73    2.58
   7  -1  -9   13.72    2.59
  -7   1   9   19.77    3.55
   7  -1  -9    9.40    2.70
   7  -1  -9   15.52    2.75
  -7  -1   9   19.15    3.51
   7   1  -9   13.02    2.69
   7   1  -9   16.43    2.44
   7  -1  -9   15.82    2.75
  -7  -1   9   18.85    3.53
  -7   1   9   12.46    2.89
   7  -1  -8    5.97    1.73
   7   1  -8    5.06    2.06
   7  -1  -8    8.11    2.18
   7   1  -8    4.92    1.80
   7  -1  -8    7.28    2.21
  -7  -1   8    8.03    2.60
  -7   1   8    3.42    2.14
   7   1  -7   47.08    4.95
   7  -1  -7   46.46    4.89
   7  -1  -7   45.75    3.66
   7   1  -7   45.49    3.91
  -7   1   7   41.65    3.70
   7  -1  -7   44.05    3.80
  -7  -1   7   48.54    4.56
  -7   1   7   55.39    5.17
   7   1  -6    0.73    1.02
   7   1  -6    2.43    2.04
  -7   1   6    1.04    0.74
   7  -1  -6    3.46    2.14
   7   1  -6    1.73    0.95
   7  -1  -6    0.49    0.42
  -7   1   6    0.11    1.19
  -7  -1   6    1.31    0.88
   7  -1  -6    1.90    1.30
   7  -1  -6    0.92    1.16
  -7  -1   6    2.24    1.48
  -7   1   6   -1.91    1.63
   7   1  -5    2.50    1.43
  -7   1   5    2.28    0.87
  -7  -1   5    0.79    0.38
  -7   1   5    1.12    0.75
   7   1  -5    3.21    2.51
   7  -1  -5    2.29    2.07
   7   1  -5    0.29    0.39
  -7   1   5    1.92    1.18
  -7  -1   5    3.31    1.21
   7   1  -5    0.55    0.30
   7  -1  -5    0.51    0.92
   7  -1  -5    2.57    1.21
  -7  -1   5    0.32    1.26
  -7   1   5    1.78    1.24
  -7   1   4   10.14    1.40
   7  -1  -4   10.11    3.23
  -7   1   4   10.80    1.81
  -7  -1   4    9.42    1.44
  -7   1   4    9.88    1.94
   7  -1  -4    9.17    1.67
   7   1  -4   10.19    1.81
   7   1  -4    9.82    3.00
  -7  -1   4    9.32    1.84
  -7   1   4    8.93    1.72
  -7   1   3    6.33    1.15
   7   1  -3    2.10    2.34
   7  -1  -3    8.33    3.16
  -7   1   3    7.12    1.62
  -7  -1   3    5.92    1.20
   7  -1  -3    5.79    1.45
  -7   1   3    6.08    1.53
  -7   1   3    6.17    1.19
   7   1  -3    7.20    1.56
  -7  -1   3    6.53    1.51
  -7   1   3    5.89    1.53
   7   1  -2  285.68    8.40
  -7   1   2  293.25    6.77
   7   1  -2  261.64   14.47
   7  -1  -2  277.11   14.68
  -7  -1   2  286.59    7.38
  -7   1   2  312.52    8.54
  -7   1   2  290.69    8.85
  -7  -1   2  277.71    8.57
  -7   1   2  301.72    6.83
  -7  -1   2  283.75    6.04
  -7  -1   2  297.32    8.73
  -7   1   2  308.18    8.45
   7  -1  -2  297.34    8.45
   7   1  -1  143.21    3.01
   7  -1  -1  159.64    4.83
  -7   1   1  159.04    5.18
   7   1  -1  174.08   11.79
   7  -1  -1  184.92   12.12
  -7   1   1  153.12    6.30
  -7  -1   1  152.59    6.26
  -7   1   1  165.12    5.20
  -7  -1   1  156.25    3.95
  -7  -1   1  159.91    6.31
   7  -1  -1  169.55    6.60
  -7   1   1  168.56    6.00
   7   1  -1  162.31    6.35
   7  -1   0  117.69    4.38
   7   1   0  110.06    3.27
   7   1   0  124.79    9.15
   7  -1   0  135.61    9.65
  -7   1   0  111.01    3.44
  -7  -1   0  106.47    3.17
   7  -1   0  115.30    5.32
  -7   1   0  112.91    5.47
  -7  -1   0  111.34    5.39
  -7  -1   0  101.19    2.71
  -7   1   0  115.37    4.77
   7  -1   0  112.55    5.47
  -7  -1   0  115.09    5.36
  -7   1   0  119.15    4.81
   7   1   0  119.66    5.62
   7  -1   1  266.71    7.24
   7   1   1  259.59    6.13
   7   1   1  240.95   11.49
   7  -1   1  262.82   11.91
  -7   1  -1  236.13    7.03
  -7  -1  -1  235.23    5.88
   7  -1   1  263.77    8.53
   7   1   1  272.08    9.04
  -7   1  -1  256.43    8.68
   7   1   1  246.43    6.02
  -7  -1  -1  259.15    8.57
   7  -1   1  253.81    8.60
  -7   1  -1  243.28    6.05
   7   1   1  271.35    8.77
  -7  -1  -1  250.60    8.01
  -7   1  -1  263.11    7.16
   7  -1   2  172.26    6.37
   7   1   2  169.29    5.70
   7   1   2  148.54    8.41
   7  -1   2  154.34    8.43
   7  -1   2  178.36    7.43
   7   1   2  178.46    7.61
  -7   1  -2  171.99    7.50
  -7  -1  -2  180.27    7.48
   7  -1   2  164.88    7.21
   7  -1   2  173.09    5.58
   7   1   2  177.94    7.29
  -7   1  -2  161.01    4.50
  -7  -1  -2  169.27    6.85
  -7   1  -2  179.19    6.12
   7  -1   3  131.20    6.11
   7   1   3  130.29    5.82
   7   1   3  110.62    7.00
   7  -1   3  109.61    6.81
  -7  -1  -3  134.97    7.12
   7  -1   3  133.08    6.86
   7   1   3  121.78    6.71
  -7   1  -3  131.13    7.11
  -7  -1  -3  140.11    6.99
   7   1   3  125.19    6.39
   7  -1   3  139.66    5.37
   7  -1   4   86.95    5.56
  -7   1  -4   86.83    7.16
   7   1   4   89.09    5.63
   7   1   4   76.82    5.66
   7  -1   4   80.79    5.78
  -7  -1  -4   83.96    6.00
  -7   1  -4   88.98    5.50
   7  -1   4   87.16    6.11
   7   1   4   82.61    5.96
  -7   1  -4   90.30    6.51
  -7  -1  -4   81.63    5.36
   7  -1   5    9.29    2.50
   7   1   5   10.94    2.94
   7  -1   5    9.11    2.61
   7   1   5   10.78    2.87
  -7   1  -5    8.73    2.60
  -7   1  -5   11.22    3.17
  -7  -1  -5    6.25    2.14
  -7   1  -5    9.37    2.09
   7  -1   6   22.05    3.89
   7   1   6   24.89    4.28
  -7  -1  -6   34.50    4.58
  -7   1  -6   17.83    3.28
  -7  -1  -6   29.97    4.69
   7   1   7   10.96    3.83
   7  -2 -11    1.13    2.17
   7  -2 -11    0.39    2.12
  -7  -2  11   -0.91    2.45
   7   2 -10   15.57    3.36
   7  -2 -10   18.03    3.04
   7  -2 -10    8.75    2.96
  -7  -2  10   21.42    4.19
  -7   2  10   10.73    2.60
   7   2 -10   17.66    3.80
   7  -2 -10   12.58    3.08
  -7  -2  10   14.13    3.29
  -7   2  10   19.74    4.56
   7   2  -9   13.73    2.84
   7  -2  -9   16.40    2.67
   7   2  -9   15.95    3.03
   7  -2  -9   14.91    2.97
   7  -2  -9   10.63    3.05
  -7  -2   9   19.33    3.56
  -7   2   9   14.99    2.92
   7   2  -9   11.35    2.79
   7  -2  -9   14.16    3.05
  -7  -2   9   15.39    3.39
  -7   2   9   15.85    3.60
   7   2  -8   35.89    4.55
   7  -2  -8   31.64    4.06
  -7   2   8   36.21    3.79
   7  -2  -8   33.09    3.23
   7   2  -8   31.61    3.74
   7   2  -8   36.67    3.83
   7  -2  -8   33.40    3.89
  -7  -2   8   32.35    3.98
  -7   2   8   34.65    4.79
   7  -2  -8   32.56    4.43
   7   2  -7   79.56    6.79
   7  -2  -7   69.56    6.21
   7  -2  -7   73.01    4.35
  -7   2   7   70.49    5.06
   7   2  -7   69.52    5.07
   7   2  -7   76.52    5.05
   7  -2  -7   73.02    5.19
  -7  -2   7   80.32    5.64
  -7   2   7   76.24    6.34
   7  -2  -7   78.56    6.08
   7   2  -6   90.54    7.66
   7  -2  -6   73.86    4.19
   7  -2  -6   77.34    6.77
   7   2  -6   68.15    3.14
   7   2  -6   76.43    4.93
  -7   2   6   76.73    4.87
   7  -2  -6   71.13    4.77
  -7  -2   6   76.27    5.14
  -7   2   6   79.61    5.71
   7  -2  -6   80.29    5.80
   7  -2  -5  139.09    5.61
   7   2  -5  153.39   10.21
   7   2  -5  140.41    5.27
  -7   2   5  153.42    5.66
   7  -2  -5  140.31    9.56
   7   2  -5  131.84    3.72
   7   2  -5  133.67    6.21
  -7   2   5  150.45    6.54
  -7  -2   5  131.16    4.91
  -7   2   5  130.53    5.94
   7  -2  -5  131.72    6.16
  -7   2   5  132.63    4.36
  -7  -2   5  131.05    6.31
  -7   2   5  136.81    6.66
   7   2  -4  268.02   14.05
   7  -2  -4  256.73   13.34
  -7   2   4  240.04    5.59
   7   2  -4  267.66    8.51
   7   2  -4  256.78    4.74
  -7   2   4  277.08    8.59
  -7  -2   4  259.92    6.65
  -7   2   4  267.04    8.52
  -7   2   4  249.55    6.37
   7  -2  -4  259.56    8.52
  -7  -2   4  263.49    8.79
  -7   2   4  252.46    8.32
   7  -2  -4  270.05    7.78
   7   2  -3   11.80    3.51
   7  -2  -3   14.74    4.10
   7   2  -3   13.66    1.07
   7  -2  -3   13.38    1.97
  -7   2   3   10.37    1.96
  -7  -2   3   10.95    1.46
  -7   2   3   12.82    2.16
  -7   2   3   12.95    1.75
   7   2  -3   11.21    1.93
  -7  -2   3   11.37    2.07
  -7   2   3   13.39    1.98
   7   2  -2  175.76    6.65
   7   2  -2  150.51   11.71
   7  -2  -2  170.77   11.54
  -7   2   2  137.23    4.23
   7   2  -2  165.56    4.06
  -7   2   2  145.88    2.65
  -7  -2   2  166.12    5.15
  -7   2   2  176.63    6.71
  -7   2   2  174.55    6.87
  -7   2   2  187.31    6.02
  -7  -2   2  167.97    6.88
   7  -2  -2  184.50    6.78
  -7   2   2  186.60    6.50
   7  -2  -1   79.16    3.82
   7   2  -1   84.44    8.91
   7  -2  -1   92.13    8.74
  -7   2   1   66.92    3.96
   7   2  -1   87.86    3.81
  -7   2   1   77.97    2.38
  -7   2   1   80.73    4.71
  -7   2   1   89.63    4.30
  -7  -2   1   69.04    2.06
   7  -2  -1   79.77    4.55
  -7  -2   1   75.00    4.66
  -7   2   1   89.28    4.28
   7   2  -1   80.48    4.50
   7  -2   0   67.96    3.75
   7   2   0   64.96    2.09
   7   2   0   67.63    7.33
   7  -2   0   86.09    7.76
   7   2   0   73.45    4.47
   7  -2   0   70.90    4.06
  -7  -2   0   61.77    2.85
  -7   2   0   69.48    4.45
  -7   2   0   74.62    4.12
  -7   2   0   67.94    3.67
   7  -2   0   68.72    4.39
  -7  -2   0   73.26    4.56
  -7   2   0   69.89    3.56
   7   2   0   71.75    4.41
   7  -2   1    1.45    1.33
   7  -2   1    1.23    1.20
   7   2   1    0.77    0.70
   7   2   1   -0.10    1.84
   7   2   1    2.20    1.41
   7  -2   1    0.15    1.55
   7   2   1   -0.90    1.56
   7  -2   1    1.08    1.10
  -7   2  -1    2.32    1.50
  -7  -2  -1   -0.28    1.29
  -7   2  -1   -0.42    1.27
   7  -2   1    0.41    1.09
  -7   2  -1    1.69    0.95
  -7  -2  -1   -0.16    1.21
  -7   2  -1    0.83    0.80
   7   2   2   18.78    2.10
   7   2   2   17.84    2.54
   7  -2   2   16.09    2.25
   7   2   2   17.22    3.43
   7  -2   2   14.97    3.09
   7   2   2   10.81    1.90
   7  -2   2   15.71    2.41
   7   2   2   20.62    2.92
  -7   2  -2   13.42    2.48
  -7  -2  -2   18.45    2.67
  -7   2  -2   19.19    3.46
  -7  -2  -2   22.83    3.23
   7  -2   2   16.72    2.17
  -7   2  -2   17.32    1.81
  -7   2  -2   19.09    1.89
  -7  -2  -2   17.94    2.63
   7   2   3    1.49    1.36
   7  -2   3    2.74    1.76
   7   2   3    3.10    1.59
   7   2   3    1.55    1.53
   7  -2   3   -0.35    1.24
   7   2   3   -1.45    1.48
   7  -2   3   -1.40    1.57
   7   2   3   -0.03    1.34
  -7   2  -3    2.94    1.79
  -7  -2  -3   -0.63    1.25
  -7   2  -3    1.13    1.80
  -7  -2  -3    2.50    1.94
   7  -2   3   -0.36    1.10
   7  -2   4    3.79    1.99
   7   2   4    2.96    1.85
   7   2   4   -0.65    1.36
   7  -2   4   -0.01    1.27
   7  -2   4    1.97    1.63
   7   2   4    1.90    2.05
  -7   2  -4    1.18    1.77
  -7   2  -4    3.07    2.17
  -7  -2  -4   -1.36    1.81
  -7   2  -4    4.80    1.70
   7  -2   4    0.08    1.31
   7  -2   5   16.21    3.26
   7   2   5   10.15    2.84
   7  -2   5   11.77    2.88
   7   2   5   17.28    3.33
  -7   2  -5    9.75    3.23
  -7   2  -5   12.94    3.10
  -7  -2  -5   10.87    2.79
   7  -2   6   18.19    3.79
   7   2   6   15.83    3.74
  -7  -2  -6   19.44    3.98
  -7   2  -6   10.55    2.90
   7   3 -11    6.11    2.80
  -7  -3  11    9.62    3.01
   7   3 -10    1.62    2.16
   7  -3 -10   -0.26    2.22
  -7  -3  10    1.28    2.17
   7  -3 -10   -0.23    2.12
  -7  -3  10   -1.02    1.92
   7   3  -9   14.59    3.10
   7   3  -9   17.01    3.51
   7  -3  -9    8.84    2.46
   7  -3  -9    8.32    3.11
  -7  -3   9   19.67    3.81
   7   3  -9    9.29    2.58
   7  -3  -9   10.35    2.87
  -7  -3   9   12.80    2.87
  -7   3   9   14.47    3.70
   7   3  -8    4.68    1.83
   7   3  -8    5.10    2.37
   7  -3  -8    6.52    2.30
   7  -3  -8    3.74    2.16
   7   3  -8    3.43    1.89
   7  -3  -8    4.82    1.46
   7  -3  -8    5.58    2.10
  -7  -3   8    5.02    2.12
  -7   3   8    4.35    2.89
   7   3  -7   28.53    3.50
   7  -3  -7   31.17    2.76
   7   3  -7   35.48    5.09
   7  -3  -7   29.37    4.33
  -7   3   7   32.53    3.05
   7  -3  -7   28.12    4.01
  -7   3   7   21.69    2.67
  -7   3   7   26.19    3.34
   7   3  -7   27.63    3.48
   7  -3  -7   30.86    3.65
  -7  -3   7   34.08    3.97
  -7   3   7   36.62    4.98
   7  -3  -6    0.98    1.98
   7   3  -6    0.60    1.16
   7  -3  -6    1.49    1.77
  -7   3   6    0.23    0.97
   7   3  -6    2.59    2.27
  -7   3   6   -0.31    1.24
   7   3  -6    0.80    0.85
   7  -3  -6    0.16    0.77
  -7   3   6    0.47    1.14
   7  -3  -6    2.54    1.53
  -7  -3   6    1.42    1.48
  -7   3   6    4.42    2.38
   7   3  -5   -0.32    1.07
   7   3  -5   -2.38    2.45
   7  -3  -5    2.85    2.28
   7  -3  -5    3.87    1.74
  -7   3   5    4.52    1.23
   7  -3  -5    2.49    1.11
  -7   3   5    0.57    1.16
   7   3  -5    0.38    0.65
  -7   3   5   -0.30    1.06
  -7   3   5    0.35    1.22
   7  -3  -5    1.09    1.33
  -7  -3   5    1.58    1.48
  -7   3   5    0.75    1.42
   7  -3  -4    4.43    2.60
   7  -3  -4    5.97    1.38
  -7   3   4    4.26    0.81
   7   3  -4    4.82    0.97
  -7   3   4    4.33    1.52
  -7  -3   4    5.62    0.99
  -7   3   4    4.72    1.57
  -7   3   4    7.00    2.20
   7  -3  -4    5.74    1.74
  -7  -3   4    4.99    1.70
   7   3  -4    5.65    1.62
  -7   3   4    2.80    1.31
   7  -3  -3    4.61    1.32
   7  -3  -3    5.42    3.16
  -7   3   3    5.67    0.88
   7   3  -3    5.31    0.94
  -7   3   3    4.94    1.48
  -7  -3   3    3.80    0.86
  -7   3   3    4.72    1.60
  -7   3   3    6.73    2.50
  -7   3   3    4.99    1.48
   7   3  -3    4.57    1.45
  -7  -3   3    4.49    1.77
  -7   3   3    4.94    1.41
   7   3  -2  180.90    6.91
   7  -3  -2  176.86   12.05
   7   3  -2  190.80    5.31
  -7   3   2  186.86    4.47
  -7   3   2  184.25    7.10
  -7  -3   2  171.37    4.85
  -7   3   2  189.01    7.45
  -7   3   2  199.34    6.93
   7  -3  -2  185.63    6.79
  -7  -3   2  174.16    7.43
  -7   3   2  191.09    6.66
   7   3  -1   87.13    4.80
   7  -3  -1   89.11    4.56
   7  -3  -1  109.96    9.71
   7   3  -1   85.65    3.72
  -7   3   1   88.68    3.30
  -7   3   1   92.55    5.16
  -7   3   1   86.00    5.19
  -7   3   1   97.49    4.89
   7  -3  -1   87.30    4.85
  -7   3   1   86.66    4.78
  -7  -3   1   86.67    5.30
  -7   3   1  101.23    4.58
   7  -3   0   82.67    4.54
  -7   3   0   89.48    7.75
   7   3   0   68.00    7.60
   7  -3   0   81.81    7.90
   7   3   0   76.51    4.05
  -7  -3   0   78.23    5.54
   7  -3   0   72.39    4.03
  -7   3   0   74.42    3.39
  -7   3   0   71.93    4.83
  -7   3   0   79.63    4.60
   7  -3   0   73.20    4.74
  -7   3   0   75.42    4.37
  -7  -3   0   69.75    4.87
  -7   3   0   72.30    3.55
   7   3   0   75.43    4.62
   7  -3   1  179.93    6.99
  -7   3  -1  176.47   10.48
   7   3   1  168.51    4.53
   7   3   1  150.27   10.47
   7  -3   1  183.35   10.53
   7   3   1  176.97    7.16
  -7  -3  -1  174.89    8.40
   7  -3   1  173.14    6.67
  -7   3  -1  174.26    7.79
  -7   3  -1  191.92    7.47
   7  -3   1  176.20    6.83
  -7   3  -1  165.37    6.19
  -7  -3  -1  169.49    7.75
  -7   3  -1  183.96    5.28
   7   3   1  188.23    7.49
  -7   3  -2  121.64    8.77
   7  -3   2  114.07    5.83
   7   3   2  117.94    4.92
   7   3   2  103.74    8.31
   7  -3   2  113.53    7.87
   7   3   2  119.31    6.89
  -7  -3  -2  118.94    7.32
   7  -3   2  114.79    5.91
  -7   3  -2  121.01    7.01
  -7   3  -2  124.40    6.44
   7  -3   2  127.50    6.19
  -7   3  -2  117.74    5.11
   7   3   2  126.21    6.31
  -7   3  -3   80.94    7.37
   7  -3   3   78.30    5.20
   7   3   3   77.40    6.95
   7   3   3   70.83    5.84
   7  -3   3   76.91    6.25
  -7  -3  -3   85.98    6.57
   7  -3   3   76.89    5.33
  -7   3  -3   82.38    6.36
   7  -3   3   87.17    5.36
   7   3   3   83.69    5.36
   7  -3   4   73.97    5.62
   7   3   4   54.86    5.66
   7   3   4   50.08    5.33
   7  -3   4   54.97    5.34
  -7  -3  -4   56.67    5.81
   7  -3   4   60.20    5.31
   7   3   4   64.53    5.43
  -7   3  -4   64.17    6.37
   7  -3   4   62.27    4.80
  -7   3  -4   46.59    5.59
   7  -3   5   13.09    3.08
   7   3   5    4.58    2.19
   7  -3   5    6.26    2.48
   7   3   5    8.46    2.53
  -7   3  -5    7.46    2.89
  -7   3  -5    2.93    2.39
  -7  -3  -5    8.58    3.18
   7  -3   5    6.83    2.39
  -7  -4  10   15.88    3.76
   7   4  -9   11.60    3.09
   7   4  -9    6.76    2.68
   7  -4  -9    6.88    3.03
  -7  -4   9   11.28    3.27
   7   4  -9    8.01    2.73
   7  -4  -9    6.05    2.61
  -7  -4   9   10.09    3.07
  -7   4   9    8.06    3.60
   7   4  -8   23.13    3.63
   7   4  -8   23.17    4.58
   7  -4  -8   19.92    3.97
   7   4  -8   18.00    3.32
   7  -4  -8   21.62    3.74
  -7  -4   8   22.05    3.66
  -7   4   8   17.44    4.43
   7  -4  -7   41.81    5.33
   7   4  -7   40.40    3.40
  -7   4   7   42.34    4.20
   7   4  -7   42.35    4.30
   7   4  -7   44.75    4.54
   7  -4  -7   42.70    4.47
  -7  -4   7   45.58    4.76
  -7   4   7   42.09    5.33
   7  -4  -7   48.03    5.42
  -7   4   6   35.45    3.07
   7  -4  -6   33.21    5.11
   7   4  -6   32.78    2.86
   7   4  -6   29.60    3.44
  -7   4   6   32.59    3.61
  -7   4   6   30.54    3.08
   7   4  -6   35.86    3.88
   7  -4  -6   33.85    3.88
  -7  -4   6   35.52    3.99
   7  -4  -6   34.17    2.71
  -7   4   6   34.91    4.63
   7  -4  -6   38.19    4.44
   7  -4  -5   79.79    7.96
  -7   4   5   73.29    3.75
   7   4  -5   72.03    3.92
   7   4  -5   75.77    5.04
  -7   4   5   74.74    4.99
  -7   4   5   73.98    4.70
   7  -4  -5   74.25    5.22
   7  -4  -5   76.30    3.98
  -7  -4   5   76.65    5.45
  -7   4   5   85.28    6.00
   7  -4  -5   78.01    5.69
   7  -4  -4  132.25   10.48
  -7   4   4  144.64    5.01
   7   4  -4  143.90    6.68
   7   4  -4  137.64    5.29
  -7   4   4  145.15    6.66
  -7   4   4  137.94    6.41
  -7  -4   4  145.08    5.76
   7  -4  -4  137.48    6.90
   7  -4  -4  145.72    5.59
  -7  -4   4  150.14    7.29
  -7   4   4  142.58    6.80
   7  -4  -4  140.07    7.05
   7  -4  -3   10.70    1.73
   7  -4  -3    9.97    3.58
  -7   4   3    8.57    1.32
   7   4  -3    7.99    1.36
  -7   4   3    8.20    1.80
  -7   4   3   11.40    2.80
  -7   4   3   10.66    2.07
  -7   4   3    7.93    1.94
  -7  -4   3    9.29    1.35
  -7   4   3    5.83    1.77
   7   4  -3    7.89    1.80
   7  -4  -3    9.97    2.16
  -7  -4   3    7.66    1.92
  -7   4   3    8.99    1.81
   7   4  -2   83.83    4.84
   7  -4  -2   76.63    8.44
   7   4  -2   84.16    4.06
  -7  -4   2   84.33    5.90
  -7   4   2   81.31    3.62
  -7   4   2   82.53    4.98
  -7   4   2   82.62    5.25
  -7   4   2   83.49    4.98
   7  -4  -2   79.69    4.57
  -7   4   2   82.38    5.30
  -7  -4   2   74.60    5.13
  -7   4   2   82.56    4.51
  -7   4   2   79.54    6.99
   7   4  -1   42.74    3.46
   7  -4  -1   46.18    6.82
   7   4  -1   48.96    3.24
  -7  -4   1   45.59    4.54
  -7   4   1   46.67    2.87
  -7  -4   1   43.09    2.25
  -7   4   1   50.97    3.98
  -7   4   1   47.99    4.12
  -7   4   1   40.14    5.57
  -7   4   1   47.60    3.86
  -7   4   1   52.87    4.24
  -7  -4   1   44.27    4.17
  -7   4   1   54.16    3.42
   7  -4  -1   45.19    3.65
   7  -4   0   36.18    3.43
   7  -4   0   43.56    6.04
   7   4   0   33.71    2.83
  -7  -4   0   36.30    4.11
   7  -4   0   37.58    2.87
  -7   4   0   33.29    2.61
  -7   4   0   37.26    3.79
  -7   4   0   44.78    6.29
  -7   4   0   42.87    3.80
   7  -4   0   38.56    3.53
  -7   4   0   34.24    3.23
  -7  -4   0   31.11    3.64
  -7   4   0   36.53    2.49
   7   4   0   36.25    3.31
   7  -4   1    0.70    1.45
   7   4   1    0.13    1.18
   7  -4   1   -0.11    1.83
   7  -4   1    0.86    1.02
   7   4   1    2.58    1.42
  -7   4  -1   -0.02    0.92
  -7   4  -1   -3.79    3.27
  -7   4  -1   -0.95    1.47
  -7  -4  -1   -0.42    1.46
  -7   4  -1    1.19    1.32
   7  -4   1   -0.06    1.44
  -7   4  -1   -0.44    1.05
  -7  -4  -1   -0.36    1.40
   7   4   2   10.73    2.15
   7  -4   2    9.16    2.22
   7  -4   2    9.62    2.87
   7  -4   2   10.01    2.02
   7   4   2   12.78    2.51
  -7   4  -2   15.23    4.38
  -7   4  -2    6.49    1.99
  -7  -4  -2    8.26    2.37
  -7   4  -2   10.94    2.46
   7  -4   2   12.13    2.40
  -7   4  -2    9.53    1.89
   7   4   3    0.67    1.16
   7  -4   3   -1.81    1.79
   7   4   3    0.94    1.82
   7  -4   3   -0.12    1.40
   7   4   3   -0.38    1.60
  -7   4  -3   -0.62    2.05
  -7   4  -3    0.90    2.02
  -7  -4  -3   -1.98    2.35
  -7   4  -3   -1.33    2.01
   7  -4   3   -0.36    1.55
   7  -4   4   -0.18    1.77
   7   4   4    1.10    2.09
   7   4   4   -1.57    2.27
   7  -4   4   -2.27    1.96
  -7   4  -4    1.60    2.35
  -7   4  -4   -1.60    2.72
  -7  -4  -4    4.55    2.45
   7  -4   4   -0.66    1.87
   7   4   5    3.12    2.00
   7  -4   5    4.95    2.63
   7  -4   5    7.12    2.30
  -7  -5   9   -2.37    3.27
  -7  -5   9    4.35    2.57
   7   5  -8    6.79    2.55
   7   5  -8    3.69    1.67
   7   5  -8    4.47    2.05
  -7  -5   8   -3.27    3.45
  -7  -5   8    2.30    2.15
  -7   5   8    2.53    2.81
   7   5  -7   13.40    2.98
   7  -5  -7   10.87    3.16
   7   5  -7   10.11    2.48
   7   5  -7   10.59    2.14
  -7   5   7   10.05    2.44
  -7   5   7   11.57    2.15
  -7  -5   7   14.66    3.15
   7  -5  -7   10.95    2.88
  -7  -5   7   16.36    3.31
  -7   5   7   12.77    3.39
   7   5  -6   -0.13    1.44
   7   5  -6   -0.36    1.24
   7  -5  -6    0.45    1.67
   7   5  -6    2.81    1.28
  -7   5   6   -0.29    1.31
  -7   5   6    0.07    1.13
  -7  -5   6    6.31    2.75
  -7  -5   6    0.10    1.60
  -7   5   6    0.66    1.77
   7  -5  -6    1.62    1.94
  -7  -5   6    3.98    1.96
  -7   5   6    3.76    2.66
   7   5  -5    0.91    1.22
   7  -5  -5    1.77    1.64
   7   5  -5    1.36    1.12
  -7   5   5   -0.45    1.27
  -7   5   5    0.56    1.14
  -7  -5   5    3.20    2.06
  -7  -5   5    4.40    1.78
  -7   5   5   -0.46    1.62
   7  -5  -5    2.99    1.85
  -7  -5   5   -1.15    1.56
  -7   5   5    4.16    2.26
   7  -5  -4    4.12    1.76
  -7   5   4    3.34    1.18
   7   5  -4    1.72    1.04
  -7   5   4    1.19    1.26
  -7   5   4    1.84    1.34
  -7  -5   4    5.10    2.53
  -7   5   4    3.12    1.69
  -7  -5   4    2.78    1.24
  -7   5   4    0.46    1.52
   7  -5  -4    3.76    1.71
  -7  -5   4    0.44    1.41
   7   5  -4    2.63    1.49
  -7   5   4    4.15    1.88
   7  -5  -3    4.04    3.23
  -7   5   3    1.53    0.91
   7   5  -3    2.11    1.14
  -7   5   3    3.09    1.59
  -7   5   3    2.72    1.60
  -7  -5   3    3.95    2.18
  -7   5   3    0.67    1.51
  -7   5   3    1.87    1.66
   7   5  -3    2.80    1.41
   7  -5  -3    3.47    1.73
  -7  -5   3    2.17    1.73
  -7   5   3    1.09    1.15
   7   5  -2   81.29    4.91
   7  -5  -2   78.15    9.10
  -7  -5   2   86.31    6.71
   7   5  -2   81.59    4.60
  -7   5   2   86.13    4.35
  -7   5   2   84.99    5.29
  -7   5   2   89.84    5.80
  -7   5   2   87.79    5.47
  -7   5   2   85.68    5.76
  -7  -5   2   78.52    5.72
  -7   5   2   86.65    4.74
  -7   5   2   92.83    6.12
  -7  -5   1   33.98    4.43
   7   5  -1   38.25    3.24
  -7   5   1   35.75    2.93
  -7   5   1   34.99    3.44
  -7   5   1   34.25    4.57
  -7   5   1   35.07    3.82
  -7   5   1   36.10    3.68
  -7   5   1   35.97    3.77
  -7  -5   1   33.92    3.98
   7  -5  -1   43.15    3.89
   7   5  -1   31.47    3.10
   7  -5   0   33.06    3.51
   7   5   0   30.24    2.96
  -7   5   0   33.03    2.94
  -7   5   0   30.60    3.34
  -7   5   0   24.58    4.32
  -7   5   0   30.74    3.64
  -7   5   0   37.93    3.80
  -7  -5   0   29.93    4.17
   7  -5   0   34.15    3.61
  -7   5   0   33.01    3.53
  -7  -5   0   28.31    3.80
   7   5   0   32.25    3.14
   7  -5   1   87.46    5.74
  -7  -5  -1   77.58    6.71
   7   5   1   74.79    4.86
  -7   5  -1   78.43    4.68
  -7   5  -1   79.92    6.09
  -7   5  -1   83.09    5.62
   7  -5   1   84.53    5.65
  -7   5  -1   75.29    5.08
   7   5   1   82.67    5.05
  -7   5  -1   79.41    7.88
   7  -5   2   58.48    4.95
  -7  -5  -2   47.05    5.52
   7   5   2   62.93    4.97
  -7   5  -2   53.81    4.10
  -7   5  -2   57.84    5.66
  -7   5  -2   58.99    4.97
   7  -5   2   65.53    5.32
   7   5   2   54.98    4.20
  -7   5  -2   58.81    4.56
  -7   5  -2   65.33    7.61
   7  -5   3   38.18    4.26
   7   5   3   40.58    4.53
   7  -5   3   30.75    3.46
  -7   5  -3   36.41    5.86
  -7   5  -3   39.19    4.33
   7  -5   3   39.20    4.36
   7   5   4   22.65    4.71
   7  -5   4   23.39    3.49
   7   5   4   28.58    4.44
   7  -5   4   26.71    3.98
  -7  -6   8   11.73    3.55
  -7  -6   7   22.97    3.79
  -7  -6   7   17.95    3.77
  -7   6   7   18.14    4.37
   7   6  -6    8.56    2.23
   7  -6  -6   10.29    2.94
   7   6  -6    8.88    1.96
  -7   6   6    8.62    2.36
  -7  -6   6   11.86    3.13
  -7   6   6   11.74    3.60
   7   6  -5   31.36    3.65
   7   6  -5   28.11    3.20
  -7   6   5   26.20    3.50
  -7   6   5   28.90    3.24
   7  -6  -5   30.22    3.95
  -7   6   5   32.42    4.54
  -7   6   5   32.79    4.57
  -7  -6   5   29.22    4.06
   7  -6  -5   30.96    4.22
   7   6  -4   53.09    4.48
  -7  -6   4   53.40    6.08
   7   6  -4   53.74    4.19
  -7   6   4   54.05    4.59
  -7   6   4   56.91    4.94
  -7   6   4   58.05    4.65
   7  -6  -4   58.01    5.06
  -7   6   4   55.92    5.47
  -7  -6   4   55.29    5.32
  -7   6   4   59.50    5.10
   7  -6  -4   55.18    4.94
   7  -6  -3    3.98    1.75
   7   6  -3    3.57    1.34
  -7   6   3    4.84    1.75
  -7   6   3    4.37    1.85
  -7  -6   3    2.74    1.93
  -7   6   3    0.55    1.52
   7   6  -3    3.72    1.43
  -7   6   3    4.84    2.01
   7  -6  -3    2.50    1.61
  -7  -6   3    4.93    2.02
  -7   6   3    6.10    1.81
   7   6  -2   23.98    2.86
   7   6  -2   24.68    2.88
  -7   6   2   29.59    3.51
  -7   6   2   28.00    3.65
  -7   6   2   27.02    3.57
  -7  -6   2   21.54    4.05
  -7   6   2   27.66    3.72
  -7  -6   2   22.34    3.52
   7   6  -1   20.91    2.78
  -7   6   1   20.83    2.98
   7   6  -1   18.32    2.48
  -7   6   1   17.50    3.06
  -7  -6   1   17.02    3.57
  -7   6   1   19.15    2.98
  -7   6   1   20.77    3.30
   7  -6   0   14.30    2.74
   7   6   0   10.87    2.01
  -7   6   0   15.71    3.50
   7   6   0   12.72    2.33
  -7   6   0   12.07    2.30
  -7   6   0   11.34    2.58
  -7  -6   0    9.67    2.93
  -7   6   0   17.03    3.01
  -7   6   0   13.36    2.69
   7  -6   1    3.31    2.07
  -7   6  -1    2.46    2.70
   7   6   1   -1.11    1.29
  -7   6  -1   -0.20    1.24
  -7   6  -1    1.75    2.16
  -7  -6  -1    6.78    3.30
  -7   6  -1    1.34    1.74
   7  -6   1    0.74    1.77
  -7   6  -1    1.89    1.60
  -7   6  -2    5.35    3.00
   7   6   2    2.48    1.28
  -7   6  -2    1.63    1.45
  -7   6  -2    2.38    1.63
   7   6   3    6.63    2.62
   7   7  -5    0.68    1.32
  -7  -7   5    0.29    2.03
   7   7  -5   -0.15    1.27
   7  -7  -4    2.52    1.89
   7   7  -4    2.40    1.47
  -7   7   4   -0.83    1.43
  -7   7   4   -0.01    1.53
   7   7  -4   -1.02    1.46
   7  -7  -3    5.70    1.93
   7   7  -3    0.45    1.20
  -7   7   3    1.78    1.57
  -7   7   3    3.74    1.95
   7   7  -2   27.44    3.43
  -7   7   2   28.28    3.57
  -7  -7   2   30.99    5.62
  -7   7   2   28.07    3.83
   7   7  -1   11.55    2.56
  -7   7   1   10.34    2.45
  -7  -7   1   11.68    4.15
   7   7   0   13.12    2.75
  -7   7   0   11.91    2.49
  -8   0  11    6.38    2.92
   8   0 -11    4.21    2.57
   8   0 -10   20.11    3.64
  -8   0  10   20.44    3.86
   8   0 -10   20.52    3.24
  -8   0  10   17.51    3.78
   8   0  -9   21.13    3.45
   8   0  -9   17.24    3.02
   8   0  -9   17.10    2.83
  -8   0   9   20.12    4.04
   8   0  -8   17.01    2.79
   8   0  -8   19.49    3.45
   8   0  -8   17.47    2.71
  -8   0   8   21.04    3.84
   8   0  -7    8.78    2.09
   8   0  -7    5.87    2.42
  -8   0   7    5.71    1.60
  -8   0   7    9.21    2.44
   8   0  -6    8.65    2.85
  -8   0   6    5.38    1.53
   8   0  -6    4.52    1.47
  -8   0   6    8.67    2.16
   8   0  -5    1.81    2.16
  -8   0   5    0.59    1.16
  -8   0   5    0.46    0.59
   8   0  -5   -0.24    1.02
  -8   0   5    1.52    1.41
   8   0  -4    3.89    2.45
  -8   0   4    5.04    1.50
  -8   0   4    4.20    0.81
   8   0  -4    4.46    1.54
  -8   0   4    3.42    1.41
   8   0  -3   69.50    4.42
   8   0  -3   60.20    7.11
  -8   0   3   73.72    4.26
  -8   0   3   70.75    4.65
  -8   0   3   70.51    2.59
  -8   0   3   68.49    4.46
   8   0  -2    3.52    2.50
   8   0  -2    4.11    1.36
  -8   0   2    5.09    1.48
  -8   0   2    3.79    1.44
  -8   0   2    1.15    0.83
  -8   0   2    6.38    1.69
   8   0  -1  112.86    3.65
   8   0  -1  122.02   10.15
  -8   0   1  106.84    5.71
  -8   0   1  110.83    5.44
   8   0  -1  111.38    5.75
   8   0   0  115.09    4.09
   8   0   0  116.70    9.19
  -8   0   0  116.27    6.07
   8   0   0  118.70    6.03
  -8   0   0  113.91    5.37
   8   0   1   56.04    3.27
   8   0   1   52.53    5.77
   8   0   1   56.75    4.44
  -8   0  -1   58.69    4.55
   8   0   1   54.71    4.29
  -8   0  -1   51.26    3.67
   8   0   2   76.84    4.19
   8   0   2   68.21    5.99
   8   0   2   76.01    5.40
  -8   0  -2   79.40    5.57
   8   0   2   74.21    5.17
  -8   0  -2   72.44    4.51
   8   0   3   66.28    4.41
   8   0   3   56.28    5.33
  -8   0  -3   70.08    5.34
   8   0   3   71.22    5.45
  -8   0  -3   68.72    5.57
   8   0   4   40.60    4.02
   8   0   4   40.14    4.40
  -8   0  -4   46.71    4.54
   8   0   4   46.82    4.88
  -8   0  -4   41.59    4.55
   8   0   5   44.11    4.71
  -8   0  -5   39.21    4.43
  -8   0  -5   34.27    4.22
   8  -1 -11    6.15    2.57
  -8   1  11   -0.72    2.14
   8  -1 -11    2.41    1.91
   8  -1 -10    2.79    1.85
  -8  -1  10    5.80    2.66
  -8   1  10    3.51    2.41
   8   1 -10    1.88    2.01
   8  -1 -10    2.46    1.75
  -8  -1  10    3.37    2.80
  -8   1  10    2.99    2.50
   8  -1  -9    8.38    2.23
   8   1  -9    6.05    2.08
   8  -1  -9    6.55    2.16
  -8   1   9   10.60    2.65
   8   1  -9    9.71    2.64
   8  -1  -9    8.34    2.42
  -8  -1   9    8.99    3.17
  -8   1   9    4.24    2.33
   8   1  -8   19.47    3.44
   8  -1  -8   20.15    3.52
   8   1  -8   22.36    3.26
  -8   1   8   21.10    3.03
   8  -1  -8   22.02    3.12
  -8  -1   8   27.43    4.23
  -8   1   8   26.64    4.17
   8  -1  -8   20.28    2.80
   8   1  -7   16.14    2.69
   8   1  -7   19.10    3.77
   8  -1  -7   13.31    3.16
  -8   1   7   15.24    2.56
  -8  -1   7   11.33    1.98
   8  -1  -7   15.60    2.49
   8  -1  -7   15.74    2.50
  -8  -1   7   20.52    3.32
  -8   1   7   15.20    3.03
   8   1  -6   71.70    6.83
   8  -1  -6   70.56    4.50
   8  -1  -6   71.07    6.99
   8   1  -6   66.47    4.65
  -8   1   6   69.57    4.71
  -8  -1   6   65.50    4.08
  -8  -1   6   68.61    5.05
  -8   1   6   71.71    5.26
   8  -1  -5   75.84    4.63
   8   1  -5   73.95    7.39
   8  -1  -5   76.23    7.84
   8   1  -5   73.43    4.73
  -8   1   5   76.47    4.84
  -8  -1   5   69.05    4.02
  -8   1   5   67.03    4.69
  -8  -1   5   73.82    4.93
  -8   1   5   73.11    4.86
   8  -1  -4  114.08    5.54
   8   1  -4  117.29    5.81
   8   1  -4  106.81    9.10
   8  -1  -4  109.14    9.45
  -8   1   4  117.70    5.78
  -8  -1   4  109.51    4.87
  -8   1   4  117.28    4.36
  -8   1   4  113.67    6.07
  -8  -1   4  113.75    5.92
  -8   1   4  109.03    5.61
   8   1  -3  226.20    8.03
   8   1  -3  186.13   12.49
   8  -1  -3  197.18   13.15
  -8   1   3  236.46    7.96
  -8  -1   3  218.69    6.87
  -8   1   3  227.09    8.40
  -8   1   3  239.79    6.22
  -8  -1   3  242.46    8.60
  -8   1   3  226.87    7.96
   8  -1  -3  236.91    8.13
   8   1  -2   72.78    8.24
   8  -1  -2   86.98    9.19
  -8  -1   2   78.44    4.14
  -8   1   2   83.22    4.73
  -8   1   2   81.36    5.03
  -8  -1   2   70.54    4.68
  -8   1   2   81.62    3.69
  -8  -1   2   80.54    4.95
  -8   1   2   78.32    4.61
   8  -1  -2   83.70    4.90
   8   1  -2   78.70    4.77
   8  -1  -1   94.17    3.87
   8   1  -1   92.03    8.81
   8  -1  -1  116.67   10.34
  -8   1   1  100.13    5.60
  -8  -1   1   97.01    5.45
  -8   1   1   98.15    4.34
   8  -1  -1   94.10    5.39
  -8  -1   1  100.86    5.43
  -8   1   1  103.82    5.07
   8   1  -1   94.55    5.25
   8   1  -1   87.48    2.45
   8  -1   0   57.48    3.29
   8   1   0   56.27    2.42
   8   1   0   50.20    6.01
   8  -1   0   66.36    7.12
  -8   1   0   53.86    4.14
  -8  -1   0   59.03    4.35
   8  -1   0   59.92    4.41
  -8  -1   0   58.87    4.09
  -8   1   0   61.17    3.79
   8   1   0   64.62    4.50
   8  -1   1   48.64    3.27
   8   1   1   49.31    2.75
   8   1   1   40.17    4.96
   8  -1   1   47.60    5.48
   8  -1   1   47.43    4.03
  -8   1  -1   47.78    4.18
  -8  -1  -1   51.23    4.33
   8  -1   1   51.09    4.18
  -8   1  -1   48.89    2.89
   8   1   1   51.65    4.17
  -8  -1  -1   46.21    3.72
  -8   1  -1   50.96    3.44
   8   1   2   -0.18    1.35
   8  -1   2    3.18    1.42
   8   1   2    2.39    1.09
   8   1   2    2.07    1.84
   8  -1   2    0.97    1.55
   8  -1   2    1.33    1.41
   8   1   2    1.23    1.56
  -8   1  -2    2.10    1.74
  -8  -1  -2    1.78    1.60
  -8  -1  -2    4.21    1.87
  -8  -1  -2   -0.10    1.33
  -8   1  -2   -0.19    1.13
   8  -1   2    1.44    1.32
   8  -1   3    1.36    1.50
   8   1   3    0.16    1.15
   8   1   3    0.28    1.35
   8  -1   3   -0.56    1.30
   8  -1   3   -0.23    1.38
   8   1   3    2.07    1.52
  -8   1  -3    1.17    1.66
  -8  -1  -3    3.70    1.74
  -8  -1  -3    1.80    1.68
   8   1   3   -0.55    1.40
   8  -1   4   11.80    2.63
   8   1   4   12.24    2.37
   8   1   4    8.96    2.43
   8  -1   4   11.66    2.76
   8  -1   4   12.10    2.81
   8   1   4   13.81    2.98
  -8   1  -4   12.68    3.04
  -8  -1  -4   11.33    2.64
  -8  -1  -4   10.71    2.64
  -8   1  -4   11.23    3.39
  -8   1  -4   12.77    2.54
   8  -1   5    7.88    2.56
  -8   1  -5    3.83    2.46
  -8  -1  -5    1.23    1.66
   8  -2 -11    2.20    2.19
   8  -2 -10    8.24    3.03
  -8  -2  10   19.02    3.94
   8   2 -10   17.65    3.76
   8  -2 -10   15.75    3.49
  -8  -2  10   10.84    3.19
   8  -2 -10   18.07    3.04
   8   2  -9   14.13    3.20
   8  -2  -9   12.88    2.82
  -8   2   9   16.57    3.04
   8   2  -9   12.45    2.98
   8  -2  -9   15.42    3.20
   8  -2  -9   13.82    2.36
  -8  -2   9   15.02    3.37
  -8   2   9   11.45    3.20
   8   2  -8   17.01    3.48
   8  -2  -8   15.55    3.31
  -8   2   8   17.60    2.77
   8   2  -8   15.90    3.03
  -8   2   8   13.48    2.63
   8  -2  -8   15.01    2.36
   8  -2  -8   19.13    3.17
  -8  -2   8   15.41    3.16
  -8   2   8   20.62    3.92
   8   2  -7    7.31    2.13
   8   2  -7    5.11    2.30
   8  -2  -7    5.68    2.35
  -8   2   7    8.06    2.08
   8  -2  -7    5.45    1.43
   8  -2  -7    4.87    1.64
  -8  -2   7    6.90    2.07
  -8   2   7    5.48    2.32
   8   2  -6    5.44    1.89
   8   2  -6    6.70    2.90
   8  -2  -6    8.09    3.22
  -8   2   6    7.45    1.94
  -8  -2   6    2.19    0.96
   8  -2  -6    4.11    1.46
   8  -2  -6    4.88    1.70
  -8  -2   6    3.92    1.67
  -8   2   6    3.36    1.76
   8   2  -5   -0.87    2.28
   8  -2  -5   -0.90    2.20
  -8   2   5    0.63    1.26
  -8  -2   5    1.28    0.93
   8  -2  -5    1.70    1.27
  -8   2   5    0.09    1.16
   8   2  -5    1.31    1.41
  -8  -2   5    0.58    1.45
  -8   2   5    2.22    1.47
   8   2  -4    4.91    3.01
   8  -2  -4    6.28    3.27
   8  -2  -4    4.07    1.27
  -8   2   4    3.55    1.54
  -8  -2   4    3.59    1.13
  -8   2   4    3.37    1.44
  -8   2   4    4.95    1.42
   8   2  -4    3.50    1.45
  -8  -2   4    3.75    1.70
  -8   2   4    5.67    1.66
   8   2  -3   53.56    4.10
   8  -2  -3   54.56    7.18
   8   2  -3   45.72    6.77
  -8   2   3   60.73    4.25
  -8  -2   3   52.69    3.16
  -8   2   3   59.87    4.49
  -8   2   3   65.76    3.81
  -8  -2   3   56.38    4.43
  -8   2   3   57.44    4.07
   8  -2  -3   59.10    4.10
   8   2  -2    3.40    3.42
   8  -2  -2    5.47    1.68
   8  -2  -2    5.41    3.96
  -8   2   2    4.32    1.59
  -8  -2   2    3.86    1.17
   8   2  -2    5.76    1.73
  -8   2   2    2.49    1.44
  -8   2   2    3.66    1.30
  -8  -2   2    5.44    1.88
  -8   2   2    6.11    1.51
   8  -2  -1   88.46    4.26
   8   2  -1   89.87    9.14
   8  -2  -1   99.93    9.67
   8   2  -1   85.79    4.77
  -8   2   1   87.84    5.33
  -8   2   1   93.59    4.66
   8  -2  -1   86.47    5.19
  -8  -2   1   84.84    5.32
  -8   2   1   97.50    4.85
   8   2  -1   91.62    5.24
   8  -2   0   98.30    4.78
   8   2   0   89.07    8.37
   8  -2   0  115.46    9.30
   8   2   0   97.21    5.75
  -8   2   0   93.48    5.70
  -8   2   0  104.27    5.22
   8  -2   0  101.06    5.74
  -8   2   0   91.35    4.51
  -8  -2   0   97.10    5.60
  -8   2   0  100.85    4.65
   8   2   0  101.09    5.72
   8  -2   1   43.42    3.38
   8   2   1   38.80    5.27
   8   2   1   43.95    4.30
   8  -2   1   41.83    5.17
  -8  -2  -1   44.35    4.40
   8  -2   1   43.94    3.81
  -8   2  -1   43.43    4.11
  -8   2  -1   41.85    3.66
   8  -2   1   43.17    3.99
  -8   2  -1   40.08    2.86
   8   2   1   46.93    4.08
  -8  -2  -1   39.75    3.74
  -8   2  -1   48.22    3.19
   8  -2   2   62.90    4.28
  -8   2  -2   67.41    6.62
   8   2   2   58.25    5.98
   8  -2   2   57.33    5.74
  -8  -2  -2   68.33    5.73
   8  -2   2   63.49    4.91
  -8   2  -2   64.58    5.34
  -8  -2  -2   62.18    4.97
   8   2   2   66.89    4.97
  -8  -2  -2   56.58    4.57
   8  -2   3   51.10    4.28
  -8   2  -3   47.60    5.68
   8   2   3   43.29    4.94
   8  -2   3   52.38    5.30
  -8  -2  -3   56.39    5.24
   8  -2   3   56.53    4.90
   8   2   3   55.92    5.14
  -8   2  -3   55.34    5.36
  -8  -2  -3   48.94    4.33
   8  -2   3   59.61    4.15
   8   2   3   59.49    4.81
   8  -2   4   41.15    4.28
   8   2   4   30.03    4.17
   8  -2   4   34.34    4.36
   8   2   4   39.69    4.58
   8  -2   4   30.61    4.04
  -8   2  -4   33.85    4.74
  -8   2  -4   30.60    5.00
  -8  -2  -4   35.13    4.48
   8  -2   5   36.70    4.60
  -8   2  -5   28.97    4.53
   8   3 -10    1.16    2.25
  -8  -3  10    0.26    2.21
   8   3  -9    6.92    2.50
   8   3  -9    9.71    2.88
   8  -3  -9    6.76    2.62
   8  -3  -9    4.17    2.61
   8   3  -9    6.38    2.32
   8  -3  -9    7.79    2.75
  -8  -3   9    8.03    2.94
  -8   3   9    5.67    2.87
   8   3  -8   10.95    3.10
   8  -3  -8   14.86    3.54
   8  -3  -8   15.55    3.59
   8   3  -8   10.01    2.47
  -8   3   8   12.32    2.75
   8  -3  -8   13.10    2.14
   8  -3  -8   17.55    3.30
  -8  -3   8   15.85    3.45
  -8   3   8   13.69    3.68
   8   3  -7   12.66    2.60
   8   3  -7    9.26    3.33
   8  -3  -7   13.07    3.66
   8  -3  -7   13.75    3.18
  -8   3   7   13.72    2.65
   8  -3  -7   12.48    2.01
   8  -3  -7   14.95    2.85
  -8  -3   7   13.32    2.96
  -8   3   7   11.62    2.79
   8  -3  -6   46.06    6.13
   8   3  -6   46.91    6.35
   8   3  -6   44.31    4.21
  -8   3   6   49.03    4.46
  -8   3   6   40.93    3.78
   8  -3  -6   41.88    4.13
  -8  -3   6   50.33    4.55
  -8   3   6   46.98    4.72
   8  -3  -6   44.02    3.42
   8   3  -5   50.02    6.94
   8  -3  -5   37.79    6.07
   8   3  -5   46.69    4.03
  -8   3   5   48.77    4.28
  -8  -3   5   43.42    2.85
  -8   3   5   45.54    3.89
   8  -3  -5   46.19    4.23
  -8  -3   5   43.94    4.15
  -8   3   5   41.38    3.94
   8  -3  -5   44.24    3.40
  -8   3   4   68.35    6.13
   8   3  -4   71.49    8.60
   8   3  -4   63.80    4.57
   8  -3  -4   61.29    7.62
  -8   3   4   64.04    4.71
  -8  -3   4   64.84    3.30
  -8   3   4   63.62    4.15
  -8   3   4   63.92    4.71
  -8  -3   4   67.95    5.01
   8  -3  -4   63.46    4.15
  -8   3   4   55.18    4.11
  -8   3   3  182.02   11.04
   8   3  -3  145.19    6.76
   8   3  -3  129.69   11.99
   8  -3  -3  136.85   11.34
  -8   3   3  158.13    7.03
  -8  -3   3  148.86    4.95
  -8   3   3  156.81    7.25
  -8   3   3  165.17    6.65
   8  -3  -3  155.89    6.57
  -8  -3   3  158.49    7.52
  -8   3   3  162.38    6.76
   8   3  -2   52.57    4.08
  -8   3   2   78.60    8.01
   8  -3  -2   58.25    7.73
   8   3  -2   52.35    8.26
   8   3  -2   54.90    2.84
  -8   3   2   57.62    4.31
  -8  -3   2   50.33    2.93
  -8   3   2   59.41    4.57
  -8   3   2   59.16    4.07
   8  -3  -2   55.18    4.08
  -8  -3   2   58.85    4.64
  -8   3   2   61.95    4.11
   8  -3  -1   61.67    3.97
  -8   3   1   88.71    8.39
   8   3  -1   64.02    8.35
   8  -3  -1   71.75    8.45
   8   3  -1   67.85    3.79
  -8   3   1   67.35    4.72
  -8   3   1   59.13    4.66
  -8   3   1   67.86    4.41
   8  -3  -1   61.23    4.43
  -8   3   1   60.78    4.19
  -8  -3   1   61.89    4.83
  -8   3   1   66.58    3.97
   8   3  -1   67.40    4.67
   8  -3   0   39.02    3.40
   8  -3   0   44.93    6.16
   8   3   0   40.96    3.54
   8   3   0   36.52    6.18
  -8  -3   0   44.67    4.59
   8  -3   0   37.95    3.28
  -8   3   0   40.31    4.02
  -8   3   0   43.21    3.80
  -8   3   0   43.31    5.80
   8  -3   0   42.65    3.94
  -8   3   0   37.68    3.28
  -8  -3   0   39.80    4.04
  -8   3   0   40.23    2.87
   8   3   0   39.68    3.67
   8  -3   1   32.61    3.29
   8   3   1   30.76    5.13
   8  -3   1   31.93    4.80
  -8  -3  -1   39.06    4.40
   8  -3   1   32.11    3.19
   8   3   1   28.39    3.30
  -8   3  -1   34.45    3.88
  -8   3  -1   25.42    4.46
  -8   3  -1   41.32    3.94
  -8   3  -1   32.04    2.94
  -8  -3  -1   30.15    3.62
   8   3   1   37.32    3.72
   8   3   2    0.52    1.21
   8  -3   2    2.34    1.56
   8   3   2    0.85    2.14
   8  -3   2   -0.89    1.54
   8  -3   2    3.20    1.63
  -8   3  -2    0.37    2.21
  -8   3  -2    0.03    1.73
  -8  -3  -2    2.36    1.98
  -8   3  -2   -1.61    2.05
   8  -3   2    1.12    1.26
   8   3   3    0.08    1.34
   8  -3   3   -1.97    1.77
   8   3   3    0.65    2.19
   8  -3   3   -0.08    1.46
   8  -3   3   -1.72    1.55
  -8   3  -3   -2.32    2.81
  -8   3  -3    2.73    2.22
  -8  -3  -3   -0.02    1.67
   8  -3   3    2.50    1.65
   8  -3   4    6.68    2.24
   8   3   4    7.58    2.61
   8  -3   4    6.18    2.29
   8  -3   4   11.12    2.70
  -8   3  -4    6.51    2.91
   8   4  -9   13.34    3.38
   8   4  -9   11.11    3.52
  -8  -4   9   16.59    4.06
   8   4  -8    8.42    2.58
   8   4  -8   12.98    3.72
   8  -4  -8    6.81    2.51
   8  -4  -8    7.63    3.02
   8   4  -8    7.74    2.46
  -8   4   8    7.86    2.40
   8  -4  -8   10.81    2.96
  -8  -4   8   10.55    3.09
  -8   4   8    9.85    3.47
   8   4  -7    4.45    1.83
   8   4  -7    1.55    2.52
   8  -4  -7    7.14    3.07
   8  -4  -7    6.71    2.72
  -8   4   7    2.55    1.48
  -8   4   7    3.35    1.50
   8  -4  -7    5.68    2.32
  -8  -4   7    7.15    2.65
  -8   4   7    9.48    3.24
   8   4  -6    3.51    1.78
   8   4  -6    2.24    2.38
   8  -4  -6    3.73    3.17
   8  -4  -6    0.56    1.60
  -8   4   6    3.20    1.88
  -8   4   6    2.58    1.40
   8  -4  -6    3.96    1.84
  -8  -4   6    2.36    1.81
  -8   4   6   -0.11    1.77
   8  -4  -5    0.42    0.92
   8  -4  -5   -1.53    2.36
  -8   4   5   -1.12    1.33
  -8   4   5   -0.69    1.38
   8  -4  -5    0.80    1.49
  -8  -4   5   -0.02    1.39
   8   4  -5    1.58    1.41
  -8   4   5   -1.97    1.77
   8  -4  -4    3.78    1.30
   8  -4  -4    2.31    3.12
  -8   4   4    1.43    1.44
  -8   4   4    4.22    1.82
  -8   4   4    3.64    1.60
   8   4  -4    2.43    1.45
  -8  -4   4    4.05    1.81
  -8   4   4    2.27    1.63
   8   4  -3   29.79    3.35
   8  -4  -3   25.75    5.53
  -8   4   3   29.44    3.36
  -8   4   3   27.39    4.56
  -8   4   3   29.11    3.37
  -8   4   3   27.75    3.19
  -8   4   3   27.81    3.40
   8  -4  -3   24.42    2.73
  -8  -4   3   30.52    3.70
  -8   4   3   27.88    2.98
   8  -4  -2    2.09    1.24
   8  -4  -2    3.98    3.33
  -8   4   2    2.73    1.64
  -8   4   2    2.89    2.90
  -8   4   2    5.13    1.97
   8   4  -2    4.34    1.63
  -8  -4   2    5.98    2.25
  -8   4   2    3.11    1.59
  -8   4   2    4.29    1.67
  -8  -4   2    3.75    1.85
  -8   4   2    4.12    1.43
   8  -4  -1   58.89    7.96
  -8  -4   1   47.66    4.83
  -8   4   1   49.58    4.24
  -8   4   1   47.68    4.46
  -8   4   1   41.03    6.22
  -8   4   1   51.21    4.26
  -8   4   1   47.20    4.10
  -8  -4   1   44.48    4.42
  -8   4   1   51.96    3.54
   8   4  -1   47.67    4.00
   8  -4  -1   43.66    3.69
  -8   4   0   66.67    8.24
   8  -4   0   58.82    4.45
   8   4   0   54.33    7.32
   8  -4   0   64.18    7.73
  -8  -4   0   56.62    5.38
  -8   4   0   57.16    4.63
  -8   4   0   55.08    4.91
  -8   4   0   64.92    4.88
  -8   4   0   52.97    4.12
  -8  -4   0   51.13    4.88
   8   4   0   53.93    4.29
   8  -4   1   20.96    2.95
   8   4   1   23.55    5.07
   8  -4   1   24.79    4.68
   8  -4   1   23.00    2.78
  -8   4  -1   25.60    5.63
  -8   4  -1   21.21    3.44
  -8  -4  -1   21.31    3.59
  -8   4  -1   23.11    3.21
   8  -4   1   26.53    3.21
  -8   4  -1   21.37    2.68
   8   4   1   23.99    3.07
  -8  -4  -1   18.46    3.05
   8  -4   2   36.64    3.91
   8  -4   2   33.43    4.91
   8   4   2   31.32    5.35
   8  -4   2   35.21    3.60
  -8   4  -2   46.15    6.57
  -8   4  -2   36.93    4.51
  -8  -4  -2   36.09    4.66
  -8   4  -2   37.11    4.12
   8  -4   2   40.16    4.03
   8   4   2   34.74    3.65
   8  -4   3   36.16    4.13
   8   4   3   25.36    4.80
   8  -4   3   25.56    3.37
  -8   4  -3   34.64    5.53
   8   4   3   31.34    3.63
   8  -4   3   29.55    3.84
   8  -4   4   25.13    3.95
   8  -4   4   23.87    3.92
   8   5  -8    3.71    2.99
  -8  -5   8   -0.09    3.04
  -8  -5   8    4.88    2.56
   8   5  -7    5.13    2.02
  -8   5   7    5.83    1.78
  -8  -5   7    4.78    2.44
  -8  -5   7    9.34    2.89
  -8   5   7    9.61    3.42
   8   5  -6   18.82    3.14
   8  -5  -6   18.87    3.57
  -8   5   6   19.96    3.24
  -8   5   6   18.18    2.76
  -8  -5   6   24.26    4.14
  -8   5   6   19.31    3.87
   8  -5  -6   24.28    3.73
  -8  -5   6   26.32    3.99
  -8   5   6   25.69    4.19
   8  -5  -5   18.01    4.81
   8  -5  -5   22.95    3.50
  -8   5   5   22.67    3.25
  -8   5   5   20.71    2.91
  -8  -5   5   24.36    4.18
  -8   5   5   20.53    3.09
  -8   5   5   17.21    3.27
   8  -5  -5   20.90    3.28
  -8  -5   5   21.48    3.52
   8   5  -5   20.22    3.11
  -8   5   5   18.71    3.19
   8  -5  -4   16.76    4.47
  -8  -5   4   33.42    4.77
  -8   5   4   24.16    3.40
  -8   5   4   26.14    3.33
  -8   5   4   25.72    3.30
  -8   5   4   24.88    3.69
   8   5  -4   24.06    3.15
   8  -5  -4   25.35    3.47
  -8  -5   4   22.36    3.44
  -8   5   4   22.05    3.00
   8   5  -3   65.63    4.94
   8  -5  -3   62.43    8.59
  -8  -5   3   78.70    6.74
  -8   5   3   72.62    5.30
  -8   5   3   75.89    5.58
  -8   5   3   72.83    5.24
  -8   5   3   73.25    5.77
  -8  -5   3   70.79    5.72
  -8   5   3   72.46    4.85
   8   5  -2   25.42    3.07
   8  -5  -2   32.65    6.92
  -8   5   2   24.96    3.15
  -8   5   2   27.29    3.65
  -8  -5   2   29.38    4.27
  -8   5   2   26.14    3.35
  -8   5   2   25.84    3.54
  -8  -5   2   24.04    3.48
   8  -5  -1   36.11    7.12
  -8   5   1   25.54    3.28
  -8   5   1   22.63    4.23
  -8   5   1   28.41    3.81
  -8  -5   1   23.23    3.96
  -8   5   1   29.87    3.56
  -8   5   1   29.52    3.60
  -8  -5   1   25.34    3.63
   8   5  -1   25.61    3.13
   8  -5   0   20.60    3.08
   8   5   0   15.29    2.52
  -8   5   0   17.46    2.94
  -8   5   0   13.77    2.81
  -8  -5   0   14.40    3.10
  -8   5   0   23.91    3.36
  -8   5   0   18.65    2.89
  -8  -5   0   14.93    3.05
   8  -5   1   14.98    2.85
   8   5   1   17.69    2.68
  -8   5  -1   11.50    2.52
  -8   5  -1    8.67    3.75
  -8   5  -1   16.66    3.27
  -8  -5  -1   14.10    3.24
  -8   5  -1   20.57    3.30
   8  -5   1   16.03    2.91
  -8   5  -1   12.39    2.40
   8   5   2   -2.20    1.61
   8   5   2   -1.90    2.22
  -8   5  -2    6.41    3.95
   8  -5   2    4.26    2.16
   8   5   3   -4.17    2.92
  -8   6   6   -0.37    1.29
  -8   6   6    7.04    2.90
   8  -6  -5    1.26    1.53
  -8   6   5    0.67    1.36
  -8   6   5    0.01    1.61
   8   6  -5    1.41    1.51
  -8  -6   5   -2.25    1.79
  -8   6   5    3.88    2.22
  -8   6   4    3.90    1.95
  -8   6   4    1.83    1.54
  -8  -6   4    1.99    2.28
  -8   6   4    0.42    1.55
   8   6  -4    0.23    1.31
  -8  -6   4    2.02    1.90
  -8   6   3    9.58    2.30
  -8   6   3   11.49    2.59
  -8  -6   3    8.97    3.00
  -8   6   3   10.32    2.57
   8   6  -3    8.14    2.08
  -8   6   3   10.48    2.83
  -8  -6   3    8.32    2.54
  -8   6   2    2.00    1.61
   8   6  -2    2.18    1.55
  -8   6   2    2.04    1.95
  -8  -6   2   -2.16    2.62
  -8   6   2    2.26    1.77
  -8   6   2    0.71    1.53
   8   6  -1   17.09    2.66
  -8   6   1   17.48    2.93
  -8  -6   1   14.54    3.51
  -8   6   1   16.35    3.01
  -8   6   0   20.10    3.21
  -8   6  -1    9.14    3.67
  -8   6  -1    6.49    1.95
   9   0 -10    1.16    1.54
  -9   0  10    4.60    2.41
   9   0  -9    4.95    2.07
   9   0  -9    8.99    2.77
  -9   0   9    9.82    3.53
   9   0  -8   27.10    4.39
  -9   0   8   20.36    2.87
   9   0  -8   23.82    3.32
   9   0  -7   30.30    3.46
   9   0  -7   28.14    4.70
  -9   0   7   30.96    3.33
  -9   0   7   33.93    4.11
   9   0  -6   49.40    4.14
   9   0  -6   53.86    6.73
  -9   0   6   55.88    4.22
  -9   0   6   56.37    4.80
   9   0  -5   71.49    4.91
   9   0  -5   71.58    7.75
  -9   0   5   74.51    4.75
  -9   0   5   66.96    4.85
   9   0  -4   84.06    5.21
   9   0  -4   83.96    8.93
  -9   0   4   85.20    4.94
  -9   0   4   85.65    5.40
   9   0  -3   96.41    9.73
  -9   0   3  112.37    5.60
  -9   0   3  113.05    6.42
  -9   0   3  117.19    6.35
   9   0  -3  113.12    6.15
   9   0  -2   58.03    8.15
  -9   0   2   46.33    3.74
  -9   0   2   47.28    4.20
  -9   0   2   47.66    4.03
   9   0  -2   48.94    4.09
   9   0  -1   42.92    6.60
  -9   0   1   47.15    4.22
  -9   0   1   45.07    3.85
   9   0  -1   42.35    3.92
   9   0   0   21.23    3.01
   9   0   0   23.06    4.28
  -9   0   0   22.25    3.15
  -9   0   0   21.83    2.73
   9   0   1   16.31    2.78
   9   0   1    9.12    2.73
  -9   0  -1   17.16    2.97
  -9   0  -1   15.85    2.33
   9   0   2    0.87    1.34
   9   0   2    0.51    1.70
   9   0   2    3.05    1.87
  -9   0  -2    2.59    2.04
  -9   0  -2   -0.76    1.23
   9   0   3    1.50    1.90
   9   0   3    3.59    2.02
  -9   0  -3    0.96    1.75
  -9   0  -3    4.05    2.15
  -9   0  -4    3.20    2.08
  -9   0  -4    1.66    1.88
  -9  -1  10    5.80    2.75
  -9   1  10    6.93    2.76
   9  -1 -10    4.86    2.35
   9  -1 -10    3.30    1.93
   9   1  -9   -0.08    1.52
   9   1  -9    2.85    2.30
   9  -1  -9   -0.36    1.70
   9  -1  -9    2.64    1.99
   9  -1  -9    2.32    1.68
  -9  -1   9    6.47    3.01
  -9   1   9    2.17    2.38
   9   1  -8   11.71    2.46
   9   1  -8    7.21    2.48
   9  -1  -8    8.15    2.89
  -9   1   8    6.97    2.05
   9  -1  -8    8.76    2.20
  -9  -1   8   10.27    2.65
  -9   1   8   11.50    3.20
   9   1  -7    9.95    3.31
   9  -1  -7    6.33    2.73
  -9   1   7    5.97    1.94
  -9  -1   7    7.08    1.73
   9  -1  -7    7.80    1.92
   9   1  -7    9.57    2.42
  -9  -1   7    5.87    2.22
  -9   1   7   11.15    2.76
   9   1  -6    9.44    3.23
   9  -1  -6    9.53    3.45
  -9   1   6   12.07    2.46
  -9  -1   6    6.92    1.62
   9  -1  -6    8.76    2.06
   9   1  -6   10.14    2.10
  -9  -1   6    8.97    2.30
  -9   1   6    8.38    2.35
   9   1  -5    0.64    2.14
   9  -1  -5    0.30    2.63
  -9   1   5    0.67    1.25
  -9  -1   5   -0.37    1.05
   9  -1  -5   -0.28    1.10
   9   1  -5   -0.80    1.27
  -9  -1   5   -0.85    1.45
  -9   1   5    1.99    1.66
   9   1  -4    3.71    3.14
   9  -1  -4    0.98    2.63
   9  -1  -4    1.51    1.44
  -9   1   4    1.95    1.43
  -9  -1   4    0.39    1.01
  -9   1   4    0.04    1.48
   9   1  -4    0.65    1.22
  -9   1   4    0.61    0.84
  -9  -1   4    3.49    1.86
  -9   1   4    0.37    1.21
   9   1  -3    1.46    3.03
   9  -1  -3    2.01    3.28
   9  -1  -3    2.86    1.46
  -9   1   3    2.62    1.37
  -9  -1   3    2.90    1.32
   9   1  -3    2.38    1.43
  -9   1   3    1.47    1.46
  -9   1   3    4.35    1.18
  -9  -1   3    1.26    1.42
  -9   1   3    2.73    1.32
   9   1  -2    4.08    3.52
   9  -1  -2    6.99    3.22
   9  -1  -2    5.54    1.79
   9   1  -2    8.36    2.02
  -9  -1   2    7.54    1.70
  -9   1   2    5.76    1.62
  -9   1   2    7.94    2.04
  -9   1   2    6.91    1.43
  -9  -1   2    6.86    1.82
  -9   1   2    8.31    1.99
   9  -1  -1   45.48    2.89
   9  -1  -1   55.89    7.63
   9   1  -1   43.92    6.43
  -9   1   1   46.25    4.17
  -9  -1   1   40.86    3.95
  -9   1   1   42.90    3.18
   9  -1  -1   45.50    4.11
  -9  -1   1   52.06    4.31
  -9   1   1   47.62    3.77
   9   1  -1   50.93    4.28
   9  -1   0   46.56    3.13
   9   1   0   41.98    5.81
   9  -1   0   45.70    6.21
  -9   1   0   44.98    4.25
  -9  -1   0   48.00    4.37
   9  -1   0   47.99    4.30
   9   1   0   49.66    4.37
  -9  -1   0   48.20    4.05
  -9   1   0   49.46    3.72
   9  -1   1   65.77    3.97
   9   1   1   51.14    5.88
   9  -1   1   60.50    6.43
   9  -1   1   64.46    5.11
  -9   1  -1   56.35    5.01
  -9  -1  -1   62.65    5.25
   9  -1   1   59.11    4.89
   9   1   1   64.10    4.98
  -9  -1  -1   57.76    4.43
  -9   1  -1   67.61    4.27
   9  -1   2   61.40    4.20
   9   1   2   52.56    5.69
   9  -1   2   58.57    5.94
  -9  -1  -2   66.84    5.67
   9  -1   2   69.80    5.45
  -9   1  -2   60.66    5.49
  -9  -1  -2   70.01    5.79
   9  -1   2   66.65    5.37
   9   1   2   66.00    5.29
  -9  -1  -2   61.86    4.74
   9  -1   3   55.89    4.34
  -9   1  -3   61.11    6.83
   9   1   3   48.31    5.37
   9  -1   3   46.28    5.22
  -9  -1  -3   56.97    5.44
  -9   1  -3   57.10    4.91
   9  -1   3   55.30    5.17
   9   1   3   59.46    5.50
  -9   1  -3   57.32    5.84
  -9  -1  -3   49.56    4.97
   9   1   3   51.22    4.88
  -9   1  -4   22.84    3.90
  -9   1  -4   28.28    3.75
   9  -2 -10    3.89    2.50
   9   2  -9    6.48    2.50
   9   2  -9    0.05    1.89
   9  -2  -9    5.02    2.39
   9  -2  -9    1.56    1.36
   9  -2  -9    5.92    2.38
  -9  -2   9    5.31    2.58
  -9   2   9    1.91    2.31
   9   2  -8   20.78    3.41
   9   2  -8   24.35    4.36
   9  -2  -8   17.40    3.79
  -9   2   8   24.63    3.54
   9  -2  -8   21.21    2.91
   9  -2  -8   23.43    3.59
  -9  -2   8   19.58    3.41
  -9   2   8   25.15    4.40
   9  -2  -7   25.23    2.98
   9   2  -7   27.82    4.89
   9  -2  -7   22.30    4.43
   9   2  -7   25.35    3.53
  -9   2   7   26.44    3.54
   9  -2  -7   24.69    3.43
  -9  -2   7   28.18    3.90
  -9   2   7   28.00    3.95
   9  -2  -6   46.23    3.86
   9   2  -6   44.39    6.23
   9  -2  -6   46.98    6.51
   9   2  -6   43.62    4.14
  -9   2   6   53.67    4.67
  -9  -2   6   43.25    3.33
  -9  -2   6   44.92    4.47
  -9   2   6   52.06    4.79
   9   2  -5   65.71    7.69
   9   2  -5   57.68    4.58
   9  -2  -5   62.34    7.65
  -9   2   5   60.81    4.80
  -9  -2   5   55.39    3.63
  -9   2   5   56.10    3.72
  -9   2   5   53.24    4.49
  -9  -2   5   51.70    4.59
  -9   2   5   54.88    4.52
   9  -2  -5   57.52    4.37
   9   2  -4   73.10    5.11
   9   2  -4   74.09    8.65
   9  -2  -4   70.55    8.69
  -9   2   4   77.18    5.19
  -9  -2   4   69.44    3.93
  -9   2   4   74.43    4.17
  -9   2   4   71.63    5.23
  -9  -2   4   78.02    5.47
  -9   2   4   73.43    4.97
   9  -2  -4   71.51    4.83
   9   2  -3   89.72    5.51
   9   2  -3   81.35    9.36
   9  -2  -3   79.38    9.46
  -9   2   3   88.69    5.39
  -9  -2   3   84.21    4.36
  -9   2   3   92.08    5.96
  -9   2   3   91.65    4.64
  -9  -2   3   88.73    5.78
   9  -2  -3   96.67    5.83
  -9   2   3   84.84    5.20
   9   2  -2   33.61    6.67
   9  -2  -2   51.10    7.95
  -9   2   2   40.20    3.80
  -9  -2   2   35.07    2.94
  -9   2   2   41.72    4.04
  -9   2   2   40.09    3.21
   9  -2  -2   39.48    3.74
  -9  -2   2   43.76    4.11
  -9   2   2   38.80    3.54
   9   2  -2   39.64    3.76
   9   2  -1   41.68    6.68
   9  -2  -1   44.07    7.07
  -9   2   1   39.92    3.93
  -9   2   1   35.64    3.87
  -9   2   1   38.06    3.25
  -9   2   1   36.03    3.16
   9  -2  -1   39.81    3.84
  -9  -2   1   38.22    3.94
  -9   2   1   39.57    3.34
   9   2  -1   39.74    3.81
   9  -2  -1   39.27    3.07
   9  -2   0   15.21    2.52
   9  -2   0   15.81    2.22
   9   2   0   13.74    3.75
   9   2   0   19.11    2.89
   9  -2   0   20.66    4.32
  -9   2   0   18.28    2.99
  -9   2   0   18.27    2.52
  -9   2   0   18.09    2.23
  -9   2   0   21.61    2.41
  -9  -2   0   19.11    2.79
   9  -2   1   11.17    2.00
   9   2   1   14.62    2.69
   9   2   1    9.17    2.92
   9  -2   1   12.79    3.37
   9  -2   1   12.77    2.47
  -9   2  -1   14.02    2.80
  -9  -2  -1   14.92    2.97
  -9   2  -1   14.29    3.60
  -9  -2  -1   11.65    2.53
   9  -2   1    8.22    2.10
   9   2   2   -0.18    1.37
   9  -2   2    2.64    1.59
   9   2   2    2.70    2.15
   9  -2   2    2.43    2.07
   9  -2   2    2.00    1.56
  -9   2  -2    1.04    1.94
  -9   2  -2   -2.59    2.06
  -9  -2  -2    2.91    1.87
  -9  -2  -2    0.21    1.47
   9  -2   3   -0.98    1.67
   9   2   3    3.01    2.22
   9  -2   3   -2.08    2.13
   9  -2   3    0.83    1.73
  -9   2  -3    3.13    2.39
  -9  -2  -3    0.74    1.86
   9   2   3   -1.56    1.93
   9  -2   4   -1.91    1.87
   9   3  -9    3.44    2.35
   9  -3  -9   -1.08    1.75
   9   3  -8    4.27    2.17
   9   3  -8    6.69    3.10
   9  -3  -8    5.36    2.88
  -9   3   8    8.17    2.34
   9  -3  -8    4.06    1.96
  -9  -3   8    4.30    2.16
  -9   3   8    4.14    2.45
   9   3  -7    6.09    3.26
   9  -3  -7    5.21    3.06
   9  -3  -7    6.13    1.61
  -9   3   7    3.61    2.01
   9  -3  -7    7.30    2.25
  -9  -3   7    7.13    2.55
  -9   3   7    6.99    2.73
   9   3  -7    5.61    2.11
   9   3  -6    4.16    2.72
   9  -3  -6    2.17    2.69
   9  -3  -6    4.77    1.50
  -9   3   6    6.65    2.17
  -9   3   6    4.53    1.86
   9   3  -6    6.28    2.01
  -9  -3   6    8.42    2.42
  -9   3   6    4.81    2.02
   9   3  -5   -1.64    2.80
   9  -3  -5    1.41    2.54
   9  -3  -5    1.28    1.24
  -9   3   5    0.45    1.30
  -9   3   5    0.65    1.50
  -9   3   5    1.77    1.54
   9   3  -5    1.25    1.60
  -9  -3   5    1.78    1.61
  -9   3   5    0.87    1.50
   9   3  -4   -0.79    2.77
   9  -3  -4    1.07    2.76
   9  -3  -4    1.21    1.32
  -9   3   4    1.94    1.59
  -9   3   4   -0.26    1.41
  -9   3   4    1.31    1.32
   9   3  -4    0.18    1.26
  -9  -3   4    1.82    1.71
  -9   3   4    3.22    1.72
   9  -3  -3    1.97    1.32
   9   3  -3    1.54    3.34
   9  -3  -3    3.84    3.67
  -9   3   3    0.61    1.29
  -9  -3   3    3.24    1.07
  -9   3   3    1.77    1.33
   9   3  -3    2.15    1.35
  -9   3   3    9.44    4.23
  -9   3   3    1.53    1.43
  -9  -3   3    1.72    1.63
  -9   3   3    3.34    1.59
   9  -3  -2    5.96    1.94
   9   3  -2    2.84    3.47
   9  -3  -2    1.13    3.62
  -9   3   2    2.32    1.49
  -9  -3   2    4.17    1.20
   9   3  -2    5.24    1.79
  -9   3   2    5.91    1.99
  -9   3   2    7.36    3.85
  -9   3   2    6.38    1.94
  -9   3   2    3.47    1.47
  -9  -3   2    8.04    2.28
  -9   3   2    4.84    1.69
   9   3  -1   27.27    5.77
   9  -3  -1   35.98    6.78
  -9  -3   1   28.98    2.72
  -9   3   1   28.85    3.57
  -9   3   1   31.04    3.74
  -9   3   1   34.25    3.45
  -9   3   1   42.86    6.30
   9  -3  -1   31.06    3.61
  -9   3   1   29.70    3.22
  -9  -3   1   30.54    3.83
  -9   3   1   33.02    3.05
   9   3  -1   32.85    3.54
   9  -3  -1   27.18    2.90
   9  -3   0   31.26    3.27
   9   3   0   32.00    5.84
   9  -3   0   32.15    5.58
  -9  -3   0   34.38    4.41
  -9   3   0   34.00    3.94
  -9   3   0   29.78    5.02
  -9   3   0   33.88    3.60
   9  -3   0   28.00    3.50
  -9   3   0   27.84    2.88
   9   3   0   33.60    3.78
  -9  -3   0   29.72    3.69
   9  -3   1   43.10    4.00
  -9   3  -1   45.60    6.18
   9   3   1   33.41    5.53
   9  -3   1   37.44    5.40
  -9  -3  -1   42.61    4.83
   9  -3   1   42.67    3.99
  -9   3  -1   40.80    4.66
  -9   3  -1   44.33    4.34
   9   3   1   42.97    4.25
  -9  -3  -1   41.22    4.47
   9  -3   2   42.75    4.09
   9   3   2   39.20    5.68
   9  -3   2   38.67    5.25
   9  -3   2   47.58    4.48
  -9   3  -2   44.41    5.13
  -9   3  -2   32.83    5.29
   9   3   2   44.44    4.47
   9  -3   3   39.52    4.22
   9   3   3   32.16    4.81
   9  -3   3   29.57    4.60
   9  -3   3   37.31    4.32
   9   4  -9    3.00    2.47
   9  -4  -9    2.33    2.15
   9   4  -8   11.96    4.11
   9  -4  -8    7.55    3.16
   9   4  -7   14.81    2.99
   9   4  -7   10.29    3.58
   9  -4  -7   11.61    3.85
  -9   4   7   11.39    2.57
   9  -4  -7   11.82    2.84
  -9  -4   7   16.16    3.22
  -9   4   7   13.76    3.10
   9   4  -6   26.37    5.88
   9  -4  -6   19.18    4.86
  -9   4   6   28.83    3.85
  -9   4   6   21.26    3.12
  -9   4   6   21.63    3.08
   9  -4  -6   28.13    3.88
   9   4  -6   24.43    3.44
  -9  -4   6   23.63    3.75
  -9   4   6   22.73    3.59
   9   4  -5   33.75    3.87
   9   4  -5   34.75    6.53
   9  -4  -5   29.76    6.30
  -9   4   5   31.50    3.82
  -9   4   5   30.50    3.42
  -9   4   5   32.32    3.77
   9  -4  -5   30.65    3.15
  -9   4   5   30.75    3.72
  -9  -4   5   30.18    3.96
   9   4  -4   39.98    4.04
   9   4  -4   41.23    7.64
   9  -4  -4   39.94    7.20
  -9   4   4   41.55    4.19
  -9   4   4   40.65    3.91
  -9   4   4   46.77    4.52
   9  -4  -4   40.35    3.71
  -9  -4   4   40.81    4.47
  -9   4   4   40.15    3.89
   9   4  -3   46.24    4.27
   9   4  -3   39.57    7.91
   9  -4  -3   40.24    7.21
  -9   4   3   43.36    4.26
  -9   4   3   41.54    4.35
  -9   4   3   43.37    4.03
   9  -4  -3   47.67    4.02
  -9   4   3   42.18    4.34
  -9  -4   3   46.15    4.60
  -9   4   3   44.17    3.90
   9   4  -2   20.01    5.92
   9  -4  -2   22.83    5.83
  -9   4   2   22.99    3.18
   9   4  -2   22.48    3.07
  -9   4   2   19.98    5.04
  -9   4   2   22.88    3.36
  -9  -4   2   21.83    3.52
  -9   4   2   25.69    3.26
  -9   4   2   21.51    3.20
  -9   4   2   25.54    2.90
  -9  -4   2   16.81    3.02
   9  -4  -2   21.54    2.93
   9  -4  -1   19.32    2.74
   9   4  -1   14.04    4.76
   9  -4  -1   20.60    5.53
   9   4  -1   23.12    3.13
  -9   4   1   22.30    3.21
  -9   4   1   19.02    5.37
  -9   4   1   20.21    3.36
  -9  -4   1   21.46    3.78
  -9   4   1   24.62    3.26
  -9   4   1   18.58    2.77
  -9  -4   1   17.82    3.21
   9  -4   0   11.74    2.41
   9   4   0   14.84    4.59
   9  -4   0   11.46    3.92
   9   4   0   13.00    2.49
  -9   4   0   10.15    2.32
  -9   4   0   13.97    4.65
  -9   4   0   12.29    2.72
  -9  -4   0   10.88    3.05
  -9   4   0   12.53    2.64
  -9   4   0    8.20    2.01
  -9  -4   0    8.65    2.49
   9  -4   1    7.95    2.20
   9   4   1    7.83    2.24
   9   4   1    8.32    3.75
   9  -4   1    2.10    1.99
  -9   4  -1    9.58    3.69
  -9   4  -1    7.30    2.37
   9   4   2   -0.45    1.44
   9  -4   2   -0.50    1.57
   9   4   2    1.20    2.50
   9  -4   2    1.03    1.93
   9  -4   2   -0.84    1.25
  -9   4  -2   -3.62    2.61
  -9   5   7    3.10    1.75
  -9   5   6    1.66    1.38
  -9   5   6    4.97    2.01
  -9   5   6    1.02    1.81
  -9   5   5   -1.08    1.46
  -9  -5   5    1.81    2.20
  -9   5   5    0.17    1.61
   9   5  -5   -0.29    1.51
  -9   5   5   -0.93    1.63
  -9   5   4    1.93    1.79
  -9   5   4   -0.01    1.39
  -9  -5   4    4.48    2.59
  -9   5   4    0.29    1.61
   9   5  -4   -0.41    1.33
  -9   5   4    2.03    2.07
  -9  -5   4    0.96    1.64
  -9   5   4    0.26    1.40
  -9   5   3    3.97    2.08
  -9   5   3    1.59    1.74
   9   5  -3    2.01    1.68
  -9  -5   3    2.57    2.28
  -9   5   3   -1.52    1.67
  -9   5   3    1.03    1.72
  -9   5   2    5.29    2.10
   9   5  -2    1.45    1.32
  -9   5   2    7.07    2.50
  -9  -5   2    0.68    1.98
  -9   5   2    0.56    1.68
  -9   5   2    4.65    2.10
   9   5  -1   15.17    2.67
  -9   5   1   18.46    3.17
  -9   5   1   10.96    2.49
   9  -5   0   21.00    3.17
   9   5   0   12.47    2.57
  -9   5   0    5.96    3.19
  -9   5   0   17.39    3.28
  -9   5   0   12.22    2.39
   9   5   1   17.45    2.85
  -9   5  -1   15.96    4.93
   9   6  -2    8.63    2.13
  10   0  -9   10.34    3.11
  10   0  -9   10.55    2.64
  10   0  -8    8.73    3.26
 -10   0   8    8.50    2.09
  10   0  -8    7.44    2.09
 -10   0   8   10.99    3.11
  10   0  -7    4.48    2.72
 -10   0   7    4.66    1.83
  10   0  -7    2.32    1.68
 -10   0   7    1.39    1.89
  10   0  -6   22.29    5.10
 -10   0   6   26.40    3.19
  10   0  -6   20.53    3.01
 -10   0   6   17.55    3.03
  10   0  -5    3.49    3.19
 -10   0   5   -0.20    1.16
  10   0  -5    2.41    1.57
 -10   0   5    1.26    1.45
  10   0  -4   -1.11    2.82
  10   0  -4   -0.06    1.33
 -10   0   4   -0.25    1.20
 -10   0   4    1.65    1.52
  10   0  -3   11.81    4.51
  10   0  -3   10.50    2.30
 -10   0   3    7.93    1.92
 -10   0   3    7.31    2.02
 -10   0   3   12.82    2.59
  10   0  -2   19.24    5.15
  10   0  -2   18.60    2.87
 -10   0   2   19.39    2.78
 -10   0   2   17.78    2.95
 -10   0   2   20.11    3.01
  10   0  -1    6.58    1.99
  10   0  -1    9.29    3.38
 -10   0   1    8.56    2.20
 -10   0   1    6.79    1.96
 -10   0   1    9.14    2.12
  10   0   0   28.65    3.59
  10   0   0   25.97    4.80
 -10   0   0   27.17    3.78
 -10   0   0   30.88    3.31
  10   0   1   43.69    5.85
 -10   0  -1   63.63    5.82
  10   0   1   59.61    5.28
 -10   0  -1   58.73    4.51
  10   0   2   10.70    3.04
 -10   0  -2    9.92    3.26
  10   0   3   17.46    3.82
 -10   0  -3   18.90    3.72
  10   1  -9    1.10    2.04
  10  -1  -9    2.94    2.18
  10  -1  -9   -0.15    1.33
  10   1  -8    2.26    2.47
  10  -1  -8   -0.55    2.09
 -10   1   8    1.08    1.63
 -10  -1   8    1.37    1.34
  10  -1  -8    2.42    1.80
  10   1  -8    1.25    1.48
 -10  -1   8    3.24    1.96
 -10   1   8    6.18    2.82
  10  -1  -7   28.88    3.45
  10   1  -7   27.19    5.01
  10  -1  -7   34.89    5.69
 -10   1   7   33.25    3.85
 -10  -1   7   24.92    3.00
  10   1  -7   26.19    3.51
 -10   1   7   31.79    4.28
 -10  -1   7   29.04    4.03
  10   1  -6    7.01    3.21
  10  -1  -6   17.71    4.67
 -10   1   6   14.95    2.72
 -10  -1   6   14.55    2.32
  10  -1  -6   14.70    2.57
  10   1  -6   15.20    2.64
 -10  -1   6   16.99    3.05
 -10   1   6   16.87    2.90
  10   1  -5   32.11    3.64
  10   1  -5   28.61    5.85
  10  -1  -5   31.78    6.08
 -10   1   5   28.03    3.28
 -10  -1   5   27.35    2.98
 -10  -1   5   32.89    3.89
 -10   1   5   30.06    3.53
  10  -1  -5   31.49    3.57
  10   1  -4   26.13    3.27
  10   1  -4   23.63    5.52
  10  -1  -4   24.60    5.80
 -10   1   4   30.16    3.38
 -10  -1   4   25.78    2.82
 -10   1   4   30.18    3.74
 -10  -1   4   30.54    3.70
  10  -1  -4   30.23    3.52
 -10   1   4   26.79    3.24
  10   1  -3   35.58    6.78
  10  -1  -3   35.87    6.78
 -10   1   3   34.53    3.67
 -10  -1   3   32.07    3.17
 -10   1   3   34.94    4.04
 -10  -1   3   39.29    4.15
 -10   1   3   33.67    3.71
  10  -1  -3   33.89    3.77
  10   1  -3   37.22    3.96
  10   1  -2   78.34    9.47
  10  -1  -2   82.57   10.34
 -10   1   2   80.35    5.58
 -10  -1   2   83.98    5.10
 -10   1   2   77.42    5.71
  10  -1  -2   85.82    5.88
 -10  -1   2   90.00    6.06
 -10   1   2   89.15    5.69
  10   1  -2   87.73    5.90
  10   1  -1   31.12    5.89
  10  -1  -1   40.55    7.08
 -10  -1   1   35.64    3.66
 -10   1   1   35.31    3.73
 -10   1   1   32.84    3.94
 -10  -1   1   30.86    3.87
  10  -1  -1   36.26    3.90
 -10  -1   1   34.08    3.75
 -10   1   1   35.05    3.55
  10   1  -1   39.35    4.08
  10  -1   0   17.69    2.90
  10   1   0   14.96    2.68
  10   1   0   11.04    3.64
  10  -1   0   13.51    3.71
 -10   1   0   17.44    3.21
 -10  -1   0   15.44    3.07
 -10  -1   0   16.35    2.74
 -10   1   0   13.99    2.35
  10  -1   1   15.94    2.95
  10   1   1   16.54    3.00
  10   1   1   12.32    3.38
  10  -1   1   14.52    3.59
 -10   1  -1   18.88    3.40
 -10  -1  -1   10.82    2.74
 -10  -1  -1   13.65    2.53
  10   1   2   12.20    3.40
  10  -1   2   12.53    3.31
 -10   1  -2   17.72    3.69
 -10  -1  -2    9.19    2.73
 -10  -1  -2   13.74    2.64
  10   2  -9    9.40    3.23
  10  -2  -9    8.55    3.03
  10  -2  -9    8.86    2.29
  10   2  -8    7.66    2.97
  10  -2  -8    9.01    3.09
 -10   2   8    6.61    2.28
  10  -2  -8    5.08    1.85
  10   2  -7    2.04    2.44
  10  -2  -7    1.40    2.31
 -10   2   7    4.50    2.19
 -10  -2   7    2.88    1.37
  10  -2  -7    1.90    1.46
  10   2  -7    3.25    1.77
 -10  -2   7    5.09    2.55
 -10   2   7    2.60    2.07
  10   2  -6   19.20    4.94
  10  -2  -6   18.95    4.61
  10  -2  -6   18.25    2.81
 -10   2   6   20.42    3.26
 -10  -2   6   18.29    2.49
  10   2  -6   19.05    3.07
 -10  -2   6   18.87    3.33
 -10   2   6   17.18    3.12
  10   2  -5    4.04    3.28
  10  -2  -5    2.85    3.07
  10  -2  -5    2.27    1.37
 -10   2   5   -0.24    1.37
 -10  -2   5    1.89    1.28
 -10   2   5    0.03    1.43
  10   2  -5    0.59    1.34
 -10  -2   5    0.32    1.53
 -10   2   5    2.17    1.61
  10   2  -4    3.11    3.63
  10  -2  -4    1.19    3.16
  10  -2  -4    1.40    1.46
 -10   2   4   -0.12    1.33
 -10  -2   4    0.18    0.95
  10   2  -4    2.64    1.72
 -10   2   4    0.72    1.66
 -10  -2   4    2.74    1.56
 -10   2   4    1.16    1.35
  10  -2  -3    8.66    2.30
  10   2  -3    6.83    4.21
  10  -2  -3    9.27    4.77
  10   2  -3    9.47    2.26
 -10   2   3    6.66    2.01
 -10  -2   3    7.94    1.69
 -10   2   3    7.90    2.29
 -10  -2   3    8.40    2.34
 -10   2   3    6.38    1.98
  10  -2  -2   17.06    2.90
  10   2  -2   17.83    5.17
  10  -2  -2   23.79    6.09
  10   2  -2   14.89    2.57
 -10   2   2   15.59    2.70
 -10  -2   2   15.33    2.29
 -10   2   2   14.81    2.81
 -10  -2   2   20.39    3.19
 -10   2   2   17.35    2.65
  10  -2  -1    6.84    2.05
  10   2  -1    3.94    2.93
  10   2  -1    6.44    2.01
 -10  -2   1    6.46    1.74
 -10   2   1    3.20    1.52
 -10   2   1    5.45    2.16
 -10  -2   1    4.21    1.95
 -10   2   1    6.18    1.83
  10  -2   0   23.43    3.48
  10   2   0   26.48    3.52
  10   2   0   17.56    4.13
  10  -2   0   21.50    4.73
 -10   2   0   21.37    3.47
 -10  -2   0   24.49    3.52
 -10   2  -1   52.47    6.36
  10   2   1   42.40    5.99
  10  -2   1   45.64    6.18
 -10   2  -1   45.48    5.02
 -10  -2  -1   49.68    4.72
  10   2   2    2.88    1.90
  10  -2   2    5.16    2.36
  10   3  -8    4.54    3.00
  10  -3  -8    3.07    2.73
  10   3  -7   20.37    4.83
  10  -3  -7   21.51    5.27
  10  -3  -7   18.73    2.78
 -10   3   7   16.62    3.45
  10   3  -6   18.83    4.99
  10  -3  -6    7.78    3.75
  10  -3  -6   12.19    2.40
 -10   3   6   12.79    2.90
 -10   3   6   10.48    2.59
  10   3  -6   10.36    2.52
 -10  -3   6   12.68    2.91
 -10   3   6    9.54    2.63
  10   3  -5   13.55    4.55
  10  -3  -5   13.99    4.73
  10  -3  -5   23.44    3.20
 -10   3   5   21.85    3.39
 -10   3   5   17.28    3.16
  10   3  -5   16.96    2.90
 -10  -3   5   19.69    3.25
 -10   3   5   22.27    3.28
  10  -3  -4   21.41    3.11
  10   3  -4   26.89    6.35
  10  -3  -4   18.02    5.21
 -10   3   4   18.68    3.13
 -10   3   4   19.48    3.20
  10   3  -4   18.32    2.98
 -10  -3   4   18.45    3.17
 -10   3   4   20.58    3.05
  10  -3  -3   20.70    3.06
  10   3  -3   16.24    5.10
  10  -3  -3   20.63    5.74
 -10   3   3   22.15    3.29
  10   3  -3   21.27    3.17
 -10   3   3   24.47    3.65
 -10   3   3   36.48    6.67
 -10   3   3   23.41    2.94
 -10  -3   3   21.07    3.46
 -10   3   3   22.36    2.91
 -10   3   2   75.90    9.09
  10   3  -2   51.09    8.34
  10  -3  -2   66.58    9.70
 -10   3   2   60.97    5.13
 -10   3   2   53.61    5.12
 -10   3   2   56.68    4.44
  10  -3  -2   50.15    4.56
 -10   3   2   50.68    4.46
 -10  -3   2   60.12    5.43
 -10   3   2   58.86    4.56
  10   3  -2   56.71    4.97
  10  -3  -1   21.05    3.26
  10   3  -1   15.82    4.82
  10  -3  -1   21.66    5.40
  10   3  -1   25.25    3.47
 -10   3   1   22.76    3.44
 -10   3   1   20.33    3.34
 -10   3   1   20.90    4.90
 -10  -3   1   27.87    4.13
 -10   3   1   21.08    3.01
 -10   3   1   18.42    2.77
 -10  -3   1   24.54    3.70
  10  -3   0    9.81    2.10
  10   3   0   10.73    2.53
  10   3   0   11.76    3.70
  10  -3   0   13.17    4.20
 -10   3   0    9.01    3.56
 -10   3   0    8.53    2.06
 -10  -3   0   11.58    2.79
  10  -3   1   13.92    2.53
  10   3   1   11.10    3.46
  10  -3   1   11.91    3.43
 -10   4   6    6.79    2.24
 -10   4   6    9.23    2.27
 -10   4   6    8.53    2.69
 -10   4   5    0.41    1.53
 -10   4   5   -0.51    1.53
 -10   4   5    2.28    1.85
  10  -4  -4   -1.23    1.59
 -10   4   4    1.66    1.65
  10   4  -4   -0.83    1.43
 -10   4   4    1.94    1.69
 -10   4   4   -1.12    1.62
 -10   4   4    4.58    2.01
  10  -4  -3    3.73    1.64
  10   4  -3    4.37    1.87
 -10   4   3    3.88    1.86
 -10   4   3    3.45    1.95
  10   4  -2    8.98    2.38
 -10   4   2   11.98    2.67
 -10   4   2    8.92    2.53
  10  -4  -2    8.17    2.14
 -10   4   1    4.25    3.77
 -10   4   1    4.64    2.04
 -10   4   1    3.63    1.69
  10  -4   0   12.17    2.48
 -10   4   0    9.32    4.23
 -10   4   0   15.82    3.04
 -10   5   5    5.72    2.08
 -10   5   4    8.65    2.42
 -10   5   3   11.51    2.72
 -11   0   8    0.30    1.54
 -11   0   7    3.17    1.63
  11   0  -6   11.17    4.03
 -11   0   6   18.49    3.00
  11   0  -6   20.40    3.13
 -11   0   6   23.49    3.49
  11   0  -5   29.62    6.26
 -11   0   5   30.15    3.44
 -11   0   5   30.77    4.02
  11   0  -5   29.83    3.86
  11   0  -4   25.21    6.35
 -11   0   4   27.99    3.31
 -11   0   4   31.15    3.96
  11   0  -4   31.97    3.89
  11   0  -3   44.30    7.87
 -11   0   3   38.33    3.91
 -11   0   3   40.64    4.45
  11   0  -3   37.67    4.25
  11   0  -2   21.37    3.37
  11   0  -2   18.79    5.55
 -11   0   2   18.06    2.91
 -11   0   2   18.01    3.33
 -11   0   2   21.05    3.31
  11   0  -1   25.16    5.57
 -11   0   1   29.31    3.66
 -11   0   1   23.30    3.83
 -11   0   1   31.13    3.73
 -11   0   0   20.39    3.04
 -11  -1   8    6.34    1.94
 -11   1   7    5.97    2.15
 -11  -1   7    4.25    1.75
  11  -1  -7    4.06    1.85
  11  -1  -6    2.46    1.72
 -11   1   6    1.79    1.81
 -11  -1   6    0.96    1.26
 -11   1   6    0.35    1.60
  11   1  -5    6.60    3.66
  11  -1  -5    5.39    3.85
  11  -1  -5    7.03    2.25
 -11   1   5    7.58    2.23
 -11  -1   5    9.57    2.25
  11   1  -5    8.05    2.37
 -11  -1   5    4.99    2.01
 -11   1   5    8.20    2.37
  11   1  -4    1.69    2.61
  11  -1  -4    1.34    3.73
  11  -1  -4    1.67    1.60
  11   1  -4    2.61    1.93
 -11   1   4   -1.61    1.54
 -11  -1   4    0.06    1.22
 -11   1   4    1.70    1.94
 -11  -1   4    1.51    1.62
 -11   1   4   -1.65    1.67
  11   1  -3   -1.44    3.08
  11  -1  -3    3.43    4.47
  11  -1  -3    0.96    1.49
  11   1  -3   -0.05    1.38
 -11   1   3   -0.87    1.59
 -11  -1   3   -0.27    1.16
 -11   1   3    0.62    1.52
 -11  -1   3    0.76    1.83
 -11   1   3    0.17    1.64
  11  -1  -2    3.60    1.94
  11   1  -2   10.84    4.63
  11  -1  -2   10.71    4.70
 -11   1   2    4.18    1.98
 -11  -1   2    4.13    1.67
 -11   1   2    2.51    1.64
 -11  -1   2    4.46    2.26
 -11   1   2    4.25    1.91
 -11  -1   1    5.64    1.93
 -11   1   1    6.95    2.24
 -11  -1   1    5.13    2.12
 -11   1   1    7.69    2.14
 -11  -1   0    7.54    2.30
 -11  -1  -1    5.95    2.75
  11  -2  -8    1.40    1.52
  11  -2  -7    4.11    1.78
  11  -2  -6   14.90    2.77
 -11   2   6   16.59    3.02
  11  -2  -5   25.80    3.56
 -11   2   5   25.51    3.51
  11  -2  -4   26.69    3.52
 -11   2   4   23.41    3.43
 -11   2   4   23.93    3.40
  11  -2  -3   34.69    4.07
 -11   2   3   32.69    3.92
  11  -2  -2   14.91    2.83
 -11  -2   2   14.81    2.47
 -11   2   2   17.11    2.94
 -11  -2   1   24.30    3.19
  11  -3  -6    1.29    1.59
  11  -3  -5    4.20    1.75
 -11   3   5    4.19    1.97
  11  -3  -4   -0.21    1.52
 -11   3   4    1.65    1.72
  11  -3  -3    0.62    1.51
 -11   3   3   -0.22    1.47
 -11   3   2    0.53    3.26
 -11   3   1    0.15    2.73
 -12  -1   5    8.81    2.25
 -12  -1   4    7.48    2.09
 -12  -1   3   10.25    2.47
   0   0   0    0.00    0.00


TITL V302_3 in P2(1)/m
REM P2(1)/m (#11 in standard setting)
CELL 0.71073   8.568876   6.411306   8.824783  90.0000 110.2001  90.0000
ZERR    2.00   0.000271   0.000156   0.000366   0.0000   0.0041   0.0000
LATT  1
SYMM -x, y+1/2,-z
SFAC C H N O Br
UNIT 14.00 18.00 4.00 4.00 2.00
TREF
HKLF 4
END
_computing_structure_solution     'SHELXT 2014/5 (Sheldrick, 2014)'
;
_shelx_hkl_checksum              95067
_olex2_submission_special_instructions 'No special instructions were received'
_oxdiff_exptl_absorpt_empirical_details
;
Empirical correction (ABSPACK) includes:
- Absorption correction using spherical harmonics
- Frame scaling
;
_oxdiff_exptl_absorpt_empirical_full_max 1.581
_oxdiff_exptl_absorpt_empirical_full_min 0.639
loop_
_space_group_symop_operation_xyz
'x, y, z'
'-x, y+1/2, -z'
'-x, -y, -z'
'x, -y-1/2, z'
loop_
_atom_site_label
_atom_site_type_symbol
_atom_site_fract_x
_atom_site_fract_y
_atom_site_fract_z
_atom_site_U_iso_or_equiv
_atom_site_adp_type
_atom_site_occupancy
_atom_site_site_symmetry_order
_atom_site_calc_flag
_atom_site_refinement_flags_posn
_atom_site_refinement_flags_adp
_atom_site_refinement_flags_occupancy
Br1 Br 0.73818(3) 0.250000 0.53360(3) 0.04217(10) Uani 1 2 d S T P
O1 O 0.3445(4) 0.250000 -0.2577(3) 0.0934(10) Uani 1 2 d S T P
O2 O 0.5579(3) 0.250000 -0.0397(3) 0.0731(7) Uani 1 2 d S T P
N1 N 0.3307(3) 0.250000 0.4115(2) 0.0339(4) Uani 1 2 d S T P
H1A H 0.449(5) 0.250000 0.450(4) 0.059(10) Uiso 1 2 d S T P
H1B H 0.301(3) 0.362(4) 0.454(3) 0.052(6) Uiso 1 1 d . . .
N2 N 0.4076(4) 0.250000 -0.1118(3) 0.0547(7) Uani 1 2 d S T P
C1 C 0.2592(3) 0.250000 0.2349(3) 0.0302(4) Uani 1 2 d S T P
C2 C 0.0867(3) 0.250000 0.1626(3) 0.0361(5) Uani 1 2 d S T P
C3 C 0.0232(3) 0.250000 -0.0051(4) 0.0442(6) Uani 1 2 d S T P
H3 H -0.091475 0.250000 -0.057333 0.053 Uiso 1 2 calc RS T P
C4 C 0.1255(4) 0.250000 -0.0965(3) 0.0452(6) Uani 1 2 d S T P
H4 H 0.081006 0.250000 -0.208640 0.054 Uiso 1 2 calc RS T P
C5 C 0.2956(3) 0.250000 -0.0173(3) 0.0387(5) Uani 1 2 d S T P
C6 C 0.3664(3) 0.250000 0.1493(3) 0.0352(5) Uani 1 2 d S T P
H6 H 0.481098 0.250000 0.201031 0.042 Uiso 1 2 calc RS T P
C7 C -0.0241(4) 0.250000 0.2618(4) 0.0501(7) Uani 1 2 d S T P
H7A H -0.001(3) 0.370(4) 0.333(3) 0.067(7) Uiso 1 1 d . . .
H7B H -0.131(5) 0.250000 0.198(5) 0.064(10) Uiso 1 2 d S T P
loop_
_atom_site_aniso_label
_atom_site_aniso_U_11
_atom_site_aniso_U_22
_atom_site_aniso_U_33
_atom_site_aniso_U_23
_atom_site_aniso_U_13
_atom_site_aniso_U_12
Br1 0.03419(14) 0.03781(15) 0.04864(17) 0.000 0.00682(11) 0.000
O1 0.115(2) 0.134(3) 0.0360(12) 0.000 0.0328(14) 0.000
O2 0.0635(15) 0.104(2) 0.0621(15) 0.000 0.0345(13) 0.000
N1 0.0359(11) 0.0365(11) 0.0280(10) 0.000 0.0094(8) 0.000
N2 0.083(2) 0.0507(14) 0.0370(12) 0.000 0.0297(13) 0.000
C1 0.0332(11) 0.0267(10) 0.0272(10) 0.000 0.0061(9) 0.000
C2 0.0326(11) 0.0282(11) 0.0425(13) 0.000 0.0067(10) 0.000
C3 0.0375(13) 0.0358(12) 0.0451(14) 0.000 -0.0037(11) 0.000
C4 0.0599(17) 0.0340(12) 0.0292(12) 0.000 -0.0006(12) 0.000
C5 0.0517(15) 0.0322(11) 0.0306(12) 0.000 0.0121(11) 0.000
C6 0.0361(12) 0.0352(11) 0.0325(12) 0.000 0.0095(10) 0.000
C7 0.0347(14) 0.0519(17) 0.065(2) 0.000 0.0181(14) 0.000
loop_
_atom_type_symbol
_atom_type_description
_atom_type_scat_dispersion_real
_atom_type_scat_dispersion_imag
_atom_type_scat_source
C C 0.0033 0.0016 'International Tables Vol C Tables 4.2.6.8 and 6.1.1.4'
H H 0.0000 0.0000 'International Tables Vol C Tables 4.2.6.8 and 6.1.1.4'
Br Br -0.2901 2.4595 'International Tables Vol C Tables 4.2.6.8 and 6.1.1.4'
N N 0.0061 0.0033 'International Tables Vol C Tables 4.2.6.8 and 6.1.1.4'
O O 0.0106 0.0060 'International Tables Vol C Tables 4.2.6.8 and 6.1.1.4'
loop_
_exptl_crystal_face_index_h
_exptl_crystal_face_index_k
_exptl_crystal_face_index_l
_exptl_crystal_face_perp_dist
12 2 -3 0.2679
-11 -3 3 0.2691
-12 1 3 0.2852
-1 -9 0 0.2670
0 -2 -12 0.0970
0 1 11 0.0131
1 9 -2 0.3355
8 -6 -5 0.4071
8 7 -2 0.3380
loop_
_geom_angle_atom_site_label_1
_geom_angle_atom_site_label_2
_geom_angle_atom_site_label_3
_geom_angle
_geom_angle_site_symmetry_3
H1A N1 H1B 105.8(19) 4_565
H1A N1 H1B 105.8(19) .
H1B N1 H1B 108(3) 4_565
C1 N1 H1A 113(2) .
C1 N1 H1B 111.9(14) .
C1 N1 H1B 111.9(14) 4_565
O1 N2 O2 123.8(3) .
O1 N2 C5 117.5(3) .
O2 N2 C5 118.7(2) .
C2 C1 N1 118.4(2) .
C6 C1 N1 118.1(2) .
C6 C1 C2 123.5(2) .
C1 C2 C7 121.3(2) .
C3 C2 C1 116.8(2) .
C3 C2 C7 121.9(3) .
C2 C3 H3 119.1 .
C4 C3 C2 121.8(2) .
C4 C3 H3 119.1 .
C3 C4 H4 120.8 .
C3 C4 C5 118.5(2) .
C5 C4 H4 120.8 .
C4 C5 N2 119.6(2) .
C4 C5 C6 122.4(3) .
C6 C5 N2 118.0(2) .
C1 C6 C5 116.9(2) .
C1 C6 H6 121.5 .
C5 C6 H6 121.5 .
C2 C7 H7A 110.3(15) 4_565
C2 C7 H7A 110.3(15) .
C2 C7 H7B 110(2) .
H7A C7 H7A 105(3) 4_565
H7A C7 H7B 110.3(19) .
H7B C7 H7A 110.3(19) 4_565
loop_
_geom_bond_atom_site_label_1
_geom_bond_atom_site_label_2
_geom_bond_distance
_geom_bond_site_symmetry_2
O1 N2 1.212(3) .
O2 N2 1.223(4) .
N1 H1A 0.95(4) .
N1 H1B 0.89(2) 4_565
N1 H1B 0.89(2) .
N1 C1 1.464(3) .
N2 C5 1.473(4) .
C1 C2 1.393(3) .
C1 C6 1.377(3) .
C2 C3 1.390(4) .
C2 C7 1.497(4) .
C3 H3 0.9300 .
C3 C4 1.381(5) .
C4 H4 0.9300 .
C4 C5 1.382(4) .
C5 C6 1.383(3) .
C6 H6 0.9300 .
C7 H7A 0.97(3) 4_565
C7 H7A 0.97(3) .
C7 H7B 0.89(4) .
loop_
_geom_hbond_atom_site_label_D
_geom_hbond_atom_site_label_H
_geom_hbond_atom_site_label_A
_geom_hbond_distance_DH
_geom_hbond_distance_HA
_geom_hbond_distance_DA
_geom_hbond_angle_DHA
_geom_hbond_site_symmetry_A
_geom_hbond_publ_flag
N1 H1A Br1 0.95(4) 2.33(4) 3.280(2) 177(3) . yes
N1 H1B Br1 0.89(2) 2.52(2) 3.3251(6) 152(2) 3_666 yes
loop_
_geom_torsion_atom_site_label_1
_geom_torsion_atom_site_label_2
_geom_torsion_atom_site_label_3
_geom_torsion_atom_site_label_4
_geom_torsion
O1 N2 C5 C4 0.000(0)
O1 N2 C5 C6 180.000(0)
O2 N2 C5 C4 180.0
O2 N2 C5 C6 0.000(0)
N1 C1 C2 C3 180.000(0)
N1 C1 C2 C7 0.000(0)
N1 C1 C6 C5 180.000(0)
N2 C5 C6 C1 180.000(0)
C1 C2 C3 C4 0.000(0)
C2 C1 C6 C5 0.000(0)
C2 C3 C4 C5 0.000(0)
C3 C4 C5 N2 180.000(0)
C3 C4 C5 C6 0.000(0)
C4 C5 C6 C1 0.000(0)
C6 C1 C2 C3 0.000(0)
C6 C1 C2 C7 180.000(0)
C7 C2 C3 C4 180.000(0)
loop_
_exptl_oxdiff_crystal_face_indexfrac_h
_exptl_oxdiff_crystal_face_indexfrac_k
_exptl_oxdiff_crystal_face_indexfrac_l
_exptl_oxdiff_crystal_face_x
_exptl_oxdiff_crystal_face_y
_exptl_oxdiff_crystal_face_z
12.0079 1.9969 -3.0171 0.7679 -0.3858 0.5571
-11.0080 -2.9981 3.0190 -0.7746 0.4142 -0.4186
-12.0053 1.0055 3.0084 -0.5575 0.2772 -0.7901
-1.0086 -9.0070 0.0270 -0.6945 0.3338 0.6381
-0.0144 -2.0015 -11.9909 -0.6717 -0.8038 0.0815
0.0124 1.0007 10.9941 0.5573 0.7670 -0.0100
1.0065 9.0070 -2.0264 0.6059 -0.4799 -0.6504
7.9957 -6.0080 -4.9894 -0.1352 -0.2107 0.9225
8.0102 7.0026 -2.0278 0.9093 -0.4625 -0.0687

_cod_database_fobs_code 2108515
