#------------------------------------------------------------------------------
#$Date: 2021-07-28 08:23:42 +0300 (Wed, 28 Jul 2021) $
#$Revision: 267783 $
#$URL: file:///home/coder/svn-repositories/cod/cif/2/10/88/2108855.cif $
#------------------------------------------------------------------------------
#
# This file is available in the Crystallography Open Database (COD),
# http://www.crystallography.net/. The original data for this entry
# were provided by IUCr Journals, http://journals.iucr.org/.
#
# The file may be used within the scientific community so long as
# proper attribution is given to the journal article from which the
# data were obtained.
#
data_2108855
loop_
_publ_author_name
'Bujak, Maciej'
'Podsiad\/lo, Marcin'
'Katrusiak, Andrzej'
_publ_section_title
;
 Properties and interactions -- melting point of tribromobenzene isomers
;
_journal_coeditor_code           LO5092
_journal_issue                   4
_journal_name_full               'Acta Crystallographica Section B'
_journal_page_first
;
;
_journal_paper_doi               10.1107/S2052520621006399
_journal_volume                  77
_journal_year                    2021
_chemical_formula_moiety         'C6 H3 Br3'
_chemical_formula_sum            'C6 H3 Br3'
_chemical_formula_weight         314.78
_space_group_crystal_system      orthorhombic
_space_group_IT_number           19
_space_group_name_Hall           'P 2ac 2ab'
_space_group_name_H-M_alt        'P 21 21 21'
_atom_sites_solution_hydrogens   difmap
_atom_sites_solution_primary     direct
_atom_sites_solution_secondary   difmap
_audit_creation_method           SHELXL-2014/7
_cell_angle_alpha                90
_cell_angle_beta                 90
_cell_angle_gamma                90
_cell_formula_units_Z            4
_cell_length_a                   4.00341(11)
_cell_length_b                   13.4119(3)
_cell_length_c                   14.0916(4)
_cell_measurement_reflns_used    3792
_cell_measurement_temperature    100.0(1)
_cell_measurement_theta_max      30.83
_cell_measurement_theta_min      4.18
_cell_volume                     756.62(3)
_computing_cell_refinement
'CrysAlisPro 1.171.39.46 (Rigaku Oxford Diffraction, 2018)'
_computing_data_collection
'CrysAlisPro 1.171.39.46 (Rigaku Oxford Diffraction, 2018)'
_computing_data_reduction
'CrysAlisPro 1.171.39.46 (Rigaku Oxford Diffraction, 2018)'
_computing_molecular_graphics    'Mercury (Macrae at al., 2020)'
_computing_publication_material  'SHELXL-2014/7 (Sheldrick, 2014)'
_computing_structure_refinement  'SHELXL-2014/7 (Sheldrick, 2014)'
_computing_structure_solution    'SHELXS-97 (Sheldrick, 2008)'
_diffrn_ambient_temperature      100.0(1)
_diffrn_detector_area_resol_mean 16.1544
_diffrn_measured_fraction_theta_full 0.999
_diffrn_measured_fraction_theta_max 0.999
_diffrn_measurement_device_type  'Xcalibur, Eos'
_diffrn_measurement_method       '\w scans'
_diffrn_radiation_type           MoK\a
_diffrn_radiation_wavelength     0.71073
_diffrn_reflns_av_R_equivalents  0.0487
_diffrn_reflns_av_unetI/netI     0.0278
_diffrn_reflns_Laue_measured_fraction_full 0.999
_diffrn_reflns_Laue_measured_fraction_max 0.999
_diffrn_reflns_limit_h_max       4
_diffrn_reflns_limit_h_min       -4
_diffrn_reflns_limit_k_max       16
_diffrn_reflns_limit_k_min       -16
_diffrn_reflns_limit_l_max       17
_diffrn_reflns_limit_l_min       -17
_diffrn_reflns_number            10543
_diffrn_reflns_point_group_measured_fraction_full 0.999
_diffrn_reflns_point_group_measured_fraction_max 0.999
_diffrn_reflns_theta_full        25.242
_diffrn_reflns_theta_max         25.999
_diffrn_reflns_theta_min         2.891
_diffrn_source                   'fine-focus sealed X-ray tube'
_exptl_absorpt_coefficient_mu    15.897
_exptl_absorpt_correction_T_max  0.274
_exptl_absorpt_correction_T_min  0.074
_exptl_absorpt_correction_type   analytical
_exptl_absorpt_process_details
;
CrysAlisPro 1.171.39.46 (Rigaku Oxford Diffraction, 2018)
Analytical numeric absorption correction using a multifaceted crystal
model based on expressions derived by R.C. Clark & J.S. Reid.
(Clark, R. C. & Reid, J. S. (1995). Acta Cryst. A51, 887-897)
Empirical absorption correction using spherical harmonics,
implemented in SCALE3 ABSPACK scaling algorithm.
;
_exptl_crystal_colour            yellow
_exptl_crystal_density_diffrn    2.763
_exptl_crystal_density_method    'not measured'
_exptl_crystal_description       needle
_exptl_crystal_F_000             576
_exptl_crystal_size_max          0.35
_exptl_crystal_size_mid          0.16
_exptl_crystal_size_min          0.10
_refine_diff_density_max         0.344
_refine_diff_density_min         -0.369
_refine_diff_density_rms         0.088
_refine_ls_abs_structure_details
;
 Refined as an inversion twin.
;
_refine_ls_abs_structure_Flack   0.48(3)
_refine_ls_extinction_coef       0.00088(19)
_refine_ls_extinction_expression Fc^*^=kFc[1+0.001xFc^2^\l^3^/sin(2\q)]^-1/4^
_refine_ls_extinction_method     'SHELXL-2014/7 (Sheldrick 2014)'
_refine_ls_goodness_of_fit_ref   1.011
_refine_ls_hydrogen_treatment    constr
_refine_ls_matrix_type           full
_refine_ls_number_parameters     84
_refine_ls_number_reflns         1476
_refine_ls_number_restraints     0
_refine_ls_restrained_S_all      1.011
_refine_ls_R_factor_all          0.0213
_refine_ls_R_factor_gt           0.0184
_refine_ls_shift/su_max          0.001
_refine_ls_shift/su_mean         0.000
_refine_ls_structure_factor_coef Fsqd
_refine_ls_weighting_details
'w=1/[\s^2^(Fo^2^)+(0.0137P)^2^] where P=(Fo^2^+2Fc^2^)/3'
_refine_ls_weighting_scheme      calc
_refine_ls_wR_factor_gt          0.0352
_refine_ls_wR_factor_ref         0.0357
_reflns_Friedel_coverage         0.631
_reflns_Friedel_fraction_full    1.000
_reflns_Friedel_fraction_max     1.000
_reflns_number_gt                1395
_reflns_number_total             1476
_reflns_threshold_expression     'I > 2\s(I)'
_cod_data_source_file            lo5092sup1.cif
_cod_data_source_block           135TBB_100K
_cod_original_cell_volume        756.63(3)
_cod_database_code               2108855
_shelx_shelxl_version_number     2014/7
_shelx_space_group_comment
;
The symmetry employed for this shelxl refinement is uniquely defined
by the following loop, which should always be used as a source of
symmetry information in preference to the above space-group names.
They are only intended as comments.
;
_shelx_estimated_absorpt_t_min   0.072
_shelx_estimated_absorpt_t_max   0.299
_shelx_res_file
;

    135tbb_100k.res created by SHELXL-2014/7

TITL 135TBB_100K in P2(1)2(1)2(1)
CELL 0.71073   4.003414  13.411866  14.091644  90.0000  90.0000  90.0000
ZERR    4.00   0.000109   0.000315   0.000384   0.0000   0.0000   0.0000
LATT -1
SYMM 0.5-X, -Y, 0.5+Z
SYMM -X, 0.5+Y, 0.5-Z
SYMM 0.5+X, 0.5-Y, -Z
SFAC C H BR
UNIT 24 12 12
OMIT 0 52
HTAB
ACTA
SIZE 0.10 0.16 0.35
REM TEMP -173
L.S. 100
BOND $H
FMAP 2
PLAN 150
CONF
TWIN
WGHT    0.013700
EXTI    0.000878
BASF   0.48463
FVAR       0.37796
C11   1    0.298456    0.226788    0.336356    11.00000    0.01360    0.01059 =
         0.01851    0.00351    0.00431    0.00131
BR11  3    0.440778    0.105203    0.392172    11.00000    0.02094    0.01345 =
         0.02043    0.00186   -0.00119    0.00218
C12   1    0.134692    0.223979    0.250101    11.00000    0.01543    0.01167 =
         0.01564   -0.00224    0.00429   -0.00111
AFIX  43
H12   2    0.094061    0.163924    0.219194    11.00000   -1.20000
AFIX   0
C13   1    0.033853    0.313424    0.211589    11.00000    0.01230    0.02061 =
         0.01093   -0.00057    0.00065   -0.00230
BR13  3   -0.185864    0.311741    0.092098    11.00000    0.01949    0.02149 =
         0.01317    0.00085   -0.00109   -0.00136
C14   1    0.094127    0.403883    0.254349    11.00000    0.01543    0.01452 =
         0.01733    0.00245    0.00289   -0.00036
AFIX  43
H14   2    0.025279    0.463346    0.226598    11.00000   -1.20000
AFIX   0
C15   1    0.261544    0.402842    0.340429    11.00000    0.01465    0.01455 =
         0.02019   -0.00313    0.00629   -0.00457
BR15  3    0.355757    0.525174    0.402281    11.00000    0.02341    0.01254 =
         0.02334   -0.00308   -0.00300   -0.00225
C16   1    0.367095    0.315090    0.383085    11.00000    0.01181    0.02024 =
         0.01299   -0.00253   -0.00230   -0.00157
AFIX  43
H16   2    0.479572    0.315643    0.440827    11.00000   -1.20000
AFIX   0
HKLF 4

REM  135TBB_100K in P2(1)2(1)2(1)
REM R1 =  0.0184 for    1395 Fo > 4sig(Fo)  and  0.0213 for all    1476 data
REM     84 parameters refined using      0 restraints

END

WGHT      0.0137      0.0000

REM Instructions for potential hydrogen bonds
HTAB C12 Br15_$7

REM Highest difference peak  0.344,  deepest hole -0.369,  1-sigma level  0.088
Q1    1   0.2121  0.1057  0.4035  11.00000  0.05    0.34
Q2    1   0.4362  0.1819  0.4375  11.00000  0.05    0.34
Q3    1   0.0261  0.2637  0.2644  11.00000  0.05    0.33
Q4    1  -0.4242  0.3472  0.0900  11.00000  0.05    0.32
Q5    1   0.5404  0.1055  0.4942  11.00000  0.05    0.32
Q6    1   0.7228  0.1183  0.3988  11.00000  0.05    0.31
Q7    1   0.0631  0.2378  0.4003  11.00000  0.05    0.30
Q8    1   0.1180  0.3969  0.3047  11.00000  0.05    0.29
Q9    1  -0.0027  0.5274  0.4152  11.00000  0.05    0.29
Q10   1   0.4332  0.5374  0.4852  11.00000  0.05    0.29
Q11   1   0.1533  0.5739  0.4048  11.00000  0.05    0.27
Q12   1  -0.0717  0.3143 -0.0013  11.00000  0.05    0.27
Q13   1   0.5002  0.2508  0.4661  11.00000  0.05    0.27
Q14   1   0.2528  0.0581  0.2383  11.00000  0.05    0.27
Q15   1  -0.3057  0.2792 -0.0018  11.00000  0.05    0.27
Q16   1   0.6700  0.5396  0.3989  11.00000  0.05    0.26
Q17   1   0.2499  0.5224  0.4811  11.00000  0.05    0.26
Q18   1   0.2975  0.1367  0.4807  11.00000  0.05    0.26
Q19   1   0.7100  0.1778  0.3367  11.00000  0.05    0.26
Q20   1   0.4005  0.3834  0.3065  11.00000  0.05    0.26
...
;
_shelx_res_checksum              45822
_shelx_hkl_file
;
   0   0   2  284.00   15.48
   0   0   2  327.44   13.47
   0   0  -2  285.79   12.84
   0   0   2  277.77   15.57
   0   0  -2  280.39   14.00
   0   0  -3   46.11   10.71
   0   0  -3   33.68    7.63
   0   0   3   37.91    9.65
   0   0  -3   36.52    8.28
   0   0  -3   38.40    7.04
   0   0   3   39.01    6.62
   0   0   3   42.68    7.94
   0   0   3   40.82    9.32
   0   0  -3   45.22   12.38
   0   0  -4 9100.22  101.81
   0   0   4 9278.88  100.25
   0   0   5   39.34   12.89
   0   0  -5   34.28   15.25
   0   0  -5    8.50    8.89
   0   0   5   17.09    8.21
   0   0  -6 9142.09  150.74
   0   0   6 8616.07  133.69
   0   0   6 8928.41  117.15
   0   0  -6 8923.27  124.03
   0   0  -7   15.65   16.55
   0   0   7    3.56    7.08
   0   0   7   -3.89   11.25
   0   0  -7   18.80   11.95
   0   0   8 1015.59   44.26
   0   0  -8 1076.24   60.15
   0   0   8 1024.50   51.35
   0   0   9    1.87    7.97
   0   0   9   -0.51   12.51
   0   0  -9    8.53   18.48
   0   0  10 4817.88  104.08
   0   0  10 4935.60  120.86
   0   0 -11   -0.51   21.44
   0   0  11   22.24   15.34
   0   0  11    6.25   10.10
   0   0  12  752.61   52.24
   0   0  12  785.50   45.15
   0   0 -12  836.33   61.54
   0   0  13   14.21   13.76
   0   0 -13   -5.07   20.53
   0   0  13   -4.34    9.41
   0   0  14 1586.58   77.67
   0   0  14 1493.21   65.41
   0   0 -14 1622.64   88.82
   0   0  15    4.91   13.10
   0   0  15    4.72   10.54
   0   0 -15   14.34   21.90
   0   0 -16 1171.51   78.97
   0   0  16 1163.78   69.84
   0   0  16 1086.95   59.12
   0   0  17    8.57   10.77
   0   0 -17   22.92   20.38
   0   0  17   17.80   15.28
   0   0  18   36.18   13.18
   0   0  18   23.99   16.49
   0   0 -18   20.58   20.98
   0   0 -19  -16.66   23.26
   0   0 -19   11.57   19.30
   0   0  19  -10.30   13.57
   0   0  19   11.26   15.47
   0   0 -20  478.30   56.54
   0   0 -20  408.07   47.37
   0   0  20  482.05   49.48
   0  -1   2    0.41    3.42
   0   1   2    6.03    4.33
   0   1   2   19.49    5.99
   0  -1  -2    2.61    5.88
   0   1   2    6.10    2.26
   0  -1   2    1.37    2.45
   0   1  -2    2.49    2.74
   0  -1   2    2.46    2.63
   0  -1  -2    8.12    4.66
   0  -1   2    8.69    2.81
   0  -1   2    3.58    1.95
   0  -1  -2    8.45    4.84
   0   1   2    0.35    4.37
   0   1  -2    9.92    3.14
   0  -1  -2    9.63    2.45
   0   1  -2    4.29    2.67
   0  -1  -2    8.48    3.40
   0   1  -3  150.63    9.98
   0  -1  -3  162.43   16.07
   0  -1   3  187.48   11.71
   0  -1   3  192.48   13.61
   0  -1  -3  182.01   16.36
   0  -1   3  202.54   13.84
   0   1  -3  199.71   14.46
   0   1  -3  183.33   15.29
   0  -1  -3  200.04   11.87
   0  -1  -3  203.08   19.10
   0   1   3  176.75   17.20
   0   1  -3  181.16   11.56
   0   1   3  197.52   16.71
   0  -1   3  183.68   11.20
   0   1   3  197.90   11.49
   0  -1   4   -0.13    5.55
   0   1   4    1.57   10.70
   0   1  -4   -4.49   10.13
   0  -1  -4    0.17    4.17
   0   1   4   -7.52   10.75
   0  -1  -4   -1.65   12.72
   0   1   4   -3.00    4.94
   0   1  -4    2.75    6.18
   0  -1   4   -6.26    6.90
   0   1   5  164.62   14.06
   0   1  -5  171.84   15.77
   0  -1   5  173.84   16.07
   0   1   5  158.14   20.68
   0  -1  -5  153.97   21.73
   0  -1   5  160.78   15.62
   0   1  -5  150.20   18.24
   0   1   5  168.28   20.18
   0  -1  -6   26.37   16.75
   0   1   6   27.96    7.55
   0  -1   6   21.81    7.79
   0   1   6   25.15   13.95
   0  -1   6   32.10    8.81
   0   1  -6   25.63    9.59
   0   1  -6   30.22   14.99
   0   1   6   26.48   13.91
   0  -1   7 1035.10   42.98
   0   1  -7 1049.15   44.16
   0   1   7 1098.26   41.77
   0   1  -7 1039.07   53.62
   0  -1  -7 1189.04   62.48
   0  -1   7 1010.11   44.94
   0   1   7 1215.13   57.89
   0   1  -8    5.78   14.63
   0   1   8   11.04    7.34
   0  -1   8   11.21   10.66
   0   1   8   28.76   15.19
   0  -1   8   21.72    9.09
   0   1  -8   15.89   10.11
   0  -1  -8   34.85   22.56
   0   1  -9   21.66   14.91
   0   1   9   18.75    9.01
   0  -1   9   24.11   12.30
   0  -1  -9    9.91   21.48
   0   1  -9   20.50   17.30
   0  -1   9    8.30    8.25
   0   1   9   14.90   12.56
   0   1  10   70.19   20.84
   0   1 -10   77.24   23.70
   0   1  10   68.10   14.02
   0  -1  10   85.66   16.26
   0   1 -10   56.94   17.78
   0  -1  10   71.42   17.41
   0  -1 -10  144.66   30.33
   0  -1 -11  461.77   49.19
   0   1 -11  481.75   40.29
   0  -1  11  454.78   34.23
   0   1  11  412.86   40.15
   0   1  11  465.43   33.98
   0  -1  11  408.64   36.47
   0   1 -11  474.33   45.45
   0   1 -12  -23.63   24.91
   0  -1  12   18.47   11.51
   0  -1 -12    6.87   21.73
   0   1  12   13.52   10.15
   0   1  12   61.73   19.81
   0  -1  12   26.23   15.72
   0  -1  13  289.40   33.70
   0  -1  13  290.93   29.06
   0   1  13  263.10   27.30
   0  -1 -13  246.58   37.47
   0   1  13  240.35   32.33
   0   1 -13  264.44   37.64
   0  -1 -14   27.29   21.14
   0   1 -14   60.54   24.47
   0  -1  14   36.07   15.91
   0   1  14   28.57   12.05
   0   1  14   65.04   20.09
   0  -1  14   37.15   13.01
   0   1 -15   19.73   19.08
   0   1  15   32.54   13.08
   0  -1  15   11.22   10.00
   0   1  15   37.24   19.13
   0  -1 -15   16.47   20.80
   0  -1  15    4.58   12.50
   0   1  16    3.36    9.58
   0  -1 -16   42.27   20.50
   0   1 -16  -16.53   23.95
   0  -1  16   -3.38   10.41
   0  -1  16   28.82   14.41
   0   1  16   25.35   19.01
   0  -1 -16   50.60   26.56
   0   1  17  484.63   40.29
   0  -1 -17  507.65   55.61
   0   1  17  512.65   48.98
   0  -1  17  455.98   45.58
   0  -1  17  474.00   41.31
   0   1 -17  449.56   51.64
   0  -1 -17  432.52   45.94
   0   1  18   -7.24   15.13
   0  -1 -18   23.34   21.92
   0  -1  18   17.35   14.52
   0   1 -18    2.00   21.86
   0  -1  18   -0.53   10.50
   0  -1 -18   10.19   18.12
   0   1  18   10.70   10.84
   0  -1  19   68.75   22.47
   0  -1 -19   -6.77   20.98
   0  -1  19   41.62   16.36
   0   1  19   22.49   18.85
   0  -1 -19   -0.77   16.31
   0   1 -19  -20.46   24.56
   0   1  20   17.44   17.27
   0  -1  20   22.84   13.71
   0   1 -20   50.06   23.90
   0   1 -20    3.55   22.01
   0  -1 -20   35.69   21.72
   0  -1 -20    2.07   25.03
   0   1  21  105.29   27.06
   0  -1  21  208.98   36.60
   0  -2   0    9.95    2.38
   0  -2   0   10.71    2.13
   0  -2   0   14.91    2.71
   0   2   0   12.11    2.40
   0   2   0   11.22    2.64
   0  -2   1    6.98    2.13
   0   2   1    3.56    2.62
   0  -2  -1    6.76    3.25
   0   2   1    5.59    2.93
   0   2  -1    8.88    2.46
   0   2   1    1.62    2.91
   0  -2   1    5.48    2.47
   0   2  -1    4.43    2.37
   0  -2  -1    3.74    2.41
   0  -2  -1    7.88    2.16
   0  -2  -1    3.64    2.49
   0   2   1    5.85    1.84
   0   2  -2  201.45    9.52
   0   2   2  192.59   10.51
   0  -2   2  194.58    9.38
   0   2  -2  184.49   11.66
   0  -2  -2  187.30   13.55
   0  -2  -2  208.35   14.41
   0   2   2  218.64   14.91
   0   2   2  206.97   14.35
   0  -2  -2  189.17   10.28
   0  -2   2  181.46   11.63
   0   2   2  193.70   14.18
   0   2  -2  212.21    9.21
   0  -2   2  186.71    8.43
   0  -2  -2  198.95    9.08
   0  -2  -2  189.32   14.61
   0  -2   3  568.16   23.47
   0   2   3  594.83   28.89
   0   2   3  554.01   28.74
   0  -2   3  540.97   17.90
   0   2   3  580.62   17.91
   0  -2  -3  573.38   17.81
   0   2  -3  549.01   19.01
   0  -2   3  546.82   16.17
   0  -2  -3  558.56   28.30
   0  -2  -3  565.81   20.60
   0   2  -3  544.70   18.59
   0   2  -4  382.13   18.31
   0   2  -4  355.81   19.76
   0  -2   4  373.99   16.88
   0  -2  -4  386.27   20.81
   0   2   4  411.78   17.91
   0  -2   4  390.95   22.16
   0   2   4  376.97   26.99
   0   2   4  365.75   26.84
   0  -2  -4  401.49   28.22
   0  -2   5  233.98   18.96
   0  -2  -5  239.88   18.30
   0   2   5  221.10   23.87
   0   2  -5  245.51   20.77
   0  -2   5  220.47   15.78
   0   2   5  233.67   23.68
   0   2   5  223.29   15.06
   0   2  -5  242.26   17.05
   0  -2  -5  204.18   23.98
   0  -2  -6   66.62   12.27
   0   2  -6   59.06   11.03
   0   2   6   70.58   10.00
   0  -2   6   52.47    7.57
   0   2  -6   51.70   12.44
   0  -2   6   73.59   12.85
   0   2   6   50.85   15.55
   0   2   6   58.29   16.20
   0  -2   6   50.16    9.59
   0  -2  -6   59.28   17.78
   0   2   7  384.55   23.85
   0   2  -7  376.49   30.79
   0  -2  -7  401.57   18.35
   0   2   7  414.41   35.91
   0   2   7  385.94   34.80
   0  -2   7  398.09   14.68
   0  -2  -7  423.91   37.79
   0  -2   7  396.24   26.43
   0   2  -7  411.07   27.24
   0  -2   7  449.10   29.77
   0   2   8  102.72   13.58
   0   2   8  118.21    7.72
   0   2  -8  108.26    6.08
   0   2   8  135.20   23.89
   0   2  -8  106.12   16.72
   0  -2   8  103.28   15.72
   0  -2  -8  165.99   28.62
   0   2   8  114.27   23.69
   0   2  -8  104.06   21.90
   0  -2   8  113.94   16.56
   0   2   9   33.79   10.36
   0   2  -9   48.42   14.69
   0   2  -9   44.19   19.62
   0  -2   9   40.76   14.10
   0   2   9   26.15   18.28
   0  -2  -9   11.59   21.25
   0  -2   9   21.29    9.41
   0   2  10  166.45   20.13
   0  -2 -10  144.10   30.36
   0   2  10  157.75   28.87
   0   2 -10  145.66   28.15
   0  -2  10  146.59   22.35
   0   2 -10  179.91   24.89
   0  -2  10  166.80   21.96
   0  -2  11  563.78   40.71
   0   2 -11  478.12   39.42
   0  -2  11  536.63   37.93
   0  -2 -11  610.23   54.77
   0   2 -11  555.35   48.94
   0   2  11  562.57   48.49
   0   2  11  595.76   37.78
   0   2 -12   39.58   21.01
   0   2 -12   16.70   14.33
   0  -2  12   62.19   18.55
   0  -2 -12   47.23   19.32
   0  -2 -12   30.29   25.11
   0   2  12   47.94   13.33
   0  -2  12   30.70   11.87
   0   2  12   54.25   19.08
   0   2  13    5.83    8.50
   0   2 -13   32.57   16.39
   0  -2 -13   29.46   25.10
   0   2 -13  -19.97   19.29
   0   2  13   -7.46   16.60
   0  -2  13   15.62    9.84
   0  -2  13   12.08   13.91
   0  -2 -13    3.67   15.18
   0  -2 -14  136.40   32.58
   0   2  14  101.61   24.63
   0  -2 -14  108.51   24.19
   0  -2  14  104.57   20.79
   0   2  14  145.80   21.84
   0   2 -14  142.76   30.11
   0  -2  14  130.21   23.94
   0   2 -15  386.57   45.73
   0   2  15  353.17   40.58
   0  -2  15  355.63   35.65
   0  -2 -15  357.36   39.20
   0  -2 -15  407.17   48.28
   0   2  15  373.79   34.08
   0  -2  15  361.33   38.08
   0   2 -16  -10.00   20.62
   0   2  16  -12.31   16.15
   0  -2  16    4.80   13.50
   0  -2 -16   30.93   22.88
   0   2  16    3.53    9.39
   0  -2 -16  -19.00   17.26
   0  -2  16    2.61   10.22
   0   2  17   59.41   20.42
   0  -2  17  108.41   22.29
   0  -2 -17   68.70   21.40
   0  -2 -17   88.67   31.45
   0   2 -17  111.85   30.93
   0   2  17  120.22   21.61
   0  -2  17   81.42   20.32
   0   2  18   57.98   16.95
   0  -2  18   69.32   19.94
   0  -2 -18   32.21   19.16
   0  -2  18   72.32   18.57
   0   2  18   61.41   22.31
   0  -2 -18   80.86   28.39
   0   2 -18   12.38   21.52
   0  -2  19  125.81   25.40
   0  -2 -19   83.92   29.91
   0   2  19  121.38   26.47
   0  -2  19   87.54   23.92
   0   2 -19   90.61   30.18
   0  -2 -19  109.28   26.88
   0  -2 -20   -5.86   17.55
   0   2  20   18.80   17.68
   0  -2  20   26.40   15.65
   0   2 -20  -25.80   25.37
   0   3   0    0.41    3.22
   0  -3   0    3.22    2.46
   0  -3   0    1.78    3.41
   0   3   0    4.17    2.61
   0  -3   0    5.94    3.63
   0   3   0   -3.00    2.99
   0  -3   1  964.26   20.88
   0  -3  -1  973.35   22.29
   0   3  -1  908.08   20.38
   0  -3   1  974.01   24.90
   0  -3  -1  932.16   27.74
   0   3   1  977.16   22.88
   0   3  -1  912.51   23.46
   0  -3  -1  887.30   22.76
   0   3   1  929.55   19.97
   0   3   1  940.24   24.91
   0  -3  -1  928.33   20.34
   0   3   2 8033.96   87.33
   0  -3   2 7866.90   79.38
   0   3   2 7995.75   91.14
   0  -3  -2 8116.53   61.75
   0  -3  -2 8102.40   70.68
   0   3  -2 8143.71   63.66
   0   3  -2 8090.99   57.65
   0   3   3  292.43   22.29
   0  -3  -3  253.46   12.92
   0  -3  -3  275.07   15.49
   0   3  -3  265.32   14.05
   0   3  -3  254.04   12.89
   0  -3   3  230.02   16.20
   0   3   3  306.49   23.10
   0   3   4 2799.03   45.55
   0   3   4 2756.81   69.97
   0   3  -4 2623.64   47.41
   0  -3   4 2704.68   58.48
   0  -3   4 2783.81   41.41
   0   3   4 2750.10   69.95
   0  -3  -4 2643.04   65.75
   0  -3  -4 2662.83   51.87
   0   3  -4 2757.21   47.21
   0  -3  -5  788.87   40.84
   0  -3  -5  754.42   31.23
   0   3   5  828.47   43.07
   0   3  -5  794.59   30.88
   0   3   5  818.71   42.85
   0   3  -5  738.04   27.73
   0  -3   5  813.25   34.61
   0  -3   5  811.99   26.42
   0   3   5  826.19   27.78
   0  -3  -6  989.86   39.35
   0   3   6 1030.87   34.23
   0   3   6 1038.68   51.94
   0  -3   6 1029.32   42.86
   0   3   6 1005.91   52.02
   0  -3   6 1015.65   34.08
   0  -3  -6  998.93   50.50
   0   3  -6 1026.85   40.90
   0   3  -6  939.76   35.21
   0   3  -7    9.78    8.85
   0   3   7   -8.00   15.63
   0  -3   7   12.59    9.37
   0  -3   7    2.31    6.70
   0   3  -7   16.26   12.33
   0  -3  -7   14.45   10.77
   0  -3  -7   18.96   17.05
   0  -3   7   21.62    8.29
   0   3   7   14.84    6.09
   0   3   7   11.50   12.83
   0  -3  -8 4164.91   92.33
   0  -3   8 4182.62   97.48
   0   3   8 4352.24  118.44
   0  -3  -8 4425.40   75.81
   0  -3   8 4413.83   63.36
   0   3  -8 4176.85   89.14
   0  -3   8 4339.84   88.84
   0   3   8 4374.36  119.13
   0   3  -8 4241.70  102.60
   0  -3  -8 4258.12  116.73
   0   3   8 4290.51   81.67
   0   3  -9  463.40   33.42
   0  -3   9  484.72   32.99
   0   3  -9  440.88   37.99
   0  -3  -9  440.55   33.26
   0  -3   9  508.62   17.96
   0  -3  -9  518.98   22.47
   0  -3   9  463.26   35.04
   0   3   9  479.31   43.84
   0  -3  -9  474.15   44.46
   0   3   9  481.78   29.71
   0   3   9  509.83   44.82
   0   3  10  179.75   30.90
   0  -3 -10  156.79   31.63
   0  -3  10  142.66   19.93
   0  -3 -10  118.11   21.23
   0   3  10  171.99   31.17
   0  -3  10  153.45    7.19
   0   3 -10  124.53   26.19
   0   3  10  164.88   19.30
   0   3  10  160.19    9.71
   0  -3  10  182.42   24.13
   0   3 -10  138.71   22.25
   0   3  11   57.01   14.35
   0  -3  11   74.22   18.00
   0   3 -11   39.67   20.42
   0  -3 -11   86.29   20.87
   0  -3  11   69.06   17.60
   0  -3 -11   41.34   23.13
   0   3  11   95.77   25.76
   0   3 -11   59.80   17.94
   0  -3 -12 1431.94   68.70
   0  -3  12 1374.67   64.72
   0   3 -12 1439.54   67.84
   0  -3 -12 1512.07   84.67
   0   3  12 1553.14   81.12
   0   3  12 1428.06   58.66
   0  -3  12 1463.30   66.60
   0   3 -12 1295.39   73.93
   0   3 -13   68.92   25.67
   0   3  13   66.57   15.40
   0  -3 -13   74.44   21.83
   0  -3 -13   42.00   25.02
   0   3 -13   68.34   21.63
   0   3  13   69.86   21.45
   0  -3  13   68.42   17.24
   0  -3  13   58.70   15.47
   0   3 -14  867.67   64.29
   0  -3 -14 1011.83   72.01
   0   3 -14  842.41   59.00
   0  -3  14  999.33   59.17
   0   3  14 1036.84   68.69
   0  -3  14  982.21   57.63
   0  -3 -14  931.99   60.20
   0   3  14 1054.68   55.27
   0   3  15  101.35   26.22
   0   3 -15   53.62   24.06
   0   3  15   77.23   17.17
   0  -3 -15   87.45   22.71
   0  -3 -15  101.91   31.09
   0  -3  15   95.69   20.90
   0  -3  15   85.70   19.13
   0   3 -16   58.43   25.39
   0  -3 -16   31.29   22.76
   0   3  16   43.39   18.99
   0  -3  16   47.12   17.19
   0  -3  16   35.74   14.51
   0  -3 -16    8.57   17.59
   0   3  16   40.33   13.52
   0  -3 -17   11.69   16.73
   0  -3  17   25.82   14.98
   0  -3  17    6.31   12.19
   0   3 -17   14.81   21.09
   0   3  17   15.46   14.60
   0  -3 -17    8.65   21.04
   0   3  17   -5.59   10.80
   0  -3 -18  593.35   60.33
   0   3 -18  498.60   55.60
   0  -3  18  521.74   48.16
   0   3  18  620.40   55.63
   0  -3  18  599.56   49.71
   0  -3 -18  597.11   53.88
   0  -3  19   44.29   18.66
   0   3 -19  -18.35   22.88
   0  -3 -19   22.50   23.95
   0   3  19   52.04   22.20
   0  -3 -19   21.98   16.38
   0   3  20   81.15   24.84
   0  -3  20   75.04   21.36
   0   3 -20   23.68   22.69
   0  -4   0    5.61    2.81
   0  -4   0   10.21    4.22
   0  -4   0    0.84    4.40
   0   4   0    6.74    4.28
   0   4  -1 2183.87   35.67
   0   4   1 2144.09   40.52
   0  -4  -1 2272.25   38.91
   0  -4  -1 2182.94   36.42
   0  -4   1 2130.82   41.43
   0   4  -1 2274.54   33.05
   0  -4  -2   16.02    4.48
   0  -4  -2    7.56    4.55
   0  -4   2   -2.33    6.87
   0   4  -2    4.39    3.98
   0   4   2    8.59    6.27
   0   4   3 7709.08  107.47
   0   4   3 7868.66  105.30
   0   4  -3 7766.54   68.85
   0   4  -3 7684.23   74.63
   0  -4  -3 7734.77   71.59
   0  -4  -3 7764.26   81.78
   0   4  -4   54.45    7.85
   0  -4  -4   53.68    9.34
   0  -4   4   65.71   12.20
   0   4  -4   49.82    7.20
   0   4   4   72.78   14.03
   0   4   4   43.86   11.36
   0  -4  -5    7.04   11.43
   0   4   5   23.77   11.40
   0  -4  -5   14.75    7.27
   0   4  -5   20.27    7.25
   0  -4   5   13.53    4.39
   0  -4   5   13.11    8.67
   0   4   5    1.68    9.98
   0   4  -5   18.51    6.77
   0   4   6   37.07   13.15
   0  -4   6   42.21    8.15
   0  -4  -6   24.99   15.79
   0   4  -6   27.66    8.04
   0   4   6   36.17    8.44
   0  -4   6   41.57   11.47
   0   4  -6   41.39    9.76
   0   4   6   59.75   18.56
   0  -4  -6   26.84    9.59
   0  -4  -7 3537.28   98.64
   0  -4  -7 3393.73   77.62
   0   4  -7 3541.06   81.17
   0   4   7 3585.80  103.40
   0   4  -7 3563.02   73.79
   0  -4   7 3432.91   86.13
   0   4   7 3598.26   68.67
   0   4   7 3586.75  104.13
   0  -4   7 3682.62   69.59
   0  -4   8  181.31   22.77
   0  -4  -8  138.67   18.48
   0   4   8  166.56   16.70
   0  -4   8  210.84   20.12
   0   4  -8  170.91   23.06
   0  -4  -8  142.57   26.57
   0   4   8  153.88   25.04
   0  -4   8  153.73   17.14
   0   4  -8  203.70   21.53
   0   4   8  159.15   24.60
   0   4   9 1928.59   57.24
   0   4  -9 1817.82   71.30
   0  -4   9 1940.18   48.95
   0  -4  -9 1941.21   57.66
   0  -4   9 1888.04   61.67
   0   4  -9 1954.92   65.47
   0  -4   9 1917.39   71.53
   0   4   9 1869.39   84.38
   0   4   9 1874.25   83.25
   0  -4  -9 1771.34   64.39
   0  -4  -9 1716.37   80.87
   0   4  10  -11.33   18.70
   0   4 -10  -15.23   17.15
   0  -4  10    5.55    9.98
   0  -4 -10    1.45   22.59
   0   4  10    3.04    7.76
   0  -4  10   -2.96    5.14
   0   4 -10   12.57   12.76
   0  -4  10    0.30   12.12
   0  -4 -10  -10.20   13.21
   0  -4 -10    4.77    6.56
   0   4  10    7.84   17.51
   0   4  11  853.30   61.96
   0   4 -11  752.84   54.18
   0   4 -11  730.60   46.55
   0  -4 -11  770.55   61.35
   0  -4  11  822.05   47.07
   0   4  11  837.72   42.27
   0  -4  11  794.30   50.14
   0  -4 -11  781.50   48.39
   0   4  11  833.97   62.56
   0  -4  12  191.22   26.97
   0   4  12  243.15   36.45
   0   4 -12  216.99   33.03
   0   4 -12  199.26   27.76
   0  -4 -12  203.40   28.58
   0  -4 -12  198.75   37.67
   0   4  12  200.48   22.39
   0  -4  12  191.21   25.37
   0   4 -13 1027.27   66.88
   0   4  13 1000.47   50.41
   0  -4 -13 1069.75   74.58
   0  -4  13  929.70   56.86
   0   4 -13  947.27   57.95
   0  -4  13  889.53   53.84
   0   4  13  955.04   67.34
   0  -4 -13  925.10   55.31
   0   4 -14   31.01   19.20
   0  -4 -14   57.53   27.32
   0   4  14   63.28   22.62
   0   4  14   67.96   16.38
   0  -4  14   42.42   15.34
   0   4 -14   51.14   21.32
   0  -4 -14   28.31   16.78
   0  -4  14   29.24   16.09
   0   4  15  103.69   26.83
   0   4 -15  136.23   27.73
   0  -4 -15   78.39   22.23
   0  -4  15   92.31   21.44
   0  -4  15  110.03   22.83
   0   4 -15   60.50   22.58
   0  -4 -15   85.64   29.23
   0   4  15  100.49   19.32
   0  -4 -16   93.31   30.65
   0  -4  16   70.24   19.65
   0   4 -16   87.08   28.02
   0  -4 -16   37.82   20.13
   0  -4  16   53.62   16.59
   0   4  16   50.88   21.38
   0   4  16   79.21   17.19
   0   4 -16   33.56   17.51
   0  -4  17  279.82   34.13
   0  -4  17  361.17   39.42
   0  -4 -17  348.62   39.95
   0   4  17  325.49   42.48
   0   4 -17  276.15   40.77
   0  -4 -17  365.19   50.74
   0  -4  18  103.28   24.06
   0  -4 -18   65.85   20.83
   0   4  18  109.42   27.83
   0   4 -18  104.77   29.66
   0  -4 -18   68.14   29.37
   0  -4  19  138.42   26.63
   0  -4 -19  106.94   27.25
   0   4  19  175.69   32.82
   0   4 -19  145.10   35.27
   0   4  20   39.94   21.33
   0  -4  20  -12.83   16.03
   0   4 -20    4.62   21.61
   0  -5   0    1.08    4.72
   0   5   0    2.49    3.81
   0   5   0    6.60    4.82
   0  -5   0    5.49    4.99
   0  -5  -1  258.56   14.78
   0  -5   1  267.45   15.43
   0   5  -1  268.98   14.64
   0   5   1  253.70   15.74
   0  -5   1  259.11   16.56
   0   5  -1  255.66   12.99
   0  -5  -1  253.42   14.90
   0  -5   2  681.42   28.31
   0  -5  -2  710.41   23.66
   0   5  -2  713.11   23.26
   0  -5  -2  714.96   25.48
   0   5   2  702.31   29.22
   0   5   3   26.11    9.93
   0  -5  -3   13.96    4.77
   0  -5  -3   16.09    6.42
   0   5  -3   16.99    6.05
   0   5  -3   11.62    4.20
   0  -5   3   -1.74    8.19
   0  -5   4  371.45   10.71
   0   5  -4  342.26   17.23
   0  -5  -4  354.80   17.71
   0  -5   4  326.82   22.90
   0   5  -4  356.24   18.69
   0  -5  -4  342.82   20.35
   0   5   4  376.84   28.26
   0   5   4  392.83   28.81
   0   5   5  544.53   36.38
   0   5   5  589.31   38.07
   0   5  -5  523.19   24.86
   0  -5   5  534.91   31.55
   0  -5  -5  526.64   27.15
   0   5  -5  547.34   24.26
   0   5   6 1048.91   53.88
   0   5  -6 1084.23   37.56
   0  -5   6 1117.69   48.50
   0  -5   6 1120.12   33.11
   0   5   6 1103.09   55.81
   0   5  -6 1108.47   38.69
   0  -5  -6 1096.13   41.51
   0  -5   7    8.08    5.95
   0  -5   7   14.04   10.79
   0   5  -7   -0.12    8.74
   0   5   7    8.82   15.65
   0   5  -7  -15.11    9.95
   0  -5  -7   -4.56    9.02
   0   5   7   -3.98   14.44
   0  -5  -8  251.80   32.18
   0  -5  -8  264.56   25.59
   0   5   8  265.00   20.82
   0  -5   8  281.17   28.63
   0   5   8  240.48   31.97
   0   5  -8  248.97   23.37
   0   5   8  217.67   30.89
   0   5  -8  242.01   23.99
   0  -5   8  281.51   21.21
   0  -5  -9  234.12   25.52
   0   5  -9  222.23   23.91
   0   5   9  240.26   21.38
   0  -5   9  256.64   23.08
   0  -5   9  252.23   29.02
   0  -5  -9  205.60   32.49
   0  -5  -9  239.19   26.60
   0   5  -9  206.33   25.96
   0   5   9  230.78   32.90
   0   5   9  261.28   34.19
   0  -5   9  221.13   21.86
   0   5  10  557.31   50.50
   0  -5  10  518.00   34.57
   0  -5 -10  488.04   36.87
   0   5  10  501.86   31.15
   0  -5  10  560.56   29.36
   0  -5 -10  505.81   31.92
   0  -5 -10  521.85   48.82
   0   5 -10  427.54   34.16
   0  -5  10  507.54   40.67
   0   5  10  569.45   50.81
   0   5 -10  431.11   38.86
   0  -5 -11   58.25   11.21
   0   5 -11   43.81   15.42
   0   5  11   53.67   23.85
   0   5  11   58.21   24.75
   0   5 -11   57.60   21.12
   0   5  11   47.42   11.75
   0  -5  11   43.93   12.84
   0  -5  11   55.68   17.33
   0  -5 -11   40.77   15.30
   0  -5 -11   32.59   20.48
   0  -5 -12  437.74   47.32
   0  -5  12  531.35   39.05
   0  -5 -12  446.32   37.89
   0   5  12  532.60   35.19
   0   5 -12  581.17   44.39
   0   5  12  543.14   53.89
   0  -5  12  505.29   43.32
   0   5 -12  444.79   42.77
   0   5  12  558.28   52.71
   0   5 -13   90.01   21.50
   0  -5 -13   40.44   16.16
   0  -5  13   54.80   15.67
   0  -5 -13   76.38   27.51
   0  -5  13   87.16   21.28
   0   5  13   88.44   16.07
   0   5 -13   75.62   22.33
   0   5  13   47.07   20.81
   0  -5  14  184.43   28.08
   0   5 -14  195.87   33.97
   0   5  14  160.05   30.57
   0  -5 -14  213.89   38.47
   0  -5  14  189.92   26.07
   0  -5 -14  179.19   27.91
   0   5  14  211.70   25.12
   0   5 -14  174.13   30.85
   0  -5 -15    4.95   22.26
   0   5  15   23.31   18.90
   0   5  15   43.27   14.01
   0  -5  15   58.52   19.71
   0   5 -15   86.29   24.74
   0   5 -15   42.65   16.24
   0  -5 -15   67.31   21.47
   0  -5  15   33.59   15.22
   0   5  16  392.94   46.58
   0   5 -16  357.43   43.22
   0   5 -16  468.56   51.38
   0  -5  16  397.53   39.13
   0  -5  16  458.86   45.05
   0  -5 -16  346.42   41.07
   0  -5  17   10.19   13.14
   0   5  17  -19.01   19.22
   0   5 -17   16.19   17.12
   0  -5 -17   29.26   18.89
   0   5 -17    8.82   19.66
   0   5  18  -37.68   18.58
   0  -5 -18   18.07   15.87
   0  -5  18   -0.14   15.30
   0   5 -18  -11.43   21.01
   0  -5  19   16.14   16.09
   0   5 -19   15.46   21.50
   0  -5 -19   28.41   20.99
   0   5  19   -0.79   16.30
   0   5 -20  146.58   34.57
   0  -5  20  149.15   29.60
   0  -6   0  264.62   16.71
   0   6   0  250.45   15.70
   0  -6   0  276.62   18.11
   0   6   0  242.86   15.03
   0  -6  -1   83.65   10.25
   0  -6  -1   72.68    9.44
   0   6  -1   86.80    5.36
   0  -6   1   77.93   11.21
   0   6   1   69.26    9.31
   0   6  -1   71.49    8.65
   0  -6   1   69.25    9.58
   0   6  -1   73.63    8.34
   0   6   2  361.83   22.60
   0   6  -2  367.55   18.47
   0  -6  -2  366.63   19.90
   0  -6   2  359.27   22.14
   0   6  -2  370.00   16.92
   0  -6  -2  351.60   18.47
   0  -6  -3  678.85   25.77
   0   6   3  698.20   34.65
   0  -6  -3  684.68   28.47
   0   6  -3  643.32   25.12
   0  -6   3  695.22   32.86
   0   6  -4  145.71   11.98
   0  -6  -4  156.96   14.96
   0   6  -4  158.94   13.79
   0  -6   4  171.68   18.46
   0  -6  -4  140.96   12.43
   0   6   4  159.31   20.01
   0   6  -5   -5.77    6.69
   0  -6  -5   -2.38    6.76
   0   6   5    8.02   11.38
   0  -6  -5    5.00    4.66
   0  -6   5    3.55    2.22
   0  -6   5    4.03    8.69
   0   6   5    3.86   10.25
   0   6  -5    2.26    5.09
   0   6  -6  634.94   29.67
   0  -6  -6  629.12   31.92
   0   6  -6  608.96   28.58
   0   6   6  618.99   42.85
   0  -6   6  654.42   38.49
   0   6   6  670.41   44.31
   0   6  -7  323.22   23.13
   0   6   7  315.89   34.38
   0  -6  -7  275.56   24.10
   0   6  -7  308.12   23.12
   0   6   7  260.52   31.18
   0  -6   7  260.92   26.07
   0  -6   7  312.65   19.79
   0  -6   8  187.51   17.08
   0  -6   8  192.46   25.46
   0   6   8  236.22   33.19
   0   6  -8  165.49   20.45
   0   6   8  161.09   29.45
   0   6  -8  141.69   18.88
   0  -6  -8  180.11   21.91
   0   6  -9  130.73   21.06
   0   6  -9  117.84   18.52
   0  -6   9  158.11   22.04
   0  -6   9  128.95   16.29
   0  -6   9  125.30   21.73
   0   6   9  136.60   29.22
   0  -6  -9  161.59   22.97
   0   6   9  104.17   24.33
   0  -6 -10  468.45   34.76
   0  -6 -10  431.14   35.50
   0   6  10  567.61   51.22
   0  -6  10  492.11   41.17
   0  -6  10  532.37   35.06
   0   6  10  544.90   49.72
   0  -6  10  497.26   32.88
   0   6 -10  462.87   36.16
   0   6 -10  459.41   38.62
   0  -6  11  252.35   25.05
   0  -6  11  223.49   30.19
   0  -6 -11  284.90   25.19
   0  -6  11  233.88   20.89
   0   6 -11  235.31   31.70
   0   6  11  215.55   35.19
   0   6 -11  231.31   26.74
   0  -6 -11  218.50   27.71
   0   6  11  232.49   35.60
   0   6  12  201.28   22.04
   0  -6  12  214.30   25.79
   0  -6  12  163.23   26.72
   0   6 -12  196.82   27.67
   0   6 -12  147.65   28.12
   0   6  12  183.46   32.02
   0  -6 -12  160.37   25.50
   0   6  12  179.38   32.72
   0   6  13    5.78    7.86
   0   6 -13    8.16   18.34
   0   6 -13    6.43   13.71
   0   6  13    7.48   17.09
   0  -6  13    6.77   10.76
   0  -6  13   10.70   13.61
   0  -6 -13  -11.75   14.32
   0   6  13   10.89   16.60
   0   6 -14   13.83   16.27
   0  -6 -14   18.57   16.07
   0  -6  14   36.35   17.51
   0   6  14   75.45   25.71
   0   6  14   28.20   10.74
   0  -6  14   37.04   13.70
   0   6 -14   43.60   19.17
   0   6 -15   27.95   20.69
   0  -6  15   -2.72   15.79
   0   6  15   26.52   20.29
   0  -6 -15   12.23   16.96
   0   6 -15  -23.47   18.20
   0  -6  16  302.60   37.86
   0   6 -16  327.91   44.87
   0   6 -16  178.28   33.21
   0   6  16  305.72   41.85
   0  -6 -16  196.14   31.85
   0  -6  17   23.97   18.11
   0  -6 -17   21.43   17.17
   0   6 -17   25.09   21.83
   0   6  17   42.84   21.62
   0   6 -17   34.07   20.72
   0   6  18  102.13   27.21
   0  -6 -18   43.72   21.10
   0  -6  18  108.64   26.25
   0   6 -18   64.13   27.33
   0   6 -18  104.25   28.18
   0  -6  19  -32.75   17.78
   0   6  19   -0.15   16.62
   0  -6 -19  -14.22   20.19
   0   6 -20   39.44   26.20
   0   7   0    1.51    5.23
   0   7   0    2.45    5.86
   0  -7   0    1.92    6.31
   0  -7   0   -1.53    6.16
   0   7   1 6298.50   88.32
   0   7  -1 6412.50   46.18
   0   7  -1 6397.13   82.29
   0  -7  -1 6172.43   85.39
   0  -7   1 6183.84   92.76
   0   7  -1 6422.85   77.81
   0  -7  -1 6395.61   85.23
   0   7  -2  976.78   29.53
   0  -7  -2  958.20   34.29
   0  -7   2  964.53   38.53
   0   7   2  976.58   38.46
   0   7  -2 1006.60   32.77
   0  -7  -2  965.44   33.30
   0  -7  -3 1215.57   40.23
   0   7   3 1216.25   46.62
   0   7  -3 1182.96   36.12
   0  -7  -3 1241.37   37.88
   0  -7   3 1237.59   45.99
   0   7  -3 1216.58   32.84
   0   7  -4  295.17   19.45
   0   7  -4  285.51   16.71
   0  -7  -4  277.67   18.58
   0  -7  -4  308.91   22.14
   0  -7   4  302.72   24.34
   0   7   4  310.55   26.55
   0   7  -5 5598.60   84.89
   0  -7  -5 5484.53   80.65
   0  -7  -5 5596.44   92.08
   0   7  -5 5681.08   78.96
   0  -7   5 5725.40  109.82
   0   7   6  104.73   21.60
   0  -7  -6  103.04   12.56
   0  -7   6  118.62   20.41
   0   7  -6  112.30   13.21
   0   7  -6  119.04   15.34
   0  -7   6  106.01    5.35
   0  -7  -6   93.70   14.97
   0   7   7  659.89   47.17
   0  -7  -7  649.35   36.11
   0  -7   7  658.90   20.70
   0   7  -7  666.38   33.09
   0   7  -7  668.19   33.81
   0  -7   7  715.52   29.34
   0  -7  -7  659.79   30.84
   0   7   7  686.38   49.31
   0  -7   7  645.25   41.01
   0   7   8  597.93   47.78
   0  -7   8  527.77   28.00
   0   7  -8  476.03   31.60
   0  -7   8  496.86   38.90
   0   7   8  543.24   45.88
   0  -7   8  506.94   24.62
   0  -7  -8  467.92   33.38
   0   7  -8  472.03   31.03
   0  -7   9 2428.64   86.32
   0  -7   9 2302.99   85.38
   0  -7   9 2474.86   64.30
   0  -7   9 2446.50   64.12
   0  -7  -9 2229.93   73.16
   0   7   9 2437.10   99.47
   0   7   9 2303.93   95.70
   0   7  -9 2224.49   69.15
   0   7  -9 2372.68   75.33
   0  -7  10   39.17   11.65
   0  -7 -10   23.41   13.34
   0  -7  10   47.09   15.10
   0   7 -10   27.92   17.02
   0  -7  10   51.20   12.70
   0  -7 -10   45.36   15.57
   0   7  10   32.53   19.89
   0   7 -10   60.51   16.53
   0   7  10   19.28   15.69
   0  -7  10   66.14   19.23
   0   7 -11 1967.18   74.08
   0   7  11 1897.33   94.21
   0   7  11 2031.93   97.31
   0  -7  11 1967.13   68.91
   0  -7  11 1658.49   60.82
   0  -7  11 1997.88   86.81
   0  -7 -11 1837.12   73.63
   0  -7  11 2069.52   68.31
   0  -7 -11 1773.64   67.32
   0   7 -11 1810.83   78.28
   0  -7 -12  152.05   25.27
   0  -7  12  197.03   28.16
   0   7 -12  184.83   26.70
   0   7  12  151.06   30.34
   0   7  12  183.53   35.71
   0   7 -12  147.08   26.92
   0  -7  12  183.20   24.17
   0   7  13   60.30   23.82
   0   7 -13   85.62   26.18
   0  -7  13   38.09   13.25
   0   7  13   67.95   25.69
   0   7 -13   45.66   17.98
   0  -7  13   74.19   20.25
   0  -7 -13   39.31   17.60
   0   7 -14  111.59   25.29
   0   7 -14  143.99   28.53
   0  -7  14  151.96   28.45
   0  -7 -14  108.67   24.71
   0   7  14  189.09   35.80
   0   7 -15 1065.10   72.80
   0  -7 -15 1047.68   65.45
   0   7 -15 1152.18   71.29
   0   7  15 1371.94   87.79
   0  -7  15 1322.50   77.39
   0  -7  16    0.27   14.84
   0   7 -16   15.00   20.04
   0  -7 -16   37.81   20.42
   0   7  16   -3.67   18.51
   0   7 -16    1.86   15.69
   0   7 -17  109.60   29.40
   0  -7  17  168.54   30.66
   0   7  17  177.47   35.47
   0  -7 -17  117.78   26.20
   0   7 -17  117.60   27.72
   0  -7 -18   72.46   24.13
   0   7 -18   34.58   20.05
   0   7 -18   50.97   23.79
   0  -7  18   91.77   25.64
   0   7  18  107.72   29.34
   0  -7  19  253.68   38.49
   0   7 -19  336.81   47.00
   0  -8   0   50.76   10.96
   0  -8   0   54.61   10.01
   0   8   0   41.32    8.40
   0   8   0   62.38   10.38
   0   8  -1    3.31    2.61
   0   8   1   -1.69    7.18
   0  -8   1   27.90   10.34
   0   8  -1    6.33    6.10
   0  -8  -1    3.72    6.82
   0   8  -1    9.38    6.93
   0  -8  -1    3.20    6.53
   0  -8  -2   22.18    8.73
   0   8  -2   13.03    5.59
   0   8   2   33.33   10.67
   0   8  -2   14.87    7.43
   0  -8  -2   15.83    7.24
   0  -8   2   29.01   10.46
   0   8  -3   36.87    9.68
   0  -8   3   50.08   13.19
   0  -8  -3   31.98    8.60
   0   8  -3   49.56    8.33
   0  -8  -3   55.96   12.03
   0   8   3   33.98   11.21
   0   8  -4    4.57    7.86
   0  -8   4    4.19    9.94
   0   8   4  -10.30   12.06
   0   8  -4   -9.25    6.95
   0  -8  -4  -10.14    8.44
   0  -8  -4    5.98    6.83
   0   8  -5   90.23   11.85
   0   8  -5   59.08   11.63
   0  -8  -5   68.36   13.66
   0  -8   5   60.77   17.09
   0   8   5   64.00   18.60
   0  -8  -5   62.35   10.67
   0   8  -6  104.46   13.36
   0  -8  -6   95.13   12.66
   0   8   6  121.03   23.67
   0  -8   6   98.38   19.44
   0   8  -6   87.64   13.58
   0  -8  -6  117.04   17.05
   0  -8   7  -23.83   14.67
   0   8   7   11.46   17.01
   0  -8  -7    5.93   10.78
   0   8  -7    0.80    9.01
   0   8  -7   13.32    8.61
   0  -8  -7   11.27    8.28
   0  -8   8  125.68   21.47
   0   8  -8   87.59   15.93
   0  -8   8  108.58    7.72
   0  -8  -8   75.90   13.15
   0   8  -8  113.64   16.96
   0   8   8  106.63   24.53
   0  -8   8  126.49   14.41
   0  -8  -8   99.41   18.23
   0   8  -9  140.52   19.42
   0  -8  -9  127.97   16.84
   0  -8   9  166.22   26.23
   0   8   9  163.27   28.78
   0  -8   9  151.37   16.69
   0   8   9  198.04   30.96
   0  -8  -9  136.98   21.61
   0   8  -9  126.90   20.00
   0   8  10   31.31   19.48
   0  -8 -10   23.59    9.60
   0  -8 -10   68.53   18.45
   0   8  10   44.25   18.67
   0  -8  10   44.32   10.67
   0   8 -10   28.20   14.40
   0  -8  10   44.08   15.98
   0  -8  10   47.30   18.61
   0   8 -10   38.30   14.46
   0  -8 -10   13.82   12.62
   0  -8 -11   48.29   16.11
   0   8  11   43.42   21.99
   0   8 -11   57.52   17.23
   0  -8  11   67.49   21.66
   0  -8  11   49.67   13.98
   0   8  11   68.61   24.35
   0  -8 -11   70.68   17.09
   0  -8  11   76.46   15.43
   0   8 -11   61.46   20.01
   0  -8  12   74.74   23.33
   0   8  12   86.99   25.52
   0  -8 -12   70.51   19.33
   0  -8  12   87.71   16.70
   0   8 -12  102.62   23.45
   0   8  12  140.72   32.26
   0   8 -12  108.21   22.24
   0  -8  13   31.43   16.64
   0   8  13   63.67   20.97
   0   8 -13   86.85   25.32
   0   8  13   78.48   26.42
   0   8 -13   72.29   20.79
   0  -8 -13   57.81   18.89
   0   8 -14   56.21   20.01
   0  -8  14   78.05   22.26
   0   8  14   71.08   27.82
   0  -8 -14   55.04   20.17
   0   8  14   76.84   26.87
   0   8 -14   99.76   26.79
   0  -8  15  119.08   28.45
   0   8 -15  126.65   28.39
   0  -8 -15  111.27   25.10
   0   8  15  153.71   35.50
   0   8 -15  131.13   29.91
   0   8  16   49.04   24.48
   0  -8 -16   48.69   21.81
   0   8 -16   55.97   24.91
   0   8 -16   91.77   28.26
   0  -8  16   75.30   24.07
   0  -8  17    8.43   13.55
   0  -8 -17   -0.24   15.06
   0   8 -17   61.00   25.46
   0   8 -17   -7.00   18.49
   0   8  17   33.45   23.83
   0  -8  18   92.27   25.36
   0  -8 -18   79.29   23.23
   0   8 -18   83.09   26.38
   0  -9   0    8.53    7.95
   0   9   0    0.68    6.48
   0   9   0    4.89    9.05
   0   9   0   -0.35    5.43
   0  -9   0   11.33    9.68
   0  -9  -1  158.38   16.33
   0   9   1  148.44   16.73
   0   9  -1  163.07   16.66
   0  -9  -1  167.37   17.73
   0  -9   1  146.98   18.32
   0   9  -1  144.06   15.32
   0   9  -1  156.39    7.88
   0   9   1  170.54   17.58
   0  -9  -2  264.65   21.42
   0  -9   2  270.78   24.31
   0   9  -2  265.37   18.75
   0  -9  -2  290.57   22.88
   0   9  -2  239.61   20.27
   0   9   2  312.29   25.38
   0   9   3  100.33   17.83
   0   9  -3   76.36   10.55
   0  -9  -3  100.00   14.59
   0  -9  -3   80.07   14.72
   0   9  -3   84.01   13.08
   0  -9   3   99.11   17.68
   0  -9   4   -1.86   11.09
   0   9  -4   -1.30    8.01
   0  -9  -4    2.13    6.82
   0   9  -4    6.66    5.73
   0   9  -4    0.32    6.35
   0  -9  -4   19.47   10.40
   0   9   4   -6.29   13.55
   0  -9  -5  228.25   19.82
   0  -9  -5  236.24   22.28
   0   9  -5  219.14   20.42
   0   9   5  253.17   28.77
   0   9  -5  237.43   18.15
   0  -9   5  215.96   25.88
   0   9  -6  295.85   21.63
   0   9   6  315.13   34.10
   0  -9  -6  270.87   21.95
   0  -9  -6  307.09   25.86
   0  -9   6  247.86   27.69
   0   9  -6  254.94   22.12
   0  -9   7   54.10   18.41
   0   9  -7   72.04   13.58
   0   9   7   28.55   18.18
   0  -9  -7   47.06   11.31
   0   9  -7   43.43   12.09
   0  -9  -7   61.06   15.13
   0   9   8    9.42   17.30
   0  -9  -8    7.28   10.14
   0   9  -8   17.74   10.18
   0  -9   8   22.95    7.73
   0  -9   8   33.68   15.69
   0  -9  -8   14.35    7.81
   0   9  -8   20.93   10.82
   0   9  -9  163.73   20.52
   0  -9  -9  144.79   18.00
   0  -9   9  159.08   26.06
   0  -9  -9  174.97   23.01
   0   9   9  154.70   30.32
   0  -9   9  213.80   19.81
   0   9  -9  194.68   22.88
   0  -9 -10  130.52   24.27
   0   9 -10  157.37   22.29
   0   9 -10  154.31   23.08
   0  -9 -10  140.09   22.31
   0  -9  10  211.35   30.44
   0  -9  10  209.13   31.16
   0   9  10  169.52   32.21
   0  -9  10  166.12   18.31
   0  -9 -10  113.45   16.60
   0  -9 -11    4.96   11.09
   0   9 -11  -12.56   13.82
   0  -9  11   -5.98   14.17
   0   9 -11   12.60   13.20
   0   9  11    7.86   22.37
   0  -9 -11  -16.77   13.10
   0  -9  11  -12.47   13.88
   0  -9  11   -7.26    8.84
   0  -9 -11   -0.72    7.68
   0  -9  12  158.44   30.32
   0  -9 -12   89.64   16.23
   0   9  12  182.15   34.52
   0  -9 -12   96.01   18.68
   0   9 -12  105.27   22.33
   0   9 -12  158.13   27.54
   0  -9 -13  140.46   25.85
   0   9 -13   96.95   24.40
   0  -9  13  149.60   28.43
   0   9 -13  150.07   27.06
   0   9  13  156.52   33.04
   0  -9 -14   61.90   20.95
   0  -9  14   47.77   19.54
   0   9 -14   54.36   20.58
   0   9  14  104.18   31.08
   0   9 -14   59.61   22.74
   0   9 -15   50.83   19.99
   0  -9 -15   36.74   18.84
   0  -9  15   61.69   21.73
   0   9 -15   70.78   23.51
   0  -9 -16  173.61   32.32
   0  -9  16  203.86   34.34
   0   9 -16  114.14   25.98
   0  -9  17  113.04   27.91
   0  -9 -17   74.14   24.15
   0   9 -17   83.75   24.15
   0   9 -18   16.15   19.66
   0  -9 -18  -15.60   17.71
   0  10   0 2867.58   67.47
   0  10   0 2739.84   47.74
   0 -10   0 2911.34   76.26
   0 -10   0 2753.22   69.41
   0  10   0 2806.32   68.33
   0 -10   1 1668.24   59.43
   0  10  -1 1641.21   23.92
   0  10   1 1622.06   51.86
   0  10  -1 1648.82   50.01
   0 -10  -1 1676.51   56.70
   0  10   1 1544.66   53.46
   0 -10  -1 1564.02   51.93
   0  10  -1 1630.16   51.28
   0 -10   2  110.95   18.61
   0 -10  -2   99.52   16.31
   0  10  -2   78.12   12.35
   0  10  -2   84.17   14.54
   0  10   2   84.04   15.80
   0 -10  -2   69.86   13.94
   0 -10  -3 2307.02   64.64
   0  10  -3 2306.28   61.48
   0  10   3 2311.59   74.00
   0  10  -3 2319.28   55.92
   0 -10  -3 2330.15   65.01
   0 -10   3 2330.08   74.86
   0  10  -4 1136.58   38.43
   0  10  -4 1107.90   38.91
   0  10   4 1131.75   54.60
   0 -10  -4 1044.92   43.31
   0 -10   4 1147.94   55.32
   0  10  -4 1126.43   43.45
   0 -10  -4 1147.11   47.26
   0 -10  -5    4.58    7.44
   0  10  -5   14.39    7.70
   0  10  -5   14.66    6.64
   0 -10   5   24.96   14.27
   0 -10  -5   43.72   13.60
   0  10  -5   30.86   12.27
   0  10   5   43.15   17.00
   0  10  -6  912.36   41.19
   0  10  -6  986.15   39.21
   0  10   6  960.49   57.10
   0 -10  -6  899.50   40.37
   0 -10   6 1015.69   55.11
   0 -10  -6  917.06   44.84
   0 -10   7 1773.42   76.01
   0 -10  -7 1682.87   55.26
   0 -10  -7 1706.66   62.75
   0  10   7 1849.50   82.83
   0  10  -7 1708.41   54.78
   0  10  -7 1663.58   57.80
   0 -10   8  185.82   28.24
   0  10  -8  124.35   18.84
   0 -10  -8  157.94   21.15
   0  10  -8  155.02   19.07
   0  10   8  161.65   27.82
   0 -10  -8  137.95   17.30
   0  10  -9  637.36   39.46
   0 -10   9  692.53   33.98
   0 -10  -9  552.34   33.52
   0 -10   9  663.99   50.61
   0  10   9  639.44   54.89
   0 -10  -9  590.47   40.85
   0  10  -9  591.79   38.63
   0 -10 -10  629.70   43.84
   0  10 -10  669.23   43.97
   0  10 -10  601.67   41.23
   0 -10  10  643.58   53.39
   0 -10 -10  553.73   49.60
   0 -10 -10  608.43   36.13
   0 -10  10  682.87   52.60
   0  10  10  687.60   59.50
   0 -10  11  148.28   28.07
   0  10 -11  122.60   22.18
   0  10 -11  163.92   26.44
   0  10  11  191.12   34.57
   0 -10 -11   96.05   21.48
   0 -10 -11  125.11   22.01
   0 -10 -12   52.42   19.00
   0  10  12   99.78   29.02
   0  10 -12   34.43   18.47
   0 -10  12   73.86   24.30
   0  10 -12   50.16   18.51
   0 -10  13  917.78   68.01
   0 -10 -13  857.97   57.28
   0  10  13  997.27   77.40
   0  10 -13  778.10   57.71
   0  10 -13  827.92   57.24
   0  10 -14  230.22   33.73
   0 -10 -14  265.09   35.12
   0  10  14  309.63   45.86
   0 -10  14  231.30   35.70
   0  10  15   52.25   25.62
   0 -10 -15   -4.02   15.40
   0  10 -15   20.81   17.87
   0 -10  15   28.33   17.69
   0 -10 -16   58.61   21.08
   0  10 -16   42.75   20.80
   0  10 -17  103.70   29.82
   0 -10  17  204.65   35.71
   0 -10 -17  131.97   27.73
   0  11   0   10.15   10.56
   0  11   0    8.06    9.76
   0 -11   0    5.17   10.60
   0  11   0    2.34    4.40
   0 -11   0   -1.91    9.87
   0 -11  -1  136.04   19.24
   0  11  -1  154.61   18.83
   0  11   1  144.54   14.72
   0  11   1  144.26   18.73
   0  11   1  158.68   18.98
   0 -11   1  139.15   19.95
   0 -11  -1  140.30   18.32
   0  11  -1  146.40   17.68
   0 -11  -2 1013.80   46.77
   0  11  -2  981.52   40.44
   0  11   2  968.26   47.34
   0  11  -2 1071.28   44.51
   0  11   2 1033.72   44.67
   0 -11   2 1001.95   50.95
   0 -11  -2  997.29   44.67
   0 -11  -3   18.21   11.51
   0  11   3    1.87   11.24
   0  11  -3    1.07    7.10
   0  11  -3   12.39   10.75
   0 -11   3    4.86   12.27
   0 -11  -3    9.97   10.01
   0  11  -4  547.83   29.11
   0  11   4  555.45   40.14
   0  11  -4  587.91   28.97
   0 -11   4  527.06   40.34
   0 -11  -4  588.00   35.23
   0  11  -4  567.65   33.50
   0 -11  -4  567.33   35.82
   0  11  -5  145.02   18.26
   0  11  -5  164.24   16.77
   0 -11   5  143.08   23.52
   0 -11  -5  158.89   19.31
   0 -11  -5  163.72   20.93
   0  11   5  181.61   26.72
   0  11  -5  143.83   15.66
   0  11  -6  235.85   20.69
   0 -11  -6  237.70   22.58
   0  11  -6  237.62   22.98
   0  11   6  301.32   33.86
   0 -11   6  258.13   31.27
   0  11  -6  237.49   19.62
   0 -11  -6  237.61   24.99
   0  11  -7  242.67   22.10
   0 -11   7  201.60   28.26
   0  11  -7  235.33   23.70
   0 -11  -7  206.38   21.49
   0 -11  -7  217.87   24.94
   0  11   7  213.01   31.68
   0  11   8 1130.51   69.51
   0  11  -8 1069.19   50.41
   0 -11   8 1053.88   64.21
   0  11  -8 1058.93   47.45
   0 -11  -8 1000.19   45.93
   0 -11  -8 1012.92   52.67
   0  11  -9    6.31    9.86
   0 -11  -9   12.32   11.19
   0  11   9   -9.66   19.54
   0 -11   9   19.28   21.61
   0 -11  -9   -5.21    7.62
   0  11  -9    8.62   10.35
   0 -11   9   -1.65   14.42
   0 -11  10   -9.56   13.27
   0  11 -10    2.63   11.70
   0  11  10  -12.98   17.55
   0 -11 -10    6.50   14.94
   0 -11 -10   -0.75   13.61
   0  11 -10   -2.94    9.95
   0 -11  10    3.33   13.97
   0 -11 -11  172.10   29.46
   0  11 -11  198.85   27.08
   0  11  11  255.73   39.67
   0  11 -11  236.68   30.36
   0 -11  11  209.40   32.96
   0 -11 -11  189.91   27.51
   0  11 -12  375.99   37.11
   0 -11  12  441.41   47.74
   0 -11 -12  370.16   37.48
   0  11  12  435.44   51.80
   0  11  13   82.83   30.89
   0  11 -13   91.46   24.20
   0 -11  13   86.59   24.59
   0 -11 -13   53.86   18.81
   0 -11 -14   21.68   15.79
   0  11  14   62.80   26.72
   0 -11  14  100.62   27.39
   0  11 -14   76.90   23.25
   0  11 -15   57.45   22.78
   0  11  15   62.06   26.13
   0 -11  15   34.23   18.40
   0 -11 -15   30.27   17.26
   0 -11  16    2.32   17.46
   0  11 -16   -6.87   18.64
   0 -11 -16   12.35   17.32
   0  11 -17  181.04   35.96
   0  12   0   76.98   16.16
   0 -12   0  102.53   19.09
   0  12   0   77.67   13.89
   0 -12  -1   53.42   13.13
   0  12   1   24.79   11.12
   0 -12  -1   37.04   13.77
   0  12  -1   41.82   11.32
   0  12  -1   27.16   10.96
   0  12   1   38.01   12.24
   0 -12   1   24.99   12.37
   0  12   2    1.32    9.11
   0 -12  -2   35.45   12.52
   0  12  -2    3.48    9.94
   0 -12  -2    8.35   12.67
   0  12  -2   20.37    9.43
   0 -12   2   22.60   14.08
   0  12   2   19.56   11.58
   0  12   2   22.54   12.31
   0 -12   3  598.86   42.13
   0  12   3  600.99   41.35
   0 -12  -3  620.35   38.57
   0 -12  -3  608.01   37.22
   0  12  -3  657.35   36.78
   0  12  -3  631.55   33.44
   0 -12  -4   76.41   15.61
   0  12  -4   69.43   12.67
   0  12  -4   55.43   14.47
   0 -12   4   62.86   18.16
   0  12   4   54.49   16.97
   0 -12  -4   52.85   15.18
   0  12  -4   60.15   11.52
   0 -12  -5   59.49   13.35
   0 -12  -5   67.61   15.91
   0 -12   5   61.61   20.09
   0  12  -5   59.20   11.59
   0  12   5   80.39   20.45
   0  12  -5   78.50   15.72
   0  12  -5   69.54   11.92
   0 -12   6   79.17   21.10
   0  12  -6   61.86   11.94
   0  12  -6   65.98   14.74
   0  12  -6   44.48   11.04
   0 -12  -6   54.66   13.00
   0  12   6   59.55   20.09
   0 -12  -6   62.96   17.25
   0  12  -7  414.60   33.06
   0 -12   7  402.96   40.54
   0  12   7  410.06   42.57
   0 -12  -7  395.92   30.29
   0  12  -7  424.27   29.22
   0 -12  -7  399.95   33.61
   0  12  -7  390.56   26.59
   0 -12   8    5.64   14.22
   0  12  -8   10.20    8.67
   0  12  -8   17.49   11.69
   0 -12  -8    2.19   12.19
   0 -12  -8   10.79    8.61
   0  12  -8    9.92   10.20
   0  12   8   -2.26   16.42
   0 -12  -9   11.06   12.12
   0 -12   9   23.95   20.38
   0  12  -9   29.37   13.43
   0  12   9   29.68   19.04
   0  12  -9   12.46    9.95
   0 -12  -9    3.14   18.10
   0 -12   9   11.60   14.25
   0 -12 -10   80.93   26.10
   0 -12  10   58.24   19.46
   0  12 -10   43.25   15.81
   0 -12  10   59.37   21.58
   0  12  10   87.46   25.96
   0 -12 -10   50.42   18.35
   0 -12  11  442.35   47.15
   0 -12 -11  472.79   42.13
   0  12  11  502.01   54.13
   0 -12 -11  405.27   45.22
   0  12 -11  411.62   37.54
   0  12 -12   12.81   13.26
   0 -12 -12   32.88   18.23
   0 -12  12   10.24   17.55
   0  12  12   -9.35   20.30
   0 -12 -13   33.63   17.54
   0 -12  13   46.28   22.17
   0  12 -13   30.75   18.27
   0  12  13   -9.32   20.20
   0 -12 -14   -5.06   15.92
   0  12  14  -10.32   22.19
   0  12 -14    0.40   15.48
   0 -12  14   31.27   20.92
   0 -12  15  172.42   34.06
   0  12  15  110.90   28.65
   0  12 -15   57.74   20.09
   0 -12 -15  140.33   28.33
   0 -12 -16   11.27   16.42
   0  12 -16   22.98   18.02
   0  13   0   -5.54   11.09
   0  13   0   -1.07    9.27
   0 -13   0  -20.29   12.72
   0 -13  -1   48.71   13.56
   0  13   1   55.64   15.20
   0 -13  -1   65.12   14.76
   0 -13   1   51.92   16.64
   0  13   1   54.60   14.58
   0  13  -1   53.10   13.83
   0  13  -1   53.65   13.85
   0 -13   2  332.34   33.23
   0  13  -2  329.34   26.57
   0 -13  -2  307.19   30.07
   0  13   2  331.58   27.64
   0  13  -2  337.34   27.71
   0 -13  -2  345.58   29.96
   0  13   2  319.12   31.23
   0 -13  -3  -14.54   12.44
   0  13   3    2.20   10.79
   0  13   3   -1.37   11.04
   0  13  -3    6.90    9.70
   0  13  -3  -13.96    9.81
   0 -13  -3    3.65    9.94
   0 -13   3   -9.05   12.06
   0 -13  -4  167.03   22.22
   0  13  -4  191.57   18.86
   0  13   4  105.74   21.33
   0 -13  -4  131.57   19.04
   0  13  -4  161.69   20.53
   0 -13   4  140.91   24.97
   0  13  -4  128.97   17.19
   0 -13  -5   59.14   16.20
   0 -13  -5   54.92   13.95
   0  13  -5   52.22   15.89
   0  13   5   47.48   18.49
   0 -13   5   75.79   21.88
   0  13  -5   72.79   13.11
   0  13  -5   59.53   11.43
   0  13   6   57.08   20.88
   0  13  -6   35.24   10.35
   0  13  -6   44.54   14.65
   0 -13  -6   56.23   14.10
   0  13  -6   32.33   10.44
   0 -13   6   28.17   16.86
   0 -13  -6   65.35   17.62
   0 -13   7  192.66   30.24
   0  13  -7  146.32   21.86
   0  13   7  127.97   26.11
   0 -13  -7  137.15   20.22
   0 -13  -7  153.43   23.05
   0  13  -8  311.84   30.82
   0 -13   8  387.38   42.62
   0 -13  -8  330.06   33.38
   0  13   8  368.98   43.76
   0 -13   8  426.86   59.83
   0  13  -9    3.21   11.78
   0 -13   9   -2.53   12.89
   0 -13   9  -33.64   24.83
   0 -13  -9   -4.15   12.15
   0  13   9    4.22   18.22
   0 -13  -9   -9.99   17.92
   0  13 -10  -33.75   17.19
   0 -13 -10   14.38   15.56
   0 -13  10   -1.72   14.93
   0  13  10   19.88   19.10
   0 -13  10  -20.67   23.77
   0 -13 -10    0.11   13.01
   0  13 -11  122.65   23.95
   0 -13  11  145.25   29.67
   0  13  11  189.66   36.62
   0 -13 -11  147.43   26.67
   0  13  12  149.48   35.85
   0  13 -12  108.05   23.51
   0 -13  12   97.24   26.63
   0 -13 -12   98.14   23.61
   0 -13  13   38.70   21.49
   0  13  13   50.91   26.32
   0  13 -13   27.61   18.52
   0 -13 -13   60.51   21.82
   0  13  14   65.36   25.99
   0  13 -14   47.65   19.78
   0 -13 -14   66.73   23.46
   0 -13  14   63.94   26.80
   0  13 -15   19.58   16.13
   0 -13 -15   19.94   16.88
   0  14   0 2171.79   73.05
   0  14   0 2060.29   73.91
   0 -14   0 2239.74   85.55
   0 -14   1  419.93   38.91
   0  14   1  383.73   33.48
   0 -14  -1  399.70   33.24
   0  14  -1  373.86   30.98
   0 -14  -1  408.65   37.23
   0  14   1  425.90   33.34
   0  14  -1  440.38   33.37
   0 -14  -2  130.86   22.49
   0 -14  -2  156.96   22.16
   0 -14   2  157.26   25.34
   0  14   2  126.33   22.37
   0  14  -2  131.91   18.88
   0  14   2  152.23   22.95
   0  14  -2  143.10   20.67
   0 -14  -3  947.90   51.14
   0  14  -3  918.14   44.96
   0 -14  -3  974.59   53.99
   0  14   3  898.40   49.22
   0 -14   3  949.58   60.00
   0  14  -3  896.38   47.22
   0  14   3  904.60   55.07
   0 -14   4 1177.84   68.25
   0  14  -4 1153.56   49.70
   0 -14  -4 1156.99   57.06
   0  14   4 1158.67   64.45
   0  14  -4 1209.82   55.17
   0  14   4 1232.77   58.50
   0 -14  -4 1281.25   60.51
   0 -14   5    1.68   14.62
   0 -14  -5   22.91   13.18
   0  14  -5    4.12   12.06
   0  14   5   20.82   17.08
   0 -14  -5   -0.33    9.16
   0 -14  -6  779.04   48.19
   0  14   6  805.61   58.76
   0  14  -6  831.94   48.09
   0 -14   6  886.49   61.47
   0 -14  -7  548.20   41.90
   0  14  -7  579.54   40.97
   0  14   7  619.97   54.26
   0 -14   7  596.87   52.22
   0 -14  -8  149.87   23.87
   0 -14  -8  196.29   37.95
   0 -14   8  195.51   43.97
   0  14   8  161.41   30.74
   0  14  -8  151.33   23.25
   0 -14   8  154.61   29.84
   0 -14   9  306.92   39.89
   0  14   9  394.18   47.89
   0 -14   9  396.75   57.05
   0 -14  -9  227.90   38.83
   0 -14  -9  339.32   35.71
   0  14  -9  287.57   32.08
   0 -14  10  921.91   78.58
   0 -14 -10  896.02   57.51
   0 -14  10  927.74   69.73
   0 -14 -10  794.98   69.10
   0  14 -10  869.19   54.12
   0  14  10  935.93   73.40
   0 -14 -11   62.67   20.82
   0  14  11   73.80   26.50
   0 -14  11   61.14   23.66
   0  14 -11   77.71   20.70
   0 -14 -12  -16.45   17.41
   0 -14  12   13.21   18.98
   0  14 -12   24.77   17.58
   0  14  12   41.56   20.90
   0  14 -13  211.56   32.05
   0 -14 -13  203.47   32.44
   0 -14  13  234.50   40.57
   0  14  13  301.22   47.03
   0  14 -14  180.87   31.16
   0 -14 -14  246.43   35.89
   0  15   0    5.92   10.56
   0  15   0   15.72   11.10
   0 -15   0   -6.85   12.88
   0  15  -1   62.37   15.96
   0  15   1   35.78   13.47
   0  15  -1   25.41   13.16
   0  15   1   56.19   16.09
   0 -15   1   66.09   18.92
   0 -15  -1   29.28   13.79
   0  15  -2    4.41   10.84
   0  15  -2   11.18   11.40
   0  15   2    7.64   11.73
   0 -15  -2   12.76   12.83
   0  15   2   27.09   13.74
   0 -15  -2   -2.36   11.70
   0 -15   2    7.39   13.82
   0  15   3   17.63   14.28
   0 -15  -3   -4.55   12.21
   0  15  -3    3.23   11.89
   0  15   3    3.18   11.43
   0 -15   3   15.72   14.24
   0 -15  -3   16.81   12.60
   0 -15  -4   36.52   13.34
   0  15   4   19.55   12.16
   0  15   4   30.31   15.11
   0 -15   4   46.66   20.17
   0 -15  -4   39.81   14.50
   0  15  -4   24.04   12.97
   0 -15   5  115.83   25.28
   0  15   5  108.75   20.07
   0  15   5  162.47   28.27
   0 -15  -5  121.65   22.58
   0  15  -5  126.58   22.14
   0 -15   6   13.91   17.01
   0  15  -6   32.11   14.06
   0  15   6   22.80   15.76
   0 -15  -6   16.26   13.82
   0 -15   7   32.93   29.92
   0  15   7   -9.06   17.52
   0 -15  -7  -21.42   13.93
   0 -15   7  -23.91   18.43
   0  15  -7   -6.03   13.00
   0 -15  -7  -33.69   27.44
   0 -15  -8   50.36   18.19
   0  15  -8   35.10   15.41
   0 -15   8   19.45   22.36
   0 -15  -8   10.50   20.15
   0  15   8   58.67   24.58
   0 -15   9   53.14   19.49
   0 -15   9   80.44   28.60
   0 -15  -9   64.76   19.75
   0  15   9   87.39   27.02
   0 -15  -9   79.43   28.73
   0  15  -9   93.81   21.61
   0 -15 -10   86.44   21.59
   0 -15  10   76.78   23.43
   0 -15 -10   96.24   28.54
   0 -15  10  102.71   31.41
   0  15 -10   95.17   20.83
   0  15  10   57.19   26.44
   0  15  11   -0.30   20.00
   0 -15  11  -17.06   20.69
   0  15 -11  -20.46   14.75
   0 -15 -11  -35.65   19.72
   0  15 -12   18.25   16.19
   0 -15 -12  -22.15   20.34
   0  15  12   27.66   21.09
   0 -15  12   -9.83   18.07
   0 -15 -13   35.21   19.91
   0  15 -13   57.84   21.65
   0  15  13   50.00   24.26
   0  16   0  102.73   20.20
   0 -16   0   90.90   23.13
   0 -16   1   40.76   19.18
   0  16   1   39.33   15.98
   0  16  -1   53.98   17.38
   0  16   1   28.82   15.11
   0 -16  -1   25.09   14.97
   0  16   2   10.66   13.78
   0  16   2   -0.13   11.76
   0 -16  -2   15.30   14.63
   0 -16   2   -5.25   17.21
   0  16  -2   19.38   14.54
   0 -16  -3   30.81   15.74
   0 -16   3   26.11   17.68
   0  16   3   23.07   12.77
   0  16  -3   -0.99   12.91
   0  16   3   62.77   20.68
   0  16  -4   58.40   17.19
   0  16   4   22.77   15.21
   0  16   4   35.09   15.70
   0 -16   4   24.41   14.65
   0 -16  -4   19.41   14.71
   0  16  -5    4.64   11.87
   0 -16   5    6.37   16.38
   0  16   5    4.73   17.60
   0 -16  -5   18.39   15.70
   0  16   5   35.73   16.03
   0  16  -6   -5.16   12.38
   0  16   6   24.10   17.79
   0  16   6    3.08   14.28
   0 -16  -6    8.49   12.67
   0 -16   6   -3.36   24.54
   0 -16  -6   32.52   29.86
   0 -16   6  -10.14   17.42
   0  16  -7   25.80   15.54
   0 -16   7   44.25   23.48
   0 -16   7   -8.19   30.80
   0  16   7   15.05   18.41
   0 -16  -7   22.84   21.26
   0 -16  -7   36.56   16.57
   0 -16   8   97.06   25.40
   0  16   8   94.55   28.56
   0  16  -8   57.10   17.89
   0 -16  -8   51.50   19.29
   0 -16  -8   56.88   25.59
   0 -16   8   55.51   27.49
   0 -16  -9    2.82   15.34
   0 -16   9   13.67   19.73
   0  16   9   19.70   21.52
   0  16  -9    8.10   14.56
   0 -16   9   32.51   24.83
   0 -16  -9  -30.94   21.99
   0  16 -10   -0.92   13.45
   0 -16 -10   27.68   18.21
   0 -16 -10  -11.52   16.97
   0  16  10    4.32   18.01
   0 -16  10   30.26   22.37
   0 -16 -11   49.08   20.04
   0  16  11   63.05   25.52
   0  16 -11    9.03   13.32
   0  16 -12  -27.54   20.34
   0 -17   0  -31.67   19.47
   0  17   0   -5.78   12.77
   0  17  -1  698.63   47.14
   0 -17   1  742.54   58.93
   0 -17  -1  772.57   57.58
   0  17   1  733.57   49.32
   0 -17   2  413.01   44.92
   0  17  -2  385.03   36.60
   0  17   2  486.82   40.74
   0  17  -3  136.29   23.39
   0 -17   3   98.47   37.33
   0 -17   3  156.73   29.67
   0 -17  -3  177.93   27.34
   0  17   3  165.26   25.19
   0  17   4  117.21   22.80
   0  17  -4   71.77   18.71
   0 -17  -4   98.40   36.62
   0  17   4   42.47   18.01
   0 -17  -4   66.61   18.87
   0 -17   4  165.22   48.82
   0 -17   4  126.43   28.34
   0  17  -5  649.07   47.82
   0 -17  -5  741.53   82.68
   0 -17   5  796.81   64.52
   0  17   5  684.86   50.05
   0  17   5  750.99   59.99
   0 -17  -5  689.22   50.32
   0 -17   5  672.45   81.21
   0 -17  -6   63.25   19.79
   0  17  -6   94.37   20.75
   0  17   6  110.91   23.67
   0 -17   6  105.17   39.26
   0 -17  -6  106.48   33.25
   0  17   6  106.49   26.12
   0 -17   6   82.24   25.23
   0 -17   7    9.93   22.07
   0  17   7   75.71   24.08
   0 -17  -7   65.91   21.20
   0  17   7   89.16   23.54
   0 -17  -7   85.70   34.28
   0 -17   7   75.77   26.03
   0  17  -7   78.28   20.76
   0 -17   8  218.77   37.11
   0 -17   8  301.42   56.75
   0  17   8  279.22   41.62
   0 -17  -8  203.78   30.78
   0  17  -8  236.77   31.22
   0 -17  -8  169.90   40.13
   0  17   9  253.94   41.63
   0 -17  -9  247.88   33.77
   0  17  -9  255.77   33.78
   0 -17   9  248.72   40.95
   0 -17  -9  218.11   42.16
   0 -17   9  328.93   54.95
   0 -17 -10    5.81   15.13
   0  17 -10    8.74   15.45
   0  17  10   35.79   21.90
   0 -17 -10   27.22   19.86
   0 -18   0  104.29   40.76
   0  18   0  128.96   23.86
   0  18   1   24.86   15.53
   0  18  -1   15.55   15.02
   0 -18  -1   -0.72   25.44
   0 -18   1   92.90   26.14
   0 -18   1   99.59   36.04
   0  18   2   45.24   18.50
   0 -18   2   50.04   28.18
   0 -18  -2   43.81   32.45
   0 -18   2   64.91   22.30
   0  18  -2   60.87   18.76
   0 -18   3   80.89   38.71
   0 -18   3  110.34   28.09
   0 -18  -3  153.55   50.13
   0  18  -3  107.78   22.73
   0  18   3  155.67   26.92
   0 -18  -4   19.62   15.43
   0 -18  -4   27.37   28.51
   0  18  -4   37.88   16.88
   0  18   4    5.51   16.71
   0 -18   4   26.53   19.64
   0  18  -5   -0.95   13.10
   0 -18   5  -32.30   24.78
   0 -18   5  -20.40   34.95
   0 -18  -5   22.39   21.89
   0 -18  -5   -7.71   13.13
   0  18   5   15.85   17.76
   0 -18  -6  138.71   36.71
   0  18   6  104.80   24.83
   0 -18  -6  126.14   25.82
   0 -18   6   77.54   35.49
   0 -18   6  135.01   30.16
   0  18  -6  137.26   25.50
   0 -18   7   69.01   32.98
   0  18   7   87.20   22.76
   0  18  -7  126.71   24.30
   0 -18  -7  107.70   24.36
   0 -18  -7  144.80   38.47
   0  18   7   63.67   22.38
   0  18   8    4.40   19.01
   0 -18  -8   15.93   15.25
   0 -18  -8   30.15   27.70
   0  18  -8   -7.25   13.41
   0 -18   8   26.92   25.91
   0  18   9   14.92   18.31
   0 -18   9   31.81   29.20
   0  19   0   34.94   17.88
   0  19  -1   -6.70   14.18
   0  19   1   24.65   17.08
   0  19  -2  284.57   34.48
   0  19   2  268.37   34.00
   0  19   3   -9.23   15.64
   0 -19   3   -4.90   17.17
   0  19  -3   21.15   17.03
   0 -19   4   78.53   27.24
   0  19  -4   99.69   24.03
   0 -19   5  -44.30   23.46
   0  19  -5   20.82   16.85
   0 -19   6  182.35   36.97
   1   0   0    4.14    2.11
   1   0   0   -1.64    6.31
   1   0   0    3.37    2.42
  -1   0   0    2.29    1.96
   1   0   0   -0.96    3.16
  -1   0   0    5.99    3.73
  -1   0   0    1.77    2.24
  -1   0  -1  383.51    8.22
   1   0   1  388.92   16.68
  -1   0   1  375.94   12.52
   1   0   1  393.33   21.51
   1   0  -1  422.82   21.51
  -1   0  -1  383.28   14.34
  -1   0   1  407.96   11.72
   1   0  -1  383.80   12.47
   1   0  -1  400.13   21.32
   1   0  -1  373.78   12.36
  -1   0   1  381.70   12.89
   1   0   1  406.06   21.26
  -1   0  -1  387.73   17.10
   1   0  -2 9313.89   76.75
   1   0  -2 9601.63   79.35
  -1   0   2 9825.79   64.01
   1   0   2 9127.54   96.50
   1   0  -2 9102.58   97.54
  -1   0   2 9730.24   68.46
  -1   0  -2 9446.56   77.76
   1   0   2 9326.14   92.24
  -1   0   2 9433.18   70.63
   1   0  -2 9226.97   95.94
   1   0   2 9815.83   83.06
   1   0  -2 9695.82   66.04
   1   0   2 9671.89  100.83
   1   0  -2 9765.50   65.05
   1   0  -3 3850.91   50.45
   1   0   3 3807.95   66.21
   1   0   3 3825.30   58.58
  -1   0   3 3793.44   51.78
  -1   0   3 3763.31   58.87
   1   0  -3 3904.84   60.33
   1   0  -3 3988.02   46.28
   1   0  -3 4026.70   63.15
   1   0   3 4019.22   65.10
   1   0   3 3860.79   62.87
   1   0  -3 3714.96   62.73
  -1   0  -3 3724.75   57.54
  -1   0   3 3889.18   44.32
   1   0   4 2225.34   55.91
   1   0  -4 2198.72   51.40
  -1   0   4 2217.11   38.76
  -1   0   4 2162.42   48.41
   1   0  -4 2299.64   47.04
   1   0  -4 2096.64   47.42
  -1   0   4 2123.68   50.13
  -1   0  -4 2079.24   49.98
   1   0   4 2241.66   47.29
   1   0   4 2338.15   48.17
   1   0   4 2230.34   51.84
   1   0   5  594.75   31.71
   1   0   5  584.69   23.95
   1   0   5  563.04   31.09
  -1   0   5  544.49   28.71
  -1   0   5  572.82   28.92
  -1   0  -5  548.42   29.67
   1   0  -5  592.85   25.00
   1   0  -5  546.87   22.80
   1   0  -5  567.59   30.09
  -1   0   5  565.73   22.64
   1   0   5  585.54   24.52
  -1   0  -6 1598.50   56.65
  -1   0   6 1657.73   54.37
   1   0  -6 1660.17   41.02
   1   0   6 1586.14   55.51
   1   0   6 1685.69   54.62
   1   0   6 1633.04   40.62
   1   0   6 1615.82   60.69
  -1   0   6 1658.31   55.11
  -1   0   6 1605.58   40.70
   1   0  -6 1623.89   53.97
   1   0  -6 1638.21   38.32
   1   0   7 1096.28   57.32
   1   0   7 1128.53   50.76
   1   0  -7 1172.00   49.28
  -1   0   7 1160.46   50.46
  -1   0   7 1138.63   38.03
   1   0  -7 1038.23   54.19
   1   0  -7 1079.65   30.81
  -1   0   7 1119.51   49.11
   1   0   7  994.85   47.34
   1   0   7 1167.24   33.67
  -1   0  -7 1152.46   53.92
  -1   0  -8 2853.93   89.29
  -1   0   8 2848.41   64.06
   1   0  -8 2839.62   48.77
  -1   0   8 2888.08   84.98
   1   0   8 2979.73   90.16
   1   0  -8 2923.46   94.62
  -1   0   8 2908.65   84.86
   1   0   8 2963.62   85.72
   1   0   8 2805.79  104.41
   1   0  -8 2871.97   82.42
   1   0   8 3046.17   53.41
  -1   0  -9   33.13    7.01
   1   0  -9   69.20   19.02
  -1   0  -9   67.12   20.69
   1   0   9   34.97   13.81
  -1   0   9   46.20   15.59
  -1   0   9   54.81    8.12
  -1   0   9   55.04   11.21
   1   0   9   23.94   15.64
   1   0   9   66.67   25.68
  -1   0   9   47.71   16.90
   1   0  -9   66.14   23.60
  -1   0  10  148.25   17.25
   1   0  10  155.91   23.82
  -1   0  10  131.65   11.56
   1   0  10  127.28   35.96
   1   0 -10  183.64   28.29
  -1   0 -10  102.06   10.00
   1   0  10  130.75   26.16
  -1   0 -10  170.83   29.01
  -1   0  10  153.72   25.10
  -1   0  10  153.85   23.87
   1   0 -10  100.53   26.78
  -1   0  11  732.85   50.35
   1   0 -11  848.89   63.54
  -1   0 -11  731.05   57.49
   1   0 -11  801.19   53.17
   1   0  11  704.50   55.44
  -1   0  11  819.02   40.31
   1   0  11  906.80   53.73
   1   0 -12 1272.78   79.90
   1   0  12 1293.48   64.83
  -1   0 -12 1085.02   69.73
   1   0  12 1366.64   78.95
  -1   0  12 1175.77   66.24
  -1   0  12 1197.99   51.03
   1   0  13   99.25   28.93
  -1   0 -13  180.83   35.39
   1   0  13  186.53   27.69
   1   0  13  193.28   33.00
  -1   0  13  188.09   29.96
   1   0 -13  231.73   41.21
  -1   0  13  177.93   21.32
  -1   0  14  984.18   64.64
  -1   0 -14  970.80   71.72
   1   0 -14 1075.97   78.03
   1   0  14  924.18   57.28
  -1   0  14  954.00   48.46
   1   0  14 1044.41   67.36
   1   0  15  127.11   29.83
  -1   0  15  218.88   33.94
  -1   0 -15  140.05   31.58
   1   0  15  210.93   29.11
   1   0 -15  200.54   37.09
  -1   0  15  160.27   21.72
   1   0  15  188.45   31.34
   1   0  16   93.62   22.17
  -1   0  16   76.63   23.24
   1   0 -16   80.91   26.53
  -1   0 -16   54.45   23.37
   1   0  16   69.44   21.43
  -1   0  16   82.11   15.40
   1   0 -16   90.25   29.94
   1   0  16   55.01   23.53
   1   0  17  270.92   34.86
   1   0 -17  242.55   36.65
   1   0  17  310.49   39.12
   1   0  17  257.75   41.31
  -1   0 -17  299.05   46.24
  -1   0  17  283.70   38.12
  -1   0 -18  528.63   58.51
   1   0  18  393.00   41.23
   1   0 -18  540.76   54.16
  -1   0  18  483.74   50.93
   1   0  18  423.52   51.14
  -1   0 -19   67.92   30.80
   1   0 -19   60.32   22.85
   1   0  19   56.76   20.75
  -1   0  19    5.25   15.66
  -1   0 -19   41.28   19.28
   1   0  19   39.41   20.69
   1   0  20    3.81   17.12
  -1   0 -20   45.87   21.14
  -1   0  20   10.12   15.32
   1   0  20   46.85   19.04
  -1   1  20   18.47   15.84
   1  -1  20   13.04   13.68
   1  -1  20   -5.34   16.37
  -1  -1 -20  -12.84   18.89
   1  -1  19  178.01   33.87
  -1  -1 -19  133.44   28.46
  -1  -1 -19  194.49   39.74
   1   1 -19  141.31   30.38
   1  -1  19  182.97   29.28
  -1   1  19  159.22   32.62
   1  -1  18   63.81   24.44
   1   1 -18   53.74   27.43
   1   1 -18   28.41   20.03
  -1  -1 -18   39.79   18.90
  -1  -1 -18    0.39   22.19
   1  -1  18   87.16   22.99
  -1   1  18   84.81   25.78
   1  -1  17  116.13   28.28
  -1  -1 -17  102.88   32.51
   1   1 -17  202.01   39.08
  -1  -1 -17  104.59   25.78
   1  -1  17  112.34   23.53
  -1   1  17  133.80   28.80
   1   1 -16   40.56   23.51
  -1  -1 -16   44.24   23.95
   1  -1  16   43.02   15.66
   1  -1  16   37.91   17.95
  -1   1  16   68.85   23.49
   1  -1  16   18.81   15.96
   1   1 -15  260.54   42.38
  -1   1  15  180.89   31.12
  -1   1  15  254.17   25.73
   1  -1  15  242.87   31.61
   1  -1  15  179.60   35.29
  -1  -1 -15  189.89   36.49
   1  -1  15  239.86   32.96
  -1   1  14   32.18   10.86
   1   1 -14   34.95   21.50
   1  -1  14   37.38   22.04
   1  -1  14   49.52   17.88
  -1  -1 -14   22.30   24.31
  -1   1  14   -2.00   13.67
   1  -1  14   46.77   19.79
   1  -1  13  299.21   33.72
   1  -1  13  199.82   37.11
   1  -1  13  347.21   38.29
   1   1 -13  283.84   36.13
  -1  -1 -13  307.13   42.78
   1   1 -13  339.66   45.59
  -1   1  13  295.56   35.97
  -1   1  13  308.21   26.45
   1   1 -12  259.02   41.72
   1  -1  12  234.33   28.94
   1   1 -12  224.39   31.18
  -1   1  12  275.84   34.65
   1  -1  12  239.65   34.28
  -1  -1 -12  267.00   39.39
  -1   1  12  217.94   21.54
   1  -1  12  187.24   36.13
   1  -1  11   56.22   15.64
  -1   1  11   95.13   22.74
   1  -1  11   43.62   21.89
   1   1 -11  113.72   32.73
  -1   1  11   82.14   13.82
   1   1 -11   48.08   21.14
  -1  -1 -11   36.46   23.72
  -1   1  11  104.44   24.22
   1  -1  11   82.49   23.23
   1   1 -10   23.72    5.28
   1  -1  10   25.10   24.06
   1  -1  10   31.08   14.58
  -1  -1 -10   54.57   24.94
   1  -1  10   31.35   16.11
  -1   1  10   29.68    9.41
  -1   1  10    7.54   13.57
  -1   1  10   22.91   17.02
   1   1 -10   19.59   14.85
   1   1 -10   49.33   23.46
   1   1  -9  767.13   56.18
   1  -1   9  829.17   50.33
  -1  -1  -9  705.50   51.87
  -1   1   9  733.65   47.43
  -1   1   9  796.31   34.41
  -1  -1  -9  737.31   25.73
   1   1  -9  769.27   45.43
  -1   1   9  706.62   29.49
  -1   1   9  734.18   47.52
   1  -1   9  763.00   58.23
   1  -1   9  713.38   48.12
   1   1  -9  733.19   23.55
  -1   1   8  601.43   40.22
   1  -1   8  567.43   40.13
   1   1  -8  559.67   44.18
   1   1  -8  547.33   21.40
  -1   1   8  595.48   40.68
  -1  -1  -8  499.98   40.27
   1  -1   8  582.51   45.04
   1  -1   8  536.95   38.67
  -1   1   8  591.50   27.90
   1   1  -8  594.08   37.24
   1  -1   8  630.23   23.50
   1   1  -7  413.45   35.94
  -1   1   7  428.31   32.40
   1  -1   7  466.20   34.76
   1   1  -7  437.48   19.91
   1  -1   7  444.62   20.15
   1  -1   7  454.27   34.58
  -1   1   7  429.68   22.03
   1  -1   7  436.43   31.56
  -1   1   7  397.06   32.03
  -1  -1  -7  461.63   37.41
   1   1  -7  453.89   30.33
   1  -1   6  279.45   24.11
  -1   1   6  258.71   24.52
   1  -1   6  285.19   16.78
   1  -1   6  261.25   24.96
   1   1  -6  281.31   26.78
   1  -1   6  302.77   23.46
  -1   1   6  276.69   25.59
   1   1  -6  270.70   23.16
  -1  -1  -6  307.32   28.95
   1   1  -6  299.48   17.15
  -1   1   6  248.43   15.41
   1  -1   6  257.13   18.23
   1   1  -5  178.15   19.63
  -1   1   5  171.65   11.29
   1  -1   5  172.51   13.59
   1   1  -5  162.22   16.11
   1  -1   5  158.24   18.66
  -1   1   5  168.03   16.92
   1  -1   5  176.42   14.81
  -1  -1  -5  172.01   19.69
  -1   1   5  162.42   18.42
   1   1  -5  175.75   13.67
   1  -1   5  150.81   15.55
  -1  -1  -4  204.42   19.29
   1  -1   4  207.13   16.20
   1  -1   4  222.21   16.04
  -1   1   4  208.69    9.91
   1   1  -4  212.81   15.75
   1  -1   4  226.47   19.70
   1  -1   4  230.64   16.08
   1   1  -4  217.45   14.54
   1   1  -4  224.69   15.73
  -1   1   4  222.74   18.60
  -1   1   4  203.26   10.97
  -1   1   4  202.22   16.49
   1   1  -3 1244.86   25.40
   1  -1   3 1342.04   38.65
   1  -1   3 1285.99   40.77
   1   1  -3 1259.40   31.97
   1  -1   3 1286.76   26.68
  -1  -1  -3 1257.95   35.90
  -1   1   3 1270.66   21.23
  -1   1   3 1225.60   32.46
   1  -1   3 1295.21   37.89
  -1   1   3 1233.49   36.88
   1  -1   3 1256.78   31.61
  -1   1   2 1936.39   22.31
   1  -1   2 2051.55   48.07
   1   1  -2 1918.57   24.63
   1   1  -2 1972.50   34.46
   1  -1   2 1984.97   46.77
   1  -1   2 2012.46   45.12
  -1   1   2 1945.70   40.20
   1  -1   2 2119.92   23.82
  -1   1   2 1904.08   35.33
  -1   1   2 1972.07   22.55
  -1   1   2 2078.86   38.32
  -1  -1  -2 1994.08   37.62
   1  -1   2 2021.13   35.97
  -1   1   1   43.04    6.09
   1  -1   1   30.97    3.94
  -1   1   1   37.46    4.83
   1   1  -1   41.13    5.78
  -1   1   1   33.68    5.24
   1  -1   1   37.66    9.65
   1  -1   1   39.78   10.34
   1  -1   1   35.13    6.53
  -1   1   1   38.35    4.44
   1   1  -1   39.42    5.15
  -1  -1  -1   34.51    5.37
  -1   1   1   28.62    4.98
  -1   1   1   35.82    3.86
  -1   1   0  251.52    9.92
  -1  -1   0  266.74   13.62
   1   1   0  238.99    9.28
  -1  -1   0  245.01   12.68
  -1  -1   0  235.96    9.12
   1  -1   0  251.26   11.53
  -1   1   0  271.60   12.99
   1  -1   0  245.45   17.80
   1  -1   0  250.58   17.66
   1  -1   0  244.62    9.71
  -1  -1   1   35.97    5.65
   1  -1  -1   47.48    6.24
   1   1   1   36.26    6.54
  -1   1  -1   39.64    6.85
   1  -1  -1   44.20    5.69
   1   1   1   43.59    6.52
   1  -1  -1   37.95    9.41
   1   1   1   36.01    4.68
   1  -1  -1   43.57   10.28
  -1  -1   1   39.58    4.87
  -1   1  -1   28.27    3.82
  -1   1  -2 2015.21   36.73
   1   1   2 2053.24   40.19
   1  -1  -2 1905.72   39.00
  -1  -1   2 1936.44   33.97
   1  -1  -2 2030.62   36.46
   1   1   2 1997.21   41.88
   1  -1  -2 1937.55   46.10
  -1  -1   2 1952.06   26.71
   1  -1  -2 1933.96   47.01
   1  -1  -2 1991.66   23.50
  -1  -1   3 1277.42   28.84
   1   1   3 1212.25   36.65
   1  -1  -3 1281.82   21.51
  -1  -1   3 1320.31   32.23
  -1   1  -3 1222.96   32.73
   1  -1  -3 1291.76   37.87
  -1  -1   3 1275.29   29.57
   1  -1  -3 1230.89   37.62
  -1   1  -3 1276.70   25.21
   1  -1  -3 1260.96   34.27
   1  -1  -3 1241.21   37.18
   1   1   3 1223.19   35.88
   1  -1  -4  213.27   11.22
  -1  -1   4  212.45   13.74
   1   1   4  214.97   17.97
  -1  -1   4  207.05   15.88
  -1   1  -4  224.07   13.61
   1  -1  -4  217.53   18.55
   1  -1  -4  212.37   17.18
   1  -1  -4  217.72   16.04
  -1   1  -4  224.08   16.51
   1  -1  -4  226.91   16.78
  -1  -1   4  210.82   16.08
   1   1   4  230.09   16.51
   1   1   4  199.46   18.33
  -1  -1   5  167.38   13.47
   1  -1  -5  188.69   19.99
  -1  -1   5  154.91   16.30
   1   1   5  187.92   20.99
  -1  -1   5  161.05   15.12
   1  -1  -5  171.10   14.12
   1   1   5  192.95   18.72
  -1   1  -5  154.93   16.24
   1  -1  -5  180.43   18.87
   1   1   5  180.71   15.01
   1  -1  -5  165.77   14.12
  -1  -1   6  261.47   18.93
   1   1   6  277.12   28.97
   1   1   6  300.38   18.10
   1  -1  -6  278.06   24.78
   1  -1  -6  277.97   17.72
  -1   1  -6  282.44   23.34
  -1  -1   6  271.69   21.40
  -1  -1   6  276.67   23.28
   1  -1  -6  251.10   22.49
   1  -1  -6  309.06   18.64
   1   1   6  256.14   22.55
  -1  -1   7  469.08   25.48
  -1  -1   7  460.95   31.51
   1   1   7  402.33   32.31
   1   1   7  462.34   42.33
  -1  -1   7  468.63   31.41
   1  -1  -7  456.68   21.97
   1   1   7  455.28   21.46
   1  -1  -7  459.36   33.13
   1   1   7  440.34   30.49
  -1   1  -7  416.94   30.87
   1   1   8  576.56   36.62
  -1  -1   8  601.76   38.47
  -1  -1   8  606.46   31.59
   1   1   8  582.99   23.41
   1   1   8  601.80   55.10
  -1   1  -8  592.98   40.68
   1  -1  -8  567.40   23.75
   1   1   8  578.20   41.85
  -1  -1   8  612.92   39.14
  -1   1  -9  787.75   51.03
   1   1   9  805.18   46.27
  -1  -1   9  865.30   48.26
   1  -1  -9  724.56   51.72
   1   1   9  755.59   67.62
  -1  -1   9  764.25   24.39
   1   1   9  847.59   26.82
   1   1   9  717.98   49.35
  -1  -1   9  793.08   38.85
  -1   1  -9  644.32   27.99
   1   1  10   48.27   34.62
   1   1  10   42.05   14.00
  -1   1 -10   16.40   19.01
   1   1  10   24.96    5.37
  -1  -1  10   28.04   15.50
   1  -1 -10   29.52   21.54
  -1  -1  10   26.58   10.24
   1   1  10   -2.46   14.74
  -1  -1  11   84.68   15.27
  -1   1 -11   46.92   24.43
  -1  -1  11   77.26   19.70
   1   1  11   79.90   22.21
   1   1  11   19.39   22.20
   1  -1 -11   80.88   26.63
   1   1  11   76.44   19.44
   1  -1 -12  236.00   31.78
  -1   1 -12  224.96   35.50
   1   1  12  251.03   30.59
  -1  -1  12  252.78   25.31
   1  -1 -12  241.22   37.72
  -1  -1  12  248.60   30.85
   1   1  12  217.67   41.16
   1   1  12  233.59   35.15
   1   1  13  321.25   34.03
   1  -1 -13  352.72   46.69
   1   1  13  273.65   44.64
   1  -1 -13  396.53   41.71
  -1   1 -13  326.23   41.90
  -1  -1  13  299.66   28.31
   1   1  13  301.37   40.42
  -1  -1  13  306.96   36.14
   1   1  14   16.62   19.87
   1  -1 -14   16.77   15.36
  -1   1 -14    4.04   20.17
   1   1  14   21.60   13.71
   1  -1 -14   42.23   27.86
   1   1  14   17.51   15.94
  -1  -1  14   18.44   13.02
  -1  -1  14   28.27   11.77
  -1   1 -15  181.20   35.50
  -1  -1  15  239.66   27.29
   1  -1 -15  257.02   35.52
   1   1  15  253.93   36.02
   1   1  15  246.76   31.12
   1   1  15  202.35   39.41
  -1  -1  15  238.13   34.21
   1   1  16   67.79   19.35
  -1  -1  16   46.65   14.20
   1  -1 -16   14.64   16.38
   1   1  16   66.99   26.41
   1   1  16   61.75   23.06
  -1   1 -16   85.54   30.97
  -1  -1  16   72.47   22.83
  -1  -1  17  179.31   32.84
   1   1  17  168.06   34.98
   1  -1 -17  102.45   27.52
   1   1  17  152.63   27.03
  -1   1 -17  153.75   36.04
   1   1  17  139.44   28.38
   1   1  18   76.09   27.63
  -1   1 -18   99.72   32.84
  -1  -1  18   62.53   21.38
   1   1  18   47.43   17.62
   1  -1 -18    3.74   18.69
   1   1  18   60.20   20.57
  -1   1 -19  152.38   36.48
   1  -1 -19  154.74   31.61
   1   1  19  161.27   35.25
   1   1  19  151.07   27.60
  -1  -1  19  208.61   35.57
  -1  -1  20   24.19   18.80
   1   1  20   -8.41   19.02
   1   1  20    8.99   13.55
   1  -2  20   84.17   23.04
  -1  -2 -20   80.88   23.20
   1  -2  19   70.82   21.82
   1   2 -19  101.83   29.97
   1  -2  19   93.01   24.45
  -1   2  19   65.40   24.33
  -1  -2 -19   45.19   20.89
   1   2 -18   16.93   22.15
  -1   2  18   29.32   19.28
  -1  -2 -18   73.94   21.78
   1  -2  18   53.47   17.67
   1  -2  18   54.81   21.44
  -1  -2 -18   68.92   28.89
  -1   2  17  188.06   32.57
   1  -2  17  154.88   31.27
   1  -2  17  140.17   25.21
  -1  -2 -17  119.73   26.82
   1   2 -17  169.77   37.11
  -1  -2 -17  236.64   42.80
  -1   2  16   99.94   24.67
  -1  -2 -16   88.49   22.20
   1  -2  16   95.48   21.41
  -1  -2 -16   72.11   26.83
   1   2 -16  152.29   33.22
   1  -2  16   86.49   25.01
   1   2 -15    6.08   20.69
   1  -2  15   24.34   14.61
   1  -2  15   45.16   19.03
   1  -2  15   21.98   19.91
  -1  -2 -15   -6.87   16.54
  -1  -2 -15   12.75   21.43
  -1   2  15    0.87   14.72
   1   2 -15   42.51   20.81
  -1  -2 -14  340.47   35.64
   1  -2  14  289.49   38.74
   1   2 -14  337.53   43.44
   1  -2  14  383.18   38.32
  -1  -2 -14  345.30   45.86
  -1   2  14  353.47   41.40
   1   2 -14  319.88   39.81
   1  -2  14  400.84   40.20
  -1   2  14  395.57   29.97
   1   2 -13  437.57   43.05
   1  -2  13  294.37   41.10
   1  -2  13  465.10   41.18
   1   2 -13  565.68   54.29
  -1   2  13  541.28   33.59
  -1   2  13  396.11   41.65
  -1  -2 -13  462.07   49.58
   1  -2  13  462.50   42.49
   1   2 -12   49.98   24.29
  -1   2  12   23.58    9.08
   1   2 -12   33.96   19.17
  -1   2  12   30.27   17.54
   1  -2  12    7.89   16.29
  -1  -2 -12   49.30   23.80
   1  -2  12   23.84   14.13
  -1   2  12   38.16   18.30
   1  -2  12   25.91   15.79
  -1   2  11  221.99   21.05
   1  -2  11  230.17   29.38
   1  -2  11  155.05   32.73
   1   2 -11  180.57   35.00
  -1   2  11  193.98   29.20
   1  -2  11  203.05   30.96
  -1  -2 -11  171.64   33.26
   1   2 -11  184.91   27.50
  -1   2  11  208.35   31.43
   1  -2  10  970.56   55.16
   1  -2  10 1065.00   28.57
   1  -2  10  975.27   66.01
   1   2 -10  961.88   26.83
   1   2 -10  956.73   52.93
  -1   2  10 1078.67   41.70
   1   2 -10 1020.44   70.25
   1  -2  10 1061.12   60.53
  -1   2  10  991.96   58.65
  -1   2  10 1026.63   59.73
  -1  -2 -10  946.28   63.23
   1  -2   9  394.33   38.29
   1   2  -9  438.04   44.80
  -1   2   9  377.17   36.38
   1  -2   9  406.97   35.26
  -1  -2  -9  409.88   43.13
   1   2  -9  429.77   34.04
  -1   2   9  386.19   36.60
   1   2  -9  386.58   18.56
  -1   2   9  420.43   24.56
   1  -2   9  383.21   35.20
   1  -2   9  457.60   20.25
   1  -2   8  292.20   30.69
   1   2  -8  361.94   37.19
   1   2  -8  307.33   17.40
   1  -2   8  346.57   18.37
   1  -2   8  357.49   32.00
  -1   2   8  341.05   20.35
   1  -2   8  364.37   31.16
  -1   2   8  363.32   32.95
   1   2  -8  313.18   28.08
  -1  -2  -8  319.56   36.25
  -1   2   8  332.72   32.04
   1   2  -7 1003.63   53.36
   1  -2   7 1007.54   52.36
  -1   2   7 1013.18   31.20
   1  -2   7 1046.76   46.71
  -1   2   7 1005.92   51.91
   1  -2   7 1054.03   32.65
   1   2  -7 1087.76   44.75
  -1  -2  -7  953.82   54.07
  -1   2   7  996.97   49.56
   1  -2   7 1032.01   45.51
   1  -2   6 1227.05   55.17
   1   2  -6 1155.66   50.70
  -1   2   6 1232.58   29.98
  -1   2   6 1200.35   53.18
   1  -2   6 1176.27   42.02
   1   2  -6 1241.66   43.96
   1  -2   6 1251.09   36.52
  -1   2   6 1205.33   48.10
  -1  -2  -6 1091.48   54.03
   1  -2   6 1206.13   43.45
   1   2  -5   51.61    9.71
  -1  -2  -5   40.76   14.11
   1  -2   5   62.13    9.55
  -1   2   5   35.02    9.81
   1  -2   5   52.56    8.34
   1  -2   5   45.55    8.74
  -1   2   5   60.17   13.83
  -1   2   5   55.00    5.63
   1   2  -5   36.84   10.55
   1  -2   5   41.53   11.33
  -1  -2  -4 1376.31   51.07
   1   2  -4 1494.22   41.10
   1  -2   4 1368.47   51.14
  -1  -2  -4 1423.28   33.70
  -1   2   4 1466.30   42.65
   1   2  -4 1449.59   38.49
  -1   2   4 1391.19   49.89
   1  -2   4 1400.36   35.27
   1  -2   4 1451.81   41.94
   1   2  -4 1471.29   35.99
  -1   2   3 1224.65   34.51
  -1  -2  -3 1266.23   25.28
   1  -2   3 1180.48   41.84
   1   2  -3 1191.09   21.05
   1  -2   3 1267.73   21.90
  -1  -2  -3 1263.33   42.52
   1   2  -3 1280.42   32.12
   1  -2   3 1301.99   41.40
   1  -2   3 1160.52   43.00
  -1   2   3 1234.26   42.63
   1  -2   3 1229.99   29.34
   1   2  -2   56.25    7.12
  -1  -2  -2   63.95    4.57
   1  -2   2   83.20   12.56
   1  -2   2   59.16   11.13
   1  -2   2   78.06   11.94
  -1   2   2   61.91    9.04
   1  -2   2   67.12    3.93
  -1   2   2   61.64   10.68
  -1   2   2   54.45    8.04
  -1  -2  -2   54.60    9.04
   1  -2   1  922.56   36.81
  -1   2   1  950.73   24.30
  -1   2   1 1000.13   20.89
   1  -2   1  905.82   36.29
  -1  -2  -1  945.32   27.83
   1  -2   1  952.37   21.03
  -1   2   1  900.16   24.72
   1  -2   1  928.99   30.04
   1   2  -1  948.98   22.80
  -1  -2  -1  996.82   24.57
  -1   2   1  978.06   29.47
  -1  -2   0 3984.28   34.21
  -1  -2   0 4122.55   54.09
   1  -2   0 3779.66   73.05
   1  -2   0 4096.93   45.33
  -1   2   0 4115.80   47.50
   1   2   0 3869.16   25.62
  -1   2   0 4052.47   46.18
   1  -2   0 3754.85   71.56
   1  -2   0 4025.15   50.47
  -1   2   0 3909.87   52.72
   1   2   0 3995.74   43.30
   1  -2  -1  955.89   17.35
   1  -2  -1  885.53   35.57
  -1   2  -1  919.66   30.34
   1   2   1  922.05   20.33
  -1   2  -1  936.71   16.84
   1   2   1  995.96   26.69
  -1  -2   1  937.46   26.22
   1  -2  -1  907.73   23.56
   1  -2  -1  925.12   24.99
   1  -2  -1  970.90   36.48
  -1   2  -1  906.93   21.73
  -1  -2   2   66.47    6.01
  -1  -2   2   58.74    8.35
   1  -2  -2   57.61   11.72
   1   2   2   57.92    8.29
   1  -2  -2   55.73    7.76
  -1   2  -2   77.99    4.89
   1  -2  -2   62.17   11.69
  -1  -2   3 1220.76   32.49
   1   2   3 1259.15   37.44
  -1   2  -3 1191.85   32.40
   1  -2  -3 1233.53   34.27
  -1   2  -3 1190.64   26.57
  -1  -2   3 1291.74   27.41
  -1  -2   3 1271.21   30.96
  -1   2  -3 1234.78   20.27
   1  -2  -3 1187.15   40.96
   1   2   3 1258.99   38.82
   1  -2  -3 1279.91   42.30
   1   2   4 1473.98   49.69
  -1  -2   4 1314.08   38.76
   1  -2  -4 1375.50   40.92
   1  -2  -4 1366.68   42.74
  -1   2  -4 1361.84   35.12
  -1   2  -4 1406.34   38.52
   1  -2  -4 1348.17   22.32
   1   2   4 1362.20   42.52
  -1  -2   4 1467.75   37.63
  -1   2  -4 1375.36   28.80
  -1  -2   4 1355.78   35.61
   1  -2  -5   51.93    9.58
   1  -2  -5   45.68    6.55
  -1   2  -5   49.51    9.66
   1   2   5   41.23   15.43
   1  -2  -5   55.21   11.61
  -1  -2   5   45.00    8.87
   1   2   5   52.43   10.39
  -1   2  -5   41.17    9.55
  -1  -2   5   53.67   10.27
  -1   2  -5   37.01    6.72
  -1  -2   5   41.46    8.69
  -1   2  -6 1269.45   45.00
   1  -2  -6 1193.70   46.20
   1  -2  -6 1231.82   38.89
   1   2   6 1191.50   46.04
  -1  -2   6 1209.91   41.40
   1   2   6 1232.55   61.37
  -1  -2   6 1264.88   43.53
  -1   2  -6 1276.32   44.07
  -1  -2   7 1088.81   41.83
   1  -2  -7 1022.30   46.46
   1   2   7 1036.65   63.84
   1   2   7 1025.03   45.36
   1  -2  -7 1056.66   35.44
  -1   2  -7 1016.91   43.14
  -1   2  -7 1064.14   45.46
  -1  -2   7 1073.50   43.40
  -1   2  -8  325.04   29.57
  -1  -2   8  343.52   25.13
   1   2   8  342.96   33.33
   1   2   8  357.87   29.09
   1   2   8  280.76   42.81
   1  -2  -8  347.18   20.02
  -1   2  -8  323.91   27.60
   1   2   8  322.88   18.89
  -1  -2   8  328.62   27.61
   1  -2  -8  343.98   30.39
  -1  -2   9  430.77   30.03
   1  -2  -9  396.88   20.46
   1   2   9  407.70   32.88
  -1   2  -9  398.51   36.62
  -1  -2   9  378.20   31.78
   1  -2  -9  362.09   33.84
   1   2   9  334.05   49.41
   1   2   9  449.04   21.26
   1   2   9  405.34   38.09
  -1   2 -10  956.60   56.61
   1   2  10 1053.76   53.59
   1   2  10  926.66   59.44
   1  -2 -10  961.92   29.42
   1   2  10 1058.61   29.93
  -1  -2  10 1006.79   53.81
  -1  -2  10  988.46   47.45
   1  -2 -10  864.37   52.43
  -1   2 -11  162.23   30.40
   1   2  11  177.66   31.70
   1  -2 -11  147.52   27.11
  -1  -2  11  213.95   24.72
   1   2  11  203.32   25.99
  -1  -2  11  211.34   28.98
  -1  -2  12   34.29   13.18
   1   2  12   62.68   17.93
   1   2  12   21.10   18.49
   1  -2 -12   13.80   14.72
  -1  -2  12   46.98   17.64
  -1   2 -12   34.71   19.57
  -1   2 -13  429.62   47.15
   1  -2 -13  438.90   43.36
  -1  -2  13  441.26   35.76
   1   2  13  528.79   53.21
   1   2  13  451.16   39.79
   1   2  13  324.84   48.32
  -1  -2  13  418.48   40.77
  -1   2 -14  341.13   44.44
  -1  -2  14  417.52   42.73
  -1  -2  14  394.33   34.62
   1   2  14  435.76   40.99
   1  -2 -14  344.62   39.99
   1   2  14  241.18   41.68
   1   2  14  337.70   43.65
  -1  -2  15   17.52   10.53
  -1   2 -15   36.44   24.02
   1   2  15   27.04   19.57
   1  -2 -15    3.97   14.77
  -1  -2  15   26.30   17.76
   1   2  15   18.61   14.32
   1   2  15   33.52   20.99
  -1  -2  16  130.48   21.59
  -1  -2  16  132.75   27.31
   1  -2 -16   91.68   26.18
   1   2  16  125.01   24.04
   1   2  16   89.99   29.27
  -1   2 -16  104.18   32.53
   1   2  16  140.38   29.28
   1   2  17  142.34   26.29
   1   2  17  183.28   39.30
   1  -2 -17  151.17   31.67
  -1  -2  17  187.30   33.00
   1   2  17  150.09   29.34
  -1   2 -17  237.07   41.97
  -1  -2  17  166.01   24.45
   1   2  18   79.24   29.59
  -1   2 -18   41.76   24.73
   1  -2 -18   48.95   22.10
  -1  -2  18   24.54   16.74
   1   2  18   13.74   14.57
   1   2  18   53.32   18.19
   1   2  19   99.23   28.05
   1  -2 -19   35.77   21.32
  -1  -2  19   20.98   15.28
  -1   2 -19   77.27   30.66
   1   2  19   73.07   21.01
  -1  -2  20   70.22   23.76
   1   2  20   81.76   21.94
   1   3 -20  237.73   40.38
  -1  -3 -20  177.45   32.01
  -1  -3 -19   23.43   18.72
   1  -3  19   19.28   14.37
  -1   3  19   16.65   18.67
  -1  -3 -19   28.81   24.06
   1   3 -19   51.34   23.50
  -1  -3 -18   38.29   28.13
   1  -3  18   49.67   20.10
   1   3 -18   -5.89   20.16
   1  -3  18   29.10   16.78
  -1  -3 -18   11.67   14.01
  -1   3  18   49.60   20.66
  -1  -3 -17   10.38   15.67
   1  -3  17   30.13   15.35
  -1   3  17   24.27   19.07
  -1  -3 -17  -26.33   26.88
   1  -3  17   36.95   16.81
   1   3 -17   58.98   23.99
  -1  -3 -16  728.71   67.01
   1   3 -16  690.02   61.61
  -1  -3 -16  595.88   49.60
   1  -3  16  640.82   51.48
   1   3 -16  654.31   59.22
  -1   3  16  622.11   55.69
   1  -3  16  495.60   49.60
  -1   3  15   81.93   23.66
   1   3 -15  108.29   29.04
  -1  -3 -15   90.88   28.52
   1  -3  15   56.33   19.28
   1  -3  15   30.12   15.69
   1   3 -15   72.65   21.69
  -1  -3 -15   96.82   23.45
   1   3 -14  238.93   37.22
  -1  -3 -14  281.03   33.74
   1  -3  14  230.00   35.25
   1   3 -14  213.41   33.92
   1  -3  14  270.28   32.97
  -1   3  14  255.72   36.86
   1  -3  14  187.10   27.25
  -1  -3 -14  287.54   42.55
   1  -3  13   64.87   19.39
  -1  -3 -13   66.16   27.13
  -1   3  13   64.71   19.99
   1  -3  13   42.95   19.37
  -1   3  13   85.78   14.30
   1   3 -13   94.59   27.33
  -1   3  13   92.34   24.08
   1  -3  13   98.99   19.83
   1   3 -13   56.61   20.90
  -1  -3 -13   63.94   17.60
  -1   3  12  734.63   55.26
  -1   3  12  722.27   54.22
  -1   3  12  732.04   36.48
   1   3 -12  774.69   61.72
  -1  -3 -12  684.60   58.72
   1   3 -12  633.27   48.85
  -1  -3 -12  642.82   44.36
   1  -3  12  619.68   53.13
   1  -3  12  648.07   47.29
   1  -3  12  735.18   49.67
   1  -3  11   41.28   16.89
  -1   3  11   48.57   10.60
   1   3 -11  112.35   31.37
  -1   3  11   71.55   23.40
  -1  -3 -11   24.47   12.74
  -1   3  11   78.31   23.63
   1   3 -11   74.11   21.01
  -1  -3 -11   66.27   25.84
   1  -3  11   29.74   17.76
   1  -3  11   55.87   17.94
   1  -3  10 1594.11   74.72
  -1  -3 -10 1675.50   84.04
  -1   3  10 1469.87   71.43
   1  -3  10 1501.12   69.01
  -1   3  10 1552.61   46.59
   1  -3  10 1774.43   40.69
  -1   3  10 1574.89   76.13
   1   3 -10 1764.70   88.19
  -1  -3 -10 1594.66   62.27
   1   3 -10 1549.77   66.22
   1   3 -10 1531.07   38.38
   1  -3  10 1637.91   71.76
  -1  -3  -9  160.22   20.00
  -1   3   9  176.48   27.71
   1   3  -9  200.38   34.35
  -1   3   9  213.80   30.43
  -1   3   9  167.28   14.84
   1  -3   9  183.91   14.28
   1  -3   9  158.37   25.11
   1  -3   9  198.01   26.41
  -1  -3  -9  260.51   37.97
   1   3  -9  192.94   24.64
   1  -3   9  206.78   26.73
   1   3  -8   64.69   20.60
   1  -3   8   37.93   14.59
   1  -3   8   33.00   12.61
  -1  -3  -8   66.09   23.26
  -1   3   8   30.86    6.50
  -1   3   8   38.80   18.92
   1   3  -8   31.84   11.85
  -1  -3  -8   23.36   10.50
   1  -3   8   33.39    7.95
  -1   3   8   33.64   14.75
   1  -3   8   29.21   12.90
   1   3  -7   57.77   15.32
  -1   3   7   66.72   16.82
  -1   3   7   74.89    8.15
   1  -3   7   78.80   18.07
  -1  -3  -7   53.38   11.82
   1  -3   7   79.07   13.50
   1   3  -7   90.18   15.82
  -1  -3  -7   96.06   24.44
   1  -3   7   87.87   11.24
   1  -3   7   58.88   11.87
  -1   3   7   74.67   18.85
   1   3  -6 2562.80   76.85
  -1  -3  -6 2702.05   58.66
  -1   3   6 2861.75   89.10
  -1  -3  -6 2790.17   89.16
   1  -3   6 2702.48   81.11
   1   3  -6 2802.22   64.09
   1  -3   6 2649.49   58.83
   1  -3   6 2724.53   59.61
  -1   3   6 2762.79   37.89
  -1   3   6 2732.50   73.49
   1  -3   6 2639.31   58.06
   1  -3   5  411.30   20.26
   1  -3   5  425.97   32.02
   1  -3   5  410.84   24.67
   1   3  -5  378.19   23.25
  -1  -3  -5  365.29   31.51
  -1   3   5  423.04   27.47
  -1  -3  -5  405.68   20.54
   1   3  -5  382.54   26.53
   1  -3   5  385.17   17.24
   1   3  -5  388.95   22.61
  -1   3   5  435.32   34.93
   1   3  -4 1826.19   44.70
  -1   3   4 1829.04   49.35
  -1  -3  -4 1808.66   61.93
   1  -3   4 1839.76   37.18
   1   3  -4 1844.78   43.56
   1  -3   4 1840.13   53.19
  -1  -3  -4 1814.40   37.06
   1   3  -4 1838.47   38.87
  -1   3   4 1843.67   63.84
   1  -3   4 1749.67   60.41
  -1   3   3  174.24   15.11
  -1  -3  -3  179.27   19.05
   1   3  -3  204.37   14.53
  -1  -3  -3  185.98   10.17
   1  -3   3  194.52    9.36
  -1   3   3  197.52   20.86
   1  -3   3  211.15   21.00
   1  -3   2  743.55   34.06
  -1  -3  -2  623.02   29.11
  -1   3   2  666.35   32.43
   1   3  -2  684.25   22.90
   1  -3   2  675.20   14.68
  -1   3   2  718.68   25.65
  -1  -3  -2  727.47   16.46
  -1  -3  -1  229.70   15.06
   1  -3   1  223.18   17.25
  -1   3   1  251.05    8.57
  -1  -3  -1  218.24   15.29
   1   3  -1  251.07   13.57
  -1  -3  -1  241.32    8.64
  -1   3   1  244.39   17.58
  -1   3   1  251.86   14.52
   1  -3   1  238.47   12.73
  -1  -3  -1  227.43   14.92
  -1  -3   0 4409.94   43.79
   1  -3   0 4601.14   55.08
   1   3   0 4589.14   53.41
   1   3   0 4655.55   37.39
  -1  -3   0 4499.99   50.83
   1   3   0 4490.43   31.15
   1  -3   0 4265.38   62.41
  -1  -3   0 4582.40   62.49
  -1   3   0 4298.18   59.77
   1  -3   0 4538.77   51.31
   1  -3  -1  247.32   13.97
  -1   3  -1  256.65   11.00
   1   3   1  255.81   12.60
   1   3   1  265.68   14.62
   1  -3  -1  244.70   12.15
  -1   3  -1  243.21    7.84
   1   3   1  271.00    9.35
  -1  -3   1  240.93   14.90
   1   3   2  779.27   18.37
   1  -3  -2  724.14   25.02
  -1  -3   2  751.80   26.31
  -1   3  -2  741.75   15.33
   1   3   2  748.83   27.75
  -1   3  -3  197.55   14.42
  -1  -3   3  198.94   15.21
  -1   3  -3  192.98   10.04
   1   3   3  214.92   17.46
   1  -3  -3  194.63   14.97
  -1  -3   3  204.05    9.84
   1  -3  -4 1833.45   47.31
   1   3   4 1862.54   58.16
  -1   3  -4 1759.75   36.15
   1   3   4 1792.75   49.34
  -1  -3   4 1812.95   45.06
  -1   3  -4 1799.98   43.92
  -1  -3   4 1779.02   36.75
  -1   3  -5  396.12   20.62
   1  -3  -5  400.25   24.89
   1  -3  -5  399.03   25.99
   1  -3  -5  372.29   15.50
  -1   3  -5  375.97   12.84
  -1  -3   5  427.16   23.85
   1   3   5  391.54   24.66
   1   3   5  379.41   32.38
  -1   3  -5  360.97   21.99
  -1  -3   6 2782.92   64.27
  -1   3  -6 2581.09   57.60
  -1   3  -6 2739.57   64.18
   1   3   6 2733.90   68.36
  -1  -3   6 2846.44   62.83
   1  -3  -6 2751.14   64.94
  -1   3  -6 2476.36   40.90
   1  -3  -6 2738.87   68.81
   1   3   6 2700.69   92.05
   1  -3  -6 2477.14   51.36
   1  -3  -7   73.94   16.10
   1   3   7   80.95   25.05
   1  -3  -7   89.03   12.89
  -1  -3   7   73.64   13.00
   1   3   7   63.06   14.06
  -1   3  -7   63.26   12.73
  -1  -3   7   75.19   13.63
  -1   3  -7   73.21   15.29
   1   3   8   28.21   10.68
  -1   3  -8   29.84   10.87
  -1   3  -8   50.55   13.49
   1  -3  -8   43.49    9.94
   1  -3  -8   42.11   13.24
  -1  -3   8   25.72   10.72
  -1  -3   8   34.60   12.09
   1   3   8   17.77   20.85
  -1   3  -9  163.84   21.34
  -1   3  -9  183.36   24.51
  -1  -3   9  172.57   20.06
   1   3   9  191.96   23.06
   1  -3  -9  142.87   21.92
   1  -3  -9  168.30   15.17
  -1  -3   9  193.82   22.39
  -1   3 -10 1607.81   71.33
   1  -3 -10 1505.71   41.17
  -1   3 -10 1549.80   63.90
   1   3  10 1753.79   43.60
  -1  -3  10 1757.37   64.67
   1   3  10 1483.97   76.89
   1   3  10 1583.34   64.19
  -1  -3  10 1641.49   66.03
   1  -3 -10 1507.61   65.71
  -1  -3  11   58.89   14.76
   1   3  11   54.44   14.79
   1  -3 -11   46.79   18.65
  -1   3 -11   52.80   17.74
   1  -3 -11   41.60    7.55
  -1  -3  11   46.66   17.28
  -1   3 -11   41.78   21.35
   1   3  11   70.78   22.90
  -1   3 -12  662.45   53.80
   1   3  12  736.76   47.66
   1  -3 -12  608.42   48.01
  -1  -3  12  749.47   46.61
  -1  -3  12  769.23   52.19
   1   3  12  770.91   61.05
   1   3  13   59.24   24.40
  -1  -3  13  107.34   20.31
   1  -3 -13   51.04   18.13
  -1   3 -13   53.87   21.54
  -1  -3  13   66.87   19.76
   1   3  13   87.59   19.05
   1   3  14  259.04   31.89
  -1   3 -14  204.45   35.92
   1  -3 -14  257.55   35.35
  -1  -3  14  254.43   29.11
   1   3  14  166.99   35.55
  -1  -3  14  269.04   34.10
   1   3  14  241.47   38.59
   1   3  15   48.66   23.09
   1  -3 -15   78.30   24.42
  -1   3 -15   55.95   25.79
   1   3  15   79.05   19.85
  -1  -3  15   98.25   20.76
   1   3  15   96.98   26.85
  -1  -3  15   75.31   22.32
  -1  -3  16  701.71   49.86
   1   3  16  580.90   60.60
  -1   3 -16  529.35   56.53
   1   3  16  722.19   53.10
   1  -3 -16  680.20   57.68
  -1  -3  16  759.19   59.23
   1   3  16  618.15   57.57
   1  -3 -17    5.08   16.53
  -1  -3  17   46.52   22.71
  -1  -3  17   14.85   12.50
   1   3  17   18.01   19.40
  -1   3 -17   41.72   28.45
   1   3  17   35.40   15.95
   1  -3 -18   25.69   19.13
   1   3  18   30.14   22.59
  -1  -3  18   48.26   17.12
  -1  -3  18   35.84   22.50
   1   3  18   58.33   19.41
  -1   3 -18   23.43   24.60
  -1   3 -19    1.53   23.68
   1   3  19    3.07   18.76
   1  -3 -19   19.81   19.91
   1   3  19    2.14   12.51
  -1  -3  19   42.59   19.58
  -1  -3  20  177.63   34.07
   1   3  20  231.81   33.28
  -1  -4 -20   13.47   15.73
   1   4 -19  -34.36   23.52
  -1  -4 -19   29.45   17.03
   1  -4  19   56.05   20.56
  -1  -4 -19   16.89   22.72
  -1   4  19   22.37   18.46
  -1  -4 -18   60.33   21.75
  -1  -4 -18   55.79   26.25
   1   4 -18   79.28   26.75
   1  -4  18  104.59   24.98
  -1   4  18  116.26   29.73
   1   4 -17  161.45   34.12
  -1  -4 -17  193.48   39.82
  -1   4  17  182.46   33.43
   1   4 -17  234.10   40.20
  -1  -4 -17  143.26   27.48
   1  -4  17  243.56   35.03
   1  -4  16   22.63   14.48
  -1  -4 -16   37.14   18.31
   1  -4  16   20.71   15.08
   1   4 -16   26.02   20.04
  -1  -4 -16   14.84   23.59
   1   4 -16   -3.45   17.21
  -1   4  16   27.25   18.77
  -1  -4 -15  475.72   52.64
   1   4 -15  562.80   55.20
   1   4 -15  469.96   48.59
   1  -4  15  395.07   41.60
   1  -4  15  337.44   38.88
  -1   4  15  532.37   52.09
  -1  -4 -15  426.38   40.88
  -1   4  14  275.23   38.04
  -1  -4 -14  276.58   42.54
   1  -4  14  201.36   32.00
   1   4 -14  244.18   36.86
  -1  -4 -14  265.16   31.96
   1  -4  14  272.91   33.18
  -1   4  14  242.63   36.20
   1   4 -14  310.04   40.86
   1  -4  13   20.51   14.21
  -1  -4 -13   16.99   14.74
  -1   4  13   12.52   15.27
   1   4 -13   -3.14   15.59
   1  -4  13    1.10   10.99
   1   4 -13   -4.65   19.67
  -1   4  13   -2.12   15.67
   1  -4  13   13.14   14.46
  -1  -4 -13   -1.61   20.65
   1   4 -12   34.24   19.24
   1  -4  12   70.52   17.72
   1  -4  12   34.08   14.67
  -1  -4 -12   49.29   16.14
  -1   4  12   51.52    9.87
  -1   4  12   51.66   20.53
  -1  -4 -12   35.27   21.99
   1  -4  12   50.07   18.75
  -1   4  12   56.57   20.12
   1   4 -12   20.07   14.46
  -1  -4 -11 1285.29   77.13
   1   4 -11 1353.57   76.64
  -1   4  11 1204.33   69.56
   1  -4  11 1291.75   60.45
   1   4 -11 1238.57   62.86
   1  -4  11 1138.74   62.82
  -1   4  11 1191.07   41.62
  -1   4  11 1282.86   73.76
  -1  -4 -11 1172.70   55.79
   1  -4  11 1187.18   64.05
  -1  -4 -10   81.56   26.26
   1  -4  10   82.03   19.51
   1  -4  10   69.72   17.70
   1   4 -10   77.60   18.58
   1   4 -10  120.92   30.67
  -1  -4 -10   62.17   15.59
  -1   4  10   88.42   23.67
  -1   4  10   58.51   20.70
   1  -4  10   93.56   11.48
   1  -4  10   88.47   17.91
  -1   4  10   98.54   12.13
  -1  -4  -9  926.89   62.45
   1   4  -9  988.49   61.38
   1   4  -9  916.44   47.48
   1  -4   9  867.71   52.08
   1  -4   9  975.74   35.86
   1  -4   9  942.70   49.28
  -1  -4  -9  820.89   41.99
  -1   4   9  900.58   55.37
  -1   4   9  883.39   30.56
  -1   4   9  921.98   59.76
   1  -4   9  907.62   45.80
   1   4  -8  498.72   43.96
   1  -4   8  394.61   34.84
  -1   4   8  416.69   36.18
   1  -4   8  397.34   24.36
  -1  -4  -8  371.00   26.74
  -1  -4  -8  472.74   45.13
   1   4  -8  428.19   31.56
  -1   4   8  448.68   42.97
   1  -4   8  397.99   30.89
  -1   4   8  420.42   19.21
   1  -4   8  407.76   27.46
  -1  -4  -7  642.63   48.42
  -1  -4  -7  670.06   32.23
  -1   4   7  716.96   50.48
  -1   4   7  669.82   41.58
   1   4  -7  800.31   50.94
   1   4  -7  686.39   35.49
   1  -4   7  631.62   33.28
   1  -4   7  683.34   44.03
   1  -4   7  678.39   32.74
   1  -4   7  654.41   30.33
   1   4  -6  111.78   14.53
   1   4  -6  103.69   17.66
  -1  -4  -6   99.58   21.62
  -1   4   6   98.02   21.12
   1  -4   6   96.53   18.13
  -1   4   6   97.58   17.03
   1  -4   6  110.98   12.58
  -1  -4  -6  113.09   13.00
   1  -4   6  111.95   11.83
  -1  -4  -5 3162.84   87.25
  -1   4   5 3315.69   77.46
   1  -4   5 3248.56   51.60
   1   4  -5 2983.40   73.99
   1  -4   5 3307.77   87.44
   1  -4   5 3236.19   43.71
  -1   4   5 3310.50   93.75
  -1  -4  -5 3291.23   57.51
   1   4  -5 3353.47   65.41
   1   4  -5 2876.24   64.55
  -1  -4  -4  327.68   26.71
   1   4  -4  333.19   19.65
   1   4  -4  289.12   16.01
   1  -4   4  359.20   28.35
  -1   4   4  326.42   23.11
  -1   4   4  290.83   26.84
  -1  -4  -4  307.55   16.24
   1   4  -4  327.27   20.66
   1  -4   4  308.37   14.77
   1  -4   3  223.14   23.72
  -1  -4  -3  214.39   20.22
  -1   4   3  202.95   17.12
   1   4  -3  201.43   14.96
  -1  -4  -3  194.30   11.62
   1   4  -3  208.75   11.10
   1  -4   3  220.30   21.76
  -1   4   3  223.27   22.33
  -1   4   2  124.69   12.32
  -1  -4  -2  130.90    8.54
   1   4  -2  125.39   11.03
  -1  -4  -2  135.98   14.08
   1  -4   2  143.67   16.12
  -1   4   2  134.65   16.34
  -1  -4  -2  141.82   13.79
   1  -4   2  141.45   21.46
  -1   4   1 2664.79   49.59
   1  -4   1 2764.27   85.90
  -1  -4  -1 2617.61   48.49
  -1  -4  -1 2622.64   44.03
  -1  -4  -1 2584.74   34.58
  -1   4   1 2634.53   56.66
   1  -4   1 2571.01   45.29
   1   4  -1 2602.51   45.28
   1  -4   1 2719.64   62.94
   1  -4   1 2731.39   40.57
  -1  -4  -1 2648.73   52.28
  -1   4   1 2656.22   30.20
   1   4   0  495.99   15.53
   1   4   0  449.14   14.42
   1   4   0  451.02   19.33
   1  -4   0  476.20   20.11
   1  -4   0  495.35   24.23
   1   4   0  461.96   17.73
   1  -4   0  462.15   23.71
  -1  -4   0  470.35   22.34
   1  -4   0  436.94   35.65
  -1   4   0  474.54   20.59
  -1   4   0  476.76   16.88
  -1   4   0  473.21   20.81
  -1  -4   0  484.58   15.17
   1  -4  -1 2685.70   47.39
   1   4   1 2728.26   35.85
  -1   4  -1 2547.75   31.53
   1   4   1 2695.88   47.07
   1  -4  -1 2442.33   81.80
   1  -4  -1 2583.10   47.54
  -1  -4   1 2618.48   52.13
  -1   4  -1 2663.13   34.49
  -1   4  -2  131.55    7.83
   1  -4  -2  133.87   12.73
   1   4   2  142.78   13.45
  -1  -4   2  140.89   14.23
   1  -4  -2  130.51   20.10
  -1   4  -3  199.70   10.80
   1  -4  -3  189.05   16.37
  -1  -4   3  222.20   16.99
   1  -4  -3  191.05   23.61
   1   4   3  216.91   18.77
  -1   4  -4  349.65   20.48
  -1  -4   4  308.23   11.78
   1   4   4  327.16   27.53
  -1  -4   4  309.98   20.73
   1  -4  -4  296.20   28.26
   1  -4  -4  317.77   20.99
  -1   4  -4  310.04   15.25
  -1   4  -5 3380.68   65.97
   1   4   5 3328.22   92.56
   1  -4  -5 3171.60   38.66
   1  -4  -5 3326.80   71.25
  -1  -4   5 3343.36   69.74
  -1   4  -5 3397.68   56.11
  -1  -4   6  128.45   16.86
   1  -4  -6  110.25   15.56
   1   4   6  117.61   16.14
  -1   4  -6  124.15   15.19
   1   4   6   73.01   21.70
  -1   4  -6  129.37   14.06
   1  -4  -6  103.31    9.21
   1   4   7  670.99   36.94
  -1   4  -7  687.47   35.68
   1   4   7  631.22   53.19
  -1  -4   7  683.78   33.54
  -1  -4   7  706.20   36.68
   1  -4  -7  675.17   37.97
  -1   4  -7  684.43   32.80
   1  -4  -7  702.00   36.22
   1  -4  -7  604.69   25.25
  -1   4  -8  425.54   31.54
   1  -4  -8  421.62   27.67
  -1  -4   8  394.09   30.80
  -1  -4   8  397.96   28.25
   1   4   8  427.04   31.69
   1  -4  -8  436.15   33.20
  -1   4  -8  370.60   27.04
  -1   4  -9  874.22   47.08
   1   4   9  912.21   46.41
  -1  -4   9  950.16   46.43
   1  -4  -9  936.36   50.08
  -1   4  -9  816.30   42.41
  -1  -4   9  916.35   44.62
   1  -4  -9  870.81   37.40
  -1  -4   9  948.28   48.00
  -1   4 -10   94.22   19.22
   1  -4 -10   84.66   20.41
  -1  -4  10   80.34   17.90
   1  -4 -10   84.09   12.27
  -1   4 -10   91.67   21.25
   1   4  10   76.71   16.50
  -1  -4  10   82.12   16.82
  -1   4 -11 1136.86   56.49
  -1   4 -11 1172.80   64.48
   1  -4 -11 1185.32   38.63
  -1  -4  11 1286.60   61.05
   1   4  11 1227.36   58.96
   1  -4 -11 1177.47   61.46
  -1  -4  11 1257.63   61.19
   1   4  12   71.26   18.51
   1  -4 -12   80.08   21.57
  -1   4 -12   59.32   21.88
  -1  -4  12   47.45   15.22
  -1  -4  12   47.76   16.59
  -1   4 -12   54.13   17.70
  -1  -4  13    6.69   12.40
  -1   4 -13    4.10   16.58
   1   4  13   -3.19   11.14
   1  -4 -13    9.50   16.40
  -1  -4  13   -3.90   11.14
  -1   4 -13    1.25   13.80
  -1  -4  14  234.28   30.43
   1   4  14  293.97   33.18
  -1  -4  14  266.15   35.40
   1  -4 -14  257.06   35.07
   1   4  14  212.80   38.68
  -1   4 -14  216.67   35.21
   1   4  15  520.59   44.60
   1   4  15  416.91   53.03
  -1  -4  15  424.68   40.33
  -1   4 -15  389.81   47.39
   1  -4 -15  356.78   41.98
  -1  -4  15  456.25   45.74
  -1   4 -16   59.47   24.40
   1   4  16   54.66   24.14
   1  -4 -16   16.48   18.96
   1   4  16   35.28   16.02
  -1  -4  16   14.79   16.11
  -1  -4  16   33.10   15.68
  -1   4 -17  138.91   34.16
  -1  -4  17  163.03   30.85
   1   4  17  215.83   30.65
   1  -4 -17  190.75   34.22
  -1  -4  17  190.54   29.70
   1   4  17  150.30   35.76
  -1   4 -18   97.96   33.55
   1  -4 -18   76.74   25.78
  -1  -4  18  113.00   25.34
   1   4  18  103.96   29.83
   1   4  18   81.53   20.39
  -1  -4  18   56.14   22.40
   1   4  19   26.19   21.57
   1   4  19   47.25   18.75
   1  -4 -19   46.12   21.95
  -1   4 -19   11.23   22.03
  -1  -4  19   38.33   20.53
  -1  -4  20   15.27   17.71
  -1   5  19  130.12   31.27
   1  -5  19  129.32   28.32
  -1  -5 -19  125.38   27.27
  -1  -5 -18  143.89   35.30
  -1  -5 -18  122.36   28.17
   1  -5  18   84.03   20.95
  -1   5  18  162.32   31.19
   1   5 -18  145.64   32.75
  -1  -5 -17   27.81   24.03
   1   5 -17   28.17   25.46
   1  -5  17   12.58   14.30
  -1   5  17  -27.98   20.71
  -1  -5 -17   29.91   16.78
   1   5 -17   24.51   21.07
  -1  -5 -16  -11.94   17.47
  -1   5  16   45.71   19.03
   1   5 -16   52.05   24.26
   1   5 -16   50.73   24.68
   1  -5  16   62.10   19.21
   1   5 -15  470.53   48.87
   1  -5  15  415.13   43.90
  -1   5  15  422.43   48.53
  -1  -5 -15  442.00   52.12
  -1  -5 -15  361.18   37.90
   1   5 -15  397.12   45.91
  -1   5  15  415.67   46.39
   1  -5  15  326.60   37.09
   1  -5  14   78.78   20.56
   1  -5  14   57.62   18.54
  -1   5  14   60.20   23.54
   1   5 -14   65.70   24.11
  -1  -5 -14   57.26   17.92
  -1  -5 -14   16.76   23.99
   1   5 -14   75.89   25.37
  -1   5  14   61.33   21.77
   1  -5  13  161.40   26.76
   1   5 -13  141.96   28.50
   1  -5  13  181.90   27.58
  -1   5  13  196.38   33.50
  -1   5  13  183.05   33.29
  -1  -5 -13  210.63   28.75
  -1  -5 -13  171.80   34.08
   1   5 -13  170.51   30.11
  -1   5  12  479.42   47.62
  -1  -5 -12  420.74   35.65
  -1  -5 -12  515.62   52.55
   1  -5  12  432.09   39.14
   1   5 -12  457.23   41.80
   1  -5  12  382.94   38.65
  -1   5  12  459.12   47.12
   1   5 -12  558.94   49.97
  -1  -5 -11  605.80   40.49
   1   5 -11  712.10   53.83
  -1   5  11  635.87   52.27
   1  -5  11  605.82   47.55
   1  -5  11  661.49   29.86
   1  -5  11  639.82   40.51
  -1   5  11  568.68   28.19
  -1   5  11  663.16   55.28
  -1  -5 -11  630.48   56.13
   1   5 -11  551.11   42.67
   1  -5  11  561.73   40.18
   1  -5  10   48.42   17.59
  -1   5  10   23.64   16.07
   1   5 -10  105.33   28.15
   1  -5  10   49.85   13.23
  -1  -5 -10   46.99   24.22
   1   5 -10   47.74   17.17
  -1  -5 -10   77.57   17.27
   1  -5  10   67.28   15.34
   1  -5  10   53.92   11.28
  -1   5  10   54.83   22.99
   1   5  -9 1796.23   78.12
  -1   5   9 1498.83   71.47
   1  -5   9 1619.14   51.87
   1  -5   9 1465.58   68.72
   1  -5   9 1605.31   58.10
  -1   5   9 1773.76   86.13
  -1  -5  -9 1594.60   57.26
   1   5  -9 1570.80   61.11
  -1  -5  -9 1537.04   77.87
   1  -5   9 1578.19   53.63
   1   5  -8  603.30   45.00
   1  -5   8  539.18   41.45
  -1  -5  -8  516.62   31.22
   1   5  -8  519.39   33.60
  -1   5   8  472.23   39.29
   1  -5   8  532.72   32.32
  -1  -5  -8  474.20   44.25
  -1   5   8  552.07   47.98
   1  -5   8  507.94   27.71
   1   5  -7  361.82   33.56
  -1   5   7  259.77   33.40
  -1  -5  -7  275.96   32.93
   1  -5   7  272.21   29.66
  -1   5   7  301.90   30.08
  -1  -5  -7  298.35   22.55
   1  -5   7  279.16   21.79
   1  -5   7  279.70   18.01
   1   5  -7  303.12   25.25
  -1  -5  -6  137.28   14.46
   1   5  -6  124.63   19.85
   1  -5   6  143.63   21.70
  -1  -5  -6  127.58   22.58
  -1   5   6  104.96   18.87
   1  -5   6  139.10   13.15
   1   5  -6  152.56   16.73
   1  -5   6  138.65   11.49
  -1   5   6  109.36   21.91
   1   5  -5 2874.37   63.58
  -1  -5  -5 2730.23   79.54
   1   5  -5 3072.65   76.48
  -1   5   5 2945.92   75.34
   1  -5   5 2710.56   82.78
   1  -5   5 2941.81   84.28
   1   5  -5 2866.09   62.31
  -1   5   5 2889.99   88.53
   1  -5   5 2892.73   45.27
  -1  -5  -5 2740.92   53.56
   1   5  -4  258.84   15.50
  -1  -5  -4  265.63   23.79
   1   5  -4  298.75   20.91
   1  -5   4  298.65   29.45
  -1  -5  -4  259.59   20.04
   1  -5   4  264.86   25.85
  -1  -5  -4  265.48   15.73
  -1   5   4  264.33   22.10
   1   5  -4  265.18   18.97
  -1   5   4  273.23   26.69
   1   5  -3  712.93   27.91
   1   5  -3  770.52   24.05
  -1  -5  -3  711.11   33.33
   1  -5   3  706.06   46.32
   1  -5   3  802.28   41.55
  -1  -5  -3  691.24   30.35
  -1  -5  -3  750.14   23.77
  -1   5   3  696.60   31.73
  -1   5   3  743.30   39.31
  -1  -5  -2  784.00   29.09
  -1   5   2  739.09   34.78
   1   5  -2  760.31   28.11
  -1  -5  -2  725.31   21.89
   1  -5   2  753.23   50.74
  -1  -5  -2  785.42   31.39
  -1   5   2  738.98   15.11
   1  -5   2  705.83   22.95
  -1   5   2  738.08   30.73
   1  -5   2  785.48   37.53
   1   5  -1 2735.61   46.81
   1   5  -1 2979.89   52.80
   1  -5   1 3107.84   54.49
  -1   5   1 2958.64   56.87
  -1  -5  -1 2939.81   59.56
   1  -5   1 3011.28  104.97
  -1  -5  -1 2985.84   43.24
   1  -5   1 2759.81   56.94
   1  -5   1 3076.44   67.39
  -1   5   1 2993.65   61.38
  -1   5   1 3083.48   37.59
  -1  -5   0   43.38    5.29
   1   5   0   45.31    9.53
   1  -5   0   33.86    8.33
   1   5   0   36.84    7.56
   1   5   0   41.28    6.61
   1   5   0   58.69    9.04
  -1   5   0   44.19    8.31
   1  -5   0   22.94   17.45
  -1  -5   0   40.34    9.25
   1  -5   0   50.79    8.36
  -1   5   0   42.77    7.22
   1   5   1 2627.55   63.16
   1   5   1 2604.79   67.51
  -1   5  -1 2947.83   40.14
   1  -5  -1 3024.56   55.86
   1   5   1 3105.02   54.24
   1  -5  -1 2733.98   99.21
  -1  -5   1 3028.97   60.42
   1   5   1 3062.22   53.14
   1   5   2  685.44   39.11
   1  -5  -2  752.86   29.09
  -1   5  -2  719.77   20.06
   1  -5  -2  751.30   52.79
  -1  -5   2  709.98   30.55
   1  -5  -2  740.44   21.56
   1   5   2  799.12   31.10
   1   5   3  659.04   41.72
  -1  -5   3  703.22   32.10
   1  -5  -3  788.24   31.85
   1  -5  -3  677.71   48.98
   1  -5  -3  717.60   16.54
  -1   5  -3  742.82   21.88
   1   5   3  714.94   34.15
  -1   5  -4  279.00   19.17
  -1  -5   4  285.77   22.10
   1   5   4  274.57   31.20
   1  -5  -4  294.02   31.56
   1   5   4  278.41   25.46
   1  -5  -4  298.48   21.08
  -1   5  -4  298.19   15.62
   1  -5  -4  294.88   10.31
   1  -5  -4  278.82    9.05
  -1   5  -5 2915.79   61.54
   1   5   5 2724.28   95.74
   1  -5  -5 2788.88   35.27
   1  -5  -5 2802.51   66.28
   1   5   5 2713.02   85.68
  -1  -5   5 2883.53   68.10
   1  -5  -5 2670.21   30.44
  -1   5  -5 2801.52   51.86
   1  -5  -5 2909.37   91.18
   1  -5  -6  116.98    9.25
   1  -5  -6  123.51   21.25
  -1   5  -6  125.84   13.39
   1  -5  -6  125.04   17.20
   1   5   6  106.17   24.45
  -1   5  -6  131.05   15.76
   1  -5  -6  110.44    7.61
  -1  -5   6  125.94   17.29
  -1   5  -7  288.62   24.41
   1  -5  -7  269.35   25.93
  -1  -5   7  277.51   21.94
  -1   5  -7  267.44   21.25
   1   5   7  301.16   40.33
  -1  -5   7  293.67   25.79
   1  -5  -7  258.59   16.32
  -1  -5   8  512.91   35.52
  -1   5  -8  537.35   34.75
   1   5   8  563.64   59.82
   1  -5  -8  445.93   33.79
  -1   5  -8  505.57   31.04
  -1  -5   8  526.38   31.98
   1   5   8  532.55   35.13
  -1   5  -9 1528.67   57.27
  -1  -5   9 1624.20   64.36
  -1  -5   9 1579.64   57.53
   1  -5  -9 1563.67   56.13
   1  -5  -9 1473.22   63.03
   1   5   9 1633.37   62.73
  -1   5  -9 1577.72   62.37
  -1   5 -10   42.19   14.05
   1  -5 -10   63.44   12.86
  -1  -5  10   75.48   18.12
   1   5  10   47.37   14.72
  -1  -5  10   59.54   15.65
   1  -5 -10   64.23   18.19
  -1   5 -10   45.26   15.73
  -1   5 -11  527.53   44.65
   1  -5 -11  544.51   42.66
   1  -5 -11  575.51   30.73
  -1   5 -11  560.37   41.15
  -1  -5  11  589.45   42.57
  -1  -5  11  649.83   42.79
   1   5  11  627.62   42.15
  -1  -5  12  475.19   41.44
   1   5  12  458.75   37.88
  -1   5 -12  472.68   45.44
   1  -5 -12  395.41   39.29
  -1  -5  12  533.11   42.80
  -1   5 -12  424.75   38.02
   1  -5 -13  167.43   27.94
  -1   5 -13  231.60   35.12
  -1  -5  13  179.37   28.08
  -1   5 -13  153.15   26.20
  -1  -5  13  172.37   26.05
   1   5  13  175.75   24.95
   1   5  14   73.87   19.02
  -1   5 -14   49.36   19.64
  -1  -5  14   99.45   21.68
   1   5  14  111.53   31.06
  -1   5 -14   47.50   22.77
   1  -5 -14   69.71   21.62
  -1  -5  14   97.87   23.82
  -1  -5  15  407.91   40.64
   1   5  15  444.29   40.75
  -1  -5  15  424.45   43.73
   1   5  15  372.00   50.74
   1  -5 -15  338.75   41.00
  -1   5 -15  355.06   45.40
   1   5  16   19.45   18.88
  -1  -5  16   47.05   16.61
  -1   5 -16   95.75   27.18
   1   5  16   59.65   18.97
   1  -5 -16   60.48   22.46
  -1  -5  16   36.01   16.69
  -1   5 -17   -4.22   22.27
   1   5  17  -11.57   20.12
  -1  -5  17    7.04   12.31
   1  -5 -17   31.41   20.81
   1   5  17   11.81   13.64
  -1  -5  17   35.59   19.91
  -1   5 -18  192.48   41.05
  -1  -5  18  132.73   29.15
   1  -5 -18  127.96   29.90
   1   5  18  137.49   32.03
   1   5  18  138.43   25.54
  -1  -5  18  129.40   26.48
  -1  -5  19  104.83   24.77
  -1   5 -19  127.98   36.37
  -1  -5  19   85.61   24.77
  -1  -6 -19  -25.60   19.06
   1   6 -18   41.64   22.99
   1  -6  18   98.70   25.39
  -1  -6 -18  155.17   28.00
  -1   6  18  131.54   30.86
  -1  -6 -18  130.22   32.63
  -1  -6 -17   28.68   16.82
  -1  -6 -17   53.87   24.95
   1   6 -17   37.59   22.13
  -1   6  17   59.65   23.88
   1  -6  17   76.04   22.91
   1  -6  16  119.34   26.33
   1   6 -16  130.72   30.91
  -1   6  16  159.61   34.63
  -1  -6 -16  138.03   35.28
  -1   6  16  123.18   28.07
  -1  -6 -16  125.42   25.73
   1   6 -15   -9.10   19.27
  -1   6  15   -3.26   16.71
  -1  -6 -15   -7.09   21.52
   1  -6  15    2.52   15.19
   1   6 -15    4.70   17.06
  -1  -6 -15   20.71   16.84
  -1   6  15   16.27   19.44
   1   6 -14  256.12   37.28
  -1   6  14  173.04   31.63
   1   6 -14  197.25   32.92
  -1  -6 -14  235.06   40.79
  -1  -6 -14  208.46   28.81
   1  -6  14  245.65   35.01
  -1   6  14  234.90   37.31
   1  -6  13   -0.41   14.90
   1   6 -13    3.13   16.10
   1  -6  13   -5.75   10.82
  -1  -6 -13   11.30   14.60
  -1   6  13   -2.82   19.48
   1   6 -13   22.74   17.92
  -1   6  13   17.54   15.89
  -1  -6 -13   28.00   23.33
   1   6 -12  277.00   32.64
   1  -6  12  269.37   34.59
   1   6 -12  292.88   38.12
  -1   6  12  294.46   38.74
  -1  -6 -12  191.64   25.61
  -1  -6 -12  277.38   41.48
  -1   6  12  291.68   41.37
   1  -6  12  263.96   27.81
   1  -6  11  162.83   27.27
  -1  -6 -11  108.32   26.93
  -1   6  11  176.50   32.92
   1   6 -11  183.83   30.11
   1  -6  11  178.33   17.90
   1   6 -11  152.27   24.79
   1  -6  11  164.91   21.63
  -1  -6 -11  175.49   23.21
  -1   6  11  163.60   30.47
  -1  -6 -10  108.07   28.94
  -1   6  10  148.41   31.57
   1   6 -10   77.39   18.25
  -1   6  10  105.34   24.32
   1  -6  10   99.33   15.60
   1  -6  10  122.48   22.54
   1  -6  10  128.70   17.03
  -1  -6 -10   97.15   17.85
   1  -6  10   97.33   16.06
   1   6 -10  141.69   27.06
   1   6  -9   63.30   15.97
   1   6  -9   91.40   23.74
  -1   6   9   92.31   26.25
   1  -6   9   71.82   13.74
  -1  -6  -9   63.22   15.01
   1  -6   9   58.70   16.81
  -1   6   9   72.11   21.60
  -1  -6  -9   55.28   23.78
   1  -6   9   63.09   11.82
   1   6  -8  937.40   52.20
  -1  -6  -8  827.61   54.94
  -1  -6  -8  827.13   39.09
  -1   6   8  851.58   52.87
   1  -6   8  784.12   34.29
   1  -6   8  785.88   51.62
  -1   6   8  888.56   60.39
   1   6  -8  883.08   43.71
   1  -6   8  847.69   31.37
  -1   6   7  124.92   22.19
   1  -6   7  117.13   21.51
   1   6  -7  111.44   17.70
  -1  -6  -7  100.38   14.36
  -1  -6  -7  106.20   23.62
   1  -6   7  109.92   19.07
   1   6  -7  134.39   19.99
   1  -6   7  115.60   10.67
   1  -6   7  105.87   11.84
  -1   6   7  136.41   24.46
  -1   6   6   72.79   18.90
   1   6  -6   77.01   14.50
  -1  -6  -6   95.16   21.38
   1  -6   6   72.90   17.10
   1  -6   6   93.91   20.06
  -1   6   6   80.18   16.74
  -1  -6  -6   90.48   12.93
   1   6  -6   76.35   17.12
   1  -6   6   84.16    8.67
   1  -6   5  178.69   24.70
  -1  -6  -5  159.91   14.72
   1   6  -5  154.55   16.25
  -1  -6  -5  170.54   17.93
  -1   6   5  201.20   25.98
  -1  -6  -5  162.16   20.87
   1  -6   5  209.73   25.25
   1   6  -5  157.25   16.71
   1  -6   5  174.62    8.66
  -1   6   5  200.08   23.26
  -1   6   4  726.04   36.70
  -1  -6  -4  723.81   36.67
  -1  -6  -4  728.54   33.40
   1   6  -4  678.74   14.85
  -1   6   4  733.40   42.08
   1  -6   4  730.70   12.85
   1  -6   4  788.57   44.43
  -1  -6  -4  734.16   27.56
   1  -6   4  763.63   51.01
   1   6  -4  717.21   30.98
   1   6  -4  711.85   27.03
   1  -6   4  621.17   17.85
   1   6  -3  266.10   11.53
  -1  -6  -3  229.41   19.15
  -1  -6  -3  249.30   15.26
   1  -6   3  246.67   24.24
  -1   6   3  247.17   23.32
   1  -6   3  261.28   14.86
   1  -6   3  272.95   33.43
   1   6  -3  263.78   18.56
  -1   6   3  218.30   20.03
   1   6  -3  224.39    8.76
   1   6  -2  511.34   11.13
  -1   6   2  497.82   27.21
  -1   6   2  481.31   15.03
   1  -6   2  511.71   31.50
   1  -6   2  457.57   45.82
  -1  -6  -2  502.45   20.33
  -1  -6  -2  475.90   26.09
   1  -6   2  501.84   24.75
  -1   6   2  476.47   28.33
   1   6  -2  515.36   17.59
   1   6  -2  532.04   25.29
   1   6  -1  160.72   11.61
   1   6  -1  151.21   13.33
  -1   6   1  139.61   14.25
   1   6  -1  140.95   13.49
  -1  -6  -1  131.63   10.87
   1  -6   1  138.51   14.09
  -1   6   1  132.29   14.03
  -1  -6  -1  134.95   14.61
   1  -6   1  140.06   30.90
   1  -6   1  138.18   15.44
   1   6   0    0.02    3.82
   1  -6   0   23.35   23.85
  -1  -6   0   16.42    8.79
   1   6   0   -3.86    6.47
   1  -6   0    0.97    6.35
   1   6   0   12.90    7.97
   1  -6   0   -0.47    6.13
  -1  -6   0    2.22    2.81
  -1   6   0   16.59    7.50
   1   6   0    8.13    6.59
  -1   6  -1  128.97   12.98
  -1  -6   1  144.53   15.44
  -1   6  -1  138.94   10.42
   1   6   1  141.42   18.94
   1   6   1  124.26   13.04
   1   6   1  128.76   12.04
   1  -6  -1  121.30   13.70
   1  -6  -1  133.49   31.94
   1  -6  -1  130.76   12.60
   1  -6  -2  481.72   50.08
   1   6   2  519.30   35.80
   1  -6  -2  489.48   25.61
  -1   6  -2  499.70   18.81
   1  -6  -2  502.77   20.91
   1   6   2  513.39   25.75
  -1  -6   2  524.06   28.52
  -1  -6   3  246.00   20.52
   1  -6  -3  228.49   12.38
  -1   6  -3  256.69   14.46
   1  -6  -3  241.87   19.40
   1  -6  -3  259.89   35.32
   1   6   3  268.77   29.53
   1   6   3  249.05   21.21
   1   6   4  704.42   40.08
  -1  -6   4  709.30   35.06
   1  -6  -4  704.31   18.96
   1   6   4  673.47   47.33
  -1   6  -4  716.51   25.11
   1  -6  -4  697.90   19.11
  -1   6  -4  720.72   30.28
   1  -6  -4  690.69   33.08
   1  -6  -4  753.05   56.37
  -1   6  -5  157.21   15.48
   1  -6  -5  172.08    9.38
   1  -6  -5  167.17    9.71
  -1  -6   5  150.33   18.10
  -1   6  -5  172.05   13.95
   1   6   5  199.95   25.68
   1  -6  -5  166.58   28.20
   1  -6  -5  178.66   18.97
   1   6   5  156.85   27.24
  -1  -6   6   76.50   16.03
   1  -6  -6   73.22   14.86
  -1   6  -6   93.05   13.99
   1   6   6  118.94   25.51
   1  -6  -6   70.54    7.28
  -1   6  -6   82.81   11.51
   1   6   6   74.41   21.14
   1  -6  -6  109.79   22.93
   1  -6  -6   83.01    7.00
   1   6   7  112.01   30.33
   1  -6  -7  108.89    9.06
  -1   6  -7  124.43   17.78
  -1  -6   7  103.38   18.27
   1   6   7  161.32   31.19
  -1   6  -7  130.75   15.54
   1  -6  -7  120.60   19.19
   1  -6  -7  116.11   22.35
  -1   6  -8  827.69   41.99
   1   6   8  795.33   68.75
  -1   6  -8  894.18   39.62
   1  -6  -8  938.05   47.45
   1  -6  -8  853.70   50.12
  -1  -6   8  904.43   40.66
  -1  -6   8  917.44   49.28
  -1  -6   9   80.60   18.18
  -1   6  -9   75.55   18.20
   1  -6  -9   92.81   20.41
  -1   6  -9   67.24   14.51
  -1  -6   9   72.75   14.90
  -1   6 -10  107.86   19.62
  -1  -6  10  103.44   20.08
  -1  -6  10  108.58   19.72
   1  -6 -10   82.29   19.71
  -1   6 -10   83.47   16.27
  -1  -6  10  119.26   18.50
  -1  -6  11  176.65   25.45
   1  -6 -11  173.42   19.57
   1  -6 -11  162.59   26.75
  -1   6 -11  204.06   29.00
  -1  -6  11  189.30   24.31
  -1   6 -11  132.46   21.00
   1   6  12  257.53   28.96
  -1   6 -12  241.87   32.05
  -1  -6  12  279.87   31.71
   1  -6 -12  231.43   31.56
  -1   6 -12  236.25   29.37
  -1  -6  12  296.10   31.75
   1  -6 -13   17.10   15.55
  -1  -6  13   -5.46   12.01
  -1  -6  13   14.16   13.07
  -1   6 -13  -13.99   14.51
   1   6  13   -8.16   12.35
  -1   6 -13   -4.68   17.99
   1   6  13  -25.13   24.83
  -1  -6  14  229.47   31.34
  -1  -6  14  230.26   31.44
  -1   6 -14  225.73   36.31
  -1   6 -14  227.74   32.08
   1   6  14  206.07   41.10
   1  -6 -14  174.42   29.43
   1   6  14  232.09   28.88
  -1  -6  15    2.33   13.32
  -1   6 -15    7.75   14.68
   1   6  15  -25.58   22.08
  -1  -6  15   19.04   17.39
  -1   6 -15    4.07   19.60
   1  -6 -15    1.63   18.02
   1   6  15  -26.54   16.07
  -1  -6  16  102.02   25.13
  -1   6 -16   95.74   30.26
   1   6  16   98.25   30.18
  -1  -6  16  106.37   25.17
   1  -6 -16   65.77   23.71
   1   6  16  130.89   24.79
  -1   6 -17  114.17   32.52
   1   6  17   17.72   19.60
   1  -6 -17   53.71   23.11
  -1  -6  17   71.22   21.73
   1   6  17   45.45   17.05
  -1  -6  17   53.48   19.63
   1  -6 -18   87.88   25.20
  -1  -6  18  151.94   28.94
   1   6  18   99.62   29.88
  -1   6 -18   80.20   29.59
   1   6  18  122.97   25.54
  -1  -6  18  116.58   26.60
  -1  -6  19   -0.22   13.39
  -1   6 -19   64.14   29.80
  -1  -7 -19   91.84   25.43
   1  -7  18   36.36   20.20
  -1   7  18   38.46   22.62
   1   7 -18   36.23   24.39
  -1  -7 -18  -24.68   18.10
  -1  -7 -17  193.94   35.39
   1  -7  17  160.24   30.06
   1   7 -17  181.71   36.18
  -1  -7 -17  221.62   32.79
  -1   7  17  207.11   36.58
  -1  -7 -16  311.81   44.28
  -1   7  16  319.12   47.24
   1  -7  16  321.08   40.36
   1   7 -16  248.47   39.76
  -1  -7 -16  277.72   35.12
  -1   7  16  368.28   46.11
  -1  -7 -15   63.23   24.95
  -1  -7 -15   74.50   20.54
   1  -7  15   67.83   22.61
  -1   7  15   63.57   24.97
   1   7 -15   71.36   20.91
  -1   7  15   69.94   23.91
  -1  -7 -14   41.73   27.67
   1   7 -14   77.48   24.82
  -1  -7 -14   16.08   13.06
   1  -7  14    0.41   15.28
  -1   7  14    7.89   19.30
  -1   7  14   24.08   20.74
   1   7 -13 1192.02   70.42
  -1   7  13 1035.17   73.17
  -1  -7 -13 1122.12   75.45
  -1   7  13 1214.17   80.90
   1   7 -13  964.99   62.55
   1  -7  13  977.84   66.02
  -1  -7 -13  988.58   56.39
   1   7 -12  577.02   48.22
  -1  -7 -12  568.47   53.51
  -1   7  12  520.20   50.46
  -1  -7 -12  536.96   40.47
   1  -7  12  560.79   49.71
  -1   7  12  587.22   56.77
   1   7 -12  603.99   47.18
  -1  -7 -11   92.90   18.39
   1  -7  11   92.02   16.22
   1   7 -11  100.47   20.57
  -1   7  11   83.50   23.13
   1  -7  11   80.73   21.43
   1   7 -11  100.43   25.62
  -1  -7 -11   52.08   23.77
  -1   7  11   86.98   24.93
  -1  -7 -10  264.85   36.38
  -1   7  10  278.34   35.90
   1  -7  10  276.51   34.87
  -1  -7 -10  249.23   25.78
  -1   7  10  307.82   39.66
   1   7 -10  278.57   32.17
   1   7 -10  258.58   27.90
   1  -7  10  244.72   19.34
   1   7  -9  875.42   52.13
  -1  -7  -9  742.10   54.32
  -1   7   9  710.57   51.88
   1  -7   9  717.94   51.91
   1   7  -9  817.71   44.95
  -1  -7  -9  745.45   40.52
   1  -7   9  765.07   29.60
  -1   7   9  790.07   59.80
   1   7  -8  330.38   31.32
  -1  -7  -8  301.37   34.61
   1   7  -8  315.36   28.24
  -1   7   8  368.59   37.71
  -1  -7  -8  278.06   23.71
   1  -7   8  297.48   17.16
   1  -7   8  322.87   31.66
   1  -7   8  307.49   19.90
   1  -7   8  302.40   35.50
  -1   7   8  324.21   38.04
   1   7  -7 1606.57   60.31
  -1  -7  -7 1685.54   70.89
  -1   7   7 1785.37   79.59
  -1  -7  -7 1655.06   58.90
  -1  -7  -7 1655.73   51.77
   1   7  -7 1596.41   55.91
   1  -7   7 1793.50   77.83
   1  -7   7 1621.51   37.90
  -1   7   7 1772.63   72.25
   1  -7   7 1785.91   74.04
   1   7  -6 1015.51   42.88
  -1  -7  -6 1061.72   44.78
  -1  -7  -6 1151.39   54.90
   1  -7   6 1109.90   26.63
   1  -7   6 1168.63   61.66
   1   7  -6 1082.68   43.67
  -1  -7  -6 1085.11   39.61
   1  -7   6 1131.58   62.47
  -1   7   6 1149.45   61.26
  -1   7   6 1125.30   54.26
  -1  -7  -5   46.09   11.32
   1  -7   5   40.08   15.10
   1   7  -5   50.94   11.75
  -1   7   5   61.80   16.17
   1  -7   5   49.05   19.20
   1  -7   5   51.83    5.08
  -1  -7  -5   49.01    9.72
   1   7  -5   53.85   11.02
  -1   7   5   55.11   16.71
   1   7  -4  486.99   19.90
  -1  -7  -4  476.68   28.69
  -1   7   4  437.78   30.32
   1  -7   4  531.55   37.65
   1   7  -4  501.74   27.98
   1  -7   4  464.29   46.24
   1   7  -4  457.98   14.21
  -1  -7  -4  493.00   24.66
   1  -7   4  487.85   20.34
  -1   7   4  483.55   35.34
   1   7  -3 2788.34   35.64
  -1  -7  -3 2813.47   54.28
  -1   7   3 2787.39   70.19
   1  -7   3 2657.65  110.00
   1   7  -3 2703.45   36.89
   1   7  -3 2789.98   61.27
   1  -7   3 2697.21   54.93
  -1   7   3 2857.49   76.26
   1  -7   3 2929.01   81.62
  -1  -7  -3 2740.19   66.11
   1   7  -2 1091.93   29.05
  -1  -7  -2 1112.61   42.58
   1   7  -2 1147.01   38.49
  -1  -7  -2 1107.01   33.04
   1  -7   2 1140.78   48.42
   1  -7   2 1083.02   75.20
  -1   7   2 1117.17   41.94
   1  -7   2 1034.38   39.80
  -1   7   2 1121.28   43.48
   1   7  -2 1101.53   19.68
   1   7  -1 1776.65   38.98
  -1  -7  -1 1694.40   40.41
   1  -7   1 1643.98   47.24
   1   7  -1 1666.18   46.67
  -1   7   1 1602.01   48.31
   1  -7   1 1572.15   97.73
   1   7  -1 1734.27   45.97
   1  -7   1 1662.60   54.78
  -1  -7  -1 1618.81   50.59
   1  -7   0  764.10   34.19
   1   7   0  751.46   37.10
  -1  -7   0  672.29   33.24
   1   7   0  697.48   30.60
  -1   7   0  702.93   30.94
   1  -7   0  710.01   31.12
   1  -7   0  612.09   65.51
  -1   7   0  684.48   25.07
   1   7   0  732.97   24.51
   1   7   1 1784.53   62.61
   1   7   1 1653.25   46.15
   1  -7  -1 1605.79   47.33
  -1   7  -1 1583.49   45.67
  -1   7  -1 1659.80   37.86
   1   7   1 1610.16   40.58
  -1  -7   1 1616.72   51.42
   1  -7  -1 1628.37   46.13
   1  -7  -2 1100.09   34.79
   1   7   2 1246.75   57.09
   1  -7  -2 1123.83   40.47
  -1   7  -2 1096.42   30.63
   1  -7  -2 1011.43   78.80
  -1   7  -2 1077.08   37.78
  -1  -7   2 1102.61   43.69
   1   7   2 1070.40   37.76
   1   7   3 2827.21   92.07
   1  -7  -3 2816.91  122.65
   1  -7  -3 2832.06   66.36
   1  -7  -3 2785.04   49.62
  -1   7  -3 2810.83   50.25
  -1  -7   3 2936.30   72.21
  -1   7  -3 2789.06   39.80
   1   7   3 2712.69   68.79
  -1   7  -4  434.18   17.51
   1   7   4  527.02   43.75
  -1  -7   4  522.80   32.42
  -1   7  -4  481.52   22.22
   1  -7  -4  525.47   54.21
   1   7   4  510.21   34.78
   1  -7  -4  525.26   30.56
   1  -7  -4  504.98   19.95
  -1  -7   5   40.96   13.42
   1  -7  -5   51.76    7.02
  -1   7  -5   53.48   10.75
  -1   7  -5   45.01    9.37
   1   7   5   38.51   15.78
   1  -7  -5   37.70   10.76
   1  -7  -5   51.58   22.37
   1   7   5   79.45   22.25
  -1   7  -6 1129.14   43.27
   1   7   6 1060.29   63.67
   1   7   6 1150.94   70.14
  -1   7  -6 1102.14   38.04
  -1  -7   6 1060.79   49.22
   1  -7  -6 1099.32   47.70
   1  -7  -6 1073.47   69.10
   1  -7  -6 1100.30   27.27
   1   7   7 1705.32   87.79
  -1   7  -7 1751.31   50.93
   1   7   7 1843.56   90.27
  -1  -7   7 1774.44   65.46
   1  -7  -7 1647.17   61.11
  -1   7  -7 1774.08   56.99
   1  -7  -7 1745.30   81.62
   1  -7  -7 1606.80   33.99
   1   7   8  343.30   47.79
  -1  -7   8  304.88   30.57
   1   7   8  347.46   40.29
  -1   7  -8  307.26   24.68
   1  -7  -8  282.10   28.72
   1  -7  -8  316.01   34.92
  -1   7  -8  342.80   27.99
   1  -7  -8  292.38   15.88
  -1   7  -9  769.92   43.47
   1   7   9  732.30   69.22
   1  -7  -9  717.44   26.83
   1  -7  -9  752.34   49.66
  -1  -7   9  787.31   48.60
   1  -7  -9  775.89   46.91
  -1  -7   9  828.06   41.53
  -1   7  -9  693.87   39.09
  -1   7 -10  276.40   27.41
  -1   7 -10  258.39   28.43
   1  -7 -10  271.85   29.93
   1   7  10  176.33   39.78
  -1  -7  10  237.49   29.27
  -1  -7  10  290.79   26.75
  -1   7 -11   46.36   15.18
  -1   7 -11   80.84   19.33
  -1  -7  11   83.97   19.84
   1  -7 -11   65.19   20.08
  -1  -7  11   67.91   15.21
   1   7  11   50.80   28.36
  -1   7 -12  546.46   46.15
  -1  -7  12  602.31   47.35
  -1   7 -12  569.15   43.98
  -1  -7  12  565.07   41.92
   1   7  12  549.50   64.39
   1  -7 -12  558.28   46.02
  -1   7 -13 1042.22   67.74
   1  -7 -13 1004.95   62.53
  -1  -7  13 1124.97   66.63
   1   7  13 1025.09   84.02
  -1  -7  13 1164.31   63.93
  -1   7 -13  989.30   59.08
   1  -7 -14   17.58   18.68
  -1  -7  14   34.53   15.34
  -1   7 -14   15.30   18.33
  -1   7 -14   44.55   17.34
  -1  -7  14   35.95   18.03
   1   7  14   22.63   21.52
   1   7  15   56.11   27.31
  -1  -7  15   66.69   20.57
  -1   7 -15   70.61   20.77
   1  -7 -15   64.23   23.08
  -1  -7  15   52.56   17.66
  -1   7 -15   83.94   23.51
   1   7  16  312.23   48.13
  -1  -7  16  328.80   38.40
   1  -7 -16  258.43   37.70
  -1   7 -16  280.64   38.84
  -1   7 -16  273.47   43.72
  -1  -7  16  358.14   42.79
   1   7  17  247.09   43.99
  -1   7 -17  206.38   39.32
  -1  -7  17  269.44   37.96
   1  -7 -17  127.03   28.76
  -1  -7  17  172.43   30.45
   1   7  18   10.71   18.04
  -1  -7  18    6.89   13.86
  -1   7 -18   38.86   24.18
   1  -7 -18   66.38   24.59
  -1   7 -19  165.10   38.14
  -1  -7  19  198.85   33.49
  -1  -8 -18   15.85   15.39
   1   8 -17  119.07   29.73
  -1  -8 -17  103.50   24.39
   1  -8  17  100.43   24.27
  -1   8  17  170.64   35.63
   1  -8  16   47.35   20.19
  -1   8  16   55.07   27.01
   1   8 -16   34.26   23.66
  -1  -8 -16   29.02   16.75
  -1   8  16   12.52   21.17
  -1   8  15   47.45   23.45
   1   8 -15    3.77   16.54
  -1  -8 -15   38.40   17.64
   1  -8  15   54.92   21.08
  -1   8  15   54.65   24.81
  -1   8  14  142.19   31.01
   1  -8  14  143.33   29.74
   1   8 -14  153.76   29.10
  -1  -8 -14  101.31   21.82
  -1   8  14  130.68   31.63
  -1   8  13  194.87   33.17
   1   8 -13  150.54   27.30
   1  -8  13  181.38   30.75
  -1  -8 -13  160.00   24.90
  -1   8  13  200.63   37.57
  -1   8  12   83.57   28.57
  -1   8  12   79.84   24.79
   1  -8  12   59.55   18.20
  -1  -8 -12   82.52   18.91
  -1  -8 -12   75.61   26.06
   1   8 -12   53.02   18.31
   1   8 -11  223.85   28.71
  -1  -8 -11  226.94   35.04
  -1   8  11  208.20   33.63
   1  -8  11  210.03   31.88
   1   8 -11  228.20   31.30
  -1  -8 -11  247.23   27.91
  -1   8  11  289.01   40.65
   1   8 -10   41.97   16.00
   1  -8  10   70.82   21.21
   1   8 -10   49.31   16.75
  -1  -8 -10   85.65   17.30
  -1   8  10   47.79   21.20
  -1   8  10   67.10   23.56
   1   8  -9  248.36   28.22
  -1  -8  -9  266.67   24.62
  -1   8   9  245.01   33.75
  -1  -8  -9  247.95   25.79
   1  -8   9  303.41   36.09
   1  -8   9  263.59   29.32
   1   8  -9  235.26   25.46
  -1   8   9  246.57   34.07
   1   8  -8  289.12   29.15
  -1  -8  -8  257.24   23.56
   1   8  -8  310.05   27.60
  -1  -8  -8  257.04   25.55
  -1   8   8  269.08   32.84
   1  -8   8  255.50   30.81
   1  -8   8  282.66   34.81
  -1   8   8  294.32   36.17
   1   8  -7  493.10   33.38
   1  -8   7  589.71   47.70
   1   8  -7  505.43   33.42
   1  -8   7  591.98   47.19
  -1   8   7  545.53   42.98
  -1  -8  -7  487.08   29.34
   1  -8   7  542.50   21.43
  -1   8   7  553.10   46.62
  -1  -8  -7  459.23   32.11
  -1  -8  -6    0.06    7.87
   1   8  -6    6.51   10.49
   1  -8   6    7.54   14.20
  -1   8   6   13.80   12.43
   1   8  -6   21.51   10.69
  -1  -8  -6   20.34    9.16
   1  -8   6   -4.27   16.14
   1  -8   6   18.77    4.58
  -1   8   6    3.91   14.10
   1   8  -5  147.72   13.91
   1  -8   5  160.02   12.62
  -1   8   5  168.69   22.61
   1   8  -5  156.44   17.95
   1  -8   5  184.68   24.98
  -1  -8  -5  156.97   16.11
   1  -8   5  178.80   33.10
  -1  -8  -5  149.74   18.71
   1   8  -5  137.61    9.32
  -1   8   5  164.08   24.32
   1   8  -4  248.35   14.05
  -1  -8  -4  262.06   19.32
   1  -8   4  229.37   26.48
   1   8  -4  267.53   21.79
  -1   8   4  241.41   25.50
  -1   8   4  215.22   23.46
   1   8  -4  257.74   12.72
   1  -8   4  246.92   17.81
  -1  -8  -4  234.42   21.62
   1  -8   4  277.23   40.93
   1   8  -3  716.48   19.41
   1   8  -3  758.49   34.53
  -1  -8  -3  714.74   35.76
   1   8  -3  676.15   21.85
   1  -8   3  710.17   42.89
  -1   8   3  743.84   39.90
  -1  -8  -3  689.49   29.30
   1  -8   3  634.09   62.09
  -1   8   3  726.83   38.26
  -1   8   2  161.73   18.83
  -1  -8  -2  140.41   17.22
   1   8  -2  163.72   17.20
   1   8  -2  165.37   13.20
  -1  -8  -2  147.96   13.70
   1  -8   2  134.74   36.04
   1  -8   1  591.08   31.11
  -1  -8  -1  554.97   31.94
   1  -8   1  551.22   33.74
  -1  -8  -1  549.87   25.43
   1   8  -1  589.96   30.48
  -1   8   1  590.19   31.56
   1   8  -1  591.69   28.33
   1  -8   1  570.01   66.94
   1   8   0   84.16   14.71
   1   8   0   63.79    8.24
  -1   8   0   60.42    9.87
  -1  -8   0   65.48   13.22
   1  -8   0   60.52   13.18
   1  -8   0   56.57   11.67
  -1   8   0   67.40   12.21
   1   8   0   63.30   12.50
   1  -8   0   54.06   34.30
   1  -8  -1  553.17   29.74
   1   8   1  654.04   40.67
   1   8   1  580.13   29.49
  -1   8  -1  567.41   29.30
   1  -8  -1  543.06   29.80
  -1   8  -1  580.03   24.60
  -1  -8   1  566.65   32.66
   1   8   1  588.43   25.45
   1  -8  -1  477.26   64.57
  -1   8  -2  155.94   13.81
  -1   8  -2  154.38   16.04
   1   8   2  189.35   25.06
  -1  -8   2  166.73   19.72
   1   8   2  144.06   14.88
   1  -8  -2  165.13   16.20
   1  -8  -2   99.46   34.30
   1  -8  -2  138.09   17.01
   1   8   3  762.84   50.28
   1  -8  -3  729.81   71.82
   1  -8  -3  685.20   28.82
  -1  -8   3  772.76   39.97
   1  -8  -3  737.09   36.24
  -1   8  -3  705.25   27.44
   1   8   3  701.34   36.31
  -1   8  -3  690.84   19.02
   1   8   4  316.00   36.36
   1   8   4  237.32   25.20
   1  -8  -4  247.15   16.67
   1  -8  -4  244.06   22.69
  -1   8  -4  223.58   16.54
  -1  -8   4  263.18   24.64
   1  -8  -4  250.26   45.46
  -1  -8   4  237.10   11.92
  -1   8  -5  184.29   18.66
   1   8   5  220.51   33.45
  -1  -8   5  176.35   10.10
   1   8   5  145.93   23.24
  -1   8  -5  165.64   15.27
   1  -8  -5  169.02   13.23
   1  -8  -5  171.96   20.51
  -1  -8   5  186.17   23.74
   1  -8  -5  161.05   35.51
  -1  -8   6   18.08   11.51
  -1   8  -6   13.47    7.58
   1   8   6   -2.22   16.50
   1   8   6   37.80   21.89
   1  -8  -6  -10.80   11.22
   1  -8  -6   14.43    5.53
   1  -8  -6   28.21   23.77
  -1   8  -6    7.83    9.92
  -1   8  -7  563.53   33.53
   1   8   7  591.02   53.16
   1   8   7  646.59   56.00
   1  -8  -7  527.29   36.15
   1  -8  -7  527.13   50.77
   1  -8  -7  525.65   21.50
  -1  -8   7  549.94   39.61
  -1   8  -7  541.45   30.33
  -1   8  -8  260.67   25.37
   1   8   8  266.73   42.14
   1  -8  -8  281.81   28.93
  -1  -8   8  285.74   30.18
   1   8   8  300.75   40.37
   1  -8  -8  280.42   36.56
  -1   8  -8  314.94   24.83
  -1  -8   9  246.53   23.23
  -1  -8   9  272.66   30.95
   1   8   9  271.25   40.79
  -1   8  -9  248.20   24.44
  -1   8  -9  231.76   25.38
   1   8   9  290.45   45.66
   1  -8  -9  251.24   28.14
   1  -8  -9  243.42   32.12
  -1   8 -10   52.86   15.99
  -1  -8  10   71.91   18.82
  -1   8 -10   51.26   14.55
   1   8  10   43.60   26.43
   1  -8 -10   60.66   16.97
   1  -8 -10   54.95   17.18
  -1  -8  10   71.08   15.08
  -1   8 -11  232.43   28.00
  -1  -8  11  233.16   30.40
   1  -8 -11  205.64   28.35
   1   8  11  271.09   50.49
  -1  -8  11  260.26   27.05
  -1   8 -11  207.20   28.47
  -1   8 -12   91.42   19.32
   1   8  12   82.13   32.86
   1  -8 -12   67.92   19.35
  -1  -8  12   98.52   23.17
  -1   8 -12   87.06   23.61
  -1  -8  12   65.16   15.72
   1  -8 -13  153.73   29.14
  -1   8 -13  185.42   31.28
  -1   8 -13  159.21   26.24
  -1  -8  13  201.72   30.47
   1   8  13  176.94   40.08
  -1  -8  13  174.67   24.98
  -1   8 -14  160.17   32.29
   1   8  14   59.22   30.15
  -1   8 -14   85.76   20.20
  -1  -8  14  126.91   26.56
   1  -8 -14   88.31   23.18
  -1  -8  14  136.19   25.49
   1  -8 -15   28.64   18.37
  -1  -8  15   70.62   19.80
  -1   8 -15   22.81   23.02
   1   8  15   46.57   25.69
  -1   8 -15   42.82   20.57
  -1  -8  15   63.31   22.00
   1  -8 -16   40.93   21.12
  -1   8 -16   13.24   16.83
  -1  -8  16   34.20   16.36
   1   8  16   20.37   24.07
  -1   8 -16    0.91   19.81
  -1   8 -17   77.50   24.03
   1   8  17  137.59   33.62
  -1  -8  17  148.99   29.99
   1  -8 -17  111.61   27.39
  -1   8 -17  102.68   29.04
  -1  -8  18   72.86   23.36
  -1   8 -18   63.18   30.56
  -1  -9 -18   83.10   22.40
  -1   9  17   66.71   26.33
   1   9 -17    8.54   17.74
   1  -9  17   23.84   18.50
  -1  -9 -17   18.20   15.54
  -1   9  17   16.63   21.07
   1   9 -16   29.04   20.63
  -1   9  16   47.66   24.44
  -1  -9 -16   15.24   16.51
   1  -9  16   65.01   24.78
  -1   9  16   48.99   24.73
  -1  -9 -15  127.05   22.92
   1   9 -15   72.09   23.56
   1  -9  15  161.77   31.50
  -1   9  15  122.80   31.93
  -1   9  15  175.38   35.77
   1  -9  14  100.05   26.20
  -1   9  14   99.27   28.01
   1   9 -14  126.28   26.73
  -1  -9 -14   75.05   20.39
  -1   9  14  135.66   32.78
   1   9 -13  108.79   25.56
  -1  -9 -13  111.88   22.17
  -1   9  13   96.35   26.17
   1  -9  13  140.89   26.50
  -1   9  13  136.66   31.62
   1  -9  12  404.97   45.65
  -1  -9 -12  333.52   33.20
   1   9 -12  329.97   36.12
  -1   9  12  299.96   43.33
  -1  -9 -12  265.23   30.22
  -1   9  12  406.04   48.47
  -1  -9 -11   84.82   18.28
   1  -9  11  102.15   25.10
  -1   9  11  110.18   29.26
  -1  -9 -11   81.33   18.07
   1   9 -11   88.31   22.30
  -1   9  11   85.15   24.67
   1  -9  10   17.14   15.93
   1  -9  10    1.08   10.96
  -1   9  10   24.73   18.64
  -1  -9 -10   -5.29   10.05
  -1  -9 -10   15.67   11.89
   1   9 -10    4.61   11.53
  -1   9  10   15.00   19.15
  -1   9   9  421.44   43.80
   1  -9   9  382.39   37.98
   1   9  -9  351.25   31.95
   1  -9   9  458.61   45.37
  -1  -9  -9  388.26   30.71
  -1   9   9  393.97   43.28
  -1  -9  -9  340.24   30.69
   1  -9   8  790.14   55.65
   1   9  -8  783.18   44.05
  -1  -9  -8  798.56   44.02
  -1  -9  -8  730.72   39.27
   1   9  -8  753.51   42.33
   1  -9   8  835.35   59.16
  -1   9   8  783.80   56.89
  -1   9   8  820.61   54.90
  -1  -9  -7    9.98    8.83
   1   9  -7   17.57   11.52
  -1   9   7   27.87   16.81
   1  -9   7   11.00   13.04
   1  -9   7    7.82   16.03
  -1  -9  -7   24.31   10.20
   1   9  -7   31.91   12.97
  -1   9   7    9.99   14.38
   1   9  -6  318.77   23.03
   1   9  -6  267.66   14.26
   1  -9   6  257.45   38.20
   1  -9   6  333.10   35.69
  -1   9   6  303.35   33.74
  -1  -9  -6  274.20   22.67
  -1  -9  -6  254.83   23.84
  -1   9   6  308.02   32.81
   1   9  -6  284.67   25.16
   1   9  -5  494.50   23.19
  -1   9   5  468.37   36.62
  -1  -9  -5  458.24   31.25
   1   9  -5  501.46   31.43
  -1  -9  -5  482.12   28.12
   1   9  -5  482.25   18.70
  -1   9   5  530.57   40.39
   1  -9   5  459.21   50.22
   1  -9   5  529.49   42.26
   1   9  -4  374.07   17.15
  -1   9   4  388.38   31.84
   1   9  -4  379.24   27.45
   1   9  -4  368.23   17.00
   1  -9   4  383.97   33.97
  -1  -9  -4  342.28   27.33
   1  -9   4  386.93   52.23
  -1  -9  -4  384.51   24.61
  -1   9   4  382.09   32.18
   1   9  -3  151.46   10.21
   1   9  -3  147.90   12.41
  -1  -9  -3  131.81   14.42
  -1   9   3  166.40   21.92
  -1  -9  -3  168.43   19.60
   1  -9   3  136.74   38.03
   1   9  -3  160.42   17.83
   1   9  -2 1272.72   46.85
   1  -9   2 1356.99   58.90
  -1  -9  -2 1305.24   41.83
   1   9  -2 1255.60   38.46
  -1   9   2 1339.37   51.68
   1  -9   2 1196.40   95.46
  -1  -9  -2 1339.37   51.51
  -1   9   1  517.01   31.61
  -1  -9  -1  513.28   33.18
   1   9  -1  515.91   29.84
   1  -9   1  556.25   31.46
   1   9  -1  486.72   27.66
  -1  -9  -1  483.21   26.28
   1  -9   1  546.97   35.06
   1  -9   1  503.97   67.95
   1   9   0    1.08    4.36
   1   9   0   -1.67    9.68
  -1   9   0    5.25    6.73
  -1   9   0    7.18    7.57
   1  -9   0    3.10   10.01
   1  -9   0   -1.99   10.34
   1   9   0    1.90    9.80
  -1  -9   0   -0.21   10.68
   1  -9   0  -16.75   44.63
   1   9   1  528.07   29.90
   1   9   1  508.95   34.82
  -1   9  -1  472.57   24.07
   1  -9  -1  527.98   31.20
  -1   9  -1  509.46   29.57
   1  -9  -1  471.40   30.22
  -1  -9   1  533.36   33.75
   1   9   1  458.07   23.44
   1  -9  -1  449.41   71.48
  -1   9  -2 1312.69   39.71
  -1   9  -2 1362.32   47.31
   1  -9  -2 1278.88   48.86
   1  -9  -2 1159.92  102.35
   1  -9  -2 1290.86   46.59
   1   9   2 1422.93   64.04
  -1  -9   2 1310.71   52.78
   1   9   2 1298.35   47.35
   1   9   2 1221.35   42.08
  -1  -9   3  189.11   22.63
  -1   9  -3  153.49   17.51
   1  -9  -3  142.61   19.08
   1  -9  -3  162.99   17.22
   1   9   3  142.31   25.02
   1   9   3  166.32   18.83
   1  -9  -3  177.04   46.42
  -1   9  -3  159.13   14.46
  -1   9  -3  154.71    8.80
   1   9   4  386.04   31.24
   1  -9  -4  375.48   23.23
   1   9   4  397.34   42.63
  -1  -9   4  391.33   32.07
   1  -9  -4  363.99   28.32
  -1   9  -4  401.44   23.02
   1  -9  -4  357.45   53.59
  -1   9  -5  562.75   31.51
   1   9   5  571.18   42.40
   1  -9  -5  512.85   34.01
   1   9   5  485.81   46.60
  -1   9  -5  500.83   26.55
  -1  -9   5  563.79   39.04
   1  -9  -5  542.99   61.10
   1  -9  -5  515.86   25.70
  -1   9  -6  296.74   24.65
  -1   9  -6  292.27   22.12
   1  -9  -6  276.22   27.01
   1  -9  -6  308.34   19.20
   1   9   6  261.76   34.05
   1  -9  -6  261.03   41.40
  -1  -9   6  294.74   30.33
   1   9   6  324.11   41.96
   1   9   7   36.49   20.27
  -1   9  -7   21.18   10.43
   1  -9  -7    8.82   11.14
  -1   9  -7   32.53   10.83
   1  -9  -7    3.76   17.87
  -1  -9   7   45.99   16.14
   1   9   7   16.42   20.48
  -1   9  -8  740.39   41.25
   1   9   8  668.07   58.52
   1  -9  -8  745.01   45.89
   1  -9  -8  807.08   61.08
  -1  -9   8  752.61   49.31
  -1   9  -8  790.71   39.19
  -1   9  -9  383.02   32.31
  -1  -9   9  424.06   38.64
   1   9   9  447.49   52.05
   1  -9  -9  375.95   40.35
   1   9   9  395.51   50.15
   1  -9  -9  380.25   35.08
  -1  -9   9  397.35   29.53
  -1   9  -9  414.83   31.07
  -1  -9  10   15.50   16.60
  -1   9 -10    7.74   10.56
   1  -9 -10   -5.22   12.80
   1   9  10   -8.99   20.88
  -1  -9  10    7.94    8.82
   1  -9 -10   -0.88   11.81
  -1   9 -10   15.02   13.14
  -1   9 -11  106.86   22.55
  -1  -9  11   79.82   21.11
  -1   9 -11   79.49   17.84
   1   9  11   88.24   30.57
   1  -9 -11   78.89   20.19
  -1  -9  11   66.98   15.55
  -1   9 -12  327.14   36.26
   1  -9 -12  293.26   35.39
  -1  -9  12  349.31   38.70
  -1   9 -12  389.84   37.16
   1   9  12  284.05   49.17
  -1  -9  12  364.82   33.74
  -1  -9  13  118.74   21.92
  -1  -9  13  111.43   24.58
  -1   9 -13   64.88   22.62
  -1   9 -13  131.45   24.42
   1  -9 -13  109.96   25.55
   1   9  13   98.57   34.04
  -1   9 -14  112.87   27.07
  -1   9 -14   93.39   23.11
  -1  -9  14   79.13   22.09
   1  -9 -14   72.37   22.85
  -1  -9  14   91.55   21.50
   1   9  14  108.38   32.83
   1   9  15  144.34   33.23
  -1   9 -15   78.01   23.04
  -1   9 -15  106.06   27.99
  -1  -9  15  146.15   30.47
   1  -9 -15  129.46   27.63
  -1   9 -16   17.62   20.93
   1   9  16   69.06   30.32
  -1  -9  16   67.52   24.34
  -1   9 -16   35.64   20.26
   1  -9 -16   61.77   22.17
  -1   9 -17  -12.67   24.02
  -1   9 -17   13.46   17.85
   1  -9 -17   13.06   17.38
  -1  -9  17   -3.36   15.89
  -1   9 -18  114.11   31.78
  -1 -10 -18   53.71   19.65
  -1 -10 -17   66.93   22.38
  -1  10  16   30.30   22.80
  -1 -10 -16   43.17   19.24
   1  10 -16  -14.68   21.07
   1 -10  16   35.48   23.47
  -1  10  16   50.40   28.70
  -1  10  15  402.35   53.49
   1 -10  15  435.79   49.85
  -1 -10 -15  332.36   37.24
   1  10 -15  386.01   45.07
  -1  10  15  489.04   55.47
   1  10 -14  192.54   30.88
  -1 -10 -14  213.83   29.38
  -1  10  14  243.72   41.12
   1 -10  14  195.02   32.63
  -1 -10 -14  206.67   29.07
  -1  10  14  227.71   39.67
  -1 -10 -13   13.22   12.65
   1 -10  13   -7.77   15.94
   1  10 -13    9.43   14.88
  -1 -10 -13   25.40   14.95
  -1  10  13  -11.07   20.75
  -1  10  13   -5.05   18.25
   1 -10  12   81.84   23.45
   1  10 -12  100.57   22.73
  -1 -10 -12   92.76   20.37
  -1 -10 -12   92.99   19.23
  -1  10  12  126.46   31.14
  -1  10  12  143.57   30.88
  -1  10  11  740.12   61.95
  -1 -10 -11  605.00   44.09
   1 -10  11  730.38   60.32
   1  10 -11  759.42   49.86
  -1 -10 -11  675.57   44.58
  -1  10  11  775.01   64.43
  -1  10  10  201.01   32.96
   1 -10  10  206.12   33.47
   1  10 -10  157.98   24.53
  -1 -10 -10  176.26   22.98
   1 -10  10  221.69   30.88
  -1 -10 -10  168.75   24.39
  -1  10  10  157.74   31.09
  -1  10   9  279.61   37.16
   1 -10   9  308.65   38.45
  -1  10   9  360.53   41.91
  -1 -10  -9  269.93   26.95
   1 -10   9  283.80   34.80
   1  10  -9  269.25   28.95
  -1 -10  -9  255.24   27.19
  -1 -10  -8  359.19   30.91
  -1  10   8  392.09   40.19
   1  10  -8  331.10   30.35
  -1 -10  -8  343.16   28.56
   1 -10   8  358.80   41.70
   1 -10   8  334.20   39.33
  -1  10   8  342.09   39.08
  -1 -10  -7  341.92   29.72
   1  10  -7  342.81   28.52
   1 -10   7  403.46   41.50
   1 -10   7  319.84   41.39
  -1 -10  -7  344.25   26.72
  -1  10   7  367.71   38.12
  -1  10   7  356.61   36.95
  -1  10   6  185.59   25.67
  -1 -10  -6  196.98   22.72
   1 -10   6  210.01   30.58
  -1 -10  -6  202.21   21.21
   1  10  -6  214.97   23.07
   1 -10   6  216.18   38.17
  -1  10   6  238.24   29.31
   1  10  -5 1322.63   37.36
  -1 -10  -5 1258.98   52.98
  -1  10   5 1331.98   61.90
   1 -10   5 1342.43   68.24
  -1 -10  -5 1258.99   47.09
   1 -10   5 1320.93   89.77
   1  10  -5 1198.75   32.20
   1  10  -5 1267.37   51.10
   1  10  -4  523.92   22.57
   1  10  -4  568.14   21.72
   1 -10   4  553.59   42.78
   1  10  -4  489.26   31.92
  -1 -10  -4  565.60   31.03
   1 -10   4  565.35   65.70
  -1  10   4  529.43   38.37
  -1 -10  -4  512.32   34.04
   1  10  -3  456.46   18.18
   1  10  -3  428.27   22.28
  -1  10   3  447.97   33.97
  -1 -10  -3  480.79   28.45
   1  10  -3  433.55   29.37
  -1 -10  -3  468.42   32.84
   1 -10   3  439.74   60.42
   1  10  -2  719.84   37.09
   1 -10   2  775.65   47.49
  -1  10   2  785.43   42.01
   1 -10   2  645.38   79.73
  -1 -10  -2  823.82   35.90
  -1 -10  -2  746.59   41.24
   1  10  -2  689.87   31.20
   1 -10   1 1261.61   57.42
  -1  10   1 1296.60   43.80
   1  10  -1 1218.56   47.82
  -1 -10  -1 1264.80   52.94
  -1  10   1 1324.04   51.51
   1 -10   1 1336.57   50.67
  -1 -10  -1 1262.35   43.91
   1 -10   1 1077.62  104.06
   1  10  -1 1229.46   45.58
   1  10   0  308.40   25.90
  -1 -10   0  281.28   26.48
   1  10   0  325.08   25.85
   1 -10   0  279.08   24.52
  -1  10   0  265.52   23.63
  -1  10   0  295.85   21.16
   1 -10   0  206.87   53.96
   1 -10   0  298.38   27.89
   1  10   0  273.83   16.83
  -1 -10   1 1205.92   53.63
  -1  10  -1 1291.89   42.60
   1 -10  -1 1240.75   51.91
   1  10   1 1217.68   48.18
   1  10   1 1340.33   56.58
   1 -10  -1 1132.45  115.17
  -1  10  -1 1263.36   48.10
   1 -10  -1 1265.39   49.94
   1  10   1 1228.31   37.72
  -1  10  -2  724.62   31.84
   1  10   2  750.36   47.17
   1 -10  -2  757.59   39.68
   1 -10  -2  765.18   39.69
  -1  10  -2  769.21   37.81
  -1 -10   2  740.71   42.29
   1  10   2  732.20   37.59
   1  10   2  709.72   32.38
   1 -10  -2  661.95   82.58
  -1  10  -3  469.85   25.82
   1  10   3  484.31   41.58
  -1  10  -3  423.11   28.78
  -1 -10   3  467.14   35.14
   1 -10  -3  451.47   32.32
   1 -10  -3  343.62   59.34
   1  10   3  464.40   30.70
   1 -10  -3  475.15   30.56
   1  10   4  577.40   47.76
   1 -10  -4  570.75   36.70
  -1  10  -4  552.68   28.76
   1 -10  -4  570.68   31.88
  -1 -10   4  568.75   40.03
  -1  10  -4  544.91   32.09
   1 -10  -4  509.53   65.61
   1  10   4  518.13   36.13
  -1  10  -5 1306.96   49.28
   1  10   5 1292.24   61.96
   1 -10  -5 1135.24   87.21
   1  10   5 1422.16   77.38
   1 -10  -5 1367.51   46.41
  -1 -10   5 1376.55   61.50
   1 -10  -5 1265.45   54.62
  -1  10  -5 1241.12   43.75
  -1  10  -6  225.18   22.11
   1 -10  -6  203.77   24.02
  -1 -10   6  222.26   27.49
  -1  10  -6  205.46   19.41
   1  10   6  223.08   31.34
   1  10   6  284.50   39.16
   1 -10  -6  192.46   37.81
  -1  10  -7  380.00   29.10
   1  10   7  398.59   45.74
  -1 -10   7  324.35   33.11
  -1  10  -7  373.39   26.54
   1  10   7  344.86   40.32
   1 -10  -7  347.06   32.37
   1 -10  -7  340.39   45.15
  -1  10  -8  348.86   29.68
   1  10   8  404.58   47.55
  -1  10  -8  350.26   27.64
  -1 -10   8  362.42   36.10
   1 -10  -8  358.26   33.01
   1 -10  -8  317.96   41.01
   1  10   8  331.53   41.09
  -1 -10   9  276.31   32.98
  -1  10  -9  272.08   26.16
  -1  10  -9  339.28   31.14
   1 -10  -9  267.00   31.25
   1  10   9  326.77   45.19
   1 -10  -9  299.07   37.92
   1  10   9  293.39   41.48
   1  10  10  207.30   36.95
  -1  10 -10  159.44   23.42
  -1 -10  10  137.36   24.22
   1  10  10  171.22   36.91
   1 -10 -10  149.94   27.27
  -1  10 -10  178.15   23.75
   1 -10 -10  164.50   26.42
  -1 -10  10  168.92   21.48
   1  10  11  679.36   69.58
  -1  10 -11  735.42   49.78
   1 -10 -11  707.88   51.37
  -1 -10  11  812.38   58.47
  -1  10 -11  722.06   46.67
   1 -10 -11  715.69   52.85
  -1 -10  11  799.98   57.26
  -1 -10  11  748.40   44.31
  -1  10 -12   96.68   21.19
   1  10  12  115.76   36.77
  -1 -10  12  106.08   24.10
   1 -10 -12  100.58   23.39
  -1 -10  12  122.28   20.33
  -1  10 -12  116.18   23.80
  -1  10 -13   -4.59   16.60
   1  10  13   48.27   27.31
  -1 -10  13    9.56   16.47
   1 -10 -13   -0.11   14.50
  -1  10 -13    9.94   14.13
  -1 -10  13  -16.32   13.23
   1  10  14  217.52   44.55
  -1  10 -14  177.90   30.08
  -1 -10  14  236.98   36.60
  -1  10 -14  135.63   31.99
   1 -10 -14  169.95   29.37
  -1 -10  15  411.27   47.95
   1  10  15  404.63   53.70
   1 -10 -15  315.75   40.01
  -1  10 -15  298.36   43.11
  -1  10 -15  384.50   44.48
   1  10  16   55.64   24.62
   1 -10 -16   -8.78   17.71
  -1  10 -16   17.62   16.98
  -1 -10  16   13.93   17.79
  -1  10 -16   37.02   23.15
  -1  10 -17   75.78   28.76
  -1 -10  17  127.94   29.69
  -1 -11 -17   65.38   20.39
   1  11 -16  127.13   31.19
  -1 -11 -16   63.92   20.08
   1  11 -15   51.49   23.17
   1 -11  15  114.61   29.01
  -1 -11 -15   75.96   21.64
  -1  11  15   96.02   31.32
  -1  11  15   31.22   21.69
  -1  11  14   34.78   23.25
   1  11 -14   27.14   19.72
   1 -11  14   58.06   22.27
  -1 -11 -14   21.85   14.02
  -1  11  14   17.36   20.22
  -1 -11 -13  162.19   25.74
  -1 -11 -13  170.45   25.65
  -1  11  13  153.40   33.70
   1 -11  13  186.47   35.74
   1  11 -13  170.08   30.35
  -1  11  13  173.09   34.62
  -1  11  12   57.60   24.84
   1 -11  12   47.11   21.57
   1  11 -12   72.80   20.62
  -1 -11 -12   44.31   17.29
  -1 -11 -12   47.81   17.19
  -1  11  12   38.06   21.32
  -1  11  11    7.38   18.47
  -1 -11 -11  -12.90   13.04
   1  11 -11    8.81   13.05
   1 -11  11    4.62   14.13
  -1 -11 -11    3.36   13.22
  -1  11  11  -20.35   21.17
  -1  11  10  494.86   50.58
   1  11 -10  407.06   37.45
   1 -11  10  465.08   45.09
  -1 -11 -10  460.85   36.06
  -1  11  10  421.10   46.22
  -1 -11 -10  404.04   36.04
   1 -11  10  539.63   52.98
  -1 -11  -9  252.36   27.88
   1  11  -9  259.45   28.82
  -1  11   9  287.97   37.39
   1 -11   9  297.03   39.87
  -1 -11  -9  226.46   25.38
   1 -11   9  292.95   39.09
  -1  11   9  252.05   36.82
   1  11  -8   -1.80   11.59
  -1  11   8   29.63   19.10
   1 -11   8   17.98   14.97
  -1 -11  -8   34.59   13.19
   1 -11   8   42.66   21.70
  -1 -11  -8    9.14    9.67
   1 -11   7  200.33   30.87
   1  11  -7  221.95   24.78
  -1  11   7  231.46   31.48
  -1 -11  -7  169.60   23.11
  -1 -11  -7  212.97   22.69
   1 -11   7  233.33   38.43
   1 -11   6  503.94   56.73
  -1 -11  -6  519.66   36.52
   1  11  -6  494.36   34.93
   1 -11   6  568.56   47.69
  -1 -11  -6  465.98   31.46
  -1  11   6  549.18   44.41
   1  11  -5   70.47   15.39
   1 -11   5   85.20   21.67
  -1 -11  -5   99.43   15.93
  -1  11   5   68.24   16.68
  -1 -11  -5   70.50   16.01
   1 -11   5   69.35   30.48
   1  11  -4  347.86   28.97
   1 -11   4  324.18   34.75
  -1 -11  -4  346.84   29.55
  -1 -11  -4  324.61   25.57
   1 -11   4  301.48   48.50
  -1  11   4  324.10   31.98
  -1 -11  -3  394.90   32.09
   1  11  -3  392.67   23.54
  -1  11   3  437.62   34.43
  -1 -11  -3  442.35   28.69
   1  11  -3  459.64   31.86
  -1  11   2  299.86   28.01
  -1 -11  -2  273.72   22.88
   1  11  -2  281.51   25.31
  -1 -11  -2  338.83   30.03
   1 -11   2  290.08   30.89
   1  11  -2  258.78   20.90
  -1 -11  -1   95.63   17.52
   1 -11   1   90.21   17.40
   1  11  -1  100.97   17.88
  -1  11   1  100.77   17.92
  -1  11   1   98.70   14.72
   1  11  -1  103.63   16.27
   1 -11   1   41.95   43.52
  -1  11   0  336.64   24.05
  -1  11   0  335.86   28.22
   1  11   0  330.09   27.91
   1  11   0  293.98   25.57
   1 -11   0  348.62   28.13
  -1 -11   0  326.37   29.55
   1 -11   0  295.24   68.63
   1 -11   0  359.25   32.15
  -1  11  -1   94.86   16.28
   1 -11  -1   73.09   15.77
  -1 -11   1  107.50   19.02
  -1  11  -1   98.33   14.30
   1  11   1  104.33   17.53
   1 -11  -1   95.21   17.86
   1  11   1   73.80   10.16
   1  11   1  101.14   18.56
   1 -11  -1  100.76   51.03
  -1 -11   2  296.22   29.14
   1 -11  -2  296.13   27.01
   1  11   2  261.86   24.95
  -1  11  -2  303.42   22.60
   1 -11  -2  274.56   25.75
  -1  11  -2  254.42   23.64
   1  11   2  272.22   20.42
   1  11   2  285.54   30.93
   1 -11  -2  270.17   59.35
   1  11   3  390.64   37.22
  -1  11  -3  447.31   27.27
  -1  11  -3  427.85   30.16
   1 -11  -3  460.69   32.74
   1 -11  -3  435.66   33.20
   1  11   3  420.20   31.25
  -1 -11   3  367.42   32.74
   1  11   3  395.92   28.14
   1 -11  -4  346.97   27.30
  -1  11  -4  348.49   24.46
  -1  11  -4  400.98   28.84
  -1 -11   4  358.54   33.39
   1 -11  -4  379.43   31.26
   1  11   4  329.33   36.91
   1  11   4  317.03   28.70
   1 -11  -5   93.99   19.37
  -1  11  -5   58.77   13.95
  -1  11  -5   61.94   12.13
  -1 -11   5   86.44   20.49
   1  11   5   63.69   16.94
  -1  11  -5   47.12   12.38
   1 -11  -5   79.02   32.89
   1  11   5   73.30   21.94
  -1  11  -6  515.11   33.49
   1  11   6  573.33   51.70
   1 -11  -6  530.69   59.39
  -1  11  -6  520.88   31.08
   1  11   6  416.73   39.87
   1 -11  -6  524.46   38.46
  -1 -11   6  459.12   40.59
   1  11   7  224.05   35.46
   1  11   7  197.27   33.09
  -1  11  -7  203.56   21.16
   1 -11  -7  213.11   26.43
  -1  11  -7  210.57   23.36
   1 -11  -7  194.93   36.48
  -1 -11   7  201.21   28.53
  -1  11  -8   19.62   10.77
  -1  11  -8   14.24   10.67
   1  11   8   25.70   21.01
  -1 -11   8   30.79   16.68
   1 -11  -8   21.10   19.11
   1 -11  -8   22.16   14.23
   1  11   8   12.31   18.62
   1  11   9  320.57   44.69
  -1 -11   9  323.46   36.74
   1  11   9  343.66   47.37
  -1  11  -9  296.01   27.64
   1 -11  -9  227.43   28.35
   1 -11  -9  236.76   36.48
  -1  11  -9  244.84   27.31
   1  11  10  510.71   56.82
  -1  11 -10  450.40   38.03
   1  11  10  561.20   58.47
  -1 -11  10  507.53   46.34
  -1  11 -10  519.06   37.84
   1 -11 -10  460.57   41.44
   1 -11 -10  409.21   44.47
  -1 -11  10  492.42   35.33
  -1 -11  11   -2.77   11.65
   1  11  11    5.95   20.16
  -1  11 -11   22.99   13.85
   1 -11 -11    3.31   16.45
  -1 -11  11   11.42   18.79
   1 -11 -11  -18.60   15.78
  -1  11 -11   -3.44   11.88
   1 -11 -12   38.99   16.76
   1  11  12   24.24   22.43
  -1  11 -12   57.87   17.88
  -1  11 -12   45.43   17.61
  -1 -11  12   75.09   18.22
  -1 -11  12   68.94   22.16
  -1 -11  13  213.26   34.70
   1  11  13  201.78   41.84
  -1  11 -13  153.92   27.07
   1 -11 -13  133.44   27.81
  -1  11 -13  135.64   27.47
  -1  11 -14   60.17   21.74
  -1  11 -14   15.91   14.31
  -1 -11  14   49.33   21.67
   1  11  14    3.98   22.05
   1 -11 -14   19.78   16.47
  -1  11 -15   88.45   29.39
   1  11  15   53.61   25.81
  -1  11 -15   65.22   21.71
  -1 -11  15   46.30   20.08
   1 -11 -15   43.34   18.64
  -1 -11  16  126.96   30.83
   1  11  16  125.11   33.04
  -1  11 -16   68.91   26.64
  -1 -12 -16   76.43   22.67
   1  12 -15  -47.64   22.60
  -1 -12 -15    1.14   14.17
  -1  12  14  234.75   41.77
   1  12 -14  269.50   37.69
   1 -12  14  288.14   44.17
  -1 -12 -14  195.92   30.00
  -1 -12 -13   69.27   18.81
  -1  12  13  103.70   32.16
   1 -12  13  109.60   28.05
   1  12 -13   84.79   23.31
  -1 -12 -12   27.54   13.80
  -1  12  12   48.75   22.57
   1  12 -12   21.67   15.99
   1 -12  12    9.92   16.05
  -1 -12 -12   28.18   15.14
  -1 -12 -11    5.56   10.88
   1 -12  11    8.06   18.99
  -1 -12 -11    8.92   11.56
  -1  12  11   47.31   25.93
   1  12 -11   22.52   14.83
  -1  12  10  736.46   62.23
   1  12 -10  709.70   48.65
   1 -12  10  742.68   63.49
  -1 -12 -10  668.20   44.36
   1 -12  10  737.18   58.97
  -1 -12 -10  637.78   45.19
   1  12  -9   80.52   19.36
  -1  12   9  130.20   29.86
   1 -12   9   85.71   25.51
   1 -12   9  106.51   27.62
  -1 -12  -9   78.57   17.52
  -1 -12  -9   96.79   18.54
   1  12  -8  204.41   26.08
  -1 -12  -8  173.88   25.16
  -1 -12  -8  185.25   23.49
  -1  12   8  264.49   36.11
   1 -12   8  206.66   33.46
   1 -12   8  220.64   39.64
   1  12  -7   37.64   16.18
  -1  12   7   12.12   15.22
   1 -12   7   43.32   18.50
  -1 -12  -7   29.38   11.89
   1 -12   7   22.68   23.08
  -1 -12  -7   16.94   12.09
  -1 -12  -6  852.87   49.55
   1  12  -6  953.40   49.62
  -1 -12  -6  886.60   44.94
   1 -12   6  788.14   74.56
  -1  12   6  976.46   59.86
   1 -12   6  968.23   64.60
  -1 -12  -5   46.43   14.73
   1 -12   5   35.82   17.89
  -1  12   5   50.02   16.43
   1  12  -5   13.88   11.97
  -1 -12  -5   40.41   12.77
   1  12  -4  778.69   44.06
   1 -12   4  796.82   55.93
  -1 -12  -4  818.32   46.40
  -1 -12  -4  808.32   41.39
  -1  12   4  829.19   51.33
   1 -12   4  717.67   79.25
  -1 -12  -3   27.96   13.64
   1  12  -3   22.07   12.94
  -1  12   3   30.79   13.99
  -1 -12  -3    9.34    8.70
  -1 -12  -2   85.08   14.51
   1  12  -2  108.60   17.82
  -1  12   2   77.45   16.44
  -1 -12  -2   76.30   17.09
   1 -12   2   66.81   16.39
  -1  12   2  110.50   15.83
   1 -12   2   58.81   37.06
  -1  12   1   13.47    8.79
   1  12  -1   19.73    8.01
   1  12  -1   27.36   11.96
  -1  12   1    9.67   10.73
  -1 -12  -1   30.51   13.81
   1 -12   1   14.50   12.85
   1 -12   0 2140.22   81.26
   1  12   0 2024.34   69.69
  -1 -12   0 2121.56   76.05
  -1  12   0 2101.87   61.35
   1 -12   0 2161.70   71.63
  -1  12   0 2038.21   69.20
   1  12   0 2025.48   66.72
  -1  12  -1    6.40    8.81
   1  12   1   32.26    8.03
   1  12   1   24.07   12.59
   1 -12  -1   24.21   12.68
  -1  12  -1   19.94    9.37
   1  12   1   23.87   11.92
   1 -12  -1   16.36   10.78
  -1 -12   1   22.62   14.06
   1 -12  -1   46.86   41.91
   1  12   2   92.38   12.96
   1 -12  -2  119.10   20.47
   1  12   2   80.30   16.72
  -1  12  -2  101.68   15.25
   1  12   2  114.40   20.78
   1 -12  -2   92.38   17.42
  -1  12  -2  109.73   17.79
  -1 -12   2  104.30   19.16
   1 -12  -2  131.78   43.81
   1 -12  -3   -2.91   12.01
  -1  12  -3    7.02    7.67
  -1  12  -3    5.79    8.35
   1  12   3   19.96    8.37
   1  12   3   21.16   13.80
   1 -12  -3   21.28   13.23
   1  12   3   11.91   11.93
  -1 -12   3   30.22   14.50
   1 -12  -3    0.63   25.49
   1  12   4  841.71   57.45
   1 -12  -4  772.82   79.77
  -1  12  -4  835.63   39.10
   1 -12  -4  809.51   46.46
  -1  12  -4  840.60   42.68
   1  12   4  759.73   42.66
  -1 -12   4  833.00   51.15
   1 -12  -5   52.86   16.84
  -1  12  -5   46.95   13.22
  -1  12  -5   24.91    9.99
  -1 -12   5   53.24   18.55
   1  12   5   30.72   12.26
   1  12   5   83.90   22.96
  -1  12  -5   26.77   11.48
   1 -12  -5   13.95   25.36
   1  12   6  895.95   55.53
  -1  12  -6  954.59   46.60
   1  12   6 1045.36   68.50
  -1  12  -6  884.60   45.74
  -1  12  -6  956.34   43.74
   1 -12  -6  952.45   52.69
   1 -12  -6  824.16   74.28
  -1 -12   6  859.96   55.41
   1  12   7   30.86   17.76
   1  12   7   30.31   17.77
  -1  12  -7   34.06   11.99
   1 -12  -7    7.73   12.10
  -1 -12   7   33.46   18.07
   1 -12  -7   19.70   18.88
  -1  12  -7   29.98   12.03
  -1  12  -7   17.94   11.84
  -1 -12   8  215.35   31.03
  -1  12  -8  204.97   24.22
  -1  12  -8  220.50   23.65
   1  12   8  284.56   41.10
   1 -12  -8  193.33   27.31
   1 -12  -8  142.24   32.34
   1  12   8  172.34   31.72
   1  12   9   88.33   25.89
  -1 -12   9  111.56   24.08
   1  12   9  102.21   27.29
  -1  12  -9   98.22   18.03
   1 -12  -9   67.05   23.60
  -1  12  -9   98.46   19.59
   1 -12  -9   83.29   20.49
   1  12  10  680.55   65.96
  -1  12 -10  669.13   46.51
  -1 -12  10  681.29   55.19
   1  12  10  804.54   68.34
  -1  12 -10  696.87   44.76
   1 -12 -10  618.13   56.31
   1 -12 -10  714.40   52.00
  -1 -12  10  705.12   42.60
  -1  12 -11   11.90   13.81
   1  12  11   -0.68   19.54
  -1 -12  11    9.53   16.55
   1  12  11    7.02   18.52
  -1  12 -11   22.94   12.67
   1 -12 -11  -16.04   17.54
   1 -12 -11   22.13   15.41
  -1 -12  11    3.70    9.16
  -1  12 -12   26.16   14.68
   1 -12 -12   46.79   20.60
  -1  12 -12   48.36   19.09
  -1 -12  12   58.27   20.55
  -1 -12  13  123.10   28.37
   1  12  13  135.23   35.61
  -1  12 -13   64.19   23.36
  -1  12 -13   54.07   17.97
   1 -12 -13   74.71   22.84
  -1  12 -14  171.84   29.51
  -1  12 -14  234.03   36.90
   1  12  14  261.21   45.05
   1 -12 -14  258.49   37.80
  -1 -12  14  341.18   44.86
  -1 -12  15   -6.99   17.87
   1  12  15   -8.37   20.72
   1 -12 -15    2.66   15.06
  -1 -13 -15    8.26   13.34
   1  13 -14   19.13   16.75
   1 -13  14    6.91   17.48
  -1 -13 -14    4.74   15.76
  -1  13  13  130.79   33.93
   1  13 -13   71.40   23.60
   1 -13  13  155.83   33.50
  -1 -13 -13   88.97   21.99
  -1  13  12   24.33   20.98
   1  13 -12   38.40   19.83
   1 -13  12   75.25   26.60
  -1 -13 -12   36.04   16.77
  -1 -13 -11    1.43   12.00
  -1 -13 -11  -10.25   13.32
  -1  13  11   43.98   22.70
   1  13 -11   -0.42   15.24
   1 -13  11   15.09   19.29
  -1 -13 -10  105.11   19.78
   1 -13  10  154.80   32.41
   1  13 -10  136.86   24.54
  -1  13  10  133.17   30.42
  -1 -13 -10   83.53   19.15
   1 -13  10  114.36   27.32
  -1 -13  -9   99.53   20.96
   1  13  -9  111.15   22.42
  -1  13   9  125.19   29.53
   1 -13   9  155.51   31.34
   1 -13   9  144.61   33.00
  -1 -13  -9  103.02   20.08
   1 -13   8    7.92   20.28
   1  13  -8  -19.17   15.80
   1 -13   8   14.98   15.64
  -1  13   8   15.74   18.48
  -1 -13  -8   11.09    9.97
  -1 -13  -8   -8.70   12.39
   1  13  -7  139.47   23.05
  -1 -13  -7  101.25   19.71
   1 -13   7  105.85   25.31
  -1  13   7  122.43   25.46
  -1 -13  -7  113.05   19.58
   1 -13   7  125.68   33.45
   1  13  -6  137.48   22.24
   1 -13   6  132.11   27.03
  -1  13   6  135.14   25.21
  -1 -13  -6  160.64   21.81
  -1 -13  -6  160.40   23.43
   1 -13   6  113.58   37.51
   1  13  -5   14.40   12.31
  -1  13   5   25.27   16.55
   1 -13   5   29.64   18.89
  -1 -13  -5   26.64   12.38
  -1 -13  -5   27.59   12.47
   1 -13   5   73.37   35.40
   1  13  -4   61.78   17.19
   1 -13   4   60.89   19.95
  -1  13   4   87.10   21.44
  -1 -13  -4   45.29   13.66
  -1 -13  -4   66.30   17.41
   1 -13   4   62.10   32.46
  -1  13   3  187.68   26.49
  -1 -13  -3  142.42   23.11
   1  13  -3  190.25   23.48
  -1 -13  -3  147.45   19.91
   1 -13   3  170.54   51.81
  -1  13   2   82.25   15.57
  -1 -13  -2   91.57   19.18
   1  13  -2   87.86   17.97
   1 -13   2   98.55   21.65
  -1  13   2   77.22   17.31
   1 -13   2  106.01   45.79
   1  13  -1   30.69   13.90
  -1  13   1   29.15   11.77
  -1 -13  -1   39.30   16.44
  -1  13   1   37.59   13.26
   1 -13   1   37.40   14.91
   1 -13   1   39.69   26.14
   1 -13   0   70.39   19.29
  -1  13   0   68.31   14.21
   1  13   0   54.32   14.69
  -1  13   0   39.87   13.23
   1 -13   0   50.30   16.73
  -1 -13   0   47.30   15.69
   1 -13   0   15.91   30.15
   1  13   1   51.40   16.18
   1 -13  -1   62.66   17.66
  -1 -13   1   35.75   15.67
  -1  13  -1   41.41   12.43
   1 -13  -1   33.02   14.31
  -1  13  -1   45.93   14.12
   1  13   1   48.20   15.51
   1 -13  -1   43.02   36.03
   1  13   2  112.52   22.39
  -1 -13   2   85.97   19.91
  -1  13  -2   95.11   16.43
   1  13   2   69.42   17.43
  -1  13  -2   77.30   15.65
   1 -13  -2   84.84   19.04
   1 -13  -2  105.58   20.10
   1 -13  -2  111.67   39.97
   1  13   3  149.04   21.02
  -1 -13   3  194.62   27.86
   1 -13  -3  147.77   22.83
  -1  13  -3  151.02   20.87
   1  13   3  197.92   28.60
   1 -13  -3  189.47   47.10
  -1  13  -3  175.20   19.78
  -1  13  -4   46.18   12.73
   1  13   4   34.77   10.37
   1 -13  -4   60.04   17.58
   1  13   4   56.24   17.08
  -1  13  -4   28.00   11.71
   1  13   4   64.12   16.25
  -1 -13   4   71.42   20.81
   1 -13  -4   62.36   25.88
  -1  13  -5    4.88   10.01
  -1 -13   5   26.12   16.39
   1  13   5   28.20   17.82
   1  13   5   28.42   11.73
  -1  13  -5   42.91   12.83
   1 -13  -5   35.14   14.31
  -1  13  -5   26.36   11.49
   1 -13  -5    6.84   22.31
  -1  13  -6  148.58   20.60
   1  13   6  180.35   30.66
   1 -13  -6  135.17   21.85
  -1  13  -6  136.83   18.54
  -1  13  -6  135.45   19.20
   1  13   6  143.01   23.45
   1 -13  -6  132.81   36.57
  -1 -13   6  137.33   25.14
  -1  13  -7   92.02   16.10
  -1 -13   7  163.73   28.70
   1 -13  -7  103.10   22.88
   1 -13  -7   94.52   29.62
   1  13   7  105.53   23.69
  -1  13  -7  153.01   22.41
   1  13   7  110.22   25.63
  -1  13  -7  132.18   19.03
   1  13   8   18.10   14.94
  -1 -13   8   -3.82   14.02
  -1  13  -8   14.10   11.49
   1 -13  -8    9.11   12.91
  -1  13  -8    8.20   11.54
   1 -13  -8  -10.40   21.10
   1  13   8   -9.83   18.38
  -1  13  -8   -2.75   10.31
   1  13   9  159.02   32.03
  -1 -13   9  145.20   28.50
  -1  13  -9  100.34   18.31
   1  13   9  140.68   30.55
   1 -13  -9  151.27   26.26
   1 -13  -9  101.01   28.05
  -1  13  -9  117.89   20.79
  -1 -13  10  100.07   24.54
   1  13  10  149.59   33.03
   1  13  10  147.42   32.40
  -1  13 -10  107.33   22.06
  -1  13 -10  127.14   21.65
   1 -13 -10   86.26   21.82
   1 -13 -10   75.10   24.09
   1  13  11   32.71   21.17
   1  13  11   19.15   21.93
  -1 -13  11   14.59   18.64
  -1  13 -11   12.19   14.04
  -1  13 -11   25.26   14.68
   1 -13 -11   -8.33   17.02
   1  13  12   44.46   27.44
  -1 -13  12   48.39   21.43
   1 -13 -12   50.77   18.48
  -1  13 -12    4.94   12.92
  -1  13 -12   60.29   21.13
   1  13  13  101.78   31.43
  -1  13 -13   89.37   22.72
  -1 -13  13  124.48   30.81
   1 -13 -13  126.10   28.42
  -1 -13  14   54.12   21.91
   1 -13 -14   16.31   15.18
   1  13  14   16.50   24.94
  -1  14  13   24.96   21.16
   1  14 -13   -6.35   15.29
   1 -14  13   67.79   27.09
  -1 -14 -13   51.37   19.84
  -1  14  12  159.43   34.88
   1  14 -12  171.29   30.32
  -1 -14 -12  152.00   26.70
   1 -14  12  199.64   39.23
  -1  14  11  479.39   54.86
   1  14 -11  371.71   40.47
  -1 -14 -11  349.76   36.45
   1 -14  11  444.22   53.06
   1  14 -10   17.59   15.09
  -1  14  10   10.54   19.78
  -1 -14 -10    6.52   12.33
   1 -14  10   13.49   17.98
   1 -14  10    1.77   19.43
   1 -14   9  123.96   28.40
  -1  14   9  102.44   27.80
   1  14  -9  128.51   25.04
   1 -14   9   98.70   29.42
  -1 -14  -9  117.94   22.70
  -1 -14  -9  110.81   20.71
  -1  14   8  433.65   46.56
   1 -14   8  427.94   50.04
  -1 -14  -8  330.32   31.75
  -1 -14  -8  390.45   37.77
   1 -14   8  480.20   59.73
   1  14  -8  381.36   36.75
  -1  14   7  432.01   45.68
  -1 -14  -7  359.90   36.06
   1  14  -7  410.88   37.48
   1 -14   7  488.10   51.89
  -1 -14  -7  385.47   33.27
   1 -14   7  460.31   61.60
  -1 -14  -6  161.07   24.31
   1 -14   6  190.31   32.77
  -1  14   6  186.05   30.87
   1  14  -6  206.04   27.55
  -1 -14  -6  198.16   24.22
   1 -14   6  240.86   49.52
  -1 -14  -5  538.42   42.62
   1  14  -5  518.88   39.77
   1 -14   5  565.10   52.08
  -1 -14  -5  532.15   38.51
  -1  14   5  516.55   45.82
   1 -14   5  490.93   69.88
   1 -14   4  241.52   52.33
   1  14  -4  281.08   29.63
  -1 -14  -4  269.54   27.27
  -1 -14  -4  302.43   32.26
  -1  14   4  303.69   34.94
   1 -14   4  323.48   39.11
  -1  14   3  402.25   38.29
  -1  14   3  392.57   32.05
  -1 -14  -3  405.95   32.19
   1  14  -3  413.86   34.69
  -1 -14  -3  372.81   35.44
   1 -14   3  500.00   76.00
  -1  14   2  649.30   39.49
  -1  14   2  699.55   48.16
   1 -14   2  679.47   54.39
   1  14  -2  661.83   42.68
  -1 -14  -2  637.18   45.82
   1 -14   2  641.55   83.11
  -1 -14  -1  615.81   46.16
  -1  14   1  643.88   39.24
   1 -14   1  649.88   53.04
  -1  14   1  592.62   43.68
   1  14  -1  539.34   39.54
   1 -14   1  627.22   84.06
   1 -14   0   74.19   21.44
  -1  14   0   56.63   13.98
  -1 -14   0   71.82   19.39
   1  14   0   56.95   17.10
  -1  14   0   48.72   15.12
   1 -14   0   18.92   29.15
   1  14   1  596.24   40.27
  -1  14  -1  623.07   36.97
   1 -14  -1  551.13   41.07
  -1 -14   1  627.26   48.12
   1 -14  -1  473.96   73.66
  -1  14  -1  592.93   41.49
   1 -14  -2  709.97   46.74
  -1 -14   2  620.87   47.43
   1  14   2  655.89   43.84
  -1  14  -2  688.02   38.87
  -1  14  -2  664.51   42.51
   1 -14  -2  561.87   77.76
   1  14   3  378.50   33.90
   1  14   3  444.75   41.76
  -1  14  -3  397.82   33.40
  -1  14  -3  436.03   31.59
   1 -14  -3  388.31   34.82
  -1 -14   3  501.27   43.46
   1 -14  -3  327.85   60.89
   1 -14  -4  251.45   29.61
  -1 -14   4  260.63   33.13
  -1  14  -4  287.15   26.18
   1  14   4  303.89   31.21
  -1  14  -4  272.84   28.00
   1  14   4  300.95   36.68
   1 -14  -4  186.83   43.98
  -1  14  -5  622.13   39.77
   1  14   5  549.41   49.93
  -1 -14   5  603.31   49.88
  -1  14  -5  555.15   38.33
  -1  14  -5  601.71   38.17
   1 -14  -5  578.25   43.33
   1 -14  -5  524.17   66.71
   1  14   5  631.21   44.36
  -1  14  -6  209.02   24.23
   1  14   6  221.87   29.11
  -1  14  -6  190.97   23.50
  -1 -14   6  196.35   30.49
   1 -14  -6  201.20   27.68
  -1  14  -6  190.36   23.59
   1  14   6  225.21   35.25
   1 -14  -6  195.24   41.08
  -1  14  -7  454.66   35.93
   1  14   7  438.81   48.94
  -1  14  -7  462.17   34.71
  -1  14  -7  390.23   33.22
  -1 -14   7  445.92   43.90
   1 -14  -7  352.18   50.02
   1 -14  -7  471.25   41.18
   1  14   7  424.48   41.09
  -1  14  -8  419.86   35.60
   1  14   8  442.49   49.07
  -1 -14   8  397.18   44.65
  -1  14  -8  408.56   34.45
   1 -14  -8  388.48   39.62
  -1  14  -8  383.66   33.38
   1 -14  -8  305.27   46.90
   1  14   8  426.01   44.57
  -1  14  -9  131.53   22.93
  -1  14  -9   92.12   19.41
   1  14   9  118.32   26.64
   1 -14  -9  146.52   26.83
   1 -14  -9   86.87   26.78
   1  14   9  100.88   27.01
  -1  14  -9  102.18   19.44
  -1 -14   9  157.03   30.99
  -1  14 -10   14.31   13.41
   1  14  10   -9.95   18.49
   1 -14 -10    7.16   16.26
  -1  14 -10   -3.88   12.11
   1 -14 -10    3.77   15.66
   1  14  10  -15.02   20.41
  -1 -14  10   28.58   19.88
  -1  14 -11  369.85   37.27
   1  14  11  381.38   50.44
   1  14  11  450.50   53.78
   1 -14 -11  391.60   42.71
  -1 -14  11  396.22   46.69
   1  14  12   82.06   27.00
  -1 -14  12  150.57   31.97
   1 -14 -12  154.99   31.11
  -1 -14  13   65.75   26.24
   1  14  13   36.93   22.33
   1 -14 -13   42.97   22.45
   1  14  14   90.89   30.31
   1  15 -12  131.92   28.65
  -1 -15 -12   81.91   21.87
   1 -15  11   67.09   27.40
  -1  15  11   71.92   26.32
   1  15 -11   18.22   16.69
  -1 -15 -11   39.45   16.94
   1  15 -10   22.49   15.97
   1 -15  10    3.69   21.23
  -1  15  10   27.08   20.59
   1 -15  10   77.84   26.98
  -1 -15 -10   29.48   14.39
   1  15  -9   47.54   17.86
   1 -15   9   64.35   26.91
  -1 -15  -9   32.03   13.06
  -1  15   9   54.61   23.43
   1 -15   9   60.60   27.72
  -1 -15  -8  260.40   31.52
   1 -15   8  294.75   42.94
   1 -15   8  353.15   54.02
  -1  15   8  279.70   40.89
   1  15  -8  300.74   34.23
  -1 -15  -8  291.51   30.76
   1 -15   7    5.44   17.81
   1  15  -7   20.09   15.16
  -1  15   7  -10.99   16.55
  -1 -15  -7   13.13   12.12
  -1 -15  -7   15.54   13.66
   1 -15   7  -20.58   30.45
   1  15  -6  164.53   26.18
  -1 -15  -6  160.72   25.86
   1 -15   6  179.84   33.51
  -1 -15  -6  193.02   25.14
   1 -15   6  153.89   41.45
  -1  15   6  155.46   30.60
   1  15  -5   86.42   20.65
   1 -15   5   74.83   24.71
  -1  15   5   77.07   23.23
  -1 -15  -5   76.88   19.89
  -1 -15  -5   54.95   15.79
   1 -15   5   22.08   25.98
  -1  15   4  163.38   21.69
  -1  15   4  180.80   29.71
   1  15  -4  130.27   21.46
   1 -15   4  215.37   35.13
  -1 -15  -4  177.04   25.50
  -1 -15  -4  145.55   22.60
   1 -15   4  152.96   46.30
  -1  15   3    5.81   11.18
  -1 -15  -3   20.42   13.88
  -1  15   3   34.68   16.58
   1  15  -3   16.79   13.46
   1 -15   3   13.87   28.37
   1 -15   2  491.49   49.33
  -1  15   2  478.08   42.43
  -1  15   2  456.31   34.75
   1  15  -2  392.50   34.91
   1 -15   2  542.53   79.44
  -1 -15  -2  461.76   41.53
  -1 -15  -1   75.52   20.50
   1  15  -1   66.65   18.51
  -1  15   1   61.94   15.93
   1 -15   1   82.09   23.20
  -1  15   1   46.72   16.31
   1 -15   1   29.12   28.07
  -1  15   0  111.27   18.39
  -1 -15   0  108.36   21.95
  -1  15   0  116.06   22.08
   1  15   0  121.69   21.31
   1 -15   0   55.04   33.07
  -1 -15   1   72.62   21.14
   1 -15  -1   41.69   15.24
  -1  15  -1   38.22   13.29
   1  15   1   66.81   19.89
  -1  15  -1   47.84   14.40
   1 -15  -1   32.19   26.69
   1  15   2  463.99   38.34
  -1  15  -2  461.14   33.54
  -1  15  -2  412.88   36.25
   1 -15  -2  468.30   39.89
  -1 -15   2  501.52   45.66
   1 -15  -2  509.77   76.08
   1 -15  -3   53.32   17.83
   1  15   3   14.62   13.08
  -1  15  -3   29.14   14.04
  -1 -15   3   50.44   19.64
  -1  15  -3   23.70   13.25
   1 -15  -3   55.16   30.15
  -1  15  -4  169.08   22.31
   1  15   4  148.29   23.55
  -1  15  -4  193.41   23.42
  -1  15  -4  172.39   23.86
   1 -15  -4  192.36   27.73
  -1 -15   4  174.54   29.87
   1 -15  -4  208.69   47.21
  -1 -15   5   52.07   22.10
   1 -15  -5   52.70   30.42
   1  15   5   52.31   17.90
  -1  15  -5   54.46   15.30
  -1  15  -5   70.24   16.94
   1 -15  -5   43.89   16.60
  -1  15  -5   65.10   16.07
  -1  15  -6  166.07   22.74
  -1  15  -6  184.97   23.94
   1  15   6  217.00   34.56
   1  15   6  201.06   27.28
   1 -15  -6  187.42   28.40
  -1  15  -6  122.58   20.75
  -1 -15   6  221.17   34.38
   1 -15  -6  126.95   36.51
  -1  15  -7   -4.31   11.12
   1  15   7    9.64   15.84
   1 -15  -7  -11.58   13.55
  -1  15  -7   -3.12    9.46
   1 -15  -7   44.78   27.74
  -1 -15   7   16.15   16.13
  -1  15  -7   30.56   14.21
   1 -15  -8  282.52   34.79
   1  15   8  392.63   48.17
  -1  15  -8  304.91   31.03
   1 -15  -8  250.40   43.77
  -1 -15   8  271.07   39.72
  -1  15  -8  267.65   29.78
  -1 -15   9   66.01   21.47
   1 -15  -9   68.84   25.77
   1  15   9   59.50   22.90
  -1  15  -9   42.21   15.45
   1 -15  -9   55.97   21.39
   1 -15 -10   49.46   19.71
   1  15  10   28.15   17.34
  -1 -15  10   35.91   18.83
   1 -15 -10   23.42   18.11
  -1  15 -10   40.06   17.90
   1  15  10   68.29   27.95
   1  15  11   20.51   18.94
  -1 -15  11   56.44   22.36
   1 -15 -11   22.58   17.53
   1  15  11   46.56   24.63
   1  15  12  164.04   33.34
   1  15  13  -17.75   25.88
   1 -16  10   36.96   23.17
   1  16 -10   22.96   19.30
  -1 -16 -10   35.96   15.95
  -1  16  10   24.26   19.27
  -1  16   9  118.85   31.07
   1  16  -9  121.78   24.88
   1 -16   9  137.10   32.25
  -1 -16  -9   51.95   17.85
   1 -16   9   80.66   26.10
   1  16  -8   79.54   22.67
  -1  16   8   16.83   20.12
   1 -16   8   39.49   22.57
   1 -16   8   58.48   29.64
  -1 -16  -8   26.34   14.64
  -1 -16  -7   87.97   20.88
   1  16  -7  127.10   25.30
  -1  16   7  153.29   32.63
   1 -16   7  185.64   37.54
  -1 -16  -7  138.75   24.53
   1 -16   7  135.91   38.58
  -1 -16  -6    3.19   13.17
   1 -16   6   27.73   20.79
   1 -16   6  -30.63   30.43
   1  16  -6   -2.55   14.81
  -1  16   6   35.96   20.83
  -1 -16  -6   13.38   12.37
  -1 -16  -5   21.76   15.20
   1 -16   5   42.16   30.57
   1  16  -5  -18.21   15.98
   1 -16   5   -0.31   18.21
  -1  16   5   27.77   18.39
  -1 -16  -5   16.91   12.45
  -1  16   5    0.88   12.38
  -1 -16  -4   60.18   19.97
  -1  16   4   33.74   13.51
   1  16  -4   73.91   19.73
  -1  16   4   53.35   19.15
   1 -16   4   60.14   23.97
  -1 -16  -4   72.31   17.65
   1 -16   4  117.41   40.15
  -1 -16  -3  291.84   34.95
  -1  16   3  320.30   30.80
   1  16  -3  325.92   33.53
   1 -16   3  388.70   46.36
  -1  16   3  281.97   35.01
   1 -16   3  255.46   54.90
  -1 -16  -2   48.39   19.19
   1  16  -2    3.06   12.95
   1 -16   2    1.47   26.94
  -1  16   2   12.69   12.19
  -1  16   2   28.77   16.11
  -1 -16  -1   86.24   20.90
  -1  16   1  112.14   19.99
   1  16  -1  110.82   21.41
  -1  16   1   87.33   21.08
  -1 -16   0   62.59   20.56
  -1  16   0   45.86   15.02
  -1  16   0   40.68   17.04
   1  16   0   52.38   17.25
   1 -16   0   77.62   36.78
   1  16   1  120.87   22.88
  -1  16  -1   90.15   18.24
  -1  16  -1   92.19   20.46
  -1 -16   1   91.98   24.40
   1 -16  -1  106.43   42.17
   1  16   2   11.01   13.47
  -1  16  -2   21.27   14.08
  -1  16  -2   13.72   11.34
  -1 -16   2   34.38   18.95
   1 -16  -2   26.46   15.06
   1 -16  -2   63.38   36.87
  -1  16  -3  344.80   33.95
   1  16   3  282.68   32.08
   1 -16  -3  303.63   33.94
  -1 -16   3  337.89   40.00
   1 -16  -3  236.86   51.16
  -1  16  -3  313.71   30.20
  -1  16  -4   61.97   16.45
  -1 -16   4   36.92   18.12
   1  16   4   33.70   16.07
  -1  16  -4   93.09   18.47
  -1  16  -4   54.96   17.12
   1 -16  -4   68.70   21.22
   1 -16  -4   80.59   36.69
  -1  16  -5  -16.44   12.54
  -1  16  -5  -10.00   11.86
  -1  16  -5    7.77    9.93
   1  16   5   -8.52   15.09
   1 -16  -5   58.90   20.64
  -1 -16   5   45.97   21.16
   1 -16  -5  -25.75   23.57
   1 -16  -6   12.65   16.24
  -1 -16   6   -2.00   15.53
   1  16   6    1.38   15.90
  -1  16  -6   14.65   13.73
   1 -16  -6   32.65   26.48
  -1 -16   7  136.63   28.30
   1  16   7  115.20   24.41
  -1  16  -7  155.28   23.22
   1 -16  -7  128.79   25.04
   1 -16  -7   87.01   29.10
  -1 -16   8   44.36   22.87
  -1  16  -8   46.68   15.39
   1 -16  -8   68.53   21.58
   1 -16  -8   75.50   29.08
   1  16   9   89.89   25.94
   1 -16  -9   90.49   25.30
   1 -16  -9   75.62   25.85
  -1 -16   9  103.91   27.54
   1  16  10  -15.15   19.84
  -1 -16  10   38.80   23.20
   1 -16 -10   35.92   17.56
   1 -16 -10   31.79   21.27
   1 -17   9   69.43   27.61
  -1  17   9   82.86   26.39
   1 -17   9  130.46   35.93
   1  17  -8   62.23   21.03
  -1  17   8   13.89   20.52
  -1 -17  -8  -14.60   15.90
   1 -17   8   47.81   28.36
   1 -17   8   33.60   20.02
   1 -17   7  206.85   38.51
   1  17  -7  144.43   25.63
  -1  17   7  243.63   39.37
  -1 -17  -7  171.57   26.71
   1 -17   7  214.42   52.25
   1  17  -6  204.56   29.54
   1 -17   6  250.22   42.69
  -1  17   6  227.64   37.40
  -1 -17  -6  212.14   28.69
   1 -17   6  224.88   48.93
  -1  17   6  201.27   28.75
  -1  17   5   71.96   19.36
   1  17  -5  130.21   25.32
   1 -17   5   69.30   25.28
  -1  17   5  109.64   24.69
  -1 -17  -5   36.55   15.84
  -1 -17  -5   46.72   15.36
   1 -17   5  121.02   43.30
  -1  17   4  165.96   25.47
   1 -17   4  153.14   33.93
  -1 -17  -4  119.04   25.73
  -1  17   4  117.28   26.68
   1  17  -4  119.44   23.12
   1 -17   4  125.18   44.91
  -1  17   3  271.63   36.34
   1 -17   3  320.62   44.37
  -1  17   3  279.84   31.36
   1  17  -3  312.03   34.26
  -1 -17  -3  213.17   32.51
   1 -17   3  260.44   55.30
  -1  17   2  179.82   25.08
  -1 -17  -2  166.81   27.86
   1  17  -2  160.48   26.18
  -1  17   2   78.42   21.67
   1 -17   2  147.02   44.46
   1  17  -1  267.62   32.63
  -1  17   1  263.51   29.54
  -1  17   1  248.66   32.60
  -1 -17  -1  252.48   33.89
   1 -17   1  197.35   49.75
  -1  17   0  238.14   27.84
  -1 -17   0  268.94   35.95
   1  17   0  298.41   33.67
  -1  17   0  274.01   33.52
   1 -17   0  295.05   61.61
  -1 -17   1  265.57   36.16
   1  17   1  268.06   32.60
  -1  17  -1  216.34   29.33
   1 -17  -1  196.23   51.67
  -1  17  -1  235.61   27.12
   1  17   2  196.74   29.23
  -1 -17   2  147.79   28.84
  -1  17  -2  144.51   21.94
  -1  17  -2  144.40   23.76
   1 -17  -2  211.31   55.79
  -1 -17   3  304.49   38.86
  -1  17  -3  323.20   31.45
  -1  17  -3  271.05   32.01
   1 -17  -3  308.40   35.94
   1 -17  -3  258.82   55.71
   1  17   3  275.27   33.16
  -1 -17   4  134.17   27.76
   1  17   4  109.08   22.44
  -1  17  -4  142.13   22.25
   1 -17  -4  170.96   29.09
   1 -17  -4  124.80   36.45
  -1 -17   5   83.04   24.32
   1  17   5   60.05   20.02
  -1  17  -5  107.66   20.61
   1 -17  -5   89.16   22.49
   1 -17  -5   42.38   24.27
  -1 -17   6  236.30   38.44
  -1  17  -6  207.35   27.27
   1  17   6  240.70   33.16
   1 -17  -6  173.20   29.55
   1 -17  -6  134.72   38.15
   1  17   7  201.82   31.18
   1 -17  -7  159.12   28.43
  -1 -17   7  267.80   39.57
   1 -17  -7  201.64   41.72
   1 -17  -8   46.86   20.23
  -1 -17   8   60.40   25.83
   1  17   8   30.35   16.43
   1 -17  -8    1.95   22.93
   1 -17  -9   62.26   27.38
   1 -17 -10   43.95   24.04
  -1  18   7  -19.38   17.64
   1 -18   7  -32.68   28.63
  -1  18   7   -9.07   15.27
   1 -18   7  -20.70   28.55
  -1  18   6   27.96   19.15
  -1  18   6   16.33   15.64
   1 -18   6  -17.16   19.26
   1 -18   6  -12.79   27.68
  -1 -18  -6  -14.89   16.51
   1 -18   5   30.60   21.11
  -1  18   5   27.97   16.03
   1  18  -5   45.29   17.30
  -1  18   5   36.09   19.47
  -1 -18  -4  113.05   26.20
  -1  18   4  201.33   28.49
   1  18  -4   97.99   22.99
   1 -18   4  125.11   33.10
  -1  18   4   76.27   24.62
   1 -18   4  138.97   47.27
  -1  18   3   28.58   16.20
   1 -18   3   -8.19   24.10
   1  18  -3    0.07   15.36
  -1 -18  -3   43.22   17.49
   1 -18   3   22.74   17.49
  -1  18   3  -14.05   18.64
   1  18  -2  132.72   25.76
  -1 -18  -2   83.09   22.65
  -1  18   2  138.46   28.03
  -1  18   2  143.85   24.56
   1 -18   2  105.61   40.65
  -1  18   1   17.39   15.04
   1  18  -1   46.13   18.99
  -1  18   1   19.30   14.83
   1 -18   1   27.60   22.77
  -1 -18  -1   21.88   19.14
  -1  18   0    3.32   13.60
  -1  18   0   13.80   12.34
   1  18   0   16.88   13.87
  -1 -18   0    1.14   16.39
   1 -18   0   29.99   30.13
   1  18   1   31.10   17.63
  -1  18  -1   26.84   13.41
   1 -18  -1   33.23   35.82
  -1 -18   1   16.87   16.85
   1  18   2  182.08   29.79
  -1  18  -2  143.12   23.86
   1 -18  -2  105.61   40.44
  -1 -18   2  157.21   30.91
  -1 -18   3   -4.89   21.91
  -1  18  -3   18.70   14.96
   1  18   3   20.68   16.72
   1 -18  -3   32.80   18.60
   1 -18  -3   31.55   33.84
   1  18   4  138.40   26.10
  -1 -18   4   82.88   24.06
  -1  18  -4  153.01   23.94
   1 -18  -4  136.70   27.39
   1 -18  -4   85.43   39.50
  -1 -18   5   45.98   21.82
   1  18   5   43.97   17.48
   1 -18  -5   39.29   19.77
   1 -18  -5   67.32   30.81
  -1 -18   6   -1.73   16.97
   1 -18  -6   -5.39   19.69
  -1  19   5  341.09   44.61
   1 -19   5  298.56   48.87
  -1  19   4   72.71   19.97
  -1  19   4   49.99   19.94
  -1  19   3   66.08   20.57
  -1  19   3   43.48   19.10
  -1  19   2    2.47   14.10
  -1 -19  -2  -17.03   17.27
  -1  19   1  270.73   32.55
  -1 -19  -1  285.06   38.72
  -1  19   0   66.70   19.84
  -1 -19   0   98.30   26.64
  -1 -19   1  279.12   40.22
  -1  19  -1  351.14   35.54
  -1 -19   2   -8.77   17.78
  -1  19  -2   10.68   13.28
  -1 -19   3   92.00   27.93
  -2   0   0   74.98    6.39
  -2   0   0   65.18    5.56
   2   0   0   82.39    6.66
   2   0   0   71.61    5.47
   2   0   0   66.02   14.15
   2   0   0   81.52   16.26
  -2   0  -1  847.93   27.85
  -2   0   1  871.24   28.13
   2   0  -1  859.93   43.71
   2   0   1  935.85   45.96
   2   0   1  877.97   17.38
   2   0  -1  866.29   23.80
  -2   0  -1  868.96   17.37
   2   0  -1  862.54   20.96
   2   0   1  846.08   42.89
   2   0  -1  890.85   43.07
   2   0   1  874.67   32.32
  -2   0  -2   79.33   10.20
   2   0  -2   86.79   16.04
   2   0   2   73.62    5.24
   2   0  -2   71.54    8.88
  -2   0  -2   80.58    5.34
   2   0  -2   71.20   15.47
   2   0  -2   73.69    8.57
   2   0   2   81.41   12.12
  -2   0   2   80.10    9.15
  -2   0   2   76.54    8.75
   2   0   2   77.75   17.49
   2   0   2   75.00   14.69
  -2   0  -3  420.11   23.17
   2   0  -3  412.57   31.10
  -2   0   3  411.04   20.40
   2   0  -3  445.85   23.52
   2   0   3  449.74   27.22
   2   0  -3  441.14   21.45
  -2   0  -3  421.73   13.09
   2   0   3  478.94   33.17
  -2   0   3  455.29   25.45
   2   0   3  426.00   31.00
   2   0  -3  470.74   32.81
  -2   0   3  391.62   18.29
   2   0   4   66.47   11.53
  -2   0  -4   68.46   12.47
  -2   0   4   54.91    7.80
   2   0  -4   50.01   10.98
   2   0  -4   53.88   10.49
  -2   0   4   63.63   10.01
   2   0   4   52.63   12.17
   2   0   4   55.41   13.67
   2   0  -4   82.15   17.20
  -2   0   4   65.67   11.63
   2   0   4   62.49   14.18
   2   0  -4   43.64   12.17
  -2   0  -5  782.00   36.73
   2   0   5  827.47   41.14
  -2   0   5  775.53   26.79
   2   0   5  819.75   42.01
   2   0  -5  797.57   36.82
  -2   0   5  791.14   38.13
   2   0  -5  793.18   37.90
   2   0   5  868.12   42.74
   2   0  -5  780.00   39.44
  -2   0   5  786.69   32.40
   2   0  -5  743.26   41.06
   2   0   5  744.22   35.92
  -2   0   6   46.58    8.69
   2   0  -6   30.12   11.24
  -2   0   6   47.69   11.99
   2   0   6   41.15   12.99
   2   0  -6   33.84   12.15
   2   0  -6   56.87   14.93
   2   0   6   28.62   10.38
  -2   0  -6   28.88   12.00
   2   0   6   44.60   14.73
  -2   0   6   46.56   13.21
   2   0   6   64.77   14.87
   2   0  -6   20.24    9.79
   2   0   7   18.07   11.99
  -2   0   7   20.03    7.62
  -2   0   7    7.79   10.49
   2   0  -7    1.21   13.01
   2   0  -7   29.29   13.31
   2   0   7   26.00   12.25
  -2   0  -7   29.21   14.19
  -2   0   7   24.15   12.77
   2   0  -7   22.54   12.59
   2   0   7   12.57   10.21
   2   0  -7   17.22    8.87
  -2   0   8  200.82   18.26
  -2   0   8  192.84   15.82
   2   0  -8  190.38   26.43
   2   0  -8  164.71   23.78
   2   0   8  182.32   26.35
  -2   0   8  193.71   23.63
  -2   0  -8  182.30   25.55
   2   0   8  213.12   21.94
   2   0   8  167.63   23.66
  -2   0   8  182.27   25.30
   2   0  -8  162.45   18.29
  -2   0  -9  694.78   49.58
  -2   0   9  625.66   42.17
   2   0  -9  567.95   43.25
  -2   0   9  658.93   31.51
   2   0  -9  629.64   45.27
   2   0   9  618.85   47.23
  -2   0   9  626.33   45.73
   2   0   9  707.30   38.08
   2   0  -9  632.07   34.36
   2   0   9  650.93   48.84
   2   0  10   12.16    9.97
   2   0 -10   17.13   10.75
   2   0  10   20.63   19.39
  -2   0 -10   13.45   17.73
  -2   0  10   20.68   14.37
   2   0 -10    1.38   15.29
  -2   0  10    2.99    6.15
   2   0 -10   17.03   16.00
   2   0  10    1.07   12.73
  -2   0  10  -15.49   15.41
   2   0  11   26.08    9.51
   2   0 -11   31.25    8.96
  -2   0 -11    3.60   19.24
  -2   0  11   18.64   13.08
   2   0 -11   28.83   15.56
  -2   0  11   40.66   10.14
   2   0 -11   37.44   15.65
   2   0  11   32.51   16.99
   2   0  11   38.21   22.56
  -2   0  11   13.45   14.15
  -2   0 -12  503.68   51.56
  -2   0  12  503.01   43.11
   2   0  12  518.04   46.61
   2   0 -12  491.56   46.36
   2   0 -12  454.55   44.70
  -2   0  12  503.11   47.05
   2   0  12  563.65   58.33
  -2   0 -13  287.26   40.99
   2   0  13  399.40   55.45
   2   0 -13  322.85   40.83
   2   0  13  338.96   39.49
  -2   0  13  313.77   40.12
  -2   0 -14   21.90   19.16
   2   0 -14   30.37   22.00
   2   0  14   10.42   14.75
   2   0  14   -8.51   20.17
  -2   0  14   44.72   22.30
  -2   0 -15  113.99   33.10
   2   0  15  106.78   31.96
   2   0 -15   86.33   23.75
   2   0  15   73.22   21.50
  -2   0  15  126.47   29.14
   2   0  16  105.87   29.30
   2   0 -16  192.83   35.25
   2   0  16  193.43   31.99
  -2   0 -16  140.81   38.53
  -2   0  16  162.04   33.04
  -2   0 -17   73.62   30.98
   2   0  17   27.60   16.89
   2   0 -17   43.04   22.87
   2   0  17   73.91   22.54
  -2   0  17   56.66   23.41
   2   0  18   64.33   22.79
  -2   0 -18  133.13   36.45
   2   0  18   84.85   22.61
   2   0 -18  106.87   29.24
  -2   0  18   95.08   28.48
  -2   0 -19  168.72   30.66
   2   0  19  164.67   30.96
   2   0  19  174.62   36.92
   2  -1  19   61.77   22.84
  -2  -1 -18   18.25   25.36
  -2  -1 -18   26.20   16.43
   2   1 -18  -26.95   21.80
   2  -1  18    2.33   15.08
   2  -1  18   44.39   23.52
  -2   1  18   32.38   17.95
  -2  -1 -17   26.15   26.74
  -2  -1 -17   49.48   18.66
   2   1 -17  102.42   28.09
   2  -1  17   50.66   20.86
   2  -1  17   52.55   24.85
  -2   1  17   51.15   20.22
  -2  -1 -16   97.47   21.50
   2   1 -16  176.87   33.18
   2  -1  16  180.30   35.42
   2  -1  16  224.24   33.55
  -2  -1 -16  257.09   45.43
  -2   1  16  201.04   35.92
   2  -1  15  199.01   40.11
   2   1 -15  253.58   37.26
  -2  -1 -15  207.91   40.16
   2  -1  15  280.20   36.52
  -2   1  15  259.15   38.82
  -2  -1 -14   69.89   27.64
   2  -1  14   22.16   19.27
   2   1 -14   39.04   19.25
   2   1 -14   59.72   23.03
   2  -1  14   40.99   20.02
  -2   1  14   66.68   24.01
  -2   1  14   70.25   21.36
  -2  -1 -13  227.64   39.86
  -2   1  13  207.87   31.58
   2   1 -13  180.59   31.88
   2   1 -13  214.83   34.04
   2  -1  13  206.37   33.03
   2  -1  13  202.75   39.22
  -2   1  13  235.75   36.17
  -2   1  12  128.82   24.63
  -2  -1 -12  127.27   28.03
   2  -1  12  154.06   32.55
   2   1 -12  110.97   25.59
   2  -1  12  130.03   27.07
  -2   1  12  111.83   25.21
  -2  -1 -11  399.10   45.10
  -2   1  11  391.88   38.55
   2   1 -11  325.17   36.19
   2  -1  11  322.10   36.51
   2  -1  11  326.58   39.41
   2   1 -11  301.48   23.13
  -2   1  11  327.22   37.26
  -2  -1 -10  486.54   46.95
  -2   1  10  501.83   40.60
   2   1 -10  455.19   39.16
  -2   1  10  481.88   25.61
   2  -1  10  465.36   42.38
  -2   1  10  455.88   42.60
   2   1 -10  443.06   28.27
   2  -1  10  525.53   34.00
   2  -1  10  449.75   41.57
  -2  -1  -9  726.27   53.03
  -2   1   9  754.97   47.30
   2   1  -9  727.35   46.93
  -2   1   9  758.31   30.17
   2  -1   9  717.72   51.31
  -2   1   9  760.65   51.66
   2   1  -9  747.75   36.65
   2  -1   9  797.95   42.29
   2  -1   9  748.77   48.16
   2  -1   8   97.61   16.71
  -2   1   8  100.28   18.67
   2   1  -8  104.33   20.27
   2  -1   8   73.76   18.66
   2  -1   8   78.32   14.87
  -2  -1  -8   91.64   22.11
  -2   1   8   80.12   19.17
  -2   1   8   86.75   10.87
   2   1  -8   77.91   14.12
   2  -1   8   77.60   17.10
  -2  -1  -7  350.36   32.32
   2   1  -7  320.30   28.76
   2  -1   7  293.63   30.74
  -2   1   7  367.14   32.26
   2   1  -7  327.68   25.74
   2  -1   7  342.04   28.81
  -2   1   7  317.93   26.71
   2  -1   7  322.50   25.73
   2  -1   7  320.09   27.51
  -2   1   7  338.33   19.46
  -2   1   7  312.60   16.79
  -2  -1  -6  393.67   30.56
   2   1  -6  453.30   31.51
   2  -1   6  457.88   35.69
  -2   1   6  442.53   28.34
  -2   1   6  471.02   33.77
   2   1  -6  467.99   30.54
   2  -1   6  431.09   31.10
   2  -1   6  457.86   30.19
   2  -1   6  422.94   28.48
  -2   1   6  448.77   20.61
  -2  -1  -5 1468.23   51.31
  -2   1   5 1517.67   33.99
  -2   1   5 1478.87   47.11
   2  -1   5 1530.97   55.53
   2   1  -5 1522.79   49.82
   2  -1   5 1530.76   59.26
   2   1  -5 1462.96   50.86
  -2   1   5 1438.95   52.59
   2   1  -5 1486.86   54.56
   2  -1   5 1517.22   57.61
   2  -1   5 1384.71   47.18
  -2  -1  -4 1177.34   41.87
  -2   1   4 1171.54   38.30
   2  -1   4 1214.30   27.44
   2  -1   4 1223.26   49.32
  -2   1   4 1151.23   28.36
   2   1  -4 1138.51   40.43
   2   1  -4 1190.93   49.65
   2  -1   4 1189.09   50.54
  -2   1   4 1095.69   43.21
  -2   1   4 1167.25   27.97
   2  -1   4 1158.17   50.89
   2   1  -4 1194.40   40.02
   2  -1   4 1103.61   39.90
  -2  -1  -3  730.70   30.39
   2   1  -3  699.33   39.96
   2   1  -3  741.44   28.45
  -2  -1  -3  645.90   12.50
   2   1  -3  725.52   28.07
   2  -1   3  744.11   16.41
   2  -1   3  730.02   40.83
   2  -1   3  681.21   34.08
  -2   1   3  749.73   33.06
   2   1  -3  761.56   40.86
   2  -1   3  699.53   39.59
  -2   1   3  730.93   21.96
  -2   1   3  740.65   28.05
  -2  -1  -2  756.99   28.32
   2   1  -2  798.94   43.14
   2   1  -2  809.81   24.37
   2  -1   2  812.90   42.74
  -2   1   2  749.33   26.80
   2   1  -2  769.34   26.24
   2  -1   2  763.73   33.24
  -2   1   2  799.34   23.70
  -2   1   2  808.96   32.07
   2   1  -2  767.15   41.23
   2  -1   2  774.79   41.28
  -2  -1  -1  874.61   28.06
   2   1  -1  869.14   45.00
  -2   1   1  896.30   26.61
   2  -1   1  939.25   46.25
  -2   1   1  869.27   18.92
   2   1  -1  906.11   25.48
   2  -1   1  923.39   32.78
   2   1  -1  943.35   20.17
   2  -1   1  878.47   19.88
  -2   1   1  834.33   27.89
   2   1  -1  858.81   43.79
   2  -1   1  893.64   44.51
  -2  -1   0  975.27   32.91
   2   1   0  931.52   46.69
   2  -1   0  944.91   20.83
   2  -1   0  942.73   46.37
   2   1   0  976.61   23.53
   2  -1   0  926.47   29.87
   2   1   0  892.28   13.32
   2  -1   0  936.29   21.93
   2   1   0  939.77   45.37
  -2   1   0  884.98   14.78
   2  -1   0  860.42   43.46
   2   1   1  892.35   44.96
   2   1   1  893.14   21.19
   2  -1  -1  875.37   25.83
   2   1   1  861.28   43.86
  -2   1  -1  863.32   21.48
   2  -1  -1  879.89   23.63
   2  -1  -1  914.90   44.85
  -2  -1   1  905.18   30.56
   2  -1  -1  888.52   44.97
  -2   1  -2  782.37   30.06
   2   1   2  832.87   44.10
  -2  -1   2  761.75   27.94
   2  -1  -2  817.03   42.16
  -2  -1   2  772.73   23.33
   2  -1  -2  741.87   27.79
   2  -1  -2  765.54   25.59
   2   1   2  772.77   33.80
  -2   1  -2  770.24   20.00
   2   1   2  743.74   40.54
   2  -1  -2  737.67   40.99
   2   1   2  749.03   19.54
  -2   1  -3  724.50   30.38
   2  -1  -3  695.96   31.28
   2   1   3  748.60   35.28
   2  -1  -3  750.41   28.48
  -2  -1   3  741.41   24.18
   2  -1  -3  735.05   40.78
   2   1   3  733.53   40.01
   2  -1  -3  736.96   40.53
  -2  -1   3  733.19   27.18
   2   1   3  759.51   33.57
  -2   1  -4 1171.58   40.57
   2  -1  -4 1085.46   49.86
   2  -1  -4 1139.48   43.66
   2  -1  -4 1158.26   39.39
   2   1   4 1193.55   46.98
   2   1   4 1180.15   50.87
   2  -1  -4 1180.71   49.97
   2   1   4 1168.44   43.26
  -2  -1   4 1159.05   34.33
  -2  -1   4 1179.60   33.53
  -2   1  -5 1442.42   48.83
  -2  -1   5 1504.19   43.03
  -2  -1   5 1469.21   40.19
   2  -1  -5 1518.33   54.65
   2  -1  -5 1499.66   57.06
   2   1   5 1499.90   56.33
   2  -1  -5 1499.22   49.74
  -2  -1   5 1516.62   52.08
   2   1   5 1525.48   57.07
   2  -1  -5 1473.63   55.09
   2   1   5 1454.52   51.86
  -2   1  -6  458.22   30.59
   2   1   6  424.93   33.01
   2  -1  -6  440.92   30.83
  -2  -1   6  449.17   23.89
  -2  -1   6  453.08   27.20
   2  -1  -6  424.36   31.93
   2  -1  -6  459.85   32.62
  -2  -1   6  453.90   31.13
   2   1   6  425.36   30.38
   2  -1  -6  435.80   30.27
   2   1   6  427.89   31.19
  -2   1  -7  374.19   30.98
  -2  -1   7  338.32   26.00
   2  -1  -7  294.88   27.66
   2   1   7  326.78   30.73
  -2  -1   7  378.58   30.88
   2   1   7  353.48   27.86
   2  -1  -7  286.31   24.42
   2  -1  -7  328.57   30.86
   2   1   7  323.08   30.74
  -2  -1   7  330.65   21.95
   2  -1  -7  334.37   28.00
   2  -1  -8   77.19   14.70
   2   1   8   86.84   20.53
  -2  -1   8   96.11   16.65
   2  -1  -8   69.46   17.26
   2  -1  -8   90.67   18.17
   2  -1  -8  105.04   16.69
   2   1   8   90.36   19.82
  -2  -1   8   90.51   13.92
  -2  -1   8   86.60   18.45
   2   1   8  100.02   16.97
  -2   1  -8  105.36   22.03
  -2   1  -9  814.99   50.90
  -2  -1   9  754.03   44.48
   2  -1  -9  694.27   38.21
  -2  -1   9  754.05   35.19
   2  -1  -9  805.79   52.09
   2   1   9  801.81   51.54
   2  -1  -9  757.06   47.89
  -2  -1   9  788.50   49.89
   2   1   9  814.91   40.70
   2  -1  -9  759.79   38.72
  -2  -1   9  770.63   38.26
   2   1   9  721.80   54.21
  -2   1 -10  522.58   43.86
  -2  -1  10  511.43   39.10
  -2  -1  10  540.25   32.24
  -2  -1  10  552.98   44.81
   2   1  10  577.76   33.40
   2  -1 -10  459.99   29.97
   2  -1 -10  435.67   38.57
   2   1  10  543.43   44.45
   2   1  10  465.71   48.01
  -2  -1  11  331.33   33.38
  -2   1 -11  327.52   40.65
   2   1  11  299.41   41.77
  -2  -1  11  399.00   29.03
   2   1  11  333.49   37.02
   2  -1 -11  311.37   36.00
  -2  -1  11  390.66   39.65
   2   1  11  388.49   27.00
   2   1  12  132.09   25.63
  -2   1 -12  125.42   28.70
   2   1  12  132.68   33.12
  -2  -1  12  146.14   18.67
   2  -1 -12  107.17   24.86
  -2  -1  12  153.39   28.24
   2   1  13  170.90   40.99
  -2   1 -13  255.10   40.02
   2  -1 -13  168.37   29.79
   2   1  13  232.30   34.34
  -2  -1  13  175.42   30.21
  -2   1 -14   50.33   23.36
   2  -1 -14   62.22   23.04
   2   1  14   59.72   20.57
   2   1  14   22.22   22.44
  -2  -1  14   51.32   21.20
  -2   1 -15  177.64   37.60
   2   1  15  113.08   36.23
   2  -1 -15  211.01   35.27
   2   1  15  280.96   37.84
  -2  -1  15  219.64   36.24
  -2   1 -16  149.63   33.96
   2   1  16  123.77   32.86
   2   1  16  175.60   30.32
  -2  -1  16  225.41   37.88
   2  -1 -16  154.61   32.41
  -2   1 -17   10.44   23.58
   2   1  17   14.23   20.08
   2   1  17   52.77   19.42
   2  -1 -17   93.26   27.91
  -2  -1  17   57.82   24.60
  -2   1 -18  -29.20   27.54
   2   1  18    1.11   20.75
   2  -1 -18   14.05   18.63
   2   1  18    7.37   13.34
  -2  -1  18  -51.98   27.65
   2   1  19   43.52   26.16
   2   1  19   96.96   25.21
   2  -2  19   42.36   22.91
   2  -2  18   82.65   25.10
  -2  -2 -18  117.55   34.02
   2   2 -18  145.00   31.75
   2  -2  18  126.36   28.16
  -2   2  18   60.30   24.07
  -2  -2 -17  246.60   45.16
   2   2 -17  209.92   36.62
  -2  -2 -17  223.72   31.58
   2  -2  17  228.29   35.74
   2  -2  17  183.25   36.72
  -2   2  17  248.73   40.25
  -2  -2 -16   18.57   24.18
   2   2 -16   78.73   26.87
  -2  -2 -16   89.27   20.85
   2  -2  16  113.72   25.70
  -2   2  16   58.13   22.78
   2  -2  16   60.32   22.90
  -2   2  15  369.46   43.52
  -2  -2 -15  338.89   48.08
   2  -2  15  357.55   41.51
  -2  -2 -15  296.79   34.66
   2   2 -15  353.01   44.92
   2  -2  15  256.38   41.55
  -2   2  15  373.81   46.50
   2  -2  14  180.41   34.66
  -2  -2 -14  149.25   35.57
   2   2 -14  198.22   35.13
  -2  -2 -14  137.65   23.41
  -2   2  14  179.83   30.63
   2  -2  14  167.20   28.87
  -2   2  14  191.13   32.45
   2  -2  13  255.25   39.67
  -2  -2 -13  165.18   34.39
   2   2 -13  182.40   32.14
  -2  -2 -13  232.24   28.25
   2  -2  13  236.91   34.78
  -2   2  13  223.33   32.61
  -2   2  13  228.14   34.46
  -2  -2 -12  443.46   49.71
  -2   2  12  555.78   47.57
   2  -2  12  558.29   50.09
   2   2 -12  497.12   45.31
  -2  -2 -12  512.72   37.69
  -2   2  12  502.90   48.14
   2  -2  12  589.69   53.12
  -2  -2 -11  911.88   65.24
  -2   2  11 1040.62   61.45
   2   2 -11 1031.40   60.81
   2  -2  11 1062.18   66.93
  -2   2  11  946.15   62.48
   2   2 -11  959.24   40.31
   2  -2  11  991.67   62.11
   2  -2  10   35.41   14.58
  -2   2  10   25.32   15.81
   2   2 -10   27.75   15.71
   2  -2  10   42.87   11.32
   2  -2  10   44.41   17.20
  -2  -2 -10   31.69   20.49
  -2   2  10   60.82   20.39
   2   2 -10   41.07   10.54
  -2  -2  -9  636.91   50.01
  -2   2   9  650.23   44.27
   2   2  -9  735.45   46.71
  -2   2   9  743.36   26.05
   2  -2   9  651.18   50.34
   2  -2   9  712.85   36.91
  -2   2   9  608.81   46.69
   2   2  -9  703.53   36.12
   2  -2   9  641.07   42.32
  -2  -2  -8  927.25   57.47
   2  -2   8 1077.96   45.23
  -2   2   8 1066.26   27.89
   2   2  -8 1050.15   52.51
   2  -2   8 1013.62   59.11
  -2   2   8 1064.96   52.18
  -2   2   8 1001.87   57.03
   2   2  -8 1041.93   44.73
   2  -2   8 1105.71   51.15
   2  -2   8 1021.89   48.50
  -2  -2  -7 1149.28   58.95
   2  -2   7 1121.16   47.22
   2   2  -7 1067.41   48.19
   2  -2   7 1030.37   57.06
  -2   2   7 1078.50   56.11
   2   2  -7 1060.25   45.53
  -2   2   7 1070.16   24.69
   2  -2   7 1079.73   51.39
  -2   2   7 1076.33   49.09
   2  -2   7 1046.40   44.92
  -2  -2  -6  577.17   38.53
   2  -2   6  581.06   34.78
  -2   2   6  589.56   34.36
   2   2  -6  571.19   33.34
  -2   2   6  574.39   16.36
   2  -2   6  555.85   40.49
  -2  -2  -6  533.17   24.48
  -2   2   6  606.90   40.87
   2   2  -6  568.48   34.81
   2  -2   6  572.81   37.99
   2  -2   6  568.70   31.68
  -2   2   5 2272.22   35.96
  -2  -2  -5 2183.68   66.78
  -2   2   5 2316.02   60.06
   2  -2   5 2249.01   68.19
   2  -2   5 2209.16   74.13
   2  -2   5 2276.57   36.07
  -2   2   5 2232.59   29.38
  -2  -2  -5 2220.70   40.87
   2   2  -5 2288.83   59.77
  -2   2   5 2186.48   70.35
   2   2  -5 2265.01   68.58
   2  -2   5 2284.17   73.45
   2  -2   5 2207.28   57.69
  -2  -2  -4  789.66   36.27
  -2   2   4  790.13   33.35
   2  -2   4  862.80   43.67
   2  -2   4  786.80   15.05
   2   2  -4  806.10   32.91
  -2   2   4  811.57   19.19
  -2  -2  -4  791.75   18.19
  -2   2   4  717.68   37.43
   2   2  -4  815.36   42.56
   2  -2   4  829.18   45.05
  -2   2   4  776.08   19.42
   2  -2   4  816.11   42.11
  -2  -2  -3 1490.25   44.28
  -2   2   3 1544.20   43.48
   2  -2   3 1655.97   61.41
  -2   2   3 1542.82   30.54
   2  -2   3 1429.03   51.14
   2   2  -3 1508.24   41.04
  -2   2   3 1416.65   47.57
   2   2  -3 1437.17   57.51
   2  -2   3 1461.93   58.91
  -2   2   3 1513.97   26.99
  -2  -2  -2 1822.87   43.86
  -2   2   2 1801.18   31.91
   2  -2   2 1908.39   67.75
   2   2  -2 1842.13   41.64
  -2   2   2 1840.63   38.53
   2  -2   2 1912.00   53.40
  -2   2   2 1839.12   49.65
   2   2  -2 1909.39   66.87
   2  -2   2 1805.40   65.08
  -2   2   2 1884.96   45.35
  -2  -2  -1 2156.52   42.17
  -2   2   1 2104.68   46.89
   2   2  -1 2122.28   40.74
   2  -2   1 2132.62   71.35
  -2   2   1 1995.49   27.99
   2  -2   1 2158.53   50.68
  -2  -2  -1 2002.90   51.88
   2   2  -1 2122.42   30.26
   2  -2   1 2034.24   35.33
  -2   2   1 1947.58   46.82
   2   2  -1 2053.13   69.69
   2  -2   1 2015.30   68.58
  -2  -2   0  233.07   13.08
   2   2   0  240.84   13.69
   2  -2   0  224.77   15.11
   2  -2   0  242.00   13.00
   2  -2   0  241.37   26.19
  -2   2   0  228.72   14.86
   2   2   0  232.20   24.81
   2  -2   0  253.03   25.88
  -2  -2   0  228.89   17.76
   2   2   1 2048.34   36.97
   2  -2  -1 2037.77   70.33
   2   2   1 2005.62   68.18
   2  -2  -1 2086.53   69.46
   2  -2  -1 2107.55   39.94
  -2  -2   1 2114.87   49.37
  -2  -2   2 1856.96   32.01
   2   2   2 1861.81   35.76
   2  -2  -2 1732.83   65.16
   2  -2  -2 1808.58   41.18
   2   2   2 1781.34   64.81
   2  -2  -2 1897.87   65.63
  -2  -2   2 1888.23   46.27
  -2   2  -3 1563.93   44.56
  -2  -2   3 1464.20   41.35
  -2  -2   3 1487.59   30.62
   2  -2  -3 1430.66   58.27
   2  -2  -3 1488.18   40.71
   2   2   3 1499.04   58.67
   2  -2  -3 1610.94   61.41
   2   2   3 1471.41   47.21
  -2   2  -4  774.48   34.54
  -2  -2   4  812.85   31.88
   2  -2  -4  767.41   33.06
   2   2   4  766.13   38.27
   2  -2  -4  779.85   43.92
   2   2   4  766.83   42.71
   2  -2  -4  724.31   40.77
   2   2   4  796.74   37.19
  -2  -2   4  836.82   26.72
  -2   2  -5 2317.72   61.87
  -2  -2   5 2246.49   49.74
   2  -2  -5 2245.43   71.48
   2   2   5 2288.44   69.77
   2  -2  -5 2275.52   60.92
  -2  -2   5 2211.59   52.65
   2   2   5 2402.32   73.46
   2  -2  -5 2306.26   71.22
   2   2   5 2221.39   66.80
  -2   2  -6  591.20   34.61
  -2  -2   6  618.20   30.18
   2  -2  -6  593.38   37.50
   2   2   6  565.85   37.66
   2  -2  -6  504.90   32.52
  -2  -2   6  557.12   34.19
   2   2   6  598.66   37.05
   2  -2  -6  610.64   37.41
   2   2   6  582.86   37.66
  -2  -2   6  590.10   29.02
  -2   2  -7 1085.35   49.02
  -2  -2   7 1052.23   41.63
  -2  -2   7 1087.88   44.26
   2   2   7 1031.24   52.69
   2  -2  -7 1138.69   51.20
   2  -2  -7 1032.96   48.37
  -2  -2   7 1082.97   49.74
   2   2   7 1120.72   49.63
   2  -2  -7 1017.67   46.77
   2   2   7 1046.49   54.85
  -2   2  -8 1067.48   51.86
  -2  -2   8 1050.63   46.85
  -2  -2   8 1005.99   42.63
   2   2   8 1043.62   55.66
   2  -2  -8 1031.72   47.88
   2  -2  -8  944.89   49.86
  -2  -2   8 1127.55   53.00
   2   2   8 1082.95   48.32
   2  -2  -8  908.51   44.44
   2   2   8 1044.80   59.94
  -2   2  -9  705.18   46.33
  -2  -2   9  712.84   41.82
   2  -2  -9  698.21   38.73
  -2  -2   9  716.74   38.33
   2   2   9  651.28   46.19
   2  -2  -9  678.57   45.12
  -2  -2   9  759.94   47.17
   2   2   9  770.14   40.10
   2   2   9  663.10   53.78
  -2  -2  10   54.79   11.94
   2   2  10   57.91   22.95
  -2   2 -10   74.52   22.11
   2  -2 -10   62.18   20.31
   2  -2 -10   49.35   12.17
  -2  -2  10   47.20   16.81
   2   2  10   67.93   13.60
   2   2  10   65.76   18.21
  -2   2 -11 1028.66   63.88
   2  -2 -11  940.74   42.50
   2  -2 -11  917.92   57.98
  -2  -2  11 1099.58   50.44
   2   2  11  951.21   60.01
  -2  -2  11  982.03   60.48
   2   2  11 1087.74   44.69
   2   2  11  922.41   75.22
  -2   2 -12  462.29   48.50
   2   2  12  510.58   44.94
  -2  -2  12  562.23   38.20
   2  -2 -12  472.02   44.72
   2   2  12  463.45   60.02
  -2  -2  12  578.77   50.01
   2   2  13  176.01   43.33
  -2  -2  13  257.05   27.22
   2  -2 -13  192.85   31.17
  -2   2 -13  210.91   37.51
   2   2  13  219.71   31.48
  -2  -2  13  271.38   36.50
   2   2  14  111.01   38.06
   2  -2 -14  189.22   32.65
  -2   2 -14  154.07   33.88
   2   2  14  177.59   30.03
  -2  -2  14  220.05   35.25
   2   2  15  213.27   44.69
   2  -2 -15  365.29   44.45
   2   2  15  339.03   41.01
  -2  -2  15  380.93   45.83
  -2   2 -15  318.94   46.51
  -2   2 -16  112.37   31.66
   2  -2 -16   47.43   21.32
   2   2  16   94.62   34.57
   2   2  16   77.15   21.23
  -2  -2  16   77.93   24.85
   2   2  17  204.53   45.48
   2  -2 -17  204.15   36.52
  -2   2 -17  131.30   36.04
   2   2  17  235.38   35.51
  -2  -2  17  239.71   39.58
   2   2  18  101.66   31.42
   2   2  18  123.56   27.03
   2  -2 -18  102.41   29.60
  -2   2 -18  186.41   43.28
  -2  -2  18  102.61   30.62
   2   2  19    2.47   15.74
  -2  -2  19   22.22   21.46
  -2  -3 -18   35.47   26.36
   2   3 -18   77.99   26.70
   2  -3  18   86.76   23.46
  -2   3  18  116.74   30.75
   2  -3  17   71.67   24.01
  -2  -3 -17   45.20   25.25
   2   3 -17   96.82   30.92
   2  -3  17  120.83   28.29
  -2   3  17   98.12   27.58
  -2  -3 -16   78.85   33.08
  -2   3  16   68.77   23.56
   2   3 -16   36.09   25.53
  -2  -3 -16   55.18   19.39
   2  -3  16   48.83   19.17
   2  -3  16   25.41   17.90
  -2   3  16   67.88   22.92
   2  -3  15   54.27   23.51
  -2  -3 -15   35.22   26.12
  -2   3  15   67.22   23.80
   2   3 -15   34.91   21.10
  -2  -3 -15   40.58   16.65
   2  -3  15   35.12   16.04
  -2   3  15   30.11   18.06
   2  -3  14  249.49   38.55
  -2  -3 -14  243.94   40.25
  -2   3  14  217.70   34.72
   2   3 -14  243.12   35.72
  -2  -3 -14  201.72   27.26
   2  -3  14  217.33   32.65
  -2   3  14  226.94   35.29
   2  -3  13  132.40   29.07
  -2  -3 -13  135.03   32.31
  -2   3  13  140.45   28.15
   2   3 -13  126.01   28.61
  -2  -3 -13  162.24   23.83
   2  -3  13  130.29   26.63
  -2   3  13  133.05   30.25
  -2  -3 -12   77.46   24.94
   2  -3  12  136.37   25.11
  -2  -3 -12  146.92   22.74
   2  -3  12  181.27   30.58
   2   3 -12  171.71   30.55
  -2   3  12  147.00   28.19
  -2   3  12  161.74   30.12
   2  -3  11  102.16   21.86
  -2  -3 -11   84.43   17.28
  -2   3  11  113.87   23.59
   2   3 -11  101.32   23.12
   2  -3  11  102.76   22.77
   2  -3  11  126.06   16.97
  -2  -3 -11  103.37   27.09
  -2   3  11   90.65   23.82
   2   3 -11  104.93   15.21
   2  -3  10  147.70   22.35
   2  -3  10  177.87   19.35
  -2  -3 -10  159.91   29.51
  -2   3  10  162.12   25.67
   2   3 -10  155.10   24.15
  -2  -3 -10  107.49   17.04
   2  -3  10  145.52   28.22
   2   3 -10  181.40   19.79
  -2   3  10  183.12   29.35
   2  -3   9  255.02   23.12
  -2  -3  -9  232.90   35.88
  -2   3   9  218.27   27.79
   2   3  -9  206.50   27.44
  -2  -3  -9  213.36   21.12
   2  -3   9  239.14   32.92
   2   3  -9  222.40   22.16
  -2   3   9  227.68   32.67
   2  -3   9  215.47   24.53
   2   3  -8  248.30   26.60
  -2   3   8  216.71   25.66
  -2  -3  -8  244.64   20.57
   2  -3   8  255.43   23.65
   2  -3   8  250.89   31.97
   2   3  -8  282.16   24.76
  -2  -3  -8  200.87   30.10
  -2   3   8  211.69   28.76
   2  -3   8  263.22   24.10
   2  -3   7   72.01   13.02
   2  -3   7  112.07   17.68
   2   3  -7  114.07   19.41
  -2   3   7  104.19   17.76
  -2  -3  -7   33.60   15.95
  -2  -3  -7   86.16   11.46
   2  -3   7   82.54   19.39
   2   3  -7   89.38   15.93
  -2   3   7  114.93   23.02
   2  -3   6   50.76   10.68
   2  -3   6   22.70   14.74
   2   3  -6   49.89   12.06
  -2  -3  -6   62.91   17.83
   2  -3   6   63.85   14.38
  -2   3   6   60.60   14.73
  -2  -3  -6   45.38    7.75
   2   3  -6   61.25   14.69
  -2   3   6   49.11   17.64
  -2   3   5  198.67   20.59
   2   3  -5  200.08   19.03
   2  -3   5  233.40   26.92
  -2  -3  -5  194.09   23.32
   2  -3   5  185.92    9.55
  -2  -3  -5  199.87   11.62
   2  -3   5  177.78   23.77
   2  -3   5  189.65   22.27
  -2   3   5  197.33   23.59
  -2  -3  -4  324.38   26.63
  -2   3   4  269.94    8.18
   2  -3   4  254.18    7.77
   2   3  -4  293.69   20.28
   2  -3   4  280.69   27.28
   2  -3   4  279.19   26.74
  -2  -3  -4  259.88    9.66
  -2   3   4  279.45   22.51
  -2   3   4  287.05   26.44
   2  -3   4  295.82   29.84
   2  -3   3  198.68   24.89
  -2  -3  -3  173.04   17.80
  -2   3   3  201.88   17.66
  -2   3   3  190.79    7.71
   2   3  -3  213.77   16.53
  -2   3   3  181.51    9.07
   2  -3   3  160.41   18.67
  -2   3   3  186.68   20.40
   2  -3   3  218.61   24.82
   2  -3   2  259.17   28.10
   2  -3   2  204.56   25.15
  -2  -3  -2  232.32   17.49
  -2  -3  -2  216.32   18.80
  -2   3   2  221.00   10.05
   2  -3   2  220.38   19.38
  -2   3   2  227.38   17.71
   2   3  -2  230.01   15.99
  -2   3   2  236.38   13.78
  -2   3   2  247.00   20.86
   2  -3   1  226.81   26.00
  -2  -3  -1  226.78   14.71
   2  -3   1  215.08   26.13
  -2  -3  -1  231.30   18.95
  -2   3   1  217.83   16.80
  -2   3   1  215.98   10.77
   2  -3   1  236.21   18.42
   2   3  -1  232.54   15.03
   2  -3   1  217.63   13.36
  -2   3   1  226.38   18.03
   2  -3   0   17.64   12.62
  -2  -3   0   25.61    8.02
   2  -3   0   30.94   14.46
   2   3   0   30.54    6.45
   2  -3   0   27.43    6.38
   2  -3   0   41.90    7.90
  -2   3   0   37.01    7.82
  -2  -3   0   33.20    5.47
  -2  -3   1  225.16   10.81
   2  -3  -1  213.77   25.92
   2  -3  -1  194.88   24.23
  -2  -3   1  195.71   17.63
   2  -3  -1  210.21   12.49
   2  -3  -1  219.77   14.48
   2   3   1  225.59   14.33
  -2   3  -1  228.99   14.20
   2  -3  -2  209.66   24.90
   2   3   2  233.26   14.47
   2  -3  -2  235.34   26.89
   2  -3  -2  210.45   15.68
  -2  -3   2  212.32   17.90
  -2   3  -2  204.32   11.89
  -2  -3   2  219.13    9.54
  -2   3  -3  191.11   16.99
   2  -3  -3  229.59   26.79
  -2  -3   3  199.86   12.46
  -2  -3   3  172.12   16.61
   2  -3  -3  198.61   16.56
   2   3   3  185.44   18.21
  -2  -3   3  196.52   10.02
   2  -3  -3  180.06   24.17
  -2   3  -4  290.00   21.91
  -2  -3   4  273.12   20.69
  -2  -3   4  290.15   17.23
  -2  -3   4  289.41   14.38
   2  -3  -4  260.83   28.08
   2  -3  -4  292.64   20.90
  -2   3  -4  257.76   11.73
   2  -3  -4  315.02   29.92
   2   3   4  265.23   23.06
  -2   3  -5  200.37   20.31
   2  -3  -5  177.40   23.56
  -2  -3   5  219.73   15.25
   2  -3  -5  200.15   20.12
   2   3   5  202.47   22.41
   2  -3  -5  221.29   24.94
  -2   3  -5  196.31   11.28
  -2  -3   5  209.54   18.52
   2   3   5  193.83   22.45
  -2   3  -6   70.16   15.36
  -2  -3   6   41.01   10.21
  -2  -3   6   69.81   11.15
   2  -3  -6   71.59   16.78
   2  -3  -6   51.30   12.74
   2   3   6   55.01   14.59
   2   3   6   50.06   14.39
  -2   3  -6   47.14    6.90
  -2  -3   7   86.80   12.94
  -2   3  -7   96.92   17.55
   2   3   7  107.03   21.62
  -2  -3   7  107.22   15.84
   2  -3  -7   96.76   16.45
   2  -3  -7  118.41   19.22
   2   3   7  103.77   18.51
  -2  -3   7   93.63   16.36
   2   3   7  131.82   19.84
   2  -3  -7   85.94    7.23
  -2  -3   8  257.07   23.62
   2  -3  -8  249.64   27.24
  -2   3  -8  261.15   26.76
   2   3   8  284.62   35.61
   2   3   8  251.40   28.30
  -2  -3   8  237.82   25.59
   2   3   8  247.87   25.43
   2  -3  -8  250.00   26.23
  -2  -3   9  225.13   23.27
  -2   3  -9  232.95   29.40
   2   3   9  216.54   32.54
   2  -3  -9  217.44   23.59
   2  -3  -9  217.80   27.20
   2   3   9  237.76   29.38
   2   3   9  272.67   25.66
  -2  -3   9  227.16   26.59
  -2   3 -10  177.28   25.82
   2  -3 -10  161.65   20.48
  -2  -3  10  173.67   21.06
   2   3  10  142.99   32.95
   2  -3 -10  168.25   25.94
   2   3  10  193.44   27.94
  -2  -3  10  175.03   25.36
   2   3  10  179.50   20.39
  -2   3 -11  123.53   25.40
   2   3  11  102.64   31.24
  -2  -3  11  117.31   18.50
   2  -3 -11  108.28   22.68
   2   3  11  129.59   23.91
  -2  -3  11  102.63   22.76
   2  -3 -11   92.79   14.82
   2   3  11  121.98   16.72
   2   3  12  181.77   39.96
  -2  -3  12  182.53   23.39
   2  -3 -12  143.58   26.55
   2   3  12  149.13   26.17
  -2   3 -12  189.03   32.34
  -2  -3  12  203.11   30.77
   2   3  13  102.69   38.15
  -2   3 -13  110.87   27.68
  -2  -3  13  145.22   21.86
   2   3  13  127.17   25.27
   2  -3 -13  121.61   26.94
  -2  -3  13  175.80   30.68
  -2   3 -14  241.58   41.28
   2   3  14  118.04   37.84
  -2  -3  14  209.25   26.27
   2  -3 -14  181.26   32.28
   2   3  14  183.33   30.13
  -2  -3  14  245.51   35.64
   2   3  15   29.19   21.76
   2  -3 -15   47.20   21.22
  -2   3 -15   32.98   19.89
   2   3  15   38.55   18.01
  -2  -3  15   63.15   22.55
   2  -3 -16   34.16   20.99
   2   3  16   41.85   24.45
  -2   3 -16   58.61   27.51
   2   3  16   67.01   22.38
  -2  -3  16   81.31   24.26
  -2   3 -17  107.69   33.25
   2  -3 -17   68.68   24.98
   2   3  17   84.26   25.45
   2   3  17  136.08   39.02
  -2  -3  17  112.66   28.01
   2   3  18   78.55   30.76
  -2   3 -18   91.34   33.34
   2  -3 -18   57.91   25.79
   2   3  18   85.22   24.80
  -2  -3  18   68.08   24.95
   2   3  19   28.89   16.90
  -2  -4 -18   77.32   32.14
   2   4 -18    4.11   19.43
   2  -4  18   45.22   21.55
  -2   4  18   29.62   22.16
  -2  -4 -17   81.60   33.56
   2   4 -17   63.31   27.64
   2  -4  17   36.51   19.42
  -2   4  17   21.55   20.40
   2  -4  16   95.20   25.49
  -2  -4 -16   86.26   33.25
  -2   4  16  123.68   30.10
   2   4 -16   60.22   26.37
   2  -4  16  133.13   29.56
  -2   4  16  108.98   29.89
  -2  -4 -15   79.99   30.35
  -2   4  15   66.73   21.30
   2   4 -15  134.21   31.16
  -2  -4 -15   66.20   19.01
   2  -4  15  108.52   25.73
   2  -4  15   78.36   23.30
  -2   4  15  102.54   27.95
  -2  -4 -14  141.46   23.21
   2  -4  14  206.79   33.81
  -2  -4 -14  239.12   42.01
  -2   4  14  193.47   33.95
   2   4 -14  178.90   33.62
   2  -4  14  223.51   33.90
  -2   4  14  199.97   35.12
   2  -4  13  173.36   28.48
   2  -4  13  164.25   27.93
  -2  -4 -13  151.22   31.94
  -2   4  13  228.77   35.07
   2   4 -13  219.20   32.91
  -2  -4 -13  207.03   25.79
  -2   4  13  226.17   35.01
   2  -4  12   50.17   16.60
  -2  -4 -12   51.87   26.04
  -2   4  12   50.90   19.77
   2   4 -12   39.56   19.45
   2  -4  12   53.82   20.51
  -2  -4 -12   48.38   13.88
  -2   4  12   46.00   18.10
   2  -4  11   52.53   11.63
   2  -4  11   80.76   17.80
  -2  -4 -11  104.09   26.46
  -2   4  11   57.98   20.70
   2   4 -11   63.66   19.90
   2  -4  11   91.87   23.35
  -2  -4 -11   73.11   15.75
   2   4 -11   60.00   12.47
  -2   4  11   79.24   24.12
  -2  -4 -10  347.55   27.73
  -2   4  10  391.56   37.94
  -2  -4 -10  378.06   43.02
   2   4 -10  403.31   37.80
   2  -4  10  416.16   43.28
   2  -4  10  431.17   29.89
   2   4 -10  370.13   28.26
  -2   4  10  401.16   42.78
   2  -4  10  388.98   32.00
   2  -4   9  188.68   21.41
  -2   4   9  256.18   30.84
   2   4  -9  220.15   26.59
  -2  -4  -9  204.95   20.27
   2  -4   9  202.86   32.28
   2  -4   9  237.86   23.11
   2   4  -9  208.72   21.71
  -2   4   9  249.40   34.01
  -2  -4  -9  188.28   30.37
   2  -4   8  125.91   17.08
  -2  -4  -8  123.34   27.44
   2   4  -8  143.17   21.74
  -2   4   8  153.66   23.98
   2  -4   8  129.72   18.55
   2  -4   8  141.16   27.89
  -2  -4  -8  123.06   14.77
  -2   4   8  133.24   26.10
  -2  -4  -7  169.52   27.97
   2  -4   7  235.65   23.86
  -2  -4  -7  186.86   15.31
   2   4  -7  220.68   23.85
  -2   4   7  209.79   24.82
   2  -4   7  249.62   30.88
   2  -4   7  197.35   19.37
  -2   4   7  232.08   30.39
  -2  -4  -6  289.95   31.83
   2  -4   6  316.28   34.67
   2   4  -6  368.34   26.99
   2  -4   6  369.37   30.39
  -2   4   6  359.70   29.53
  -2   4   6  373.83   35.82
  -2  -4  -6  337.69   17.42
   2  -4   5  120.77    7.86
   2   4  -5  134.28   16.62
  -2  -4  -5  106.12    8.60
   2  -4   5  107.23   20.95
  -2   4   5  116.70   17.46
   2  -4   5  124.11   19.01
  -2  -4  -5  125.06   22.56
  -2   4   5  124.85   21.43
  -2  -4  -4  392.65   31.26
   2   4  -4  383.32   24.31
   2  -4   4  398.53   33.45
   2  -4   4  410.31   33.94
  -2  -4  -4  383.34   12.85
  -2   4   4  386.92   33.54
  -2   4   4  413.52   27.09
  -2  -4  -3  318.70   26.07
  -2   4   3  272.67   21.39
  -2  -4  -3  272.80   23.04
   2  -4   3  294.15   26.64
   2  -4   3  302.25   30.70
  -2  -4  -3  269.26    8.20
  -2   4   3  302.46   27.92
   2   4  -3  311.06   20.59
  -2   4   2  111.91    6.45
  -2  -4  -2  106.38   14.73
   2   4  -2  133.27   13.18
   2  -4   2  107.97   21.01
   2  -4   2  117.32   16.86
  -2  -4  -2  121.64   15.69
  -2   4   2  117.40   13.90
  -2   4   2  115.47   16.84
   2   4  -1   42.08    8.18
  -2  -4  -1   53.57   11.05
  -2   4   1   24.45    5.33
   2  -4   1   48.79   10.57
   2  -4   1   38.79   16.94
   2  -4   1   30.53    6.91
  -2   4   1   34.67    9.01
   2   4  -1   34.11    4.38
  -2  -4  -1   45.97    9.17
  -2   4   1   42.54   11.04
  -2  -4   0  809.65   26.12
  -2  -4   0  766.77   34.71
   2   4   0  792.31   28.18
  -2   4   0  778.71   32.17
  -2   4   0  754.45   20.63
   2  -4   0  817.11   30.24
   2  -4   0  735.15   48.39
   2   4   0  740.50   14.44
   2  -4   0  792.71   28.68
  -2   4   0  723.45   31.61
  -2  -4   1   45.34    5.75
  -2  -4   1   32.00    9.65
   2   4   1   42.47    7.84
   2  -4  -1   35.02    5.99
   2  -4  -1   60.57   20.31
   2  -4  -1   39.30    8.31
  -2   4  -1   36.75    7.40
  -2  -4   2  111.24    5.65
   2   4   2  106.13   14.03
  -2  -4   2  104.22   14.09
   2   4   2  119.44   12.32
   2  -4  -2  104.37    7.32
   2  -4  -2  101.28   21.07
   2  -4  -2   92.64   12.21
  -2  -4   2  106.76    5.14
  -2   4  -2   93.22    9.53
  -2  -4   3  275.59   11.43
  -2  -4   3  318.57   22.41
   2  -4  -3  266.33   29.53
   2  -4  -3  308.90   21.05
  -2   4  -3  266.68   11.15
   2   4   3  312.52   23.85
  -2   4  -4  393.61   25.58
  -2  -4   4  367.86   16.62
  -2  -4   4  403.64   25.54
   2  -4  -4  397.20   35.80
   2  -4  -4  376.08   25.42
   2   4   4  407.62   29.05
  -2  -4   5  106.69   15.30
  -2   4  -5  112.25   15.85
   2   4   5  127.28   18.94
   2  -4  -5  141.64   22.73
   2  -4  -5  105.60   15.18
  -2  -4   5  111.52   11.57
  -2   4  -6  343.80   27.22
  -2  -4   6  375.15   27.13
   2  -4  -6  348.26   31.84
   2  -4  -6  386.87   28.61
   2   4   6  365.73   33.50
  -2   4  -7  201.14   23.46
   2   4   7  209.43   29.79
   2  -4  -7  197.62   23.54
  -2  -4   7  236.49   24.01
   2   4   7  212.97   25.73
   2  -4  -7  205.52   25.19
  -2  -4   7  206.06   21.55
   2   4   8  157.76   28.96
  -2  -4   8  143.43   20.39
   2  -4  -8  113.09   21.02
   2  -4  -8  121.95   20.13
   2   4   8  136.66   21.29
  -2   4  -8  115.82   20.23
  -2  -4   8  115.02   18.75
  -2   4  -9  212.45   26.71
   2  -4  -9  228.64   25.00
   2  -4  -9  227.28   28.50
   2   4   9  244.95   39.41
   2   4   9  226.14   27.71
  -2  -4   9  238.33   26.39
   2   4   9  215.54   23.31
  -2  -4   9  251.45   26.03
  -2   4 -10  489.77   40.47
   2  -4 -10  400.50   30.85
   2   4  10  326.93   46.34
   2   4  10  408.04   37.35
   2  -4 -10  359.55   35.62
  -2  -4  10  438.70   36.83
   2   4  10  490.28   33.88
  -2  -4  10  452.58   34.41
   2  -4 -11   64.37   13.66
  -2  -4  11   90.18   18.57
   2   4  11   80.27   30.37
  -2  -4  11   71.86   14.89
   2  -4 -11   64.57   21.14
   2   4  11   68.79   18.76
  -2  -4  11   81.50   19.66
   2   4  11   74.45   14.81
  -2   4 -11   82.25   22.39
  -2   4 -12   14.91   16.52
   2   4  12   18.15   22.07
  -2  -4  12   75.08   16.51
   2  -4 -12   22.20   15.16
   2   4  12   38.94   16.06
  -2  -4  12   40.36   15.48
   2   4  13  171.60   40.63
  -2  -4  13  249.96   29.44
   2  -4 -13  143.94   27.78
   2   4  13  180.75   28.64
  -2   4 -13  188.07   33.08
  -2  -4  13  214.83   33.64
  -2   4 -14  144.51   32.63
   2   4  14  151.71   41.65
  -2  -4  14  209.38   28.02
   2  -4 -14  173.96   31.78
   2   4  14  222.74   32.74
  -2  -4  14  203.17   31.96
   2   4  15   49.81   26.03
  -2   4 -15   78.86   26.42
  -2  -4  15  127.36   22.19
   2  -4 -15   43.17   20.85
   2   4  15  119.37   25.10
  -2  -4  15   71.00   22.40
  -2   4 -16   61.61   29.22
   2   4  16   50.79   27.89
   2  -4 -16   50.13   25.78
   2   4  16  105.10   26.19
  -2  -4  16   89.07   27.14
   2   4  17   38.44   24.36
  -2   4 -17   47.64   28.91
   2  -4 -17   20.10   20.30
   2   4  17   54.51   19.78
  -2  -4  17   19.56   19.97
   2   4  18   27.90   18.20
  -2   4 -18   -7.94   27.14
   2  -4 -18   17.63   23.35
   2   4  18   30.46   17.76
  -2  -4  18   43.13   23.07
  -2  -5 -18   33.73   24.13
  -2   5  17  117.31   29.49
  -2  -5 -17  130.98   34.39
   2   5 -17  156.14   37.05
   2  -5  17  185.68   32.33
  -2   5  17  131.60   32.24
  -2  -5 -16  145.66   35.19
  -2   5  16  137.70   30.96
   2   5 -16  147.48   34.71
   2  -5  16  153.09   29.50
  -2   5  16  120.59   30.93
  -2  -5 -15   16.97   25.72
  -2   5  15    9.39   15.17
   2   5 -15   -5.38   19.19
   2  -5  15   -0.64   15.19
  -2   5  15    3.01   16.44
  -2  -5 -14  203.23   38.70
  -2   5  14  240.67   37.60
   2   5 -14  163.35   30.49
   2  -5  14  185.20   32.64
  -2  -5 -14  181.18   24.88
   2  -5  14  237.93   31.96
  -2   5  14  235.25   37.90
  -2  -5 -13  857.20   69.40
  -2   5  13 1061.17   71.75
   2   5 -13  887.54   62.64
   2  -5  13  877.78   63.90
  -2  -5 -13  833.96   47.94
  -2   5  13  888.82   67.00
   2  -5  13  944.18   56.79
  -2  -5 -12  319.23   42.95
   2   5 -12  386.70   41.36
  -2   5  12  360.31   42.12
   2  -5  12  377.86   42.62
  -2  -5 -12  311.56   29.18
   2  -5  12  336.13   31.92
  -2   5  12  347.75   42.49
   2  -5  11  349.18   27.84
   2   5 -11  321.02   35.26
  -2   5  11  290.65   36.11
  -2  -5 -11  264.02   25.24
   2  -5  11  294.46   38.16
   2   5 -11  289.75   25.64
  -2  -5 -11  319.01   42.96
   2  -5  11  274.11   28.23
  -2   5  11  284.54   37.35
  -2  -5 -10  416.43   45.97
  -2   5  10  386.61   39.36
   2  -5  10  402.15   30.86
   2   5 -10  369.38   35.70
  -2  -5 -10  323.97   25.86
   2  -5  10  335.34   39.13
   2   5 -10  379.22   29.71
   2  -5  10  357.43   29.03
  -2   5  10  346.70   40.42
  -2  -5  -9  522.25   49.04
  -2   5   9  543.27   43.18
   2  -5   9  525.55   47.12
   2   5  -9  485.88   37.63
   2  -5   9  542.68   35.81
  -2  -5  -9  457.62   28.56
  -2   5   9  474.22   45.91
   2  -5   9  495.64   31.59
  -2  -5  -8  404.64   42.38
   2   5  -8  391.38   32.44
   2  -5   8  436.12   33.23
   2  -5   8  424.10   43.46
  -2  -5  -8  409.57   24.83
  -2   5   8  449.70   38.81
  -2   5   8  448.17   43.86
   2  -5   8  417.52   27.24
  -2  -5  -7 2718.43   98.82
   2   5  -7 2554.53   73.57
   2  -5   7 2819.01  105.86
   2  -5   7 2782.81   83.23
  -2  -5  -7 2613.84   54.12
  -2   5   7 2755.86   86.21
  -2   5   7 2795.74  102.67
  -2  -5  -6 1065.05   60.14
  -2   5   6 1250.75   54.12
   2   5  -6 1190.04   47.38
   2  -5   6 1186.44   67.24
  -2  -5  -6 1093.33   31.37
   2  -5   6 1126.36   54.61
  -2   5   6 1186.07   66.54
  -2  -5  -5   45.11   16.10
   2   5  -5   77.40   13.99
   2  -5   5   68.05   18.40
  -2   5   5   74.64   15.29
  -2  -5  -5   67.82    7.67
   2  -5   5   75.32   17.72
  -2   5   5  111.38   23.27
  -2  -5  -4  669.65   42.14
  -2  -5  -4  701.54   38.77
   2   5  -4  775.45   34.95
   2  -5   4  809.18   49.67
  -2  -5  -4  706.85   19.62
   2  -5   4  666.54   45.52
  -2   5   4  728.81   47.35
  -2   5   4  757.43   38.47
  -2   5   3 2937.34   69.23
   2  -5   3 2965.33   96.18
   2   5  -3 2939.91   63.25
  -2  -5  -3 2812.16   34.58
  -2   5   3 2883.41   85.32
   2  -5   3 2790.10   85.39
  -2  -5  -3 2781.98   72.77
  -2   5   2 1420.58   21.48
  -2   5   2 1463.30   48.42
   2   5  -2 1465.11   43.27
   2  -5   2 1471.46   56.84
   2  -5   2 1583.85   73.21
  -2   5   2 1474.60   57.11
  -2  -5  -2 1481.20   52.11
  -2  -5  -1 1722.80   54.38
  -2  -5  -1 1596.45   42.92
  -2   5   1 1634.98   33.56
  -2   5   1 1671.08   49.60
   2  -5   1 1684.87   77.33
   2   5  -1 1726.76   45.54
   2  -5   1 1743.08   44.41
   2  -5   1 1688.97   55.16
  -2   5   1 1587.09   55.12
  -2  -5   0 1126.66   27.76
  -2  -5   0 1061.91   31.96
  -2  -5   0 1146.92   44.56
  -2   5   0 1064.55   40.51
   2   5   0 1115.96   36.11
   2  -5   0 1117.31   38.83
   2  -5   0 1048.75   62.40
   2   5   0 1093.01   21.97
   2  -5   0 1098.10   35.89
  -2   5   0 1131.70   40.98
  -2  -5   1 1630.25   26.22
  -2  -5   1 1644.15   52.80
   2   5   1 1698.49   45.00
  -2   5  -1 1623.90   22.55
   2  -5  -1 1688.94   40.01
   2  -5  -1 1581.66   74.77
   2   5   1 1716.29   26.31
   2  -5  -1 1688.97   45.86
  -2   5  -1 1644.05   42.60
   2   5   2 1510.72   42.93
  -2   5  -2 1498.07   21.07
   2  -5  -2 1495.67   28.73
   2  -5  -2 1399.74   70.08
   2   5   2 1609.47   27.19
   2  -5  -2 1520.40   45.11
  -2   5  -2 1465.29   29.99
  -2  -5   2 1543.03   50.94
   2   5   2 1512.61   48.62
  -2  -5   3 2910.16   71.16
  -2   5  -3 2939.21   35.24
   2  -5  -3 2799.42   96.49
   2  -5  -3 2923.63   66.54
   2   5   3 2911.10   71.60
  -2   5  -4  733.82   34.81
  -2  -5   4  749.18   37.38
  -2   5  -4  741.05   22.88
   2  -5  -4  760.93   51.23
   2  -5  -4  733.52   35.86
   2   5   4  692.95   38.16
  -2  -5   5   65.41    4.80
  -2   5  -5   72.53   13.94
  -2  -5   5   83.54   14.66
   2   5   5   63.60   16.17
  -2   5  -5   54.97    8.51
   2  -5  -5   69.50   14.30
   2  -5  -5   64.42   18.23
  -2   5  -6 1164.10   47.60
  -2  -5   6 1208.28   48.74
  -2   5  -6 1149.08   38.80
   2  -5  -6 1140.69   59.67
   2  -5  -6 1256.46   51.51
   2   5   6 1095.26   56.17
  -2   5  -7 2696.45   75.64
  -2   5  -7 2655.79   65.80
   2  -5  -7 2559.33   85.83
   2  -5  -7 2690.48   79.30
   2   5   7 2561.07   94.22
  -2  -5   7 2596.05   74.46
  -2  -5   8  448.33   32.91
  -2   5  -8  427.66   33.91
  -2   5  -8  387.03   29.25
   2  -5  -8  420.80   35.35
   2  -5  -8  403.11   34.39
  -2  -5   8  442.54   33.71
   2   5   8  395.09   42.80
  -2   5  -9  473.45   37.06
  -2  -5   9  474.59   35.74
   2  -5  -9  526.08   38.05
  -2  -5   9  575.45   39.14
   2  -5  -9  496.92   39.38
   2   5   9  455.31   48.55
  -2   5 -10  399.85   36.32
  -2  -5  10  411.02   34.28
   2   5  10  294.65   43.08
   2  -5 -10  299.67   28.26
   2   5  10  388.86   37.47
   2  -5 -10  326.27   34.56
  -2  -5  10  400.16   34.77
  -2   5 -11  248.29   31.92
  -2  -5  11  332.76   32.78
   2  -5 -11  260.34   25.64
   2   5  11  231.54   43.69
   2   5  11  338.53   36.87
   2  -5 -11  277.59   34.27
  -2  -5  11  303.16   32.05
   2   5  11  314.50   27.89
  -2   5 -12  365.40   40.28
   2   5  12  272.21   51.72
  -2  -5  12  408.67   35.53
   2   5  12  361.62   38.55
   2  -5 -12  335.43   38.65
  -2  -5  12  391.80   38.94
  -2   5 -13  931.40   66.39
  -2  -5  13 1024.50   59.24
   2   5  13 1018.89   63.88
   2  -5 -13  906.54   62.53
  -2  -5  13 1038.24   64.76
   2   5  14  133.30   43.60
  -2  -5  14  253.53   31.77
   2  -5 -14  215.71   33.87
   2   5  14  236.07   32.84
  -2   5 -14  197.92   36.80
  -2  -5  14  248.09   36.08
   2   5  15  -36.82   31.70
  -2  -5  15   12.69   12.22
   2  -5 -15  -13.65   17.73
   2   5  15    8.05   14.05
  -2   5 -15    0.15   18.56
  -2  -5  15   -8.66   17.10
  -2   5 -16  134.95   35.97
   2   5  16  110.97   35.02
   2  -5 -16   99.01   26.09
   2   5  16  155.38   30.30
  -2  -5  16  166.82   33.67
  -2   5 -17  124.76   35.17
   2   5  17   77.84   28.60
   2  -5 -17  122.01   30.06
   2   5  17  161.68   30.98
  -2  -5  17  127.56   30.78
  -2   5 -18    6.83   21.59
   2   5  18   50.43   21.15
  -2  -5  18   49.68   23.37
  -2   6  17   49.02   25.58
  -2  -6 -17   20.61   24.23
   2   6 -17   26.96   23.92
   2  -6  17   54.63   21.06
  -2   6  17   44.72   21.34
  -2  -6 -16    2.64   23.58
  -2   6  16   49.84   25.62
   2   6 -16   74.69   27.96
   2  -6  16   48.29   21.81
  -2   6  16   39.37   22.15
  -2  -6 -15   88.76   30.22
  -2   6  15   11.53   18.73
   2   6 -15   76.88   27.76
   2  -6  15   76.20   23.96
  -2   6  15   47.89   19.92
  -2   6  14  366.67   47.12
   2   6 -14  408.79   47.39
   2  -6  14  394.57   45.59
  -2  -6 -14  384.75   47.53
  -2   6  14  407.54   48.27
  -2  -6 -13  -23.49   22.33
   2   6 -13   19.06   20.19
   2  -6  13   12.06   15.94
  -2  -6 -13   -2.65   13.15
  -2   6  13   28.64   21.27
  -2   6  13    4.73   16.29
   2  -6  12   94.15   17.41
  -2  -6 -12   88.70   28.20
  -2   6  12  119.01   29.17
   2   6 -12   96.26   24.20
   2  -6  12   91.93   23.42
  -2  -6 -12   93.05   17.84
  -2   6  12   86.18   24.61
   2  -6  11   87.97   15.17
  -2  -6 -11   93.30   27.75
  -2   6  11   97.92   23.99
   2   6 -11   70.21   19.28
   2  -6  11   95.73   16.66
   2  -6  11   97.78   24.81
  -2  -6 -11  108.52   16.84
  -2   6  11  103.08   25.51
  -2  -6 -10  620.76   54.72
   2   6 -10  579.00   43.09
   2  -6  10  610.02   38.93
   2  -6  10  572.09   50.00
  -2  -6 -10  506.04   31.98
  -2   6  10  583.99   48.83
  -2   6  10  589.71   54.08
   2  -6  10  548.70   33.51
  -2  -6  -9   48.60   21.81
   2  -6   9   24.98   11.54
   2   6  -9   43.34   15.66
  -2   6   9   16.34   14.68
   2  -6   9   26.63   18.15
  -2  -6  -9   19.86    9.68
  -2   6   9   27.76   18.22
  -2  -6  -8  429.43   43.52
   2  -6   8  355.09   40.84
   2  -6   8  398.75   33.93
  -2   6   8  483.47   47.52
  -2  -6  -8  323.65   22.10
   2   6  -8  387.91   32.57
  -2   6   8  433.86   38.33
  -2  -6  -7   24.25   18.60
   2   6  -7   46.60   14.79
  -2   6   7   33.53   16.38
   2  -6   7   41.37   19.64
  -2  -6  -7   21.98    7.31
   2  -6   7   27.14   15.89
  -2   6   7   45.02   22.31
  -2  -6  -6  705.93   47.83
  -2   6   6  641.27   41.04
   2   6  -6  639.02   36.48
   2  -6   6  714.50   53.84
   2  -6   6  661.76   45.17
  -2  -6  -6  599.16   24.51
  -2   6   6  700.26   52.15
   2  -6   5  129.49   22.52
   2   6  -5  143.42   18.05
  -2  -6  -5  102.46   19.94
  -2  -6  -5  142.58   11.43
   2  -6   5  139.70   25.44
  -2   6   5  149.33   20.84
  -2  -6  -5  125.38   19.40
  -2   6   5  111.09   22.49
  -2  -6  -4  743.25   41.44
  -2  -6  -4  774.26   40.74
   2   6  -4  776.92   35.90
   2  -6   4  761.58   51.75
  -2   6   4  713.07   39.25
   2  -6   4  806.48   52.84
  -2  -6  -4  710.23   22.26
  -2   6   4  713.74   46.74
  -2  -6  -3   32.51   11.50
   2   6  -3   28.00    9.49
   2  -6   3   59.12   22.35
   2  -6   3   29.70   12.48
  -2  -6  -3   29.34   11.87
  -2   6   3   24.50   10.40
  -2  -6  -3   36.16    5.76
  -2   6   3   10.39   10.68
  -2  -6  -2  511.37   32.55
  -2  -6  -2  520.97   27.36
   2   6  -2  551.84   28.61
   2  -6   2  513.18   37.86
   2  -6   2  628.71   52.02
  -2   6   2  484.53   12.12
  -2   6   2  563.81   31.68
  -2   6   2  580.98   36.84
  -2   6   1  145.49    9.86
  -2  -6  -1  158.60   12.61
  -2   6   1  166.21   17.97
   2   6  -1  162.96   15.25
   2  -6   1  147.26   19.50
   2  -6   1  154.17   15.89
   2  -6   1  162.47   30.75
  -2  -6  -1  134.80   18.27
  -2   6   1  145.44   17.91
  -2   6   0  657.49   33.44
  -2   6   0  651.39   19.60
   2   6   0  705.08   31.33
   2  -6   0  642.68   33.66
   2  -6   0  631.30   52.94
   2  -6   0  650.74   31.01
  -2   6   0  711.35   32.04
  -2  -6   0  668.81   21.59
  -2  -6   0  707.85   37.12
   2   6   1  168.30   17.03
  -2   6  -1  153.14    9.19
   2  -6  -1  174.28   15.23
  -2  -6   1  168.87   19.78
   2  -6  -1  162.50   16.60
  -2   6  -1  169.64   13.08
  -2   6  -1  136.64   17.25
   2  -6  -1  143.88   28.80
   2   6   1  148.63    9.35
  -2  -6   2  546.55   32.42
   2   6   2  563.11   28.30
  -2   6  -2  548.01   16.28
   2  -6  -2  571.26   20.94
   2  -6  -2  518.87   48.66
   2  -6  -2  558.07   30.30
   2   6   2  548.60   30.29
   2   6   3   36.95   10.53
  -2  -6   3   32.00   12.33
   2   6   3   36.54    9.34
  -2   6  -3   30.12    5.13
   2  -6  -3   27.81    3.24
   2  -6  -3   38.79   10.58
   2  -6  -3   12.39   18.38
  -2   6  -4  761.72   37.55
   2  -6  -4  782.41   38.86
  -2  -6   4  786.20   40.27
  -2   6  -4  765.19   23.22
   2  -6  -4  692.53   52.30
   2   6   4  768.71   41.02
  -2   6  -5  139.63   18.38
   2   6   5  138.54   20.82
  -2  -6   5  110.80   17.89
  -2   6  -5  140.48   12.34
   2  -6  -5  106.31   16.75
   2  -6  -5  132.35   25.58
  -2   6  -6  622.52   36.15
  -2  -6   6  646.87   37.94
  -2   6  -6  638.02   28.29
   2  -6  -6  642.11   48.66
   2  -6  -6  595.64   37.10
   2   6   6  619.60   44.02
  -2   6  -7   41.56   13.35
  -2  -6   7   39.16   14.19
  -2   6  -7   41.16   11.36
   2  -6  -7   37.60   15.96
   2   6   7    2.23   16.99
   2  -6  -7   32.44   16.57
  -2   6  -8  393.87   31.89
  -2  -6   8  396.03   32.89
   2   6   8  326.16   39.51
  -2   6  -8  333.36   26.64
   2  -6  -8  370.81   33.44
   2  -6  -8  366.14   34.27
  -2   6  -9   12.87   11.65
  -2  -6   9   30.23   13.29
   2   6   9    2.09   17.62
   2  -6  -9   28.20   12.49
  -2   6  -9   46.78   13.31
   2  -6  -9   20.07   12.82
  -2  -6   9   31.16   12.48
  -2   6 -10  576.74   43.27
  -2  -6  10  561.23   41.96
   2  -6 -10  602.94   45.59
  -2   6 -10  531.50   37.49
   2  -6 -10  482.78   37.73
  -2  -6  10  587.73   41.45
   2   6  10  549.00   57.13
  -2   6 -11  101.11   21.51
  -2  -6  11  101.52   19.52
   2   6  11   60.62   29.02
   2  -6 -11   98.44   24.07
   2  -6 -11   84.71   17.04
  -2  -6  11  107.64   21.26
  -2   6 -12   91.06   22.11
  -2  -6  12  107.25   22.24
   2   6  12   59.20   32.01
  -2  -6  12   76.85   18.17
   2  -6 -12   57.47   21.60
  -2  -6  12  135.67   25.14
   2   6  13   -4.57   24.69
  -2  -6  13    0.74   10.43
   2  -6 -13  -14.54   17.08
  -2   6 -13  -10.78   16.79
  -2  -6  13    3.91   12.62
  -2   6 -14  369.19   45.03
   2   6  14  312.34   61.08
  -2  -6  14  436.39   42.05
   2  -6 -14  351.19   41.48
  -2  -6  14  381.53   42.49
  -2   6 -15   35.91   21.64
   2   6  15   11.39   22.26
  -2  -6  15   69.35   21.08
   2  -6 -15   43.81   19.30
   2   6  16   28.88   30.08
  -2  -6  16   61.61   19.04
   2  -6 -16   66.25   25.75
  -2   6 -16  -11.96   24.44
  -2  -6  16   31.02   18.75
   2   6  17   -5.76   22.19
   2  -6 -17   14.04   22.72
  -2  -6  17    1.93   15.98
  -2  -6  18  129.88   31.09
  -2   7  17  168.42   36.64
  -2  -7 -17  160.35   37.17
   2   7 -17  114.14   31.70
   2  -7  17  156.06   30.30
  -2   7  17  158.46   34.21
  -2  -7 -16    1.24   21.54
  -2   7  16   -9.18   18.01
   2   7 -16   17.14   20.18
   2  -7  16   23.80   18.82
  -2   7  16   17.38   18.72
  -2   7  15   35.63   24.71
   2   7 -15   22.19   21.05
   2  -7  15   40.63   21.52
  -2   7  15   32.61   22.34
  -2   7  14  191.71   37.57
  -2  -7 -14  202.08   38.72
   2   7 -14  168.53   34.31
   2  -7  14  156.56   29.87
  -2   7  14  167.62   34.60
  -2  -7 -13  161.51   34.39
  -2   7  13  220.07   35.61
   2   7 -13  151.43   28.26
   2  -7  13  163.44   31.55
  -2   7  13  178.17   33.50
  -2  -7 -12   52.72   24.64
  -2   7  12   81.31   23.77
   2   7 -12   46.50   19.56
   2  -7  12   79.55   24.22
  -2  -7 -12   30.95   12.76
  -2   7  12   24.81   16.57
  -2  -7 -11  166.54   32.89
   2  -7  11  118.78   26.38
  -2   7  11  135.39   27.04
   2   7 -11  136.74   25.23
  -2  -7 -11  133.82   19.03
   2  -7  11  147.49   21.18
  -2   7  11  144.84   31.91
  -2  -7 -10  328.90   41.64
   2   7 -10  299.25   33.68
   2  -7  10  329.68   30.82
  -2   7  10  336.90   38.87
  -2  -7 -10  246.90   23.01
   2  -7  10  287.50   37.78
  -2   7  10  338.45   43.08
  -2  -7  -9   93.25   19.94
   2   7  -9   93.63   20.01
  -2   7   9  101.40   23.52
   2  -7   9  102.15   18.35
   2  -7   9  104.33   23.54
  -2  -7  -9  102.47   15.11
  -2   7   9  142.79   31.13
  -2  -7  -8  139.55   25.86
   2   7  -8  125.49   20.31
  -2   7   8  146.09   24.75
   2  -7   8  110.18   22.69
  -2  -7  -8  127.15   14.69
   2  -7   8  122.06   21.29
  -2   7   8  158.98   30.11
  -2  -7  -7   67.40   17.91
  -2  -7  -7   76.97   20.87
   2  -7   7   41.74   14.19
   2   7  -7   68.87   15.09
  -2   7   7   73.73   19.12
   2  -7   7   75.20   22.18
  -2  -7  -7   76.40   11.21
  -2   7   7   97.94   24.97
   2  -7   6   82.22   20.97
  -2  -7  -6   51.03   15.11
   2   7  -6   89.60   16.37
   2  -7   6   63.19   20.22
  -2   7   6   85.68   17.83
  -2  -7  -6   74.23   10.23
  -2  -7  -6   53.83   18.61
  -2   7   6   60.45   21.47
   2  -7   5   27.72   17.43
  -2  -7  -5   20.55   13.60
   2   7  -5   18.91   11.92
   2  -7   5   51.55   17.79
  -2   7   5   26.96   14.19
  -2  -7  -5   34.46    6.99
  -2  -7  -5    7.00   10.57
  -2   7   5   23.78   15.76
  -2  -7  -4  509.13   34.01
   2   7  -4  561.51   32.52
   2  -7   4  572.98   49.03
   2  -7   4  558.23   48.69
  -2  -7  -4  539.14   21.81
  -2   7   4  533.59   35.42
  -2   7   4  635.53   44.65
  -2  -7  -4  490.20   34.80
   2   7  -3   41.59   11.81
   2  -7   3   46.99   19.31
  -2  -7  -3   26.12   12.20
  -2   7   3   37.95   12.02
  -2  -7  -3   37.46    7.28
   2  -7   3   34.40   21.11
  -2  -7  -3   60.11   12.59
  -2   7   3   44.26   14.05
   2  -7   2   88.63   19.03
  -2   7   2   77.94    5.58
  -2  -7  -2   86.76   15.41
   2   7  -2  109.21   15.61
  -2   7   2   97.01   16.12
  -2   7   2  127.94   18.23
   2   7  -1   34.46    9.76
   2  -7   1   65.64   16.73
   2  -7   1   45.09   11.41
  -2   7   1   34.67   11.80
  -2  -7  -1   32.93   12.68
  -2   7   1   45.23   11.40
  -2   7   0  479.27   29.93
  -2   7   0  451.65   18.23
   2   7   0  483.30   27.70
   2  -7   0  422.44   30.37
  -2  -7   0  460.68   31.96
   2  -7   0  448.01   27.31
  -2   7   0  427.21   23.93
  -2  -7   0  386.14   14.79
   2   7   1   22.28    4.75
   2   7   1   35.18   11.31
  -2   7  -1   20.23    4.65
   2  -7  -1   46.00   10.69
   2  -7  -1   39.30   10.64
  -2  -7   1   36.73   11.84
  -2   7  -1   30.13   11.59
  -2   7  -1   43.26    7.29
   2   7   2  110.13   15.10
  -2  -7   2   88.16   15.83
  -2   7  -2  107.12    8.75
   2   7   2  119.95   15.48
   2  -7  -2   85.48   10.68
   2  -7  -2   96.92   15.33
   2   7   3   50.62   12.72
  -2  -7   3   34.59   12.50
   2   7   3   46.23   11.82
   2  -7  -3   31.80    5.02
   2  -7  -3   39.36   12.15
   2  -7  -3   20.07   21.65
  -2   7  -3   33.23    6.11
  -2   7  -4  571.47   21.37
   2  -7  -4  553.22   50.58
   2  -7  -4  530.41   33.51
  -2  -7   4  611.22   37.45
   2   7   4  540.69   34.52
  -2   7  -5   22.73   12.32
   2   7   5   22.71   12.77
  -2  -7   5   17.84   12.05
  -2   7  -5   32.57    7.45
   2  -7  -5   11.14   10.39
   2  -7  -5   34.09   21.12
  -2   7  -6   82.59   18.44
   2   7   6   77.11   19.75
  -2  -7   6   70.36   16.06
  -2   7  -6   64.04   10.12
   2  -7  -6  101.23   25.78
   2  -7  -6   60.60   15.11
  -2   7  -7   84.72   17.83
   2   7   7   71.05   22.61
  -2   7  -7   68.30   12.61
   2  -7  -7   76.46   18.25
   2  -7  -7   86.75   21.74
  -2  -7   7   75.62   17.31
   2   7   8  154.15   29.17
  -2   7  -8  129.78   21.04
  -2  -7   8  124.54   19.80
  -2   7  -8  148.21   18.15
   2  -7  -8  142.77   22.34
   2  -7  -8  196.29   28.06
  -2   7  -9   85.32   19.18
  -2  -7   9  100.67   19.37
   2   7   9  116.93   27.81
  -2   7  -9   93.73   16.56
   2  -7  -9  106.70   22.49
   2  -7  -9   70.85   18.15
  -2  -7   9  117.95   19.24
  -2   7 -10  307.51   32.83
  -2  -7  10  346.98   34.79
   2   7  10  222.30   40.83
  -2   7 -10  249.06   26.35
   2  -7 -10  291.99   31.43
   2  -7 -10  327.06   34.89
  -2  -7  10  318.46   31.26
   2  -7 -11  117.06   20.53
  -2  -7  11  129.19   22.21
   2   7  11   90.74   29.67
   2  -7 -11  151.48   27.21
  -2   7 -11  168.91   27.66
  -2  -7  11  126.06   22.10
  -2  -7  12   31.36   14.70
   2   7  12   41.84   26.80
   2  -7 -12   69.99   20.59
  -2  -7  12   61.39   18.33
  -2   7 -12   34.47   18.68
  -2   7 -13  179.50   31.08
   2   7  13  198.30   45.04
  -2  -7  13  224.57   30.67
   2  -7 -13  175.40   31.05
  -2  -7  13  208.04   29.65
   2   7  14  155.29   46.62
  -2   7 -14  184.10   35.21
  -2  -7  14  212.59   30.97
   2  -7 -14  122.65   28.04
  -2  -7  14  161.06   28.45
   2   7  15    4.56   26.11
  -2  -7  15   15.79   14.97
  -2   7 -15   26.53   22.64
   2  -7 -15    6.68   19.76
  -2  -7  15   24.91   20.79
   2   7  16  -12.05   27.25
  -2  -7  16   15.14   13.53
   2  -7 -16    5.44   14.92
  -2  -7  16   44.73   20.78
   2   7  17  192.88   43.52
  -2   7 -17  180.77   40.48
  -2  -7  17  135.71   28.57
   2  -7 -17  104.34   27.49
  -2  -7  17  163.76   31.60
  -2  -7  18  162.59   33.84
  -2  -8 -17  117.91   32.22
  -2  -8 -16   26.39   23.27
  -2   8  16   55.75   23.38
   2   8 -16   26.62   22.52
   2  -8  16   63.58   23.90
  -2   8  16  100.37   29.83
  -2  -8 -15  175.97   35.53
  -2   8  15  226.08   40.04
   2   8 -15  140.56   31.44
   2  -8  15  135.07   28.46
  -2   8  15  207.99   37.32
  -2  -8 -14  132.39   32.36
  -2   8  14  111.30   30.05
   2   8 -14  150.02   31.18
   2  -8  14  166.99   31.79
  -2   8  14  135.40   31.37
  -2  -8 -13   79.17   28.98
  -2   8  13   40.06   20.87
   2   8 -13   51.80   18.39
   2  -8  13   43.51   20.99
  -2   8  13   81.01   27.54
  -2  -8 -12   88.50   25.93
  -2   8  12   98.73   27.48
   2   8 -12   55.68   18.66
   2  -8  12   69.88   23.37
  -2   8  12  103.53   27.60
  -2  -8 -11  539.75   52.91
  -2   8  11  536.30   51.65
   2   8 -11  541.29   44.63
   2  -8  11  495.05   50.25
  -2   8  11  564.74   56.67
  -2  -8 -10  286.71   33.05
  -2  -8 -10  287.53   37.36
   2   8 -10  310.39   32.29
   2  -8  10  332.32   32.81
  -2   8  10  309.56   40.02
  -2  -8 -10  279.66   24.84
   2  -8  10  300.37   39.52
  -2   8  10  328.82   43.99
  -2  -8  -9  197.01   26.95
  -2  -8  -9  231.02   33.08
   2   8  -9  217.30   27.14
   2  -8   9  257.49   30.80
  -2   8   9  252.27   33.94
  -2  -8  -9  207.85   20.12
   2  -8   9  241.14   35.81
  -2   8   9  178.20   30.80
  -2  -8  -8  138.72   23.00
  -2  -8  -8   95.57   22.64
  -2   8   8   94.71   22.99
   2  -8   8  101.38   24.48
   2  -8   8  136.08   23.29
  -2  -8  -8   75.63   11.96
   2   8  -8   86.76   17.46
  -2   8   8  107.24   25.52
  -2  -8  -7  408.89   38.35
  -2  -8  -7  380.03   34.26
   2   8  -7  403.87   31.92
   2  -8   7  390.53   42.40
   2  -8   7  412.98   39.28
  -2  -8  -7  388.72   23.75
  -2   8   7  460.27   40.43
  -2   8   7  420.52   42.75
  -2  -8  -6  431.51   36.72
  -2  -8  -6  388.37   33.22
  -2   8   6  407.10   35.63
   2   8  -6  412.33   30.96
   2  -8   6  394.25   42.90
  -2  -8  -6  374.99   22.18
   2  -8   6  332.69   37.11
  -2   8   6  427.17   41.18
  -2   8   5  911.49   49.41
  -2  -8  -5  847.07   45.25
  -2  -8  -5  878.58   48.11
   2   8  -5  845.01   42.55
   2  -8   5  917.37   62.71
   2  -8   5  890.00   60.29
  -2  -8  -5  873.20   31.39
  -2   8   5 1020.13   58.74
  -2  -8  -4  452.85   34.09
  -2   8   4  459.69   34.29
   2   8  -4  445.17   30.52
   2  -8   4  451.45   44.43
  -2  -8  -4  469.73   22.07
  -2   8   4  468.75   38.63
  -2   8   3  460.47   33.21
   2   8  -3  474.17   30.63
   2  -8   3  473.92   44.27
  -2  -8  -3  443.97   21.19
  -2  -8  -3  476.21   34.93
  -2   8   3  520.98   37.52
   2   8  -2  170.61   19.44
   2  -8   2  134.34   24.30
  -2   8   2  133.80   19.29
  -2  -8  -2  139.53   20.66
  -2   8   2  149.25   18.93
  -2  -8  -1  874.64   46.28
  -2   8   1  913.12   43.79
   2  -8   1  849.46   53.55
   2   8  -1  888.20   39.78
   2  -8   1  887.94   39.34
  -2   8   1  906.13   39.48
  -2   8   0  507.86   33.05
  -2   8   0  534.60   21.72
   2   8   0  591.02   32.56
   2  -8   0  550.79   31.80
   2  -8   0  486.30   37.42
  -2  -8   0  550.72   36.17
  -2   8   0  489.80   25.19
  -2   8  -1  881.02   42.43
   2   8   1  902.73   39.56
  -2   8  -1  876.53   26.92
   2  -8  -1  856.55   43.73
   2  -8  -1  871.10   39.86
  -2  -8   1  868.09   45.26
   2  -8  -2  158.31   19.18
  -2  -8   2  143.21   20.32
  -2   8  -2  153.71   11.43
   2   8   2  147.21   17.45
   2  -8  -2  153.63   16.96
  -2   8  -2  131.39   17.83
   2   8   2  151.31   17.90
   2   8   3  477.15   29.45
  -2   8  -3  500.37   20.71
   2  -8  -3  503.64   23.01
   2  -8  -3  464.68   31.55
  -2  -8   3  484.43   35.39
   2   8   3  430.28   29.89
  -2  -8   4  480.00   34.89
  -2   8  -4  494.12   21.52
   2  -8  -4  457.96   32.67
   2   8   4  490.31   33.90
  -2   8  -5  874.08   42.95
  -2  -8   5  937.40   48.81
  -2   8  -5  895.20   31.21
   2  -8  -5  908.97   45.93
   2   8   5  853.04   47.57
  -2   8  -6  425.05   31.49
  -2   8  -6  380.97   22.41
   2  -8  -6  377.37   43.78
   2  -8  -6  422.54   33.41
  -2  -8   6  425.24   35.13
   2   8   6  359.03   34.98
  -2   8  -7  466.53   34.11
  -2  -8   7  446.38   36.26
  -2   8  -7  436.42   26.49
   2  -8  -7  397.15   43.78
   2  -8  -7  413.71   34.95
   2   8   7  384.51   39.44
   2  -8  -8   87.85   22.41
  -2   8  -8  129.88   21.56
   2   8   8   83.81   23.75
  -2  -8   8   75.91   18.97
  -2   8  -8   91.64   14.79
   2  -8  -8   88.87   19.19
  -2   8  -9  234.53   27.94
  -2  -8   9  211.94   27.75
   2   8   9  193.69   36.25
   2  -8  -9  192.87   29.57
  -2   8  -9  184.00   22.20
   2  -8  -9  221.69   29.57
  -2   8 -10  311.15   32.87
  -2  -8  10  324.88   34.56
   2   8  10  311.74   46.60
   2  -8 -10  292.70   34.05
   2  -8 -10  313.59   35.24
  -2  -8  10  316.84   31.27
  -2   8 -11  572.25   46.24
  -2  -8  11  546.87   44.90
   2   8  11  502.34   61.56
   2  -8 -11  467.66   40.00
   2  -8 -11  540.19   46.69
  -2  -8  11  581.59   43.16
  -2   8 -12   62.48   20.20
  -2  -8  12   62.87   18.57
   2   8  12   82.30   32.12
   2  -8 -12   51.84   20.72
  -2  -8  12   68.26   19.14
  -2   8 -13   41.58   21.74
   2   8  13   -0.81   26.12
  -2  -8  13   60.63   18.12
   2  -8 -13   59.99   22.18
  -2  -8  13   45.99   18.56
  -2   8 -14  172.50   32.75
   2   8  14  141.06   40.98
  -2  -8  14  159.28   28.31
   2  -8 -14  129.72   28.20
  -2  -8  14  148.66   26.67
  -2   8 -15  217.50   36.97
   2   8  15  168.60   43.66
  -2  -8  15  222.05   34.25
   2  -8 -15  222.21   36.79
  -2  -8  15  152.35   29.35
  -2   8 -16   41.14   25.29
   2   8  16   59.74   27.72
  -2  -8  16   87.87   24.49
   2  -8 -16    0.40   18.61
  -2  -8  16   95.72   25.51
  -2   8 -17  129.34   36.26
  -2  -8  17  101.19   25.58
  -2  -8  17  149.23   31.77
  -2  -9 -16  333.78   48.32
  -2   9  16  322.91   49.51
   2   9 -16  220.22   39.43
   2  -9  16  232.02   38.95
  -2   9  16  267.42   43.62
  -2  -9 -15   86.12   30.42
  -2   9  15   48.54   24.32
   2   9 -15   55.21   23.19
   2  -9  15   37.91   19.66
  -2   9  15   53.18   24.69
  -2  -9 -14  104.73   24.70
  -2  -9 -14  154.60   33.22
  -2   9  14  190.04   37.52
   2   9 -14  148.12   31.71
   2  -9  14  190.27   35.36
  -2   9  14  148.94   32.86
  -2  -9 -13   48.21   23.09
  -2   9  13   72.06   27.90
   2   9 -13   29.93   19.03
   2  -9  13   28.02   16.25
  -2   9  13   60.36   22.91
  -2  -9 -13   14.69   15.75
  -2  -9 -12  320.16   41.72
  -2   9  12  276.19   41.56
   2   9 -12  312.22   37.62
   2  -9  12  265.54   38.75
  -2   9  12  292.21   42.82
  -2  -9 -12  221.18   32.05
  -2  -9 -11  107.82   24.07
  -2  -9 -11  129.35   26.61
   2   9 -11  136.41   26.16
   2  -9  11  162.51   32.18
  -2   9  11  177.56   32.47
  -2   9  11  175.52   35.08
  -2  -9 -10  975.20   63.82
  -2  -9 -10  751.26   53.06
  -2   9  10  997.75   66.84
   2   9 -10  918.68   54.59
   2  -9  10  923.71   67.95
   2  -9  10  938.02   56.67
  -2   9  10  965.68   72.26
  -2  -9  -9   37.26   16.10
  -2  -9  -9   29.18   18.92
   2   9  -9   54.89   17.66
  -2   9   9   77.98   21.21
   2  -9   9   50.76   22.43
   2  -9   9   46.03   16.32
  -2  -9  -9   43.78   11.75
  -2   9   9   71.48   24.67
  -2  -9  -8  243.62   31.53
  -2  -9  -8  219.96   27.91
   2   9  -8  245.46   27.90
  -2   9   8  235.66   31.27
   2  -9   8  206.03   32.94
  -2  -9  -8  242.23   21.03
   2  -9   8  229.15   31.83
  -2   9   8  259.50   36.94
  -2  -9  -7  152.17   23.60
   2   9  -7  194.76   25.41
   2  -9   7  206.17   32.44
  -2   9   7  183.60   26.89
  -2  -9  -7  184.30   17.88
   2  -9   7  231.81   32.76
  -2   9   7  201.55   31.78
  -2  -9  -6 1214.73   58.94
  -2   9   6 1338.91   64.25
   2   9  -6 1337.57   56.49
   2  -9   6 1280.20   75.02
  -2  -9  -6 1314.82   43.36
  -2   9   6 1319.76   70.60
   2   9  -5  231.56   24.07
   2  -9   5  239.12   33.13
  -2  -9  -5  235.90   17.85
  -2  -9  -5  219.02   26.27
  -2   9   5  236.54   28.26
  -2   9   5  232.40   29.24
   2   9  -4 1400.05   54.57
   2  -9   4 1337.27   75.76
  -2  -9  -4 1354.95   40.79
  -2   9   4 1413.44   61.50
  -2   9   4 1467.93   66.02
  -2  -9  -4 1357.13   59.10
  -2  -9  -3  277.01   28.50
   2   9  -3  274.59   24.78
  -2   9   3  288.12   28.24
   2  -9   3  256.64   34.95
  -2   9   3  269.82   26.42
   2   9  -2  782.10   39.76
   2  -9   2  801.59   58.06
  -2   9   2  793.10   43.63
  -2   9   2  738.21   39.70
  -2  -9  -2  762.76   44.80
  -2  -9  -1  229.61   26.16
  -2   9   1  235.05   24.90
   2   9  -1  282.75   24.70
   2  -9   1  240.00   22.74
  -2   9   1  223.40   20.18
  -2  -9   0 2025.56   70.90
  -2   9   0 2031.04   46.14
   2   9   0 2110.47   63.19
   2  -9   0 1918.80   81.93
   2  -9   0 2083.70   63.92
  -2   9   0 2120.77   67.33
  -2  -9   1  241.92   26.27
   2   9   1  249.76   23.98
  -2   9  -1  248.47   16.43
  -2   9  -1  239.34   24.89
   2  -9  -1  256.15   28.66
   2  -9  -1  217.16   22.76
  -2  -9   2  749.19   44.46
  -2   9  -2  742.59   40.56
   2   9   2  754.08   38.50
  -2   9  -2  748.90   27.07
   2  -9  -2  705.25   40.88
   2  -9  -2  768.98   40.27
   2   9   2  782.10   37.39
  -2  -9   3  290.34   29.03
  -2   9  -3  283.02   26.22
   2   9   3  261.92   24.92
  -2   9  -3  286.14   17.16
   2  -9  -3  272.66   25.75
   2   9   3  251.70   23.97
  -2  -9   4 1382.02   61.12
   2   9   4 1389.12   53.55
  -2   9  -4 1497.32   39.95
   2  -9  -4 1468.52   58.78
   2   9   4 1316.36   55.23
  -2   9  -5  225.84   24.17
   2   9   5  213.07   25.57
  -2   9  -5  251.89   17.90
   2  -9  -5  255.98   26.95
  -2  -9   5  269.67   28.93
  -2   9  -6 1344.95   55.76
  -2  -9   6 1309.64   61.03
  -2   9  -6 1293.16   42.01
   2  -9  -6 1323.92   58.82
   2   9   6 1235.10   63.05
   2   9   7  175.64   28.66
   2  -9  -7  214.62   35.69
  -2  -9   7  206.98   27.89
  -2   9  -7  208.91   19.08
   2  -9  -7  179.06   24.61
  -2   9  -7  212.30   24.91
  -2   9  -8  244.02   28.23
   2  -9  -8  249.16   35.81
  -2  -9   8  220.28   28.55
   2  -9  -8  245.84   29.81
   2   9   8  246.14   34.45
  -2   9  -9   51.62   15.78
   2   9   9   49.16   22.01
  -2  -9   9   74.69   18.59
   2  -9  -9   33.31   17.54
   2  -9  -9   42.31   15.99
  -2   9 -10  936.38   55.38
  -2  -9  10  922.65   58.43
   2  -9 -10  887.53   61.20
   2  -9 -10  901.46   57.06
  -2  -9  10 1043.96   55.59
   2   9  10  855.40   72.18
  -2   9 -11  127.21   24.77
  -2  -9  11  155.25   26.36
   2   9  11  213.45   41.76
   2  -9 -11  142.25   27.07
  -2  -9  11  145.37   22.72
   2  -9 -11  172.52   27.70
  -2   9 -12  293.33   36.47
  -2  -9  12  295.91   36.74
   2   9  12  268.15   49.10
   2  -9 -12  247.68   33.97
  -2  -9  12  304.56   33.86
  -2   9 -13   45.10   19.95
   2   9  13   60.91   35.69
  -2  -9  13   31.75   17.41
   2  -9 -13   48.48   21.36
  -2  -9  13   55.64   18.21
   2   9  14  145.23   38.81
  -2   9 -14  180.79   34.69
  -2  -9  14  184.27   30.78
   2  -9 -14  140.79   29.90
  -2  -9  14  152.83   27.18
  -2   9 -15   65.74   26.65
   2   9  15   37.25   28.73
  -2  -9  15   32.15   16.52
   2  -9 -15    8.79   17.23
  -2  -9  15    9.70   13.82
  -2   9 -16  263.94   43.47
   2   9  16  235.36   46.49
  -2  -9  16  334.51   43.74
   2  -9 -16  211.99   37.23
  -2  -9  16  269.11   38.51
  -2  -9  17   58.93   21.28
  -2  -9  17   51.75   22.08
  -2 -10 -16   52.43   20.71
  -2  10  15   50.66   24.21
   2  10 -15   32.09   19.37
   2 -10  15   49.69   20.53
  -2 -10 -15   33.70   18.73
  -2  10  15    5.43   17.77
  -2 -10 -14   41.52   19.37
  -2  10  14   70.37   28.18
   2  10 -14   58.29   21.70
   2 -10  14   69.68   24.78
  -2  10  14   42.44   22.75
   2  10 -13  149.06   30.11
   2 -10  13  159.89   34.39
  -2  10  13  177.66   36.59
  -2  10  13  157.69   36.38
  -2 -10 -13   92.82   23.15
  -2 -10 -12  137.94   26.43
  -2  10  12  249.86   40.59
   2  10 -12  245.18   33.90
   2 -10  12  204.50   35.00
  -2  10  12  230.46   39.82
  -2 -10 -11   20.02   12.16
  -2  10  11   19.25   17.91
   2  10 -11   15.94   13.67
   2 -10  11   43.08   20.63
  -2  10  11   27.58   20.78
   2  10 -10   30.75   17.18
  -2  10  10   54.23   20.03
   2 -10  10   46.05   17.27
   2 -10  10    0.58   14.11
  -2 -10 -10   33.13   15.64
  -2  10  10   23.05   17.90
  -2 -10  -9   95.73   21.70
   2  10  -9  144.15   24.49
  -2  10   9  125.33   24.82
   2 -10   9   88.87   24.70
   2 -10   9  125.54   25.91
  -2  10   9  110.18   27.29
   2  10  -8  245.38   27.79
  -2  10   8  208.03   31.13
   2 -10   8  225.97   35.94
   2 -10   8  246.68   34.83
  -2 -10  -8  184.13   26.34
  -2  10   8  297.27   38.10
  -2 -10  -7   79.30   18.30
   2  10  -7   56.39   16.85
   2 -10   7   50.42   20.59
  -2  10   7   87.75   22.39
  -2 -10  -7   72.99   13.40
  -2  10   7   18.21   15.29
   2  10  -6  127.43   19.92
   2 -10   6  128.15   27.35
  -2  10   6  118.94   21.78
  -2 -10  -6  112.04   14.56
  -2 -10  -6  132.30   21.99
  -2  10   6  149.08   26.83
  -2 -10  -5   41.21   15.62
   2  10  -5   23.37   12.70
   2 -10   5   42.92   19.98
  -2  10   5   11.60   13.71
  -2 -10  -5   -5.77    8.09
  -2  10   5    5.75   11.75
   2  10  -4   70.74   14.80
   2 -10   4   96.88   23.19
  -2 -10  -4   72.36   18.06
  -2  10   4   82.17   18.33
  -2 -10  -4   72.84   11.29
  -2  10   4   65.52   17.67
   2  10  -3  136.58   19.05
   2 -10   3  138.27   27.76
  -2 -10  -3  112.38   20.29
  -2  10   3  131.24   20.69
  -2  10   3  122.34   18.83
   2  10  -2  402.89   30.91
   2 -10   2  355.94   41.05
  -2  10   2  350.34   31.09
  -2 -10  -2  355.31   32.49
  -2  10   1   25.69    7.98
   2  10  -1   38.11   13.11
  -2 -10  -1   60.62   16.85
   2 -10   1   41.75   18.41
  -2  10   1   21.61   10.79
   2 -10   1   30.57   11.44
   2  10   0   36.75   12.26
  -2  10   0   36.75    8.87
   2 -10   0   23.36   14.64
   2 -10   0   26.15   30.53
   2 -10   0   16.55   11.32
  -2  10   0   42.15   13.83
  -2 -10   0   29.24   13.61
  -2 -10   1   54.99   17.37
   2  10   1   64.74   14.69
  -2  10  -1   39.00    8.48
   2 -10  -1   52.84   17.06
   2 -10  -1   31.57   13.18
  -2  10  -1   33.42   13.47
   2  10   2  407.73   30.44
  -2  10  -2  354.94   20.62
   2 -10  -2  291.44   31.00
   2 -10  -2  366.62   29.77
  -2 -10   2  368.63   33.11
  -2  10  -2  345.02   28.88
   2  10   2  348.74   25.64
   2  10   3  131.16   17.81
  -2 -10   3  150.24   23.42
  -2  10  -3  133.39   13.37
   2  10   3  139.34   18.98
   2 -10  -3  126.53   19.80
  -2  10  -3  140.11   20.42
   2  10   4   70.93   14.63
  -2 -10   4   72.79   17.72
  -2  10  -4   94.08   12.24
   2 -10  -4   95.63   18.67
  -2  10  -4   84.68   17.15
   2  10   4   87.36   16.40
  -2  10  -5   25.11   12.75
   2  10   5   23.85   12.06
  -2 -10   5   22.82   14.17
  -2  10  -5   13.70    6.66
   2 -10  -5   14.82   10.80
  -2 -10   6  142.19   23.97
  -2  10  -6  153.52   21.25
   2  10   6  128.99   22.44
   2 -10  -6  141.23   22.17
   2  10   7   51.53   19.93
  -2 -10   7   52.97   17.55
   2 -10  -7   50.04   16.60
  -2  10  -7   79.83   18.47
  -2  10  -8  186.44   25.24
  -2 -10   8  249.70   31.53
   2 -10  -8  218.98   29.26
   2 -10  -8  220.83   35.76
   2  10   8  189.69   32.24
  -2  10  -9   74.22   18.98
   2  10   9  106.40   28.95
  -2 -10   9  105.76   22.89
   2 -10  -9   87.21   21.46
   2 -10  -9  126.66   28.73
   2 -10 -10   29.04   18.27
  -2  10 -10   19.81   14.73
   2  10  10   10.11   17.23
  -2 -10  10   49.48   18.12
   2 -10 -10   61.24   21.25
  -2 -10  10   22.90   11.91
  -2  10 -11   35.66   17.04
  -2 -10  11   15.80   16.90
   2 -10 -11   18.54   14.54
   2  10  11   58.80   28.83
   2 -10 -11   26.31   14.76
  -2 -10  11   30.15   14.49
  -2  10 -12  176.29   29.43
  -2 -10  12  178.33   30.52
   2  10  12  205.08   43.41
   2 -10 -12  172.31   31.17
  -2 -10  12  223.10   29.28
  -2  10 -13  153.52   30.08
  -2 -10  13  187.58   33.22
   2  10  13  163.31   39.48
  -2 -10  13  176.54   30.23
   2 -10 -13  158.34   30.55
  -2 -10  13  176.92   28.28
  -2  10 -14   54.75   24.41
   2  10  14   -9.92   24.89
  -2 -10  14   25.58   17.33
   2 -10 -14   30.98   17.35
  -2 -10  14   70.76   21.77
   2  10  15   64.92   35.03
  -2  10 -15   11.63   21.80
  -2 -10  15   29.76   17.49
   2 -10 -15    7.91   20.25
  -2 -10  15   19.65   16.32
  -2 -10  16   65.95   22.64
  -2  10 -16   46.52   25.77
  -2 -10  16   50.14   20.24
  -2 -11 -16   14.23   17.32
  -2 -11 -15   67.39   21.62
  -2  11  14  -25.16   22.00
  -2 -11 -14   38.85   18.16
   2  11 -14   46.02   24.11
   2 -11  14   65.16   24.79
  -2  11  14   51.39   25.16
  -2  11  13   36.73   22.12
  -2 -11 -13    6.90   14.97
   2  11 -13   24.81   19.76
   2 -11  13   51.88   24.20
  -2  11  13   46.60   22.53
  -2 -11 -12   -8.43   14.26
  -2  11  12    9.89   19.31
   2  11 -12   -0.07   14.69
   2 -11  12    5.86   14.50
  -2  11  12   21.22   18.28
  -2 -11 -11   82.40   22.35
  -2  11  11   84.42   26.28
   2  11 -11  121.86   25.51
  -2  11  11  112.58   28.92
  -2 -11 -10   40.03   16.57
   2 -11  10   58.13   20.25
   2  11 -10   29.59   15.83
  -2  11  10   11.00   16.55
   2 -11  10   20.43   19.71
  -2  11  10   21.93   17.94
   2 -11   9  288.92   38.37
  -2 -11  -9  238.83   31.86
   2  11  -9  261.39   30.76
  -2  11   9  307.95   39.90
   2 -11   9  196.74   34.63
  -2  11   9  263.63   36.93
  -2 -11  -8   32.78   15.09
   2  11  -8   59.84   16.94
  -2  11   8   52.99   20.34
   2 -11   8   42.68   19.30
  -2  11   8   44.62   19.34
  -2 -11  -7   11.42   12.26
   2 -11   7   31.96   15.02
  -2  11   7   30.73   16.17
   2  11  -7   19.79   14.13
  -2  11   7   34.47   18.68
   2  11  -6   58.46   16.85
   2 -11   6   11.14   15.31
  -2  11   6   27.38   16.57
  -2 -11  -6   22.54   10.07
  -2 -11  -6   16.16   14.55
  -2  11   6   21.73   16.80
  -2 -11  -5  464.52   39.03
  -2  11   5  500.64   42.84
   2  11  -5  458.15   35.87
   2 -11   5  532.63   51.98
  -2 -11  -5  476.02   28.97
  -2  11   5  528.89   43.10
  -2 -11  -4   77.91   17.64
   2 -11   4   95.95   25.56
   2  11  -4  114.65   19.02
  -2  11   4   78.22   19.07
  -2 -11  -4   93.95   14.16
  -2  11   4  122.33   20.20
  -2 -11  -3  102.24   20.20
   2  11  -3  102.01   18.38
   2 -11   3  145.48   28.69
  -2  11   3  106.23   20.25
  -2 -11  -2   15.87   13.36
   2  11  -2   12.38   10.78
   2 -11   2   21.03   16.72
   2 -11   2   -4.30   24.22
  -2  11   2    2.12   10.74
  -2 -11  -1  332.02   33.19
  -2  11   1  357.40   32.32
  -2  11   1  355.50   23.54
   2  11  -1  354.47   30.34
   2 -11   1  289.63   38.23
   2 -11   1  352.50   29.96
   2 -11   1  354.28   63.02
  -2  11   0    6.15    7.24
   2  11   0    0.18   10.90
   2 -11   0   -1.36   13.40
  -2 -11   0    6.21   12.52
   2 -11   0   26.74   33.88
   2 -11   0   11.85   10.62
  -2  11   0   21.67   12.45
  -2 -11   1  336.56   33.61
  -2  11  -1  358.87   31.55
   2  11   1  357.04   30.26
  -2  11  -1  376.89   23.15
   2 -11  -1  364.04   42.80
   2 -11  -1  346.64   30.05
   2 -11  -1  306.84   58.20
   2  11   2    5.54    8.01
   2  11   2    6.07   10.61
  -2  11  -2    2.74    6.02
   2 -11  -2    0.77   24.13
  -2 -11   2   -3.16   12.37
   2 -11  -2    8.53   11.95
  -2  11  -2   13.83   11.19
   2  11   3   95.43   15.98
  -2 -11   3   76.34   19.54
   2  11   3   76.65   15.33
  -2  11  -3   80.84   11.98
   2 -11  -3   52.63   28.28
   2 -11  -3   82.60   17.65
  -2  11  -3   69.47   15.81
   2  11   4  118.47   19.59
  -2 -11   4  100.87   19.96
  -2  11  -4  110.67   13.41
   2 -11  -4  109.33   19.28
  -2  11  -4  102.42   17.82
   2  11   4  121.90   19.37
  -2  11  -5  484.88   35.79
  -2 -11   5  490.06   41.04
  -2  11  -5  480.30   36.60
   2  11   5  485.77   36.71
   2 -11  -5  465.31   38.06
   2  11   5  424.44   35.36
   2  11   6   14.44   10.84
  -2  11  -6   16.50   12.33
  -2 -11   6   25.61   15.01
   2 -11  -6   41.49   14.80
  -2  11  -7   33.06   13.88
   2  11   7   34.38   16.06
  -2 -11   7   58.80   20.95
   2 -11  -7   24.18   15.01
  -2  11  -8   60.05   17.37
  -2 -11   8   62.79   18.97
   2  11   8   62.55   19.87
   2 -11  -8  103.85   23.97
   2 -11  -9  256.69   40.68
  -2  11  -9  265.26   30.81
  -2 -11   9  300.03   36.61
   2 -11  -9  282.51   33.81
   2  11   9  281.66   39.29
  -2  11 -10   46.16   17.95
   2  11  10   69.42   26.20
  -2 -11  10   44.37   19.23
   2 -11 -10   52.86   20.62
   2 -11 -10   26.58   16.68
  -2 -11  10   47.29   14.36
  -2  11 -11   92.90   23.24
   2  11  11  130.01   34.21
  -2 -11  11  160.92   29.41
   2 -11 -11  108.92   25.69
  -2 -11  11  120.26   21.43
   2  11  12   13.98   21.35
  -2  11 -12    7.26   15.11
   2 -11 -12   40.66   22.36
  -2 -11  12   33.38   15.37
  -2 -11  12   25.90   17.20
   2  11  13   12.52   23.79
  -2 -11  13   32.47   20.05
  -2 -11  13   27.66   18.67
   2 -11 -13   30.59   18.55
  -2 -11  13   44.03   18.30
  -2  11 -13   49.52   22.58
  -2  11 -14   21.59   18.25
   2  11  14   45.75   29.48
  -2 -11  14   63.73   22.15
   2 -11 -14   23.20   20.74
  -2 -11  14   70.30   21.37
  -2 -11  15  175.63   32.99
  -2  11 -15  187.51   36.94
  -2 -11  15   95.15   23.84
  -2 -12 -15  -24.65   13.98
  -2 -12 -14  152.28   29.31
  -2  12  14  201.23   39.33
  -2 -12 -13  121.78   25.96
  -2  12  13   92.11   27.20
   2  12 -13  158.70   29.61
   2 -12  13  151.73   35.18
  -2  12  13  165.41   36.47
  -2 -12 -12  383.62   42.28
   2  12 -12  478.61   47.00
   2 -12  12  438.34   53.08
  -2  12  12  411.20   52.43
  -2  12  12  564.41   58.29
  -2 -12 -11   41.65   17.28
  -2  12  11   27.82   19.02
   2  12 -11   26.54   19.67
   2 -12  11   49.55   22.95
  -2  12  11   27.20   19.07
  -2 -12 -10   -6.57   13.15
   2 -12  10  -17.30   20.22
   2  12 -10   42.25   18.15
  -2  12  10   26.51   20.22
   2 -12  10  -23.42   23.55
  -2  12  10   -7.78   16.34
  -2 -12  -9   21.95   14.74
   2 -12   9   61.78   20.82
   2  12  -9   15.57   15.26
  -2  12   9   56.23   24.01
   2 -12   9   49.97   21.93
  -2  12   9   50.59   20.62
  -2  12   8 1163.67   72.45
   2  12  -8 1035.96   58.12
   2 -12   8 1075.88   78.92
  -2  12   8 1142.85   72.89
  -2 -12  -8  987.41   61.06
   2  12  -7  244.80   29.18
  -2 -12  -7  185.73   27.80
   2 -12   7  250.80   39.50
  -2  12   7  272.13   35.68
  -2  12   7  230.71   32.69
  -2  12   6  425.72   41.33
   2  12  -6  404.74   35.68
   2 -12   6  356.91   46.76
  -2 -12  -6  360.67   36.37
   2  12  -5   43.02   16.83
   2 -12   5   35.71   18.40
  -2  12   5   49.06   17.90
  -2 -12  -5   30.43   14.85
  -2  12   4  700.14   49.97
  -2 -12  -4  669.94   47.50
   2  12  -4  684.06   44.49
   2 -12   4  699.17   62.28
  -2 -12  -3  459.87   40.03
   2  12  -3  499.79   37.55
   2 -12   3  418.56   48.70
   2 -12   3  420.16   63.50
  -2  12   3  472.74   39.88
  -2 -12  -2 1432.93   68.16
  -2  12   2 1496.81   50.75
   2  12  -2 1491.85   62.48
   2 -12   2 1409.80   86.10
   2 -12   2 1301.98  113.80
  -2  12   2 1595.70   69.65
  -2  12   1  224.40   20.34
   2  12  -1  220.16   25.49
  -2 -12  -1  223.82   28.82
   2 -12   1  229.15   34.85
   2 -12   1  180.47   48.77
  -2  12   1  210.08   26.60
  -2 -12   0   -6.46   14.12
  -2  12   0   -3.09    8.47
   2  12   0  -14.92   12.73
   2 -12   0   -6.41   16.27
   2 -12   0  -14.39   33.45
  -2  12   0   -3.03   12.52
   2 -12   0  -12.19   11.99
  -2 -12   1  251.14   29.65
  -2  12  -1  221.00   19.62
   2  12   1  242.88   25.75
   2 -12  -1  235.75   59.03
   2 -12  -1  235.84   27.08
  -2  12  -1  220.81   26.35
  -2  12  -2 1452.02   63.42
   2  12   2 1474.25   61.63
  -2  12  -2 1523.31   48.71
   2 -12  -2 1353.00  123.55
   2 -12  -2 1499.91   63.48
  -2 -12   2 1443.96   69.17
  -2 -12   3  474.34   40.72
  -2  12  -3  466.35   36.88
   2  12   3  547.25   38.48
   2 -12  -3  502.24   38.39
   2 -12  -3  451.06   72.15
   2  12   3  447.08   31.64
  -2  12  -4  665.80   43.98
   2  12   4  705.20   44.13
   2 -12  -4  648.12   44.82
   2 -12  -4  606.21   79.00
   2  12   4  677.51   41.15
  -2 -12   4  740.71   51.21
  -2  12  -5   39.92   15.57
   2  12   5   59.16   16.26
  -2 -12   5   34.27   14.43
   2  12   5   70.94   18.53
   2 -12  -5   21.50   12.39
  -2  12  -5   46.07   14.81
  -2  12  -6  458.39   36.81
  -2 -12   6  426.38   41.06
  -2  12  -6  373.82   34.42
   2  12   6  413.43   36.29
   2 -12  -6  346.09   35.37
   2  12   6  353.90   35.00
  -2  12  -7  283.41   30.37
  -2 -12   7  302.90   36.88
   2  12   7  180.64   28.42
   2 -12  -7  204.05   27.93
  -2  12  -8 1123.46   59.51
  -2 -12   8 1078.28   66.22
   2 -12  -8 1019.31   60.82
   2  12   8 1038.80   68.11
  -2  12  -9   56.13   18.27
   2  12   9   31.00   19.43
  -2 -12   9   50.83   16.63
   2 -12  -9   82.17   21.87
  -2  12 -10    6.86   15.13
  -2 -12  10  -30.07   18.61
   2 -12 -10    6.03   14.87
   2  12  10   23.74   21.60
   2 -12 -10   -8.06   15.21
  -2  12 -11   41.28   18.32
   2  12  11   11.05   21.67
  -2 -12  11   54.38   20.94
   2 -12 -11   29.68   17.87
  -2 -12  11   36.01   14.80
  -2  12 -12  482.36   46.60
  -2 -12  12  529.10   51.56
   2  12  12  468.94   58.63
   2 -12 -12  504.42   49.29
  -2 -12  12  453.58   41.27
  -2 -12  13  191.27   34.29
  -2 -12  13  118.64   27.29
   2 -12 -13  161.23   31.73
   2  12  13   99.30   32.01
  -2 -12  13  116.22   23.84
  -2  12 -13  100.67   24.95
   2  12  14  177.18   39.80
  -2  12 -14  167.37   32.22
  -2 -12  14  184.04   33.35
  -2 -12  14  180.56   30.26
  -2 -13 -14  -10.50   15.67
  -2 -13 -13   89.41   23.48
   2 -13  13  105.76   28.49
  -2  13  13   45.02   22.30
  -2 -13 -12   28.19   16.70
  -2  13  12   61.19   24.73
   2  13 -12   26.92   17.33
   2 -13  12   67.77   26.29
  -2  13  12   24.20   21.59
  -2 -13 -11   42.35   19.21
  -2  13  11   21.90   17.00
   2  13 -11   27.33   18.04
   2 -13  11   33.67   20.00
  -2  13  11   64.30   25.15
  -2 -13 -10   13.60   12.75
   2 -13  10   77.41   24.85
   2  13 -10   29.90   18.12
  -2  13  10   19.29   19.90
   2 -13  10   29.10   18.22
  -2  13  10   13.40   17.58
   2  13  -9  196.88   29.12
  -2  13   9  223.90   36.96
   2 -13   9  186.80   35.04
  -2 -13  -9  167.12   29.46
  -2 -13  -8    2.96   14.43
   2  13  -8   31.97   18.78
  -2  13   8   11.19   14.04
   2 -13   8   14.16   16.80
  -2 -13  -7   61.18   17.97
   2  13  -7   58.26   18.60
   2 -13   7   35.98   20.77
  -2  13   7   53.06   21.87
  -2 -13  -6   21.09   14.01
   2  13  -6    9.15   14.12
   2 -13   6   48.38   21.93
  -2  13   6   28.88   18.46
   2  13  -5  251.03   30.28
   2 -13   5  195.00   36.46
  -2  13   5  290.90   34.96
  -2 -13  -5  195.16   28.67
  -2 -13  -4    6.57   12.26
   2  13  -4   27.31   16.28
   2 -13   4  -14.04   19.71
  -2  13   4   28.89   17.04
   2 -13   4   14.70   25.51
  -2 -13  -3  202.97   28.57
  -2  13   3  242.56   23.28
   2  13  -3  252.12   28.44
   2 -13   3  227.58   38.17
  -2  13   3  221.41   29.13
   2 -13   3  149.83   43.88
  -2 -13  -2   -0.73   12.13
  -2  13   2   19.03    8.28
   2  13  -2   17.00   13.84
   2 -13   2   18.46   15.24
  -2  13   2    9.44   13.55
   2 -13   2   -3.12   29.83
  -2 -13  -1  192.51   28.48
  -2  13   1  214.85   20.61
   2  13  -1  243.04   26.90
   2 -13   1  195.53   34.47
  -2  13   1  153.09   24.23
   2 -13   1  154.00   52.74
  -2 -13   0   50.45   18.53
  -2  13   0   12.18    8.45
   2  13   0   17.43   13.51
  -2  13   0    4.32   11.36
   2 -13   0    8.83   13.05
  -2 -13   1  212.53   30.46
  -2  13  -1  209.67   20.63
   2  13   1  184.45   24.91
   2 -13  -1  136.16   49.43
  -2  13  -1  217.78   26.82
   2 -13  -1  206.19   27.08
  -2 -13   2    2.16   13.12
   2  13   2   29.68   13.57
   2 -13  -2   33.29   40.00
   2 -13  -2   23.81   15.27
  -2  13  -2   20.96   12.87
  -2 -13   3  228.20   31.78
   2  13   3  245.83   28.34
   2 -13  -3  224.71   59.91
   2 -13  -3  200.24   25.67
  -2  13  -3  217.98   27.46
   2  13   4   18.79   11.14
  -2 -13   4   -4.72   14.67
   2  13   4   24.60   14.52
   2 -13  -4   10.70   25.39
   2 -13  -4   20.64   13.03
  -2  13  -4    9.28   10.40
  -2  13  -5  247.65   28.09
   2  13   5  217.35   26.42
  -2 -13   5  239.70   32.67
   2  13   5  261.75   30.14
   2 -13  -5  194.75   46.91
   2 -13  -5  220.99   29.44
  -2  13  -5  218.51   28.08
  -2  13  -6   33.35   14.21
   2  13   6   26.46   15.11
  -2 -13   6   20.59   14.14
   2 -13  -6   30.62   16.19
  -2  13  -6   12.84   12.54
   2  13   6   57.96   20.43
  -2  13  -7   44.54   16.82
   2  13   7   48.64   16.92
  -2 -13   7   52.29   19.40
   2 -13  -7   50.97   16.26
  -2  13  -7   61.13   17.28
  -2  13  -8   -4.61   13.93
   2  13   8   12.74   16.03
  -2 -13   8   47.05   21.84
   2 -13  -8    8.29   15.11
  -2  13  -8   -5.01   10.14
  -2  13  -9  234.92   31.33
   2  13   9  193.63   32.97
  -2 -13   9  221.35   35.14
   2 -13  -9  208.63   31.06
  -2 -13  10   31.43   17.23
   2  13  10   29.57   19.28
  -2  13 -10   13.21   15.09
   2 -13 -10   10.33   16.37
   2 -13 -10   53.18   19.59
  -2  13 -11   46.50   18.16
  -2 -13  11   41.21   21.88
   2 -13 -11   33.68   21.72
  -2 -13  11   43.74   16.19
   2  13  11   31.33   18.51
  -2  13 -12   32.25   20.41
   2  13  12   12.12   18.58
  -2 -13  12   31.83   20.15
   2 -13 -12   38.04   17.95
  -2 -13  12   19.21   11.40
  -2  13 -13  121.82   29.45
   2  13  13   65.52   24.66
  -2 -13  13   97.18   25.71
  -2  13 -14   28.79   20.72
  -2 -14 -13   69.01   21.98
  -2 -14 -12   30.57   17.04
   2 -14  12   55.70   23.62
   2  14 -11   22.65   18.94
   2 -14  11   -6.24   17.41
  -2  14  11   31.92   22.86
  -2 -14 -11   -8.31   15.39
  -2 -14 -10   -5.70   13.57
   2  14 -10  -20.59   19.37
  -2  14  10   17.35   20.86
   2 -14  10  -11.03   21.17
   2 -14  10    0.50   16.97
  -2 -14  -9  166.23   29.36
   2  14  -9  191.02   29.55
  -2  14   9  227.65   38.30
   2 -14   9  256.30   42.74
  -2 -14  -8   64.86   20.22
   2  14  -8   67.95   20.79
  -2  14   8   80.98   24.76
   2 -14   8  119.68   32.70
  -2 -14  -7   40.34   17.01
   2  14  -7   40.58   18.80
   2 -14   7   43.96   24.41
  -2  14   7   34.82   21.55
  -2 -14  -6   27.45   16.11
   2  14  -6   18.10   13.46
   2 -14   6   14.52   18.37
  -2  14   6    1.72   16.25
  -2 -14  -5  157.14   26.53
   2  14  -5  162.45   25.32
   2 -14   5  194.94   37.23
  -2  14   5  220.63   32.81
  -2 -14  -4   -8.45   12.49
   2  14  -4   -6.28   17.08
   2 -14   4   -8.07   19.54
  -2  14   4  -14.56   13.87
   2 -14   4   44.04   34.53
  -2 -14  -3  148.69   26.71
  -2  14   3  122.09   18.01
   2  14  -3  131.37   22.64
   2 -14   3   98.93   29.20
  -2  14   3  109.63   23.44
   2 -14   3  152.36   41.58
  -2 -14  -2  109.57   22.07
  -2  14   2  100.55   16.19
   2  14  -2   42.99   16.14
   2 -14   2   45.07   22.04
  -2  14   2   85.85   21.52
   2 -14   2  156.19   49.68
  -2 -14  -1  124.50   23.66
  -2  14   1  156.34   18.96
   2  14  -1  173.78   25.94
  -2  14   1  185.95   27.30
   2 -14   1  126.30   48.83
   2  14   0   30.90   14.18
  -2  14   0   21.90   14.65
   2 -14   0   26.33   51.39
  -2 -14   0   34.54   18.14
  -2 -14   1  164.97   27.58
   2  14   1  168.77   24.29
  -2  14  -1  176.54   27.02
   2 -14  -1   74.40   50.30
   2 -14  -1  144.54   23.66
  -2 -14   2   73.91   19.44
   2  14   2  103.31   21.59
   2 -14  -2   58.34   37.05
  -2  14  -2   73.94   17.94
   2 -14  -2   86.99   20.97
  -2 -14   3  121.98   24.76
   2  14   3  150.51   23.75
   2 -14  -3  118.63   23.09
  -2  14  -3  120.15   22.10
  -2 -14   4   -1.19   13.90
   2  14   4   18.23   14.00
   2 -14  -4    6.75   25.11
   2 -14  -4  -32.93   18.29
  -2  14  -4   -3.29   11.26
  -2  14  -5  181.07   26.44
  -2 -14   5  190.56   31.49
   2 -14  -5  173.14   46.49
   2 -14  -5  204.48   29.66
   2  14   5  145.10   23.93
  -2  14  -5  182.54   25.94
  -2  14  -6   24.86   14.75
  -2 -14   6    8.67   15.97
   2  14   6   33.44   16.88
   2 -14  -6   50.99   18.98
  -2  14  -6   28.43   13.86
  -2  14  -7   26.70   15.13
   2  14   7   17.74   14.21
  -2 -14   7   17.03   17.79
   2  14   7   84.26   22.76
   2 -14  -7   24.13   16.79
  -2  14  -7   35.17   15.07
  -2  14  -8   62.19   18.98
   2  14   8   59.83   18.67
  -2 -14   8   98.98   25.62
   2 -14  -8   59.57   19.69
  -2  14  -8   72.03   19.68
  -2  14  -9  206.35   30.84
   2  14   9  181.56   32.26
   2 -14  -9  201.01   31.70
  -2 -14   9  226.20   35.92
  -2  14  -9  207.21   29.88
  -2  14 -10   23.08   16.01
   2  14  10  -33.72   22.79
  -2 -14  10    2.53   16.49
   2 -14 -10   30.52   19.58
  -2  14 -10   16.45   14.68
  -2  14 -11   38.30   19.98
   2  14  11   -9.06   19.95
  -2 -14  11    8.16   16.24
   2 -14 -11   22.74   20.09
  -2 -14  11   24.05   12.45
  -2  14 -12   87.83   23.47
   2  14  12   98.78   29.46
  -2  14 -13  128.31   29.62
  -2 -15 -11   20.66   15.84
  -2 -15 -10  151.55   28.31
   2 -15  10  277.33   44.23
  -2 -15  -9   30.96   17.55
   2  15  -9   34.22   19.47
  -2  15   9   39.29   20.43
   2 -15   9   45.53   23.59
   2  15  -8  166.97   28.04
  -2  15   8  161.03   33.57
   2 -15   8  145.05   33.70
  -2 -15  -8  115.40   25.82
  -2 -15  -7   21.56   16.98
   2  15  -7    0.51   15.44
  -2  15   7    8.13   14.79
   2 -15   7   28.93   21.36
  -2 -15  -6  461.14   45.07
  -2  15   6  544.96   52.22
   2  15  -6  495.46   44.50
   2 -15   6  582.32   62.85
   2  15  -5   89.72   21.87
  -2 -15  -5  137.55   26.00
   2 -15   5  131.89   32.06
  -2  15   5  131.31   28.25
  -2  15   4  383.67   42.20
  -2 -15  -4  315.50   37.17
  -2  15   4  334.39   30.41
   2  15  -4  323.29   34.50
   2 -15   4  254.62   45.14
   2 -15   4  409.06   70.17
  -2 -15  -3   53.43   21.55
   2  15  -3   18.33   14.87
  -2  15   3    1.92   14.43
   2 -15   3  -12.72   30.63
  -2 -15  -2  292.48   35.58
   2  15  -2  298.29   33.88
  -2  15   2  286.52   35.90
   2 -15   2  192.68   54.94
  -2 -15  -1  141.97   27.24
   2  15  -1  108.51   24.01
  -2  15   1   92.71   22.20
   2 -15   1   68.06   42.64
  -2 -15   0  652.76   52.79
  -2  15   0  689.11   51.44
   2  15   0  671.40   47.14
  -2 -15   1  103.76   25.05
   2  15   1  106.05   22.60
  -2  15  -1  102.65   21.92
   2 -15  -1   67.93   50.47
   2 -15  -1  119.31   23.07
   2  15   2  261.70   30.84
  -2 -15   2  265.30   35.15
  -2  15  -2  272.73   32.14
   2 -15  -2  195.39   59.72
   2 -15  -2  264.59   31.94
  -2 -15   3   24.67   15.42
   2  15   3   39.59   18.08
  -2  15  -3   16.09   12.16
   2 -15  -3   11.76   14.92
  -2  15  -4  319.70   34.80
  -2 -15   4  368.66   41.69
   2  15   4  377.52   38.18
   2 -15  -4  339.39   36.68
   2 -15  -4  326.17   62.86
  -2  15  -4  336.46   35.15
  -2  15  -5  135.45   24.40
  -2 -15   5  145.77   30.13
   2  15   5  122.74   24.09
   2 -15  -5  136.15   43.55
   2 -15  -5  164.61   28.83
  -2  15  -5  101.02   20.93
  -2  15  -6  502.16   41.77
  -2 -15   6  483.71   48.99
  -2  15  -6  458.93   41.85
   2  15   6  487.93   43.32
   2 -15  -6  496.41   45.35
  -2  15  -7   20.53   13.52
  -2 -15   7   -5.11   19.53
   2  15   7   24.13   17.62
   2 -15  -7   29.63   15.96
  -2  15  -7    1.91   11.96
  -2  15  -8  140.44   25.12
  -2 -15   8  200.64   36.00
   2  15   8  175.64   30.08
   2 -15  -8  177.11   31.71
  -2  15  -8  132.12   24.24
  -2 -15   9    9.93   17.14
   2  15   9   32.75   19.36
  -2  15  -9   13.33   12.49
  -2  15  -9   32.98   14.73
  -2  15 -10  183.04   28.91
  -2  15 -10  149.24   26.89
  -2  15 -11   43.25   19.65
   2  15  11   33.69   19.46
  -2  15 -11   10.07   13.03
  -2  15 -12   89.02   25.90
   2  15  12  101.33   29.63
  -2 -16 -10   25.73   18.02
  -2 -16  -9   66.50   22.15
   2 -16   9  114.88   34.13
  -2 -16  -8   -1.45   14.42
   2  16  -8  -18.75   16.05
  -2  16   8    8.35   16.43
   2 -16   8    6.61   18.64
  -2 -16  -7  114.52   26.51
   2  16  -7  128.68   26.32
  -2  16   7  139.23   30.19
   2 -16   7  122.16   30.03
  -2 -16  -6   41.21   20.71
   2  16  -6  100.45   24.59
   2 -16   6   54.73   27.95
  -2  16   6   15.59   16.86
  -2  16   5  431.57   47.42
   2  16  -5  496.14   45.14
   2 -16   5  426.76   56.80
  -2 -16  -5  419.10   44.47
  -2 -16  -4   56.90   20.04
   2  16  -4   96.38   25.38
  -2  16   4   23.77   20.07
   2 -16   4   92.41   38.56
  -2 -16  -3  122.00   25.46
   2  16  -3   84.29   21.53
  -2  16   3  123.59   26.48
   2 -16   3   53.97   31.88
  -2 -16  -2   31.19   18.12
   2  16  -2   27.27   15.42
  -2  16   2   29.96   19.80
   2 -16   2   14.58   30.67
  -2  16   1  390.06   41.53
  -2 -16  -1  354.60   40.53
   2  16  -1  357.69   37.08
   2 -16   1  308.00   69.06
  -2 -16   0   36.30   18.87
   2  16   0   47.22   19.37
  -2  16   0   33.06   16.53
   2 -16   0   72.43   51.54
  -2 -16   1  364.27   42.31
  -2  16  -1  391.78   40.23
   2  16   1  338.82   37.20
   2 -16  -1  317.84   72.59
  -2 -16   2   28.57   18.61
   2  16   2   15.33   13.40
  -2  16  -2   25.09   15.77
   2 -16  -2   65.78   36.54
   2 -16  -2   15.75   14.20
  -2 -16   3  123.51   26.83
   2  16   3  122.95   24.52
   2 -16  -3  135.62   45.85
  -2  16  -3  124.12   24.15
   2 -16  -3  140.52   26.36
  -2  16  -4   44.29   18.14
  -2 -16   4   77.73   25.70
   2  16   4   27.78   16.09
   2 -16  -4   13.51   25.36
  -2  16  -4   30.10   15.59
   2 -16  -4   40.21   18.16
  -2  16  -5  440.91   39.83
  -2 -16   5  493.57   50.60
  -2  16  -5  369.09   38.49
   2  16   5  481.64   44.44
   2 -16  -5  428.97   42.41
  -2  16  -6   64.40   19.94
  -2 -16   6   64.76   20.86
   2  16   6   84.17   22.66
   2 -16  -6   85.92   23.56
  -2  16  -6   67.01   20.01
  -2  16  -7  142.25   25.68
  -2 -16   7  129.62   30.29
   2  16   7  173.63   32.74
   2 -16  -7  115.68   27.53
  -2  16  -7   85.05   21.11
  -2 -16   8  -11.97   18.67
   2  16   8    3.84   19.32
  -2  16  -8  -32.66   17.69
  -2  16  -8  -16.49   16.29
  -2  16  -9   92.67   23.02
  -2  16  -9   90.96   22.59
  -2  16 -10   44.12   18.40
  -2  16 -10   35.08   17.37
  -2 -17  -8  -33.89   20.84
   2 -17   8    1.64   19.94
   2 -17   7   43.47   23.04
  -2 -17  -7   16.96   15.99
  -2 -17  -6  -11.98   17.88
  -2  17   6   25.66   21.80
  -2 -17  -5  -14.63   15.76
   2  17  -5   18.78   17.97
  -2  17   5   15.30   15.37
  -2 -17  -4   47.80   19.14
   2  17  -4   73.95   22.45
  -2  17   4   35.77   18.74
   2 -17   4   47.00   30.44
  -2 -17  -3   98.03   24.76
   2  17  -3  138.89   26.62
  -2  17   3  138.71   27.73
   2 -17   3   49.31   32.76
   2  17  -2    3.43   15.29
  -2  17   2    2.38   15.96
  -2 -17  -2   39.16   19.60
   2 -17   2  -20.17   43.27
   2  17  -1   11.66   14.71
  -2  17   1   36.00   19.22
   2 -17   1    1.32   23.17
  -2 -17  -1   40.19   20.73
  -2 -17   0   35.58   17.47
   2  17   0   44.31   19.73
  -2  17   0   23.26   14.47
   2 -17   0   48.23   31.05
   2  17   1   73.21   22.81
  -2 -17   1   38.66   20.04
  -2  17  -1   25.70   15.05
   2 -17  -1    5.77   28.26
  -2 -17   2   31.33   20.38
   2  17   2   68.71   22.71
  -2  17  -2   23.30   17.50
   2 -17  -2   19.37   35.93
  -2 -17   3  138.81   30.77
   2  17   3  116.35   24.45
   2 -17  -3  189.38   54.39
  -2  17  -3   99.23   23.44
   2 -17  -3  106.33   26.24
  -2  17  -4   95.86   22.50
  -2 -17   4   57.83   23.64
   2  17   4   61.90   22.50
   2 -17  -4   98.49   40.53
  -2  17  -4   79.66   21.18
   2 -17  -4   74.68   24.47
  -2  17  -5  -12.98   13.49
  -2 -17   5    4.77   18.55
   2 -17  -5  -54.31   31.16
  -2  17  -5  -10.78   13.75
   2 -17  -5  -19.54   19.02
  -2  17  -6   15.01   13.52
  -2  17  -6   -4.10   15.62
  -2  17  -7   77.00   23.14
  -2  17  -7   83.55   21.81
  -2  17  -8   11.67   14.20
  -2  17  -8   16.10   15.58
  -2 -18  -5   25.58   18.53
  -2 -18  -4  100.08   24.75
  -2 -18  -3    8.37   17.64
  -2  18   3   11.34   16.69
  -2 -18  -2   -7.69   18.53
  -2  18   2   51.27   19.74
  -2 -18  -1   16.38   18.34
  -2  18   1  -14.63   16.50
  -2 -18   0  166.49   32.39
  -2  18   0  130.11   28.08
  -2 -18   1  -31.11   22.43
  -2  18  -1    0.75   13.19
  -2  18  -2    8.87   15.15
  -2  18  -3    4.77   14.87
  -2  18  -3   12.26   14.10
  -2  18  -4  157.08   27.41
  -2  18  -4  121.79   25.36
  -2  18  -5  -12.36   15.01
  -2  18  -5    3.88   12.62
  -3   0   0   -1.65    7.01
   3   0   0    2.71    4.84
   3   0   0  -19.78   18.28
   3   0   0    1.24    2.66
   3   0   0  -17.91   18.91
  -3   0  -1   12.79    8.32
  -3   0  -1   21.67    8.85
   3   0   1   27.86    5.41
   3   0  -1   24.54    7.37
   3   0  -1   15.58    4.50
   3   0   1   44.35   17.38
   3   0  -1   11.84   15.33
  -3   0   1   23.20    7.81
  -3   0   1   13.74    7.04
   3   0   1   30.97   18.76
   3   0  -1   24.97   18.06
  -3   0  -2  402.83   25.48
  -3   0   2  424.74   24.48
   3   0  -2  375.64   39.53
   3   0   2  427.87   41.31
  -3   0   2  449.99   24.62
   3   0   2  431.76   13.63
   3   0  -2  435.98   25.18
   3   0  -2  412.95   18.25
   3   0   2  393.76   38.80
   3   0  -2  401.46   37.49
  -3   0  -3  105.80   15.32
  -3   0   3   86.13   11.82
   3   0   3   94.35    6.37
   3   0  -3   90.74   14.97
   3   0   3   99.46   23.17
   3   0  -3   83.04   10.75
   3   0  -3   98.46   23.55
  -3   0   3   70.50   11.04
   3   0   3   90.42   15.90
  -3   0   3   74.35   14.75
   3   0   3   88.03   20.97
   3   0  -3   97.39   20.91
  -3   0  -4  179.74   20.44
  -3   0   4  172.96   15.21
  -3   0   4  177.61   17.37
   3   0   4  167.14    8.72
   3   0  -4  192.20   20.59
   3   0  -4  153.57   15.62
   3   0   4  185.71   27.58
   3   0  -4  156.79   26.97
   3   0   4  150.41   21.52
  -3   0   4  169.15   21.74
   3   0   4  179.49   28.08
   3   0  -4  170.73   27.52
  -3   0  -5   35.64   14.36
  -3   0   5   36.54    8.61
   3   0   5   35.70    5.66
   3   0  -5   38.80   13.97
   3   0   5    9.35   14.24
   3   0  -5   55.45   19.66
  -3   0   5   40.51   10.43
   3   0  -5   51.84   12.69
   3   0   5   45.78   14.22
  -3   0   5   20.91   12.72
   3   0   5   36.76   15.06
   3   0  -5   68.72   20.53
  -3   0  -6  430.86   33.40
   3   0  -6  381.01   38.83
  -3   0   6  432.44   28.91
  -3   0   6  404.28   23.37
   3   0  -6  406.27   33.30
   3   0   6  401.95   35.53
   3   0  -6  416.81   30.33
  -3   0   6  431.52   34.97
   3   0   6  463.09   40.86
   3   0  -6  404.55   36.72
   3   0   7   98.56   18.76
  -3   0  -7  104.56   20.37
  -3   0   7  121.83   14.06
   3   0  -7   99.28   19.69
  -3   0   7  125.18   17.80
   3   0  -7  116.05   19.38
   3   0   7  101.14   21.55
  -3   0   7  119.22   21.48
   3   0   7  130.47   22.98
   3   0  -7   99.33   21.01
  -3   0  -8  311.05   33.35
  -3   0   8  268.52   21.06
   3   0  -8  262.19   31.84
   3   0  -8  275.47   28.99
   3   0   8  226.33   30.55
  -3   0   8  247.14   30.92
   3   0   8  258.89   30.44
  -3   0   8  257.42   27.13
   3   0   8  259.07   30.67
   3   0  -8  217.98   27.50
   3   0   9   33.72   15.73
  -3   0  -9   29.12   18.62
  -3   0   9   20.29   11.57
   3   0  -9   12.43   16.76
   3   0  -9   27.54   14.33
   3   0   9   15.63   16.48
  -3   0   9   59.77   20.84
   3   0   9   24.03   13.64
   3   0  -9    8.86   11.08
   3   0 -10  138.44   22.31
   3   0  10  138.90   26.49
  -3   0 -10  181.48   31.65
  -3   0  10  130.65   22.07
   3   0 -10  159.95   27.99
   3   0 -10  116.31   23.61
   3   0  10  144.03   27.42
  -3   0  10  164.07   29.77
   3   0  10  150.22   24.05
   3   0  11    3.83   10.71
   3   0 -11   -3.83   12.44
   3   0  11   13.61   15.91
  -3   0 -11    3.56   19.01
  -3   0  11    8.66   11.60
   3   0 -11   -5.65   14.09
   3   0 -11   13.03   14.99
   3   0  11   -2.54   14.59
  -3   0  11    3.62   15.35
   3   0  12  249.95   38.35
   3   0 -12  196.80   31.98
   3   0  12  234.34   36.28
  -3   0 -12  257.73   41.43
  -3   0  12  255.68   39.08
   3   0  13   52.69   21.43
  -3   0 -13   55.68   26.56
   3   0 -13   43.55   22.29
   3   0  13   67.23   20.97
  -3   0  13   45.63   24.31
   3   0  14   24.09   22.92
  -3   0 -14    8.96   20.33
   3   0 -14   36.14   21.15
   3   0  14   22.11   18.70
  -3   0  14   24.19   20.95
   3   0  15   19.83   24.62
  -3   0 -15  -36.93   26.93
   3   0 -15   44.32   24.81
   3   0  15   -5.09   18.29
  -3   0  15   20.30   19.92
   3   0  16  163.48   41.72
  -3   0 -16  121.54   39.80
   3   0 -16  163.21   33.72
   3   0  16  207.84   37.27
  -3   0  16  147.03   34.18
   3   0  17  -23.29   23.51
  -3   0 -17   33.30   25.49
   3   0 -17   26.66   21.74
   3  -1  17    9.34   18.59
   3   1 -17   42.58   21.65
   3  -1  16   -8.80   23.18
  -3  -1 -16    8.71   24.27
   3   1 -16   14.43   21.56
   3  -1  16   -6.33   16.10
  -3   1  16   -4.76   20.44
   3  -1  15  199.77   38.95
  -3  -1 -15  251.00   47.34
   3   1 -15  248.80   39.88
   3  -1  15  284.78   41.65
  -3   1  15  281.69   43.92
   3  -1  14  155.72   34.97
  -3  -1 -14  182.91   38.65
   3   1 -14  148.64   31.60
   3  -1  14  204.17   37.45
  -3   1  14  117.34   28.13
   3  -1  13   60.45   21.21
  -3  -1 -13   85.68   29.97
   3   1 -13  105.46   27.89
   3   1 -13  101.49   26.73
   3  -1  13   51.76   18.61
  -3   1  13   38.55   19.28
   3  -1  12   74.52   22.66
  -3  -1 -12   31.71   19.77
  -3   1  12   41.51   18.06
   3   1 -12   44.86   20.37
   3   1 -12   55.60   20.04
   3  -1  12   53.68   22.51
  -3   1  12   40.16   19.31
  -3  -1 -11  581.71   55.33
  -3   1  11  546.17   45.79
   3   1 -11  486.42   46.54
   3  -1  11  493.33   50.57
   3   1 -11  499.31   46.44
  -3   1  11  534.30   50.72
   3   1 -11  484.40   38.11
   3  -1  11  563.83   43.78
   3  -1  11  501.29   46.94
   3  -1  10  103.10   21.68
   3  -1  10  134.75   23.86
  -3  -1 -10  140.13   29.79
  -3   1  10  113.80   22.06
   3   1 -10  126.36   25.78
   3   1 -10   91.34   22.74
   3  -1  10  137.85   27.66
  -3   1  10   95.69   25.47
   3   1 -10  114.71   19.24
  -3  -1  -9  526.24   46.94
  -3   1   9  480.46   38.55
   3   1  -9  480.49   41.41
   3  -1   9  481.81   46.47
   3   1  -9  456.73   40.05
  -3   1   9  505.66   46.45
   3   1  -9  437.57   36.58
   3  -1   9  459.64   40.49
   3  -1   9  484.62   40.75
   3  -1   8  110.85   23.02
   3  -1   8  100.78   20.68
  -3  -1  -8  106.60   22.13
   3   1  -8  100.22   20.34
  -3   1   8  102.56   18.33
   3  -1   8  116.41   21.72
   3   1  -8   97.30   18.76
   3  -1   8   94.54   22.78
  -3   1   8   99.06   21.90
   3   1  -8   91.51   18.82
  -3  -1  -7  593.85   42.33
   3  -1   7  557.81   41.37
  -3   1   7  585.77   37.36
  -3   1   7  607.73   27.06
   3   1  -7  541.91   39.20
   3  -1   7  568.36   46.14
   3   1  -7  543.67   37.50
  -3   1   7  535.92   42.44
   3   1  -7  581.06   42.35
   3  -1   7  586.53   46.40
  -3  -1  -6   14.36   11.59
   3   1  -6   29.04   11.46
  -3   1   6   22.51    7.22
  -3   1   6   21.04    9.58
   3   1  -6   32.84   11.03
   3  -1   6   24.45   14.38
   3  -1   6   30.41   15.97
  -3   1   6   36.22   16.38
   3   1  -6   -3.68   13.72
   3  -1   6   34.06   16.58
  -3  -1  -5 1458.57   57.22
   3  -1   5 1546.24   70.48
  -3   1   5 1458.80   38.90
  -3   1   5 1541.65   52.61
   3   1  -5 1430.66   56.10
   3  -1   5 1398.00   63.32
   3   1  -5 1439.92   50.05
  -3   1   5 1497.60   62.48
   3   1  -5 1498.16   69.23
   3  -1   5 1469.97   71.21
  -3  -1  -4  206.44   21.54
  -3   1   4  181.31   19.28
   3   1  -4  192.61   20.32
   3   1  -4  182.52   17.02
   3  -1   4  193.16   23.81
   3  -1   4  194.78   28.28
  -3   1   4  176.89   22.61
   3   1  -4  227.61   30.33
  -3   1   4  183.44   14.49
   3  -1   4  214.14   30.87
  -3  -1  -3  359.32   25.34
  -3   1   3  373.97   20.88
   3  -1   3  375.97   39.00
   3   1  -3  418.28   25.65
   3  -1   3  355.91   29.22
   3   1  -3  396.60   20.17
  -3   1   3  382.91   24.78
  -3   1   3  370.75   28.28
   3   1  -3  441.02   40.86
   3  -1   3  343.54   35.87
  -3  -1  -2  184.06   17.76
  -3   1   2  172.66   15.11
  -3   1   2  171.74   17.20
   3   1  -2  162.69   15.20
   3  -1   2  195.13   20.80
   3   1  -2  162.00   11.05
  -3   1   2  181.45   20.09
   3  -1   2  155.93   28.59
   3   1  -2  195.45   28.40
   3  -1   2  172.54   28.25
  -3  -1  -1 1340.04   43.06
  -3  -1  -1 1359.09   49.17
   3  -1   1 1276.11   68.68
  -3   1   1 1353.90   44.10
   3   1  -1 1351.93   37.67
   3   1  -1 1321.59   23.40
  -3   1   1 1335.49   41.56
   3   1  -1 1265.88   67.19
   3  -1   1 1421.20   70.10
  -3  -1   0    6.61    6.21
  -3   1   0    4.94    5.87
  -3  -1   0   13.38    8.59
   3   1   0    6.23    5.63
   3  -1   0    8.14    4.47
   3  -1   0   17.73    4.63
   3   1   0   -4.88   14.41
   3  -1   0   32.25   19.30
   3  -1   0  -15.05   16.84
  -3   1  -1 1378.93   45.53
   3  -1  -1 1287.80   68.38
  -3  -1   1 1363.28   46.62
  -3  -1   1 1360.26   39.81
   3   1   1 1362.87   31.60
   3  -1  -1 1291.51   35.66
   3  -1  -1 1334.21   32.46
   3   1   1 1292.46   68.03
   3  -1  -1 1264.80   66.69
  -3   1  -2  175.24   17.93
  -3  -1   2  180.34   17.60
  -3  -1   2  176.95   15.42
   3   1   2  180.61   11.18
   3  -1  -2  147.60   14.96
   3  -1  -2  166.40   13.52
   3  -1  -2  182.45   28.43
   3   1   2  177.99   29.03
   3  -1  -2  139.33   25.97
  -3   1  -3  362.73   26.10
  -3  -1   3  340.62   23.06
   3  -1  -3  380.68   40.08
  -3  -1   3  368.06   21.69
   3   1   3  374.49   15.51
   3  -1  -3  392.08   26.27
   3  -1  -3  373.99   21.15
   3   1   3  372.25   37.74
   3  -1  -3  397.99   39.07
  -3   1  -4  170.33   20.16
  -3  -1   4  189.89   16.94
   3   1   4  172.31   11.45
   3  -1  -4  188.86   21.66
   3  -1  -4  181.54   17.22
   3   1   4  187.29   23.44
  -3  -1   4  177.74   21.26
   3  -1  -4  167.02   27.38
   3   1   4  230.39   30.45
  -3  -1   4  151.06   15.92
   3  -1  -4  205.18   29.10
  -3   1  -5 1459.95   56.19
   3  -1  -5 1381.93   69.92
  -3  -1   5 1506.07   46.14
  -3  -1   5 1457.41   46.75
   3   1   5 1410.28   33.91
   3  -1  -5 1477.06   59.97
   3   1   5 1467.56   64.33
   3  -1  -5 1468.63   50.51
  -3  -1   5 1439.02   59.45
   3   1   5 1545.69   73.17
   3  -1  -5 1411.12   68.49
  -3   1  -6   19.71   13.72
  -3  -1   6   35.39    9.37
   3  -1  -6    9.85   11.90
  -3  -1   6   21.58    9.89
   3  -1  -6   36.08   10.73
   3   1   6   30.45   14.09
   3  -1  -6   -0.40   13.44
  -3  -1   6   25.27   14.43
   3   1   6   32.49   15.51
   3  -1  -6   18.47   15.06
  -3   1  -7  566.39   40.44
   3  -1  -7  576.22   44.45
  -3  -1   7  545.50   29.53
   3  -1  -7  587.39   43.16
   3   1   7  542.73   43.41
   3  -1  -7  562.42   37.58
  -3  -1   7  597.67   34.99
  -3  -1   7  583.82   42.63
   3   1   7  550.97   43.40
   3  -1  -7  557.40   42.18
   3   1   7  483.69   39.07
   3  -1  -8   88.28   18.65
   3   1   8  118.51   21.94
  -3   1  -8   95.45   20.43
  -3  -1   8  110.89   15.26
  -3  -1   8  116.97   18.69
   3  -1  -8  115.22   23.46
   3  -1  -8   60.11   18.10
   3  -1  -8  108.26   20.88
   3   1   8   88.42   21.63
  -3  -1   8  102.75   20.68
   3   1   8  114.85   22.19
  -3   1  -9  492.61   43.13
  -3  -1   9  459.79   35.01
  -3  -1   9  504.97   31.34
   3   1   9  453.85   43.41
   3  -1  -9  479.30   39.50
  -3  -1   9  509.73   44.50
   3   1   9  486.72   40.10
   3  -1  -9  474.23   39.37
   3   1   9  427.16   41.52
   3  -1 -10  114.31   21.42
   3   1  10   81.62   21.57
  -3   1 -10  152.13   28.36
   3  -1 -10   83.52   21.78
   3   1  10  109.47   25.18
  -3  -1  10   90.52   22.76
   3   1  10  159.12   24.14
  -3   1 -11  553.28   51.49
   3   1  11  549.07   51.42
   3  -1 -11  478.04   45.23
  -3  -1  11  557.88   51.13
   3   1  11  556.74   42.10
   3  -1 -11  441.92   37.59
   3   1  11  540.02   52.74
   3   1  12   62.89   25.26
  -3   1 -12   32.66   20.54
   3  -1 -12   49.52   20.70
   3   1  12   54.16   21.04
  -3  -1  12   62.95   21.76
   3   1  13   79.36   31.26
  -3   1 -13   62.15   27.95
   3  -1 -13   37.96   19.00
   3   1  13   70.14   23.43
  -3  -1  13  115.64   27.79
   3   1  14  130.37   36.32
  -3   1 -14  201.71   40.15
   3  -1 -14  113.03   28.37
   3   1  14  174.82   33.49
  -3  -1  14  228.10   37.87
   3   1  15  202.60   45.20
  -3   1 -15  213.15   44.25
   3  -1 -15  202.38   36.65
   3   1  15  216.60   37.31
  -3  -1  15  222.04   39.15
   3   1  16   72.97   27.55
  -3   1 -16   39.08   28.03
   3  -1 -16  -24.09   23.31
   3   1  16  -14.18   16.15
  -3  -1  16   31.70   23.49
   3   1  17   30.69   23.77
   3  -1 -17   43.89   23.38
   3  -2  18   56.04   23.68
   3  -2  17   21.00   21.83
  -3  -2 -17   60.61   31.74
   3   2 -17   30.50   22.11
   3  -2  16  163.22   36.69
  -3  -2 -16  105.70   34.90
   3   2 -16  102.96   29.80
   3  -2  16  122.49   31.51
  -3   2  16  132.16   32.78
   3  -2  15  180.52   37.10
  -3  -2 -15  192.04   39.55
   3   2 -15  168.68   36.71
   3   2 -15  147.21   31.69
   3  -2  15  222.34   37.67
  -3   2  15  175.37   35.70
   3  -2  14   57.46   24.87
  -3  -2 -14   55.20   30.86
  -3   2  14   42.61   19.21
   3   2 -14   95.96   29.14
   3   2 -14   39.20   20.93
   3  -2  14   52.29   22.96
  -3   2  14   61.48   26.32
  -3   2  13  591.77   51.99
  -3  -2 -13  453.21   55.04
   3   2 -13  440.03   49.71
   3  -2  13  567.23   57.59
   3   2 -13  494.01   51.74
  -3   2  13  498.73   52.96
   3  -2  13  483.73   50.48
   3  -2  12  326.11   39.17
  -3   2  12  322.77   39.07
  -3  -2 -12  309.88   44.76
   3   2 -12  291.99   37.49
   3   2 -12  225.61   36.16
   3  -2  12  294.80   42.19
  -3   2  12  291.97   41.82
   3  -2  11  114.90   24.13
  -3  -2 -11  148.98   31.36
  -3   2  11  130.43   25.53
   3   2 -11  124.30   25.30
   3   2 -11  113.43   25.71
   3  -2  11  123.00   28.09
  -3   2  11  100.31   26.13
   3   2 -11  113.34   20.15
   3  -2  10   88.73   20.85
   3  -2  10   63.27   17.39
  -3  -2 -10   76.23   25.17
  -3   2  10   61.25   17.04
   3   2 -10   42.97   17.55
   3  -2  10   93.76   19.10
   3   2 -10   42.80   18.26
   3  -2  10   84.07   25.31
  -3   2  10   72.10   22.31
   3   2 -10   64.79   14.47
  -3  -2  -9  815.55   59.55
   3  -2   9  806.45   49.02
  -3   2   9  772.09   49.30
   3   2  -9  820.36   53.61
   3  -2   9  720.69   56.13
   3   2  -9  689.76   49.92
  -3   2   9  730.04   55.61
   3   2  -9  732.09   46.88
   3  -2   9  812.05   54.62
   3  -2   9  813.44   49.95
  -3  -2  -8  351.64   38.98
   3  -2   8  347.22   33.55
  -3   2   8  259.61   27.49
   3   2  -8  330.36   32.72
   3   2  -8  230.93   29.18
   3  -2   8  299.03   36.34
   3   2  -8  287.73   30.57
   3  -2   8  278.84   34.51
  -3   2   8  287.83   35.64
  -3  -2  -7  731.30   48.72
   3  -2   7  749.74   48.71
  -3   2   7  698.47   42.92
   3   2  -7  711.85   45.14
   3  -2   7  707.36   51.67
   3   2  -7  691.52   43.57
  -3   2   7  770.79   52.84
   3   2  -7  719.28   47.84
   3  -2   7  787.33   54.72
   3  -2   6  243.27   32.47
  -3   2   6  258.74   25.04
  -3  -2  -6  246.88   28.16
   3   2  -6  230.03   25.05
   3   2  -6  239.24   24.12
   3  -2   6  252.20   30.70
  -3   2   6  199.04   26.49
   3  -2   6  250.63   30.86
   3   2  -6  260.47   30.25
  -3  -2  -5  817.82   44.36
  -3   2   5  785.45   25.46
   3  -2   5  796.26   52.11
  -3   2   5  781.02   40.05
   3   2  -5  842.39   42.00
   3  -2   5  719.39   46.98
   3   2  -5  749.48   36.58
  -3   2   5  822.65   48.41
   3   2  -5  771.57   51.43
   3  -2   5  824.72   56.37
   3  -2   4  193.11   29.32
  -3   2   4  120.07   10.71
  -3  -2  -4  147.60   18.59
   3   2  -4  148.17   18.48
   3   2  -4  144.02   15.22
  -3   2   4  132.38   16.68
   3  -2   4  117.44   19.80
  -3   2   4  122.68   19.43
   3   2  -4  152.97   25.37
   3  -2   4  149.77   27.42
  -3  -2  -3 1263.55   46.92
  -3   2   3 1250.56   34.51
   3  -2   3 1320.98   69.35
  -3   2   3 1274.33   46.04
   3   2  -3 1248.66   43.04
   3  -2   3 1205.72   52.06
   3   2  -3 1233.57   34.65
  -3   2   3 1216.36   51.51
   3   2  -3 1189.44   66.37
   3  -2   3 1227.80   66.33
  -3  -2  -2  480.06   27.50
  -3  -2  -2  425.67   30.57
  -3   2   2  477.83   22.58
   3  -2   2  488.31   43.48
  -3   2   2  470.82   27.83
   3   2  -2  497.86   25.54
   3  -2   2  472.13   30.73
   3   2  -2  484.17   17.08
  -3   2   2  490.28   31.22
   3   2  -2  462.81   43.10
   3  -2   2  483.03   42.41
  -3  -2  -1  945.53   35.44
  -3   2   1  911.49   32.82
  -3  -2  -1  923.58   42.26
   3  -2   1  973.11   60.58
  -3   2   1  935.44   39.18
   3   2  -1  955.53   33.38
   3  -2   1  964.36   40.60
  -3   2   1  932.65   40.27
   3   2  -1  942.81   59.37
   3  -2   1  906.37   57.71
  -3  -2   0   90.03   11.27
   3  -2   0   89.50   22.38
  -3  -2   0   93.78   14.83
   3   2   0  100.73   10.75
   3  -2   0   73.48    8.97
  -3   2   0   78.70   12.03
   3   2   0   99.11   23.17
   3  -2   0   85.03   23.79
  -3  -2   1  962.39   31.91
  -3  -2   1  942.25   41.07
   3  -2  -1  922.76   59.13
  -3  -2   1  960.73   31.76
   3   2   1  961.88   29.40
   3  -2  -1  993.65   30.51
   3   2   1  913.50   58.41
   3  -2  -1  965.27   60.02
  -3   2  -2  481.41   29.17
   3  -2  -2  478.47   44.57
  -3  -2   2  505.91   22.88
   3   2   2  499.80   20.81
   3  -2  -2  471.28   23.48
   3   2   2  478.27   42.70
   3  -2  -2  448.34   42.47
  -3  -2   2  463.68   28.74
  -3   2  -3 1280.21   47.95
  -3  -2   3 1240.37   45.32
  -3  -2   3 1275.10   36.71
   3  -2  -3 1175.20   66.78
   3   2   3 1238.42   32.40
   3  -2  -3 1190.19   39.51
   3   2   3 1280.95   67.84
   3  -2  -3 1157.45   66.08
   3  -2  -4  139.69   26.62
  -3   2  -4  134.99   18.28
  -3  -2   4  151.23   14.26
  -3  -2   4  136.17   16.11
   3   2   4  141.03   12.13
   3  -2  -4  141.69   16.47
   3   2   4  163.56   26.27
   3  -2  -4  135.08   26.20
  -3   2  -5  787.16   41.93
  -3  -2   5  768.71   36.17
  -3  -2   5  762.12   31.96
   3  -2  -5  740.62   53.06
   3   2   5  797.09   28.78
   3  -2  -5  783.08   37.97
   3   2   5  784.44   53.96
   3  -2  -5  780.97   52.80
   3  -2  -6  161.65   26.07
  -3  -2   6  246.22   20.74
  -3   2  -6  245.27   26.11
  -3  -2   6  246.53   21.83
   3  -2  -6  213.39   22.50
  -3  -2   6  262.78   28.36
   3   2   6  216.85   27.54
   3   2   6  316.37   35.79
   3   2   6  257.44   28.51
   3  -2  -6  210.53   30.06
  -3   2  -7  738.90   44.89
  -3  -2   7  784.65   37.70
   3  -2  -7  679.00   49.45
  -3  -2   7  738.29   36.66
   3   2   7  778.90   51.48
   3  -2  -7  696.64   41.98
  -3  -2   7  802.13   48.40
   3   2   7  831.20   53.55
   3  -2  -7  721.76   49.67
   3   2   7  746.47   48.71
   3  -2  -8  277.79   31.97
  -3   2  -8  291.28   31.06
   3   2   8  324.15   36.07
   3  -2  -8  272.71   29.39
  -3  -2   8  313.00   25.67
  -3  -2   8  302.54   33.19
   3   2   8  300.10   33.34
   3  -2  -8  300.78   33.20
   3   2   8  299.33   34.42
  -3   2  -9  810.48   52.07
   3  -2  -9  743.88   49.88
   3   2   9  809.81   57.43
   3  -2  -9  789.88   50.77
  -3  -2   9  796.81   53.77
   3   2   9  872.39   53.90
   3  -2  -9  758.00   50.40
   3   2   9  790.27   57.56
  -3  -2   9  818.90   41.76
   3   2  10   90.01   24.33
  -3   2 -10   60.13   21.52
  -3  -2  10   81.22   15.34
   3  -2 -10   42.44   15.59
   3  -2 -10   60.36   21.17
   3   2  10   58.88   19.85
  -3  -2  10   50.20   19.43
   3   2  10   84.80   18.33
  -3   2 -11  144.46   28.79
  -3  -2  11  140.64   20.24
   3  -2 -11  159.85   27.40
   3   2  11  140.30   27.21
  -3  -2  11  178.25   30.86
   3   2  11  147.19   30.86
   3   2  11  140.25   22.98
   3   2  12  284.72   45.23
  -3   2 -12  326.77   43.33
   3  -2 -12  270.02   36.50
   3   2  12  270.08   39.14
  -3  -2  12  273.31   38.95
  -3   2 -13  519.65   54.71
   3   2  13  504.68   50.63
   3  -2 -13  428.74   46.78
  -3  -2  13  629.29   58.17
   3   2  13  513.59   62.18
   3   2  14   57.90   31.41
  -3   2 -14   20.48   24.84
   3  -2 -14   47.13   21.00
   3   2  14   65.45   24.76
  -3  -2  14   47.22   20.64
   3   2  15  174.49   44.94
  -3   2 -15  200.03   41.41
   3  -2 -15  174.52   34.76
   3   2  15  241.98   39.61
  -3  -2  15  218.80   36.80
   3   2  16   68.92   31.05
  -3   2 -16   85.11   31.49
   3  -2 -16   22.92   19.93
   3   2  16  108.88   28.02
  -3  -2  16   71.76   26.65
   3   2  17   43.09   28.74
   3  -2 -17   53.03   24.99
   3  -3  17  -11.29   20.76
   3   3 -17  -10.44   22.39
   3  -3  16   50.06   22.08
  -3  -3 -16   54.33   29.11
   3   3 -16    9.33   21.21
   3   3 -16   61.98   27.07
   3  -3  16    9.43   15.60
  -3   3  16   54.42   26.47
   3  -3  15   49.94   22.76
  -3  -3 -15   48.35   31.17
  -3   3  15   73.79   25.06
   3   3 -15   50.49   24.85
   3   3 -15   47.66   23.52
   3  -3  15   38.78   20.87
  -3   3  15  119.74   31.88
   3  -3  14   87.74   25.67
  -3  -3 -14   29.48   22.66
  -3   3  14   77.57   21.61
   3   3 -14   79.93   27.05
   3   3 -14  138.59   31.08
   3  -3  14  102.16   27.07
  -3   3  14  153.75   31.30
   3  -3  13   -7.94   16.26
  -3  -3 -13   10.28   21.60
  -3   3  13   15.35   16.40
   3   3 -13   -0.64   18.62
   3   3 -13    4.82   18.36
   3  -3  13   18.48   15.81
  -3   3  13   -3.67   18.23
   3  -3  12  231.48   33.12
  -3  -3 -12  152.38   35.15
  -3   3  12  197.80   31.62
   3   3 -12  201.79   33.47
   3   3 -12  190.80   33.86
   3  -3  12  203.82   35.45
  -3   3  12  250.15   39.46
   3  -3  11  135.65   24.43
  -3  -3 -11  150.10   32.29
  -3   3  11  122.84   25.50
   3   3 -11  135.20   27.37
   3   3 -11   80.72   25.09
   3  -3  11  130.18   21.31
   3  -3  11   88.78   26.97
  -3   3  11  139.15   29.53
   3   3 -11   87.17   17.97
  -3  -3 -10    0.37   17.16
  -3   3  10   38.39   16.79
   3   3 -10   29.46   15.39
   3   3 -10   -2.82   14.83
   3  -3  10   18.94   17.88
   3  -3  10   36.41   15.92
  -3   3  10    8.35   14.64
   3   3 -10   26.32   13.61
  -3  -3  -9    2.46   17.49
   3   3  -9   15.39   13.50
  -3   3   9    1.56   12.00
   3   3  -9    9.80   12.76
   3  -3   9   -9.71   16.87
   3  -3   9   12.53   13.42
  -3   3   9   -5.74   14.61
   3   3  -9   -3.37   11.45
  -3  -3  -8  450.71   44.04
  -3   3   8  450.21   37.19
   3  -3   8  442.38   38.30
   3   3  -8  458.39   38.98
   3  -3   8  438.00   44.13
   3   3  -8  391.41   37.39
  -3   3   8  423.16   42.84
   3   3  -8  425.68   37.66
   3  -3   8  470.40   44.33
   3  -3   7  162.32   24.96
   3  -3   7  150.50   27.36
  -3  -3  -7  168.68   26.98
   3   3  -7  137.53   21.78
  -3   3   7  172.13   23.43
   3   3  -7  166.20   23.79
   3  -3   7  126.14   24.41
  -3   3   7  137.69   26.19
   3   3  -7  162.02   25.33
   3  -3   6  272.89   35.36
   3  -3   6  249.27   30.29
  -3   3   6  255.98   25.95
  -3  -3  -6  242.90   28.88
   3   3  -6  261.25   26.19
   3  -3   6  281.01   32.55
   3   3  -6  246.34   26.43
  -3   3   6  246.86   31.02
   3   3  -6  258.05   31.52
   3  -3   5  114.50   25.47
   3  -3   5   87.69   19.49
  -3  -3  -5   85.11   16.40
   3   3  -5   85.59   15.64
   3   3  -5   93.58   14.92
  -3   3   5   95.05   16.60
   3  -3   5   83.48   19.08
  -3   3   5  101.72   20.12
   3   3  -5   74.32   19.62
   3  -3   4  321.77   37.95
  -3  -3  -4  292.65   27.09
  -3   3   4  305.76   14.11
  -3   3   4  307.06   25.74
   3  -3   4  313.42   35.17
   3   3  -4  284.37   23.85
   3  -3   4  318.76   30.71
   3   3  -4  293.24   21.27
  -3   3   4  300.81   30.63
   3   3  -4  298.05   34.32
   3  -3   3  101.29   23.77
  -3  -3  -3   93.65   15.06
  -3  -3  -3   88.05   17.01
  -3   3   3   70.95    8.11
   3  -3   3  104.11   24.99
   3   3  -3   73.81   12.42
   3   3  -3   91.37   10.78
   3  -3   3   75.32   15.07
  -3   3   3   89.78   15.02
  -3   3   3   98.00   18.62
   3   3  -3   94.46   23.14
  -3  -3  -2  862.45   36.96
  -3  -3  -2  828.86   43.02
  -3   3   2  864.34   28.12
   3  -3   2  898.40   59.41
   3   3  -2  825.35   34.16
  -3   3   2  805.34   37.94
   3  -3   2  871.59   41.82
   3   3  -2  857.29   22.18
  -3   3   2  866.42   43.35
   3   3  -2  823.58   58.37
   3  -3   2  889.32   59.29
   3  -3   1   97.77   23.77
  -3  -3  -1   89.19   11.56
  -3   3   1   95.19   11.01
  -3  -3  -1   89.70   15.74
   3  -3   1  109.19   28.01
   3   3  -1  109.14   12.83
   3  -3   1   80.64   13.81
  -3   3   1   89.75   14.16
  -3   3   1   84.24   14.37
   3   3  -1  133.17   28.14
   3  -3   0   41.25   21.48
  -3  -3   0   60.46    9.85
  -3  -3   0   61.85   13.07
   3  -3   0   23.36   17.73
   3   3   0   53.55    9.15
   3  -3   0   50.33    8.65
   3  -3   0   41.25    9.62
  -3   3   0   49.24   11.10
   3   3   0   57.00   23.05
  -3   3   0   44.36   10.98
   3  -3  -1   83.76   22.17
  -3  -3   1   92.32   10.36
  -3  -3   1   80.17   15.07
  -3  -3   1   98.14   10.35
   3  -3  -1   79.64   21.33
   3   3   1  117.41   12.10
   3  -3  -1   86.43   11.21
  -3   3  -1   83.70   12.32
   3   3   1   59.50   22.56
  -3  -3   2  818.25   26.92
  -3  -3   2  896.68   41.30
  -3  -3   2  897.97   27.79
   3  -3  -2  808.57   56.71
   3   3   2  887.41   30.65
   3  -3  -2  840.56   32.70
  -3   3  -2  785.95   31.89
   3   3   2  844.36   58.24
   3  -3  -2  782.22   56.51
   3  -3  -3  109.69   26.29
  -3   3  -3   99.15   16.61
  -3  -3   3   59.97   13.06
   3  -3  -3  126.36   26.06
   3   3   3   81.13   10.60
  -3  -3   3   87.41    9.65
   3  -3  -3   79.59   12.75
   3   3   3  102.27   24.42
  -3   3  -4  347.64   27.68
   3  -3  -4  344.30   37.75
  -3  -3   4  307.77   24.99
  -3  -3   4  326.09   18.38
   3  -3  -4  286.66   34.28
   3   3   4  316.51   19.52
   3  -3  -4  310.68   23.76
   3   3   4  333.84   36.95
   3  -3  -5  107.52   24.86
  -3   3  -5   94.66   16.35
  -3  -3   5   95.18   15.31
   3   3   5  101.59   12.67
  -3  -3   5  105.99   12.12
   3  -3  -5   97.25   16.02
   3  -3  -5   79.55   21.49
   3   3   5   82.51   21.40
   3  -3  -6  254.20   32.33
  -3   3  -6  234.43   25.67
   3  -3  -6  223.12   31.00
  -3  -3   6  266.67   23.52
   3  -3  -6  251.06   24.61
  -3  -3   6  250.33   26.64
   3   3   6  297.66   34.33
   3   3   6  260.61   29.48
   3  -3  -7  111.58   24.17
   3  -3  -7  132.39   24.57
   3   3   7  151.95   25.20
  -3   3  -7  157.66   23.20
  -3  -3   7  160.39   19.17
   3  -3  -7  118.96   20.01
  -3  -3   7  179.22   24.16
   3   3   7  137.83   23.89
  -3   3  -8  449.21   37.51
  -3  -3   8  454.71   32.03
   3   3   8  428.65   41.47
   3  -3  -8  427.48   36.20
   3  -3  -8  420.79   39.71
  -3  -3   8  476.99   39.09
   3   3   8  479.55   41.72
   3   3   8  387.99   40.11
   3   3   9    9.89   14.62
  -3   3  -9   -0.87   14.62
  -3  -3   9   13.24    9.64
   3  -3  -9    2.53   11.92
   3   3   9    5.04   13.16
  -3  -3   9    9.64   13.60
   3  -3  -9   -5.04   12.26
   3   3   9   20.90   15.89
   3   3  10   22.33   19.06
  -3   3 -10   36.68   17.87
  -3  -3  10   37.01   13.19
   3  -3 -10   27.17   17.66
   3   3  10   31.62   17.40
   3  -3 -10    4.68   12.67
  -3  -3  10   34.22   16.23
   3   3  10   13.81   10.96
  -3   3 -11   86.04   23.86
   3   3  11  147.66   31.71
  -3  -3  11  110.07   18.89
   3  -3 -11   81.09   21.22
   3  -3 -11   66.16   17.06
   3   3  11  111.55   26.71
  -3  -3  11  111.15   24.28
   3   3  11  125.83   22.08
   3   3  12  179.70   39.01
  -3   3 -12  244.98   38.04
   3  -3 -12  198.09   31.27
   3   3  12  245.51   36.09
  -3  -3  12  219.63   34.25
   3   3  13   22.86   25.68
  -3   3 -13   16.79   18.76
   3  -3 -13  -36.67   20.95
   3   3  13   26.24   19.67
  -3  -3  13   15.51   19.20
   3   3  14   87.11   35.44
  -3   3 -14   52.02   21.54
   3  -3 -14  135.09   27.98
   3   3  14  126.61   30.88
  -3  -3  14  150.29   30.86
   3   3  15  101.48   37.47
  -3   3 -15   36.36   26.32
   3  -3 -15   52.46   22.56
   3   3  15   73.58   23.89
  -3  -3  15  125.50   30.38
   3   3  16   36.29   28.29
  -3   3 -16   50.29   28.49
   3  -3 -16   33.07   20.42
   3   3  16   41.36   21.33
  -3  -3  16   72.65   27.42
   3  -3 -17  -12.49   21.02
   3   4 -17   77.44   24.20
  -3  -4 -16   91.08   30.26
  -3   4  16   57.79   22.33
   3   4 -16   48.33   26.93
   3   4 -16  103.32   28.97
   3  -4  16  124.65   30.57
  -3   4  16  100.24   30.23
  -3  -4 -15   11.23   22.06
   3  -4  15   18.44   16.64
  -3   4  15  -15.86   24.31
   3   4 -15   -2.59   21.40
   3   4 -15    1.93   18.60
   3  -4  15   17.18   20.00
  -3   4  15   17.23   17.26
   3  -4  14   -6.72   16.51
  -3  -4 -14   -3.65   22.11
  -3   4  14   21.45   19.92
   3   4 -14  -23.83   20.76
   3   4 -14   22.56   18.54
   3  -4  14    5.22   20.22
  -3   4  14   30.48   21.90
   3  -4  13  166.28   28.46
  -3  -4 -13  171.74   37.72
  -3   4  13  190.24   33.24
   3   4 -13  159.49   32.51
   3  -4  13  183.37   35.64
  -3   4  13  170.98   33.99
   3  -4  12  100.70   21.53
  -3  -4 -12  143.91   33.82
  -3   4  12  109.94   24.98
   3   4 -12  145.91   28.80
   3  -4  12  133.90   31.55
  -3   4  12   96.16   27.24
  -3  -4 -11  101.82   29.33
  -3   4  11  116.82   25.92
   3   4 -11   61.23   21.25
   3  -4  11   73.31   25.04
  -3   4  11  113.50   27.67
   3   4 -11   47.67   14.82
  -3   4  10  104.50   22.31
   3   4 -10   94.09   22.74
  -3  -4 -10   91.86   26.79
   3  -4  10  115.59   29.61
   3   4 -10   93.42   19.16
  -3   4  10  106.30   28.39
   3  -4  10  104.40   18.80
   3  -4   9  146.16   23.95
  -3  -4  -9   93.35   25.41
   3   4  -9  155.89   24.98
  -3   4   9  168.92   27.37
   3  -4   9  135.37   27.57
   3   4  -9  105.71   20.87
  -3   4   9  159.13   29.78
   3  -4   8   66.31   18.71
  -3  -4  -8   51.43   21.58
   3   4  -8   33.13   14.90
  -3   4   8   50.50   15.97
   3  -4   8   78.05   22.79
   3   4  -8   39.31   15.36
  -3   4   8   46.13   19.39
  -3  -4  -7  344.80   37.54
  -3   4   7  357.55   33.32
   3  -4   7  414.51   37.47
   3   4  -7  370.08   32.17
   3  -4   7  375.75   41.11
   3   4  -7  356.68   36.50
  -3   4   7  356.39   38.39
  -3  -4  -6  173.53   28.00
   3  -4   6  160.89   25.36
   3   4  -6  153.14   21.38
  -3   4   6  134.71   19.69
   3  -4   6  137.76   24.87
   3   4  -6  146.51   26.59
  -3   4   6  139.78   24.35
   3  -4   5   95.60   24.60
  -3  -4  -5   67.53   18.67
   3  -4   5   81.31   20.11
   3   4  -5   63.58   14.04
  -3   4   5   79.04   16.35
   3  -4   5   61.38   16.46
   3   4  -5   43.38   19.00
  -3   4   5   69.19   18.76
   3  -4   4  110.08   27.47
  -3  -4  -4  110.32   20.01
   3  -4   4  110.31   23.01
   3   4  -4  127.16   17.60
   3   4  -4  121.67   15.11
   3  -4   4  110.15   20.07
  -3   4   4  107.81   17.50
   3   4  -4  141.02   28.06
  -3  -4  -4  144.43   21.46
  -3   4   4  107.80   21.15
  -3  -4  -3  677.90   38.44
  -3  -4  -3  651.64   40.16
  -3   4   3  705.48   37.58
   3  -4   3  695.02   54.96
   3   4  -3  671.88   33.98
   3  -4   3  680.78   41.43
   3   4  -3  669.85   28.25
   3   4  -3  663.77   52.88
  -3   4   3  696.39   44.92
   3  -4   3  700.18   56.72
   3  -4   2  206.76   33.22
  -3   4   2  156.71   11.45
  -3  -4  -2  178.23   18.77
  -3  -4  -2  145.74   20.27
   3   4  -2  173.27   16.97
   3  -4   2  174.24   30.29
   3   4  -2  180.66   11.34
   3  -4   2  148.78   19.09
  -3   4   2  155.03   18.95
   3   4  -2  193.31   32.23
  -3   4   2  173.21   22.85
  -3  -4  -1  280.94   20.96
  -3   4   1  274.38   23.83
   3  -4   1  261.27   37.49
  -3   4   1  275.38   16.82
  -3  -4  -1  257.27   25.01
   3   4  -1  319.56   21.80
   3  -4   1  289.78   23.13
   3  -4   1  274.43   38.44
   3  -4   1  278.86   18.69
  -3   4   1  268.19   25.51
   3   4  -1  287.06   38.06
   3  -4   0   79.03   25.68
  -3  -4   0  111.93   12.41
  -3  -4   0   95.11   16.77
   3   4   0  121.99   13.84
   3  -4   0  128.93   14.79
   3  -4   0   98.33   26.23
   3  -4   0  118.33   13.20
   3   4   0   98.46   25.58
  -3   4   0  107.45   16.05
  -3   4   0  120.59   16.84
  -3  -4   1  294.08   16.91
   3  -4  -1  323.72   40.88
  -3  -4   1  277.10   26.07
  -3  -4   1  314.51   15.77
   3   4   1  287.44   19.35
   3  -4  -1  253.35   37.03
   3  -4  -1  288.76   20.05
  -3   4  -1  284.34   22.45
   3   4   1  261.27   36.82
  -3  -4   2  163.82   11.55
   3  -4  -2  172.37   30.83
  -3  -4   2  189.50   21.08
  -3  -4   2  181.46   11.47
   3   4   2  179.37   16.09
   3  -4  -2  152.98   28.10
   3  -4  -2  171.85   16.58
  -3   4  -2  175.32   16.33
   3   4   2  196.59   33.02
  -3   4  -3  689.23   38.35
  -3  -4   3  628.66   20.38
  -3  -4   3  620.75   36.11
  -3  -4   3  698.20   21.54
   3   4   3  700.39   30.08
   3  -4  -3  617.91   52.93
   3  -4  -3  624.11   32.35
  -3   4  -3  627.45   26.61
   3   4   3  710.11   56.02
   3  -4  -3  608.13   51.97
   3  -4  -4  127.44   27.51
  -3   4  -4  125.08   18.73
  -3  -4   4  129.94   18.17
   3   4   4  131.31   14.58
   3  -4  -4  132.76   28.30
   3  -4  -4  115.04   15.79
   3   4   4  113.95   23.83
   3   4   5   54.90   16.62
  -3   4  -5   74.36   15.91
  -3  -4   5   76.01   15.33
   3  -4  -5   39.54   17.31
   3   4   5   73.23   12.76
   3  -4  -5   53.03   13.25
   3   4   5   75.51   21.65
   3   4   6  138.31   22.61
  -3   4  -6  154.30   20.91
  -3  -4   6  141.81   19.66
   3  -4  -6  122.92   24.31
   3  -4  -6  115.82   19.09
   3   4   6  160.15   27.58
  -3   4  -7  346.34   32.22
  -3  -4   7  394.17   30.37
   3  -4  -7  349.06   37.32
   3  -4  -7  382.37   32.26
  -3  -4   7  413.21   35.15
   3   4   7  408.67   39.96
   3   4   7  421.09   39.85
   3   4   8   70.03   20.88
  -3   4  -8   51.79   16.74
   3  -4  -8   39.95   15.82
  -3  -4   8   60.85   14.90
   3  -4  -8   33.63   13.92
  -3  -4   8   58.33   16.99
   3   4   8   99.65   21.71
   3  -4  -9  147.01   24.84
  -3   4  -9  130.16   24.49
  -3  -4   9  181.08   22.84
   3   4   9  135.63   29.46
   3  -4  -9  124.77   22.78
  -3  -4   9  169.75   26.41
   3   4   9  151.69   24.12
   3   4  10   66.11   23.19
  -3   4 -10   87.19   22.36
  -3  -4  10  116.58   19.90
   3  -4 -10   69.42   20.37
  -3  -4  10   73.43   19.76
   3   4  10   98.21   20.25
   3  -4 -10  108.46   22.16
   3   4  11   90.41   29.98
  -3   4 -11   96.35   25.56
  -3  -4  11  118.89   20.55
   3  -4 -11   93.12   23.06
   3   4  11  101.42   23.62
  -3  -4  11  106.63   22.05
   3  -4 -11   60.41   16.85
   3   4  11   99.51   20.37
   3   4  12  135.36   37.91
  -3   4 -12  136.04   30.29
  -3  -4  12  136.32   22.07
   3  -4 -12  127.11   26.85
   3   4  12  142.73   30.24
  -3  -4  12  142.91   27.99
   3   4  13  110.41   36.42
  -3   4 -13  149.27   32.24
   3  -4 -13  136.37   28.57
   3   4  13  171.78   32.68
  -3  -4  13  187.48   32.02
   3   4  14  -30.94   28.25
  -3   4 -14   21.48   19.96
   3  -4 -14    4.02   18.23
   3   4  14  -13.61   18.41
  -3  -4  14   -4.38   17.66
   3   4  15   -3.47   22.14
  -3   4 -15   -1.92   22.85
   3  -4 -15   -4.29   20.00
   3   4  15   20.86   18.57
  -3  -4  15   26.52   20.13
   3   4  16   67.93   35.24
  -3   4 -16  126.05   36.35
   3  -4 -16   74.67   26.74
   3   4  16  122.27   30.88
  -3  -4  16  113.17   31.94
  -3   5  17  175.50   34.82
   3   5 -17  199.91   37.96
  -3  -5 -16  109.21   34.07
  -3   5  16  110.67   29.56
   3   5 -16  171.09   39.76
   3   5 -16  115.63   31.66
   3  -5  16   87.64   26.30
  -3   5  16  145.84   35.18
  -3  -5 -15   82.97   30.76
  -3   5  15   89.16   26.50
   3   5 -15   58.32   26.63
   3  -5  15  119.74   29.55
  -3   5  15  128.12   31.77
  -3  -5 -14  190.75   38.77
  -3   5  14  263.72   40.26
   3   5 -14  192.77   36.85
   3  -5  14  256.33   41.19
  -3   5  14  211.33   38.17
  -3  -5 -13   61.43   26.15
  -3   5  13  115.12   30.02
   3   5 -13   70.31   25.87
   3  -5  13   64.97   25.50
  -3   5  13   73.19   25.79
  -3  -5 -12  129.23   32.68
  -3   5  12  121.91   27.66
   3   5 -12   83.70   24.76
   3  -5  12   81.59   28.54
  -3   5  12   99.56   28.80
  -3   5  11  430.03   44.77
  -3  -5 -11  393.98   47.50
   3   5 -11  419.59   43.50
   3  -5  11  452.46   53.32
   3   5 -11  448.03   37.89
  -3   5  11  415.11   47.08
  -3  -5 -10  579.06   54.21
  -3   5  10  614.81   50.25
   3  -5  10  604.20   44.66
   3   5 -10  580.00   47.83
   3  -5  10  600.09   58.85
   3   5 -10  564.91   42.85
  -3   5  10  583.82   54.41
   3  -5   9  114.73   22.16
  -3  -5  -9  115.37   27.47
   3   5  -9  126.64   23.63
  -3   5   9  109.47   23.43
   3  -5   9   95.72   26.14
   3   5  -9  133.05   22.22
  -3   5   9  124.77   28.51
  -3   5   8  416.42   38.91
  -3  -5  -8  374.25   42.67
   3  -5   8  413.05   38.10
   3   5  -8  350.08   34.16
   3  -5   8  393.01   45.54
   3   5  -8  352.59   36.04
  -3   5   8  379.55   42.82
  -3  -5  -7  305.09   38.12
  -3   5   7  316.29   31.43
   3  -5   7  316.19   34.46
   3   5  -7  349.45   31.73
   3  -5   7  239.22   34.32
   3   5  -7  337.97   36.54
  -3   5   7  329.19   39.23
  -3  -5  -6  354.18   37.12
  -3  -5  -6  316.00   33.19
  -3   5   6  375.72   32.99
   3  -5   6  398.55   39.38
   3   5  -6  409.63   32.04
   3  -5   6  338.94   38.10
   3   5  -6  405.97   40.29
  -3   5   6  345.36   38.20
  -3  -5  -5  583.65   43.88
  -3   5   5  674.35   41.57
   3  -5   5  695.59   51.81
   3   5  -5  658.69   38.03
   3  -5   5  637.47   48.32
   3   5  -5  673.26   53.06
  -3   5   5  637.14   49.48
  -3  -5  -5  585.62   41.52
  -3  -5  -4 1315.43   61.28
  -3  -5  -4 1247.22   57.59
  -3   5   4 1291.90   54.84
   3  -5   4 1380.98   73.98
   3   5  -4 1343.66   51.13
   3  -5   4 1305.99   63.31
  -3   5   4 1321.57   67.35
  -3  -5  -3  143.42   21.59
   3   5  -3  146.92   17.24
   3  -5   3  178.08   23.70
   3  -5   3  184.32   33.60
  -3  -5  -3  151.07   21.99
  -3   5   3  157.88   20.21
  -3   5   3  163.11   25.02
  -3  -5  -2  449.97   31.67
  -3  -5  -2  435.35   33.71
  -3   5   2  437.91   31.04
   3   5  -2  449.13   28.00
   3  -5   2  424.03   46.23
   3  -5   2  472.42   32.89
  -3   5   2  406.33   34.72
  -3  -5  -1  498.22   30.32
  -3  -5  -1  520.22   36.20
  -3   5   1  512.03   32.69
   3   5  -1  502.22   28.14
   3  -5   1  430.58   48.13
   3  -5   1  499.62   30.32
   3  -5   1  524.26   26.96
  -3   5   1  488.34   35.73
  -3  -5   0 1496.12   45.17
  -3  -5   0 1393.60   57.07
  -3   5   0 1416.83   53.14
   3   5   0 1465.51   46.42
   3  -5   0 1401.12   80.63
   3  -5   0 1369.96   44.51
   3  -5   0 1434.10   44.88
  -3   5   0 1350.28   53.39
  -3  -5   1  495.10   34.57
  -3  -5   1  517.66   17.61
  -3   5  -1  469.30   32.00
   3   5   1  539.64   27.94
   3  -5  -1  471.37   22.95
   3  -5  -1  501.65   27.49
  -3   5  -1  427.33   28.04
   3  -5  -1  470.16   47.04
  -3  -5   2  433.37   31.95
   3   5   2  461.90   26.23
   3  -5  -2  375.11   25.80
  -3   5  -2  348.90   23.53
   3  -5  -2  377.07   42.88
  -3   5  -3  172.76   21.13
  -3  -5   3  165.86   21.65
   3   5   3  149.87   16.28
   3  -5  -3  159.08   18.16
   3  -5  -3  190.42   33.11
  -3   5  -4 1346.46   54.87
  -3  -5   4 1390.23   56.39
   3   5   4 1333.69   45.01
   3  -5  -4 1281.04   74.97
   3  -5  -4 1335.88   51.00
  -3   5  -5  643.47   39.36
   3   5   5  666.73   33.20
   3  -5  -5  602.64   52.40
   3  -5  -5  658.50   38.41
  -3  -5   5  678.72   39.94
   3   5   5  657.57   44.83
  -3   5  -6  367.37   30.95
  -3  -5   6  379.04   31.09
   3  -5  -6  320.70   38.00
   3  -5  -6  365.38   30.05
   3   5   6  430.94   43.62
   3   5   6  370.43   35.49
  -3   5  -7  315.51   31.26
  -3  -5   7  353.42   29.96
   3  -5  -7  302.27   36.68
   3  -5  -7  298.07   29.40
   3   5   7  304.36   36.86
   3   5   7  309.00   34.89
  -3   5  -8  397.60   35.94
   3   5   8  305.76   37.79
  -3  -5   8  429.04   33.91
   3  -5  -8  354.41   38.49
   3  -5  -8  401.01   35.55
  -3  -5   8  442.96   38.14
   3   5   8  429.87   42.13
   3   5   9  132.94   28.88
  -3   5  -9  115.61   22.60
   3  -5  -9   83.30   21.05
  -3  -5   9  112.97   19.62
   3  -5  -9  102.92   21.25
  -3  -5   9  133.45   23.67
   3   5   9  116.77   24.24
  -3   5 -10  571.92   47.15
  -3  -5  10  595.94   42.33
   3  -5 -10  515.96   43.88
   3  -5 -10  639.73   49.09
  -3  -5  10  621.48   48.05
   3   5  10  648.74   47.95
   3   5  10  547.46   55.81
  -3   5 -11  410.78   42.45
   3   5  11  368.07   50.89
  -3  -5  11  439.30   37.71
   3  -5 -11  369.82   36.68
   3  -5 -11  372.64   40.89
  -3  -5  11  472.04   44.40
   3   5  11  485.79   41.45
   3   5  12  119.70   34.04
  -3   5 -12   81.84   25.37
  -3  -5  12  118.04   21.88
   3  -5 -12  114.90   27.81
  -3  -5  12  113.86   26.58
   3   5  13   55.17   33.42
  -3   5 -13   77.72   25.71
   3  -5 -13   63.10   22.03
  -3  -5  13  118.13   27.41
  -3   5 -14  253.29   39.85
   3   5  14  195.64   47.59
   3  -5 -14  147.71   30.97
  -3  -5  14  225.97   36.95
  -3   5 -15  144.42   35.01
   3  -5 -15   37.93   20.56
   3   5  15   61.07   33.19
  -3  -5  15   97.27   28.27
  -3   5 -16   55.79   27.79
   3   5  16  104.32   40.87
   3  -5 -16   83.32   25.66
  -3  -5  16  121.88   31.83
  -3  -6 -16  230.03   45.59
  -3   6  16  277.26   44.27
  -3  -6 -15   25.36   23.40
  -3   6  15   77.25   27.15
   3   6 -15   37.24   23.08
   3  -6  15   34.50   18.93
  -3   6  15   18.01   18.57
  -3  -6 -14   91.47   29.45
  -3   6  14   64.10   22.19
   3   6 -14   74.05   27.34
   3  -6  14   71.55   23.29
  -3   6  14   78.73   26.61
  -3  -6 -13   21.23   24.07
  -3   6  13   25.15   20.10
   3   6 -13    8.67   19.56
   3  -6  13    4.84   14.81
  -3   6  13   36.18   18.77
  -3  -6 -12  218.00   38.40
  -3   6  12  251.22   37.67
   3   6 -12  162.88   32.35
   3  -6  12  228.41   38.39
  -3   6  12  195.89   36.02
  -3  -6 -11   52.21   24.14
  -3   6  11   39.27   19.33
   3   6 -11   59.33   21.67
   3  -6  11   22.53   19.50
   3   6 -11   64.66   18.56
  -3   6  11   60.33   23.07
  -3  -6 -10  537.24   52.72
   3  -6  10  599.73   45.97
   3   6 -10  596.90   48.27
   3  -6  10  710.58   65.86
   3   6 -10  593.29   45.57
  -3   6  10  604.40   56.92
  -3   6  10  733.46   55.57
  -3  -6  -9   36.80   24.56
   3  -6   9    6.72   11.32
   3   6  -9    6.27   13.66
  -3   6   9   17.17   16.35
   3  -6   9   34.25   21.27
   3   6  -9   -4.61   11.80
  -3   6   9   20.10   18.81
  -3  -6  -8  178.13   33.35
   3  -6   8  156.18   25.42
   3   6  -8  160.12   24.08
  -3   6   8  136.58   24.49
   3  -6   8  143.61   30.56
   3   6  -8  124.20   24.80
  -3   6   8  151.89   30.00
  -3  -6  -7  125.87   23.37
  -3  -6  -7  100.46   25.21
   3   6  -7   91.40   18.85
   3  -6   7   99.42   23.42
  -3   6   7   93.27   20.98
   3  -6   7   92.74   24.30
  -3   6   7  110.45   26.28
  -3  -6  -6  644.67   50.39
  -3  -6  -6  633.90   45.61
  -3   6   6  656.67   44.98
   3   6  -6  688.14   41.76
   3  -6   6  707.19   53.52
   3  -6   6  660.07   54.35
  -3   6   6  701.06   55.77
  -3  -6  -5    1.03   11.73
  -3  -6  -5   42.36   20.32
   3   6  -5   -6.15   10.58
   3  -6   5   24.56   14.26
  -3   6   5   32.21   14.11
   3  -6   5   10.87   14.52
  -3   6   5   63.28   21.51
  -3  -6  -4  928.19   51.12
  -3  -6  -4  940.74   52.00
  -3   6   4 1007.99   50.59
   3   6  -4  964.32   44.79
   3  -6   4  943.98   64.54
   3  -6   4  992.19   57.60
  -3   6   4 1049.22   62.19
  -3  -6  -3   45.89   15.03
  -3  -6  -3   17.41   11.33
   3   6  -3   34.40   11.62
   3  -6   3   18.23   11.13
  -3   6   3   13.46    8.96
  -3   6   3   -1.51   11.67
   3  -6   3   40.43   21.08
   3  -6   2  357.89   44.62
  -3  -6  -2  318.54   25.74
  -3  -6  -2  306.94   29.64
  -3   6   2  341.44   29.05
   3   6  -2  339.64   25.00
   3  -6   2  323.82   29.05
  -3   6   2  278.96   30.16
   3  -6   1   49.45   21.04
  -3  -6  -1   41.12   14.74
   3   6  -1   26.12   10.31
   3  -6   1   50.26   12.89
   3  -6   1   31.09    9.21
  -3   6   1   38.86   12.65
  -3   6   1   36.19   15.20
  -3  -6   0 1379.71   59.22
  -3   6   0 1400.06   54.61
   3   6   0 1399.04   48.06
   3  -6   0 1239.88   78.40
   3  -6   0 1398.85   45.96
   3  -6   0 1400.06   47.52
  -3   6   0 1255.84   51.64
   3  -6  -1   10.16   18.92
   3   6   1   30.41   10.06
   3  -6  -1   26.79    7.11
   3  -6  -1   32.02   10.19
  -3  -6   1   49.49   15.50
  -3   6  -1   29.20   11.00
  -3   6  -1   21.42    8.86
  -3  -6   2  371.96   31.11
   3   6   2  326.63   23.65
   3  -6  -2  358.11   26.09
  -3  -6   3    7.98    9.73
   3   6   3   33.21   10.76
   3  -6  -3   36.06   11.41
   3  -6  -3   25.95   19.50
  -3   6  -4  974.59   47.65
   3   6   4 1022.18   42.27
   3  -6  -4  958.15   66.79
   3  -6  -4  999.23   46.26
  -3  -6   4 1002.28   49.73
   3   6   5    9.83   10.80
  -3   6  -5   13.33   12.72
  -3  -6   5   17.67   12.37
   3   6   5   11.66    8.16
   3  -6  -5   -8.66   11.59
   3  -6  -5   -8.50   15.91
  -3   6  -6  635.82   41.75
  -3  -6   6  733.25   44.02
   3   6   6  690.25   36.77
   3  -6  -6  642.79   54.77
   3  -6  -6  692.36   42.62
   3   6   6  691.18   48.83
   3   6   7  102.59   22.98
  -3   6  -7   96.63   20.22
  -3  -6   7  106.74   19.22
   3  -6  -7   50.47   21.12
   3  -6  -7  105.71   20.41
   3   6   8  129.38   26.33
  -3   6  -8  142.06   23.72
  -3  -6   8  183.99   24.47
   3  -6  -8  159.38   29.25
   3  -6  -8  143.11   22.53
  -3  -6   8  179.64   25.90
   3   6   8  170.21   28.68
  -3   6  -9   -6.64   15.91
  -3  -6   9   25.90   13.75
   3  -6  -9    8.10   13.06
   3  -6  -9   34.11   18.29
  -3  -6   9   15.60   12.71
   3   6   9   17.36   16.45
   3   6   9   40.31   20.90
  -3   6 -10  620.90   48.04
  -3  -6  10  645.36   45.52
   3  -6 -10  509.79   44.90
   3  -6 -10  610.50   48.31
  -3  -6  10  722.69   51.66
   3   6  10  663.67   50.03
   3   6  10  566.72   57.90
   3   6  11   40.57   22.08
  -3   6 -11   70.84   23.49
   3  -6 -11   42.45   16.49
  -3  -6  11   71.27   18.69
   3  -6 -11   55.49   19.39
  -3  -6  11   80.89   20.48
   3   6  11   65.54   17.49
   3   6  12  197.45   41.15
  -3  -6  12  200.50   27.90
   3  -6 -12  165.64   30.27
  -3   6 -12  207.72   34.02
  -3  -6  12  192.43   30.48
   3   6  13   -8.52   21.78
  -3   6 -13   57.92   24.83
  -3  -6  13   34.09   16.86
   3  -6 -13   46.86   21.68
  -3  -6  13    9.45   15.19
   3   6  14   70.05   32.93
  -3   6 -14  152.52   35.03
   3  -6 -14   89.94   26.57
  -3  -6  14   91.14   24.02
   3   6  15   25.15   30.44
  -3   6 -15   94.98   30.57
   3  -6 -15   10.39   18.41
  -3  -6  15   56.37   22.40
   3  -6 -16  178.97   35.82
  -3  -6  16  282.44   43.83
  -3  -7 -16    0.49   23.39
  -3   7  16    2.66   22.49
  -3  -7 -15  154.31   37.15
  -3   7  15  103.18   28.74
   3   7 -15   30.89   21.69
   3  -7  15   84.20   26.53
  -3   7  15   97.67   29.07
  -3  -7 -14   36.05   26.34
  -3   7  14   -5.01   21.63
   3   7 -14    7.34   17.47
   3  -7  14   26.45   20.65
  -3   7  14   -8.95   19.81
  -3  -7 -13   38.00   22.38
  -3   7  13   84.28   25.61
   3   7 -13   31.33   19.99
   3  -7  13   66.24   24.48
  -3   7  13   42.16   23.99
  -3  -7 -12   31.30   19.91
  -3   7  12   47.13   21.32
   3   7 -12   26.48   19.49
   3  -7  12   26.84   20.00
  -3   7  12   41.63   21.03
  -3  -7 -11  146.64   31.38
  -3   7  11  157.11   30.88
   3   7 -11  154.90   28.62
   3  -7  11  146.56   32.84
  -3   7  11  182.44   33.63
  -3  -7 -10  -34.43   22.84
   3  -7  10   12.97   13.50
   3   7 -10    0.45   16.08
  -3   7  10   -6.80   13.96
   3  -7  10   12.61   23.11
   3   7 -10  -14.96   14.15
  -3   7  10    2.62   20.09
  -3  -7  -9  -11.23   15.01
  -3  -7  -9  -21.42   19.88
   3   7  -9   13.97   14.25
   3  -7   9   -8.28   14.13
  -3   7   9   18.23   15.46
   3  -7   9  -34.69   25.34
   3   7  -9  -19.78   15.76
  -3   7   9  -22.25   19.53
  -3  -7  -8   44.94   17.06
  -3  -7  -8   32.54   18.95
   3   7  -8   71.08   19.00
  -3   7   8   61.51   18.34
   3  -7   8   85.42   26.58
   3  -7   8   46.33   17.42
  -3   7   8   47.80   21.86
  -3  -7  -7  434.81   43.74
  -3  -7  -7  344.13   36.03
  -3   7   7  368.40   36.76
   3   7  -7  405.07   34.93
   3  -7   7  396.06   40.39
   3  -7   7  380.86   46.76
  -3   7   7  413.75   46.09
  -3  -7  -6   30.88   13.65
  -3  -7  -6   69.49   21.09
   3   7  -6   48.14   14.20
  -3   7   6   57.60   18.10
   3  -7   6   25.91   15.82
  -3   7   6   86.89   23.68
   3  -7   6   31.55   21.25
   3  -7   5    2.03   14.17
  -3  -7  -5   -0.89   11.03
  -3  -7  -5    6.50   13.54
   3   7  -5   13.37   11.51
   3  -7   5   15.49   16.84
  -3   7   5    8.11   11.76
  -3   7   5  -11.60   16.12
  -3  -7  -4   54.15   15.54
   3  -7   4   80.12   23.08
   3   7  -4   82.38   16.68
   3  -7   4   85.74   20.75
  -3   7   4   93.79   19.10
  -3   7   4   73.66   19.70
   3  -7   3  227.94   37.02
   3   7  -3  209.93   22.15
  -3  -7  -3  164.73   23.82
   3  -7   3  178.54   25.12
  -3   7   3  205.77   24.31
  -3   7   3  204.42   27.94
  -3  -7  -2   84.45   18.61
   3  -7   2   82.22   25.10
   3   7  -2   82.04   15.21
   3  -7   2   62.36   14.43
  -3   7   2   78.65   16.59
  -3   7   2   74.07   17.86
  -3  -7  -1  130.25   22.15
   3  -7   1  119.68   33.13
   3   7  -1  118.64   16.33
   3  -7   1  106.17   16.12
   3  -7   1  112.70   15.31
  -3   7   1  109.93   18.89
  -3   7   1  100.65   17.65
  -3  -7   0    6.91   12.04
   3  -7   0   23.73   24.37
   3   7   0   14.83   10.61
   3  -7   0   -0.47    7.09
   3  -7   0   -0.34    8.51
  -3   7   0    3.86    9.28
  -3  -7   1  112.98   19.38
   3  -7  -1   79.94   26.25
   3   7   1  107.51   15.95
   3  -7  -1  118.54   16.59
  -3   7  -1  121.22   19.36
  -3  -7   2   95.04   19.26
   3  -7  -2   29.73   23.59
   3   7   2   87.03   14.74
   3  -7  -2   80.87   15.10
  -3   7  -2   79.40   16.51
  -3  -7   3  199.02   24.34
   3   7   3  230.03   21.46
   3  -7  -3  255.07   40.88
   3  -7  -3  205.12   22.44
  -3   7  -4   76.23   16.33
   3  -7  -4   60.16   25.48
  -3  -7   4   85.61   18.42
   3   7   4   88.31   15.50
   3  -7  -4   74.47   15.21
   3   7   5   -0.43   13.00
  -3   7  -5    6.60   11.19
   3  -7  -5    9.18   17.40
  -3  -7   5    6.32   11.08
   3   7   5   -7.22   10.61
   3  -7  -5    8.05   10.50
   3  -7  -6   26.92   17.19
   3   7   6   56.29   18.93
  -3   7  -6   43.38   14.45
  -3  -7   6   50.31   14.61
   3   7   6   71.61   15.90
   3  -7  -6   42.30   14.34
  -3   7  -7  389.46   34.72
  -3  -7   7  396.34   34.69
   3  -7  -7  379.38   34.38
   3  -7  -7  328.80   40.80
   3   7   7  395.92   40.14
   3   7   8   33.44   15.71
  -3   7  -8   59.71   17.39
  -3  -7   8   44.27   14.94
   3  -7  -8   66.14   18.36
   3  -7  -8   20.56   15.39
   3   7   9   -7.08   16.42
  -3   7  -9  -18.68   14.08
  -3  -7   9    8.99   12.00
   3  -7  -9  -21.07   14.74
   3  -7  -9  -12.68   14.77
  -3  -7   9   -6.89   11.55
   3   7  10   15.37   19.66
  -3   7 -10  -20.63   17.68
  -3  -7  10    1.34   11.69
   3  -7 -10  -11.68   12.42
   3  -7 -10  -12.60   16.71
  -3  -7  10   -3.97   13.98
   3   7  10    7.84   12.25
   3   7  11  124.51   31.54
  -3   7 -11  126.22   24.79
  -3  -7  11  144.29   24.39
   3  -7 -11  133.80   26.47
  -3  -7  11  140.37   25.39
   3   7  11  181.68   29.27
  -3   7 -12   -2.97   19.46
   3   7  12   13.10   23.17
  -3  -7  12   39.14   16.96
   3  -7 -12   -2.86   18.23
  -3  -7  12   12.48   14.59
  -3   7 -13   18.82   18.64
   3   7  13   40.49   26.63
  -3  -7  13   44.82   17.40
   3  -7 -13   45.80   20.74
  -3  -7  13   36.54   17.31
   3   7  14   -3.56   22.85
  -3   7 -14    0.10   20.67
   3  -7 -14   12.63   20.61
  -3  -7  14   36.03   19.30
   3   7  15   64.95   34.79
  -3   7 -15  147.56   34.34
   3  -7 -15  116.30   29.83
  -3  -7  15  118.23   28.68
  -3   8  15  144.34   36.58
  -3   8  15  150.80   34.77
  -3  -8 -14  123.73   33.31
  -3   8  14  145.37   32.53
   3   8 -14  113.97   32.53
   3  -8  14   88.45   27.82
  -3   8  14  144.29   33.51
  -3  -8 -13  138.87   29.10
  -3  -8 -13  125.31   33.25
  -3   8  13  245.38   41.55
   3   8 -13  215.52   35.66
   3  -8  13  201.58   36.77
  -3   8  13  181.28   36.00
  -3  -8 -12  127.16   31.83
  -3   8  12  162.37   33.40
   3   8 -12  116.55   30.00
   3  -8  12   78.41   29.24
  -3  -8 -12   96.85   25.91
  -3   8  12   89.37   28.43
  -3  -8 -11   16.07   16.59
  -3  -8 -11   33.34   24.04
   3   8 -11  -28.74   18.06
  -3   8  11   28.98   17.86
   3  -8  11   22.10   21.42
  -3   8  11   26.44   19.62
  -3  -8 -10  204.87   31.76
  -3  -8 -10  198.75   33.52
   3   8 -10  250.80   33.05
  -3   8  10  274.06   38.60
   3  -8  10  255.80   33.15
   3  -8  10  262.48   44.17
  -3   8  10  230.63   39.28
  -3  -8  -9  225.16   32.15
  -3  -8  -9  230.80   35.05
   3   8  -9  262.94   32.67
  -3   8   9  293.14   36.37
   3  -8   9  265.67   42.85
   3  -8   9  256.17   33.99
  -3   8   9  226.57   38.39
  -3   8   8  322.69   37.07
  -3  -8  -8  255.04   32.91
  -3  -8  -8  272.12   36.42
   3   8  -8  307.50   32.30
   3  -8   8  304.34   38.07
   3  -8   8  337.67   47.68
  -3   8   8  383.94   46.62
   3  -8   7   82.40   20.85
  -3  -8  -7   95.88   22.19
  -3  -8  -7  101.65   22.25
   3   8  -7  137.64   22.49
  -3   8   7  107.29   23.30
   3  -8   7  128.73   29.42
  -3   8   7  133.86   29.36
  -3  -8  -6  360.60   35.97
  -3   8   6  356.68   36.29
   3   8  -6  353.13   32.50
   3  -8   6  420.83   45.52
   3  -8   6  332.39   43.37
  -3   8   6  367.03   41.37
  -3  -8  -5   83.71   19.76
   3  -8   5   90.21   26.03
   3   8  -5   93.34   18.15
   3  -8   5   54.95   18.54
  -3   8   5   73.98   18.26
  -3   8   5  118.31   24.15
  -3   8   4  395.40   34.75
   3   8  -4  398.16   31.88
   3  -8   4  375.20   41.04
   3  -8   4  445.09   50.16
  -3  -8  -4  350.42   34.27
  -3   8   4  413.17   39.62
  -3   8   3  358.02   32.67
   3   8  -3  343.68   28.45
   3  -8   3  390.56   38.15
   3  -8   3  348.48   45.43
  -3   8   3  366.29   35.08
  -3  -8  -3  370.28   35.30
  -3  -8  -2  363.79   34.69
  -3   8   2  339.62   31.85
   3   8  -2  302.15   26.14
   3  -8   2  333.17   32.05
   3  -8   2  382.09   51.32
  -3   8   2  331.88   30.72
  -3  -8  -1   95.38   19.99
   3   8  -1   91.34   15.78
   3  -8   1   70.24   28.43
   3  -8   1  107.30   17.27
   3  -8   1   93.14   15.41
  -3   8   1   84.62   17.06
  -3  -8   0  579.03   41.60
  -3   8   0  533.52   37.51
   3   8   0  567.36   34.68
   3  -8   0  483.57   58.33
   3  -8   0  602.26   35.28
   3   8   1  102.39   15.79
   3  -8  -1  102.23   29.87
   3  -8  -1   95.90   17.07
  -3   8  -1   95.68   18.01
  -3  -8   1   76.91   17.85
  -3  -8   2  343.63   32.45
  -3   8  -2  275.72   28.31
   3   8   2  359.86   28.41
   3  -8  -2  347.44   27.85
   3  -8  -2  297.19   44.62
  -3  -8   3  379.88   34.64
  -3   8  -3  328.15   30.33
   3   8   3  366.95   28.49
   3  -8  -3  341.56   48.98
   3  -8  -3  325.92   29.01
  -3   8  -4  404.40   33.24
   3   8   4  353.65   28.59
   3  -8  -4  347.97   46.50
   3  -8  -4  358.27   31.46
  -3  -8   4  417.14   36.29
   3   8   5  102.94   21.74
  -3   8  -5   61.09   15.99
  -3  -8   5   87.21   19.03
   3   8   5   91.29   16.92
   3  -8  -5   98.92   28.31
   3  -8  -5   54.32   17.64
  -3   8  -6  380.87   33.97
  -3  -8   6  441.50   38.18
   3   8   6  357.80   30.10
   3  -8  -6  364.61   46.96
   3  -8  -6  388.84   34.91
   3   8   6  373.12   37.22
   3   8   7  101.60   24.16
  -3   8  -7  123.25   21.59
   3  -8  -7   54.61   21.25
  -3  -8   7  117.50   22.21
   3  -8  -7  121.34   22.43
  -3   8  -8  340.52   34.56
   3   8   8  307.07   38.81
  -3  -8   8  261.00   30.12
   3  -8  -8  293.06   32.60
   3  -8  -8  320.42   41.15
   3   8   9  273.30   40.12
  -3   8  -9  246.00   32.05
  -3  -8   9  294.77   33.69
   3  -8  -9  240.04   31.29
  -3  -8   9  306.49   33.70
   3  -8  -9  194.54   32.79
   3   8  10  258.89   42.14
  -3  -8  10  250.82   31.73
   3  -8 -10  172.48   30.57
   3  -8 -10  187.10   28.85
  -3  -8  10  226.24   30.90
  -3   8 -10  196.24   29.95
   3   8  11   -5.09   19.52
  -3   8 -11  -18.04   16.91
  -3  -8  11   20.78   13.36
   3  -8 -11   40.13   19.35
  -3  -8  11   51.66   18.76
  -3   8 -12   89.28   23.79
   3   8  12   97.39   33.54
  -3  -8  12  115.37   23.78
   3  -8 -12   53.31   22.21
  -3  -8  12  126.20   26.65
   3   8  13  167.37   41.36
  -3   8 -13  209.26   36.24
  -3  -8  13  180.61   28.44
   3  -8 -13  170.72   32.34
  -3  -8  13  184.92   31.17
   3   8  14   82.78   29.95
  -3   8 -14  137.70   32.58
   3  -8 -14   73.44   24.83
  -3  -8  14  129.88   28.09
  -3  -8  15   92.91   27.31
  -3  -9 -15  -26.89   26.14
  -3  -9 -14  181.90   34.22
  -3  -9 -14  296.80   44.29
  -3   9  14  343.43   49.87
   3   9 -14  236.88   40.75
   3  -9  14  263.87   41.81
  -3   9  14  329.42   48.74
  -3  -9 -13   40.86   17.35
  -3  -9 -13  108.29   28.03
  -3   9  13   80.85   25.56
   3   9 -13   84.70   24.38
   3  -9  13   70.74   25.66
  -3   9  13   90.54   30.68
  -3  -9 -12  172.39   31.64
  -3  -9 -12  227.08   39.23
  -3   9  12  215.96   38.13
   3   9 -12  206.29   33.12
   3  -9  12  215.52   39.05
  -3   9  12  213.58   40.37
  -3  -9 -11   75.23   25.01
  -3  -9 -11   52.53   21.45
   3   9 -11   22.70   18.01
  -3   9  11   91.11   27.78
   3  -9  11   70.37   26.15
  -3   9  11   44.14   25.80
  -3  -9 -10  127.91   26.89
   3   9 -10  162.21   29.21
  -3   9  10  225.31   34.75
   3  -9  10  156.72   34.99
   3  -9  10  192.02   29.25
  -3   9  10  215.63   38.69
  -3  -9  -9   75.53   21.45
   3   9  -9   49.53   18.00
  -3   9   9   66.07   22.63
   3  -9   9   65.98   25.96
   3  -9   9   86.58   22.56
  -3   9   9   65.19   21.50
  -3  -9  -8  582.10   49.02
  -3   9   8  738.61   55.73
   3   9  -8  682.19   47.76
   3  -9   8  682.38   56.53
   3  -9   8  794.18   73.49
  -3   9   8  794.10   64.30
  -3  -9  -7  226.54   31.77
   3  -9   7  334.87   42.02
   3   9  -7  304.36   32.61
  -3   9   7  281.07   34.87
   3  -9   7  345.96   48.54
  -3   9   7  282.51   37.52
  -3  -9  -6  251.88   32.10
   3  -9   6  250.51   38.29
   3   9  -6  243.58   27.81
  -3   9   6  220.09   28.63
   3  -9   6  195.28   36.42
  -3   9   6  208.29   31.27
  -3  -9  -5    3.22   13.40
   3   9  -5   11.65   11.82
   3  -9   5    8.27   17.20
   3  -9   5   13.43   16.82
  -3   9   5    5.56   11.80
  -3   9   5   16.73   15.04
  -3  -9  -4  702.24   48.74
   3   9  -4  768.42   45.31
   3  -9   4  723.13   57.98
   3  -9   4  707.98   65.16
  -3   9   4  742.40   51.46
  -3   9   4  762.03   49.58
  -3  -9  -3  244.49   29.46
  -3   9   3  299.30   30.94
   3   9  -3  261.05   26.89
   3  -9   3  257.76   33.56
   3  -9   3  266.75   43.49
  -3   9   3  284.80   30.81
  -3   9   2  860.81   50.34
   3   9  -2  902.97   46.58
   3  -9   2  828.95   54.04
   3  -9   2  813.94   75.62
  -3  -9  -2  855.93   53.03
  -3  -9  -1  183.68   26.95
   3   9  -1  206.41   22.89
  -3   9   1  164.14   22.93
   3  -9   1  158.85   39.28
  -3  -9   0  307.43   32.15
  -3   9   0  291.65   30.09
   3   9   0  345.07   29.34
   3  -9   0  340.77   28.37
   3  -9   0  317.87   53.60
  -3  -9   1  170.94   25.64
   3   9   1  194.66   22.04
   3  -9  -1  189.11   22.66
  -3   9  -1  196.73   25.33
   3  -9  -1  121.76   35.52
  -3   9  -2  865.93   49.31
   3   9   2  887.88   45.09
   3  -9  -2  840.72   44.48
  -3  -9   2  859.14   52.21
  -3  -9   3  324.20   33.27
  -3   9  -3  286.14   30.79
   3   9   3  313.59   27.61
   3  -9  -3  293.14   29.05
   3  -9  -3  235.65   42.09
  -3   9  -4  712.00   44.56
  -3  -9   4  711.98   47.93
   3   9   4  736.35   42.06
   3  -9  -4  736.60   70.02
   3  -9  -4  773.68   46.47
   3   9   5   28.80   14.44
  -3   9  -5   21.67   14.17
   3   9   5   32.15   14.08
  -3  -9   5   -1.73   12.67
   3  -9  -5   12.67   12.05
   3   9   6  234.59   29.98
  -3   9  -6  253.41   29.69
  -3  -9   6  264.09   31.22
   3   9   6  306.08   28.78
   3  -9  -6  220.88   37.87
   3  -9  -6  297.64   32.09
  -3   9  -7  321.11   32.91
   3   9   7  263.58   33.84
  -3  -9   7  312.51   34.27
   3   9   7  323.98   30.95
   3  -9  -7  291.62   43.65
   3  -9  -7  304.76   33.26
  -3   9  -8  628.01   46.82
  -3  -9   8  654.36   49.61
   3  -9  -8  683.77   61.10
   3  -9  -8  654.19   48.95
   3   9   8  670.89   54.82
   3  -9  -9   67.82   24.30
   3   9   9   75.76   23.91
  -3   9  -9   75.26   20.86
  -3  -9   9   52.45   18.06
   3  -9  -9  111.01   24.32
   3   9  10  181.14   36.55
  -3   9 -10  214.89   31.09
  -3  -9  10  245.89   33.04
   3  -9 -10  170.63   28.53
  -3  -9  10  191.50   28.41
   3  -9 -10  187.07   32.37
   3   9  11   57.30   30.03
  -3   9 -11   49.79   21.37
  -3  -9  11   94.03   24.13
   3  -9 -11   70.71   21.28
  -3  -9  11   66.41   20.67
   3   9  12  233.00   46.23
  -3   9 -12  223.90   33.59
  -3  -9  12  236.48   34.56
   3  -9 -12  247.79   36.87
  -3  -9  12  193.91   30.41
  -3   9 -13  120.44   29.26
   3   9  13  147.61   40.78
  -3  -9  13  100.56   25.55
   3  -9 -13  109.56   27.12
  -3  -9  13   80.41   21.72
   3   9  14  319.17   57.07
  -3   9 -14  340.63   45.09
  -3  -9  14  294.89   38.70
   3  -9 -14  301.84   42.73
  -3  -9  14  296.02   39.57
  -3  10  14    6.48   19.01
  -3 -10 -13  100.12   27.11
  -3  10  13  186.82   38.76
   3  10 -13  107.92   27.83
   3 -10  13  162.55   37.21
  -3  10  13  148.18   35.98
  -3 -10 -12   55.09   22.83
  -3  10  12  109.34   30.75
   3  10 -12   77.14   27.77
   3 -10  12   54.17   24.43
  -3  10  12   40.59   23.84
  -3 -10 -11   30.95   20.21
   3  10 -11   43.99   20.11
  -3  10  11   30.98   21.10
   3 -10  11   23.41   20.10
  -3  10  11    4.24   20.36
  -3 -10 -10   25.16   16.56
   3  10 -10   54.78   20.02
  -3  10  10   67.70   24.62
   3 -10  10   76.09   28.37
   3 -10  10  101.78   25.37
  -3  10  10   75.97   24.06
   3 -10   9  103.87   25.72
  -3 -10  -9   74.86   22.59
   3  10  -9   86.56   20.96
  -3  10   9  166.06   31.79
   3 -10   9   95.62   28.79
  -3  10   9  129.22   30.93
  -3 -10  -8   47.32   20.03
   3 -10   8   72.94   21.96
   3  10  -8   54.23   18.42
  -3  10   8   66.02   21.81
   3 -10   8   59.11   25.03
  -3  10   8   86.95   24.97
  -3 -10  -7  230.58   32.93
   3  10  -7  208.48   28.39
   3 -10   7  249.01   37.24
  -3  10   7  192.19   30.86
   3 -10   7  207.98   41.13
  -3  10   7  213.57   34.31
  -3 -10  -6   77.13   21.24
   3  10  -6   78.13   19.44
  -3  10   6  134.67   24.35
   3 -10   6   79.59   26.08
   3 -10   6  100.60   28.38
  -3  10   6   74.85   22.22
  -3 -10  -5   76.81   21.90
   3  10  -5   86.24   18.56
   3 -10   5   69.26   24.82
  -3  10   5   69.42   19.37
   3 -10   5   83.72   25.78
  -3  10   5  112.28   23.79
  -3 -10  -4   40.18   15.22
   3  10  -4   77.53   17.79
   3 -10   4   64.67   25.19
  -3  10   4   52.75   18.60
   3 -10   4    5.36   22.18
  -3  10   4   25.88   13.76
   3 -10   3  294.20   47.38
  -3 -10  -3  302.25   34.15
  -3  10   3  320.54   33.60
   3  10  -3  302.58   29.17
   3 -10   3  271.51   36.28
   3 -10   2  151.30   39.45
  -3 -10  -2  103.81   21.97
   3  10  -2   92.52   17.64
  -3  10   2  134.28   23.25
  -3 -10  -1  134.52   24.28
   3  10  -1  187.27   24.32
  -3  10   1  140.51   22.76
  -3 -10   0   31.04   15.24
   3 -10   0   33.48   32.31
   3  10   0   19.12   11.63
   3 -10   0   10.13   10.61
  -3  10   0   22.90   12.76
  -3 -10   1  176.36   27.32
   3 -10  -1  114.33   41.73
   3  10   1  157.94   21.94
   3 -10  -1  124.95   18.96
  -3  10  -1  121.26   21.65
   3 -10  -2   81.78   31.72
  -3 -10   2  108.83   21.78
   3  10   2  113.38   18.77
   3 -10  -2  127.92   20.66
  -3  10  -2  109.46   20.24
   3 -10  -3  242.63   46.12
  -3 -10   3  330.83   35.33
  -3  10  -3  292.49   31.43
   3  10   3  311.21   30.53
   3 -10  -3  316.47   29.95
   3 -10  -4   35.60   24.95
  -3  10  -4   52.37   15.88
  -3 -10   4   32.26   14.35
   3  10   4   95.77   18.48
   3 -10  -4   45.37   15.43
  -3  10  -4   54.09   15.65
   3  10   5   76.92   18.32
  -3  10  -5   64.67   17.50
  -3 -10   5   91.75   22.27
   3  10   5   60.85   15.52
   3 -10  -5  135.22   23.01
   3 -10  -5   74.09   28.06
   3  10   6   85.25   20.21
  -3  10  -6  107.22   21.56
  -3 -10   6  130.49   24.57
   3  10   6  120.39   19.48
   3 -10  -6  103.62   22.21
   3 -10  -6   77.85   28.95
   3  10   7  212.07   31.29
  -3  10  -7  231.73   30.39
  -3 -10   7  229.73   31.22
   3  10   7  211.18   27.34
   3 -10  -7  237.17   41.05
   3 -10  -7  184.43   27.19
   3  10   8   38.20   18.12
  -3  10  -8   63.57   17.71
  -3 -10   8   50.47   19.80
   3  10   8   82.45   20.22
   3 -10  -8   17.81   18.87
   3 -10  -8   53.85   19.53
   3  10   9   98.87   27.23
  -3  10  -9  166.48   27.75
  -3 -10   9  148.18   26.88
   3 -10  -9  130.68   30.06
   3 -10  -9  116.87   26.46
   3 -10 -10   72.28   24.40
   3  10  10   69.94   25.83
  -3  10 -10   54.23   20.17
  -3 -10  10   46.22   18.73
   3 -10 -10   54.39   21.39
  -3 -10  10   80.89   21.36
  -3  10 -11   19.58   19.22
  -3 -10  11   53.08   20.67
   3 -10 -11   37.42   20.18
  -3 -10  11    6.45   13.37
   3  10  12   71.83   26.86
  -3  10 -12  100.21   27.14
  -3 -10  12   50.34   22.43
   3 -10 -12   71.91   27.06
  -3 -10  12   48.89   18.61
   3  10  13   90.74   32.15
  -3  10 -13  120.21   28.93
  -3 -10  13  167.08   31.53
   3 -10 -13  173.59   33.74
  -3 -10  13  117.95   26.21
  -3 -10  14  -26.02   19.69
  -3 -10  14   13.40   13.37
  -3 -10  14  -14.36   19.05
  -3 -11 -13   21.51   16.76
  -3  11  13   34.52   21.65
  -3 -11 -12   33.48   21.14
  -3  11  12  104.96   28.45
   3  11 -12   87.66   26.88
   3 -11  12   91.29   28.14
  -3  11  12  102.27   31.15
  -3 -11 -11  146.49   30.81
   3  11 -11   76.84   24.71
  -3  11  11  120.34   31.20
   3 -11  11  123.11   31.87
  -3  11  11   94.45   30.50
   3 -11  10   30.88   21.60
  -3 -11 -10   25.12   17.18
   3  11 -10   -7.21   18.92
  -3  11  10   35.51   22.60
   3 -11  10   35.28   21.22
  -3  11  10   -8.38   20.38
  -3 -11  -9   10.09   15.64
   3 -11   9   12.02   15.39
   3  11  -9   30.16   17.27
  -3  11   9   43.36   22.70
   3 -11   9  -10.89   21.24
  -3  11   9   17.98   17.50
  -3 -11  -8   83.66   23.19
   3  11  -8   92.91   23.14
   3 -11   8  118.48   28.58
  -3  11   8  116.95   27.52
   3 -11   8  105.88   31.80
  -3  11   8  134.90   28.99
  -3 -11  -7   55.06   20.58
   3  11  -7   71.34   19.15
  -3  11   7   85.50   23.10
   3 -11   7   66.09   27.16
   3 -11   7   70.75   24.59
  -3  11   7   72.26   21.74
  -3 -11  -6   93.67   23.29
   3  11  -6   83.56   20.63
   3 -11   6  116.72   36.56
  -3  11   6   97.63   22.83
   3 -11   6   71.58   27.17
  -3  11   6  111.38   25.36
   3 -11   5  165.79   36.46
  -3 -11  -5  163.89   27.93
   3  11  -5  151.35   23.86
   3 -11   5  135.42   31.60
  -3  11   5  214.25   30.15
   3 -11   4   65.91   27.38
  -3 -11  -4   84.38   21.93
   3  11  -4  102.44   21.26
   3 -11   4  124.83   30.43
  -3  11   4  101.23   22.77
  -3 -11  -3   49.05   18.34
   3 -11   3   50.56   30.30
   3  11  -3   40.64   15.21
  -3  11   3   61.40   17.86
  -3 -11  -2  207.47   30.54
   3  11  -2  257.65   28.88
   3 -11   2  226.75   45.02
  -3  11   2  215.07   29.02
  -3 -11  -1  165.33   27.39
   3  11  -1  198.31   24.93
  -3  11   1  228.73   29.02
  -3 -11   0   24.26   14.60
   3  11   0   -0.43   12.04
   3 -11   0   -5.23   12.87
  -3  11   0   -6.13   12.22
  -3 -11   1  228.64   31.84
   3  11   1  190.22   24.27
   3 -11  -1  167.63   45.26
   3 -11  -1  189.34   25.01
  -3  11  -1  208.27   27.85
  -3 -11   2  225.71   30.62
   3  11   2  211.00   25.53
   3 -11  -2  204.48   47.47
   3 -11  -2  168.95   23.00
  -3  11  -2  203.09   28.10
  -3 -11   3   35.37   17.77
   3  11   3   40.55   14.45
   3 -11  -3   47.10   26.52
   3 -11  -3   52.24   16.59
  -3  11  -3   43.86   15.20
  -3  11  -4  103.20   21.00
  -3 -11   4  126.90   24.62
   3 -11  -4   65.27   29.75
   3  11   4   90.88   18.80
   3 -11  -4  113.12   22.07
  -3  11  -4  107.94   22.83
   3 -11  -5  171.17   40.14
  -3  11  -5  174.16   26.53
  -3 -11   5  136.55   24.59
   3  11   5  234.15   28.04
   3 -11  -5  187.67   26.78
  -3  11  -5  180.35   26.90
   3  11   6   81.18   19.50
  -3  11  -6   89.23   20.18
  -3 -11   6  138.03   27.10
   3  11   6  120.33   23.10
   3 -11  -6   92.31   21.08
  -3  11  -6  124.89   23.78
   3 -11  -6  149.06   38.51
   3  11   7   55.61   19.61
  -3  11  -7   86.36   21.48
  -3 -11   7   65.03   19.22
   3  11   7   84.37   20.11
   3 -11  -7   61.51   18.60
   3 -11  -7   92.76   32.37
   3  11   8  140.91   28.49
  -3  11  -8  127.97   24.75
  -3 -11   8   99.21   21.64
   3  11   8  127.46   24.98
   3 -11  -8  118.90   33.21
   3 -11  -8   90.94   23.14
   3  11   9   20.21   20.44
  -3  11  -9   26.41   17.72
  -3 -11   9   37.80   18.70
   3 -11  -9   11.45   16.51
   3 -11  -9   32.56   17.77
   3  11  10   -6.83   19.36
  -3  11 -10   28.80   17.33
   3 -11 -10   -8.51   16.86
  -3 -11  10    3.36   14.55
   3 -11 -10   25.40   18.99
  -3 -11  10    5.01   12.18
   3  11  11  118.99   29.80
  -3  11 -11  143.75   28.71
  -3 -11  11  138.81   26.93
   3 -11 -11  109.52   26.08
  -3 -11  11  112.02   23.87
   3  11  12  133.20   37.59
  -3  11 -12   71.26   25.63
  -3 -11  12  103.76   27.09
   3 -11 -12  106.70   27.39
  -3 -11  12   96.68   23.09
  -3 -11  13   -7.89   15.00
  -3 -11  13    6.55   14.14
  -3 -12 -12  147.27   31.18
   3 -12  12  205.86   42.98
  -3  12  12  231.78   40.50
  -3 -12 -11   71.68   21.94
   3  12 -11  119.36   28.77
  -3  12  11  125.98   31.86
   3 -12  11  152.71   36.90
  -3  12  11  151.64   35.11
  -3 -12 -10   99.97   25.97
   3 -12  10  146.68   31.94
   3  12 -10  124.99   26.17
  -3  12  10  153.34   32.90
   3 -12  10   92.50   29.31
  -3  12  10  161.42   34.80
  -3 -12  -9  141.56   28.16
   3  12  -9  168.37   28.56
   3 -12   9  177.26   34.19
  -3  12   9  257.37   38.94
   3 -12   9  258.71   45.32
  -3  12   9  158.86   32.16
  -3 -12  -8   12.07   17.93
   3  12  -8   18.94   16.76
  -3  12   8   -1.70   14.68
   3 -12   8   13.26   19.11
   3 -12   8   -0.42   17.40
  -3  12   8   25.67   19.86
   3  12  -7   33.64   16.67
  -3  12   7   -2.40   17.08
   3 -12   7   37.63   29.33
  -3 -12  -7   65.53   22.06
   3 -12   7   12.78   20.38
   3 -12   6  383.40   51.85
  -3 -12  -6  373.33   41.98
  -3  12   6  463.73   46.17
   3  12  -6  431.52   39.79
   3 -12   6  321.41   52.21
  -3 -12  -5  466.52   45.45
   3 -12   5  463.15   61.64
   3  12  -5  444.62   40.48
   3 -12   5  372.35   56.88
  -3  12   5  474.84   44.82
   3  12  -4   89.79   21.10
   3 -12   4   60.06   30.38
  -3  12   4   77.67   20.72
  -3 -12  -4   73.09   20.17
  -3 -12  -3  147.17   27.40
   3  12  -3  119.87   21.44
  -3  12   3  147.69   27.15
   3 -12   3  142.28   38.79
  -3 -12  -2   63.40   18.94
   3  12  -2   70.05   18.80
  -3  12   2   66.88   18.45
   3 -12   2   72.73   37.79
   3 -12   1  504.36   73.57
  -3 -12  -1  413.74   41.09
  -3  12   1  512.17   43.95
   3  12  -1  447.37   37.76
  -3 -12   0  303.28   37.04
   3 -12   0  287.66   63.18
  -3  12   0  284.21   33.62
   3  12   0  344.25   32.63
   3 -12   0  345.22   32.56
  -3 -12   1  442.31   43.46
   3 -12  -1  319.22   62.69
  -3  12  -1  381.67   38.40
   3  12   1  471.99   37.61
   3 -12  -1  410.90   36.55
   3  12   2   60.26   16.07
  -3 -12   2  107.00   24.29
   3 -12  -2   70.97   17.21
  -3  12  -2   83.32   21.24
  -3 -12   3  115.29   24.99
   3  12   3  135.19   22.96
   3 -12  -3  133.89   23.81
  -3  12  -3  156.70   26.69
   3 -12  -3  135.87   44.23
  -3  12  -4   64.45   18.88
  -3 -12   4  109.35   25.03
   3  12   4   82.66   19.67
   3 -12  -4  124.68   42.27
   3 -12  -4   75.60   19.55
  -3  12  -4   93.90   21.71
  -3  12  -5  451.99   39.81
  -3  12  -5  412.60   40.33
   3  12   5  449.78   39.09
   3 -12  -5  390.47   60.33
   3 -12  -5  455.91   41.37
  -3 -12   5  470.01   45.42
  -3  12  -6  393.82   38.10
   3 -12  -6  368.33   58.06
  -3 -12   6  451.34   44.94
  -3  12  -6  389.85   39.85
   3  12   6  415.83   37.89
   3 -12  -6  403.23   40.38
   3  12   6  418.87   40.43
   3  12   7   23.80   16.10
  -3  12  -7   20.86   16.94
  -3 -12   7    9.50   15.45
   3  12   7   10.90   14.41
   3 -12  -7   25.82   15.99
  -3  12  -7   19.31   15.02
   3  12   8   16.48   16.27
  -3  12  -8   -7.91   14.48
  -3 -12   8   17.64   15.45
   3  12   8   11.98   15.98
   3 -12  -8   -7.62   14.18
   3 -12  -8   45.25   28.65
   3  12   9  221.31   37.08
  -3  12  -9  238.80   33.05
  -3 -12   9  252.99   36.65
   3  12   9  225.96   31.66
   3 -12  -9  224.07   42.35
   3 -12  -9  143.93   28.26
   3  12  10  116.71   28.95
  -3  12 -10  138.57   28.49
  -3 -12  10  155.02   32.00
   3 -12 -10   90.37   27.56
   3 -12 -10  215.60   34.32
   3  12  11  141.43   36.39
  -3  12 -11  140.95   29.61
  -3 -12  11  114.83   27.96
   3 -12 -11  120.01   28.77
  -3 -12  11  105.16   24.92
   3  12  12  170.30   37.55
  -3 -12  12  218.49   33.94
  -3  13  12    8.57   19.57
   3 -13  11  135.27   31.39
  -3  13  11  259.57   44.59
  -3 -13 -10  -44.91   21.32
   3  13 -10  -15.09   16.95
   3 -13  10    7.40   19.65
  -3  13  10    4.43   16.64
  -3 -13  -9   64.62   23.57
   3  13  -9  114.59   26.77
  -3  13   9  138.92   30.76
   3 -13   9  146.48   31.90
   3 -13   9  131.75   35.65
  -3 -13  -8   75.49   24.13
   3  13  -8   44.06   17.49
  -3  13   8  104.71   28.09
   3 -13   8  115.66   33.68
   3 -13   8  100.16   32.36
   3 -13   7   85.04   29.47
  -3 -13  -7   62.93   21.11
   3  13  -7   53.71   21.16
  -3  13   7   85.56   24.20
   3 -13   7  125.25   35.19
  -3 -13  -6   70.30   21.27
   3 -13   6   35.73   25.39
   3  13  -6   24.62   15.90
  -3  13   6   29.02   17.54
   3 -13   6    9.89   24.78
  -3 -13  -5  498.01   48.12
  -3  13   5  497.95   48.74
   3  13  -5  518.89   43.79
   3 -13   5  495.88   65.33
  -3 -13  -4   46.09   21.21
   3  13  -4   52.99   18.22
  -3  13   4   48.59   19.42
   3 -13   4   32.53   28.27
   3 -13   3   19.87   27.71
  -3 -13  -3   62.05   20.85
   3  13  -3   56.46   19.86
  -3  13   3   55.16   18.90
  -3 -13  -2  106.44   26.58
   3 -13   2   86.75   41.44
   3  13  -2  107.89   22.59
  -3  13   2  123.55   26.66
  -3 -13  -1  373.12   40.73
  -3  13   1  454.74   42.55
   3  13  -1  443.58   39.12
   3 -13   1  449.36   73.96
  -3 -13   0   -1.76   15.00
   3  13   0   -6.06   13.51
   3 -13   0  -32.29   33.33
  -3  13   0    3.85   13.62
  -3 -13   1  459.56   45.77
  -3  13  -1  434.47   41.70
   3  13   1  405.73   37.55
   3 -13  -1  477.92   40.46
  -3 -13   2  143.42   28.26
   3  13   2  142.00   24.07
   3 -13  -2  119.26   46.42
   3 -13  -2  152.26   24.80
  -3  13  -2  119.05   24.30
   3 -13  -3   73.24   35.62
  -3 -13   3   74.10   22.86
   3  13   3   48.48   15.60
   3 -13  -3   62.64   18.74
  -3  13  -3   54.41   18.38
  -3  13  -4   12.05   12.98
  -3 -13   4   29.27   15.35
   3  13   4   72.20   19.45
   3 -13  -4   15.18   13.35
  -3  13  -4   34.71   16.79
   3 -13  -4   17.65   30.03
  -3  13  -5  561.29   46.00
  -3 -13   5  488.88   48.79
  -3  13  -5  481.20   43.57
   3  13   5  513.46   43.05
   3 -13  -5  548.99   45.94
   3 -13  -5  430.32   66.88
   3  13   6   14.04   12.75
  -3  13  -6   59.22   19.28
  -3 -13   6   29.95   17.08
   3  13   6    7.39   15.12
   3 -13  -6   46.91   33.78
   3 -13  -6   36.32   18.90
  -3  13  -6   28.02   15.23
   3  13   7   96.83   23.65
   3 -13  -7   41.40   29.84
  -3  13  -7   83.00   22.56
  -3 -13   7  106.90   26.20
   3  13   7   66.12   19.60
   3 -13  -7   94.44   21.83
  -3  13  -7   68.22   21.59
   3  13   8  101.60   25.70
  -3  13  -8  102.07   25.68
  -3 -13   8   84.54   24.56
   3  13   8   56.09   21.34
   3 -13  -8   80.35   23.79
  -3  13  -8  104.53   24.35
   3 -13  -8   70.51   26.16
   3  13   9   70.60   20.67
  -3  13  -9  111.32   25.21
  -3 -13   9  131.18   29.10
   3  13   9  145.60   28.01
   3 -13  -9  114.43   25.78
   3 -13  -9   49.25   24.34
  -3  13  -9  100.70   23.65
   3  13  10   -1.04   17.45
  -3  13 -10    8.54   17.82
  -3 -13  10  -16.65   19.57
   3  13  10   13.87   19.42
   3 -13 -10   -9.90   16.06
   3 -13 -10   -3.18   17.63
   3  13  11  268.28   38.71
   3  13  11  194.55   37.30
  -3 -13  11  244.78   34.16
   3 -14  10   11.92   18.32
  -3 -14  -9   -4.02   16.21
   3 -14   9   22.55   25.90
   3 -14   9   17.67   19.32
  -3 -14  -8   18.14   17.05
   3  14  -8   23.52   16.39
  -3  14   8   67.66   24.14
   3 -14   8   24.39   18.70
   3 -14   8   10.02   19.56
   3 -14   7   16.50   25.40
  -3 -14  -7    7.27   14.39
   3  14  -7    1.92   16.18
  -3  14   7   22.03   20.22
  -3 -14  -6   61.46   24.22
   3 -14   6   91.01   30.27
   3  14  -6  127.80   29.28
  -3  14   6   83.32   25.13
  -3 -14  -5   16.52   17.81
   3  14  -5   41.61   19.39
  -3  14   5   40.18   19.44
   3 -14   5    0.15   21.11
   3 -14   4   46.28   30.30
  -3 -14  -4   12.16   13.62
   3  14  -4   -0.53   15.80
  -3  14   4   51.54   21.24
  -3 -14  -3   69.86   22.34
   3 -14   3   30.11   32.53
   3  14  -3   26.36   15.11
  -3  14   3   66.10   20.68
  -3 -14  -2  135.43   28.49
   3  14  -2  118.45   24.13
  -3  14   2  162.98   29.82
   3 -14   2  126.58   47.08
  -3 -14  -1    8.10   16.83
   3  14  -1    2.64   14.10
  -3  14   1   28.91   17.01
  -3 -14   0   -2.18   14.71
   3 -14   0  -32.45   42.49
   3  14   0  -22.48   14.73
  -3  14   0   -3.32   13.55
  -3 -14   1   22.97   19.56
   3  14   1   11.89   12.95
  -3  14  -1   29.78   17.78
   3 -14  -1   30.76   16.94
  -3 -14   2  112.13   26.85
   3  14   2  103.74   21.18
   3 -14  -2  146.39   25.96
  -3  14  -2  128.67   26.09
   3 -14  -2  100.31   52.19
  -3 -14   3    7.47   16.34
   3  14   3   35.74   16.61
   3 -14  -3   12.12   15.77
  -3  14  -3   19.82   15.12
  -3  14  -4   38.71   18.44
  -3 -14   4   11.00   16.07
   3 -14  -4   54.20   34.48
   3  14   4   18.25   13.21
   3 -14  -4   18.90   15.03
  -3  14  -4   53.68   19.14
  -3  14  -5   14.38   17.12
  -3 -14   5    3.30   17.41
   3  14   5   45.26   18.69
   3 -14  -5   -7.55   19.08
  -3  14  -5  -11.19   13.87
   3 -14  -5   61.22   35.98
  -3  14  -6  131.92   27.05
  -3 -14   6   98.40   24.72
   3  14   6  125.34   25.56
   3 -14  -6  103.38   36.24
   3 -14  -6   89.74   21.96
  -3  14  -6   53.73   18.60
  -3  14  -7   21.82   16.88
  -3 -14   7    2.22   17.29
   3 -14  -7  -17.11   27.55
   3  14   7   26.45   17.12
   3 -14  -7   23.64   17.00
  -3  14  -7  -26.37   17.51
   3 -14  -8    1.89   23.70
   3  14   8   32.88   15.41
  -3  14  -8   35.27   20.42
  -3 -14   8   60.07   23.68
   3  14   8   57.09   22.61
   3 -14  -8   31.64   20.34
  -3  14  -8   40.71   18.43
   3  14   9    1.46   15.72
  -3  14  -9    3.40   15.97
   3  14   9   54.53   20.13
   3 -14  -9  -28.82   27.59
  -3  14  -9   16.17   16.49
   3  14  10   60.44   23.56
   3 -15   8  144.83   36.40
  -3 -15  -7   47.40   21.39
   3 -15   7  164.39   38.99
  -3 -15  -6   37.52   18.95
   3  15  -6    9.21   14.99
   3 -15   6   41.60   25.57
  -3 -15  -5   51.10   20.95
   3  15  -5   43.15   21.12
  -3  15   5   50.16   23.28
   3 -15   5   50.60   29.83
  -3 -15  -4  166.68   32.02
   3 -15   4  196.64   49.44
   3  15  -4  193.26   30.07
  -3  15   4  253.05   37.39
  -3 -15  -3  163.46   32.03
   3  15  -3  144.24   26.49
  -3  15   3  156.73   30.15
   3 -15   3  185.59   49.62
   3 -15   2  122.79   42.70
  -3 -15  -2  128.65   29.13
   3  15  -2  147.80   27.55
  -3  15   2  164.97   29.45
  -3 -15  -1  103.96   27.18
   3  15  -1  110.98   24.20
   3 -15   1   96.80   46.53
  -3  15   1  134.55   27.03
  -3 -15   0   61.75   23.27
   3  15   0   89.57   22.97
   3 -15   0   22.64   42.57
  -3  15   0   55.33   20.72
  -3 -15   1   86.25   25.95
   3  15   1   97.96   22.33
   3 -15  -1   68.41   42.04
  -3  15  -1  112.10   24.51
  -3 -15   2  142.95   30.21
   3  15   2  121.04   23.46
   3 -15  -2  179.20   57.22
  -3  15  -2  117.04   25.80
   3 -15  -2  153.23   27.44
   3 -15  -3  190.76   58.13
  -3 -15   3  203.71   34.08
   3  15   3  177.93   28.95
   3 -15  -3  216.17   31.17
  -3  15  -3  150.58   28.98
  -3  15  -4  190.55   30.08
  -3 -15   4  227.57   36.28
   3  15   4  192.39   30.88
   3 -15  -4  135.54   44.24
   3 -15  -4  249.26   35.19
  -3  15  -4  172.27   28.67
  -3  15  -5   32.08   17.16
   3 -15  -5  106.07   41.50
  -3 -15   5   58.00   23.53
   3  15   5   60.78   22.50
   3 -15  -5   88.56   23.39
  -3  15  -5    4.30   13.72
  -3  15  -6   41.41   17.37
  -3 -15   6   55.78   21.36
   3  15   6   74.02   21.53
   3 -15  -6   24.10   17.54
  -3  15  -6   17.15   15.63
   3 -15  -6   58.55   37.55
  -3  15  -7   90.22   25.27
   3  15   7   67.76   23.26
   3 -15  -7   41.67   25.05
  -3  15  -7   29.50   17.02
   3 -15  -8  105.24   34.29
  -3 -16  -3  224.53   36.96
  -3 -16  -2  111.79   27.26
   3  16  -2   85.83   24.26
  -3  16   2  101.06   26.50
  -3 -16  -1   46.14   22.99
   3  16  -1  111.87   23.09
  -3  16   1   90.77   24.26
  -3 -16   0  105.39   27.16
   3  16   0  160.77   29.68
  -3  16   0   95.58   24.77
  -3 -16   1   52.25   22.04
   3  16   1   73.35   20.66
  -3  16  -1   58.98   19.26
  -3 -16   2   82.19   25.24
   3  16   2  104.50   24.49
  -3  16  -2   55.80   20.96
   3  16   3  253.47   34.60
  -3  16  -3  212.95   33.10
   3 -16  -3  297.62   36.85
  -3  16  -4   99.59   25.35
  -4   0   0  268.57   24.12
  -4   0   0  236.58   23.33
  -4   0   0  254.34   22.91
   4   0   0  264.99   38.29
  -4   0   1  497.07   31.11
  -4   0  -1  493.64   32.39
  -4   0  -1  471.95   33.55
  -4   0   1  453.93   30.65
  -4   0   1  509.48   31.19
   4   0   1  457.54   49.80
   4   0  -1  504.33   52.22
  -4   0  -2   38.44   11.42
  -4   0  -2   14.51   10.21
  -4   0   2   34.33   10.84
  -4   0   2   16.43    8.85
  -4   0   2   25.13   12.29
   4   0   2   16.80   20.14
   4   0  -2    1.54   19.96
  -4   0  -3   62.43   14.64
  -4   0  -3   63.36   15.42
  -4   0   3   55.44   12.06
  -4   0   3   70.09   13.34
  -4   0   3   43.05   14.47
   4   0   3   32.16   19.51
   4   0  -3   49.76   20.01
  -4   0  -4   78.31   17.14
  -4   0   4   76.49   14.28
  -4   0   4   52.68   15.45
   4   0   4   85.83   26.63
   4   0  -4   51.86   21.42
  -4   0  -5  650.17   43.48
  -4   0   5  678.38   47.75
   4   0   5  644.60   58.44
   4   0  -5  636.40   55.85
  -4   0  -6  289.36   31.11
   4   0   6  282.79   34.97
  -4   0   6  285.30   34.14
   4   0   6  280.19   39.29
   4   0  -6  305.14   38.65
  -4   0  -7   92.09   20.98
   4   0   7   64.35   20.20
  -4   0   7   77.83   21.85
   4   0   7   88.17   24.18
   4   0  -7   92.22   25.07
  -4   0  -8   20.98   14.51
   4   0   8   28.81   18.58
  -4   0   8   34.86   15.72
   4   0   8   12.82   15.33
   4   0  -8   20.03   18.59
   4   0  -9  338.43   40.39
  -4   0  -9  319.78   37.76
   4   0   9  397.38   46.14
  -4   0   9  360.86   43.22
   4   0   9  332.05   41.00
   4   0  10   94.93   25.70
   4   0 -10   45.59   18.47
  -4   0 -10  127.06   28.63
   4   0  10   87.42   26.07
  -4   0  10   80.25   25.55
  -4   0 -11  140.92   33.73
   4   0  11  117.87   30.96
  -4   0  11  185.93   34.92
  -4   0 -12   25.87   23.29
   4   0  12   25.03   21.86
  -4   0  12   18.12   20.12
  -4   0 -13    3.22   23.99
   4   0  13   45.20   23.12
  -4   0  13   51.43   24.77
  -4   0 -14   24.08   24.08
   4   0  14   50.22   24.79
  -4   0  14   15.06   21.23
  -4  -1 -14   20.21   25.00
   4  -1  14   15.49   21.47
  -4   1  14   14.42   22.11
  -4  -1 -13  162.36   38.80
   4  -1  13  259.37   44.73
  -4   1  13  179.89   36.65
  -4  -1 -12  221.77   41.92
   4  -1  12  175.04   35.65
  -4   1  12  203.71   39.99
   4   1 -11   65.81   21.92
  -4  -1 -11  113.89   32.40
   4  -1  11   77.61   25.02
  -4   1  11  119.91   28.38
   4  -1  10   28.95   19.39
  -4  -1 -10    7.25   20.31
   4   1 -10   -1.57   14.66
   4  -1  10   41.39   20.65
  -4   1  10   11.66   17.40
   4   1 -10    5.68   14.49
   4  -1   9   89.66   24.62
  -4  -1  -9  135.71   29.03
   4   1  -9   61.80   21.15
   4  -1   9   83.92   25.34
  -4   1   9  105.30   27.46
   4   1  -9  148.52   29.03
   4  -1   8  226.73   34.97
  -4  -1  -8  263.40   35.36
   4   1  -8  220.39   32.48
   4  -1   8  228.67   35.51
  -4   1   8  273.53   37.35
   4   1  -8  222.26   32.99
  -4  -1  -7  650.66   49.32
   4   1  -7  523.97   43.37
   4  -1   7  602.80   50.58
  -4   1   7  613.78   51.39
   4   1  -7  508.81   48.40
   4  -1   7  664.23   59.73
  -4  -1  -6  101.82   20.99
  -4   1   6  161.01   22.55
   4  -1   6  122.10   25.04
  -4   1   6   94.67   22.35
   4   1  -6   83.84   22.59
   4  -1   6   97.41   26.03
  -4  -1  -5    7.06   11.59
   4  -1   5    5.12   16.71
  -4   1   5    1.44    8.44
   4  -1   5   14.15   13.06
  -4   1   5    9.38   12.40
   4   1  -5   -3.63   18.80
   4  -1   5   21.91   21.52
  -4  -1  -4  118.63   20.25
   4  -1   4   57.72   21.91
  -4   1   4   83.60   15.28
  -4   1   4   60.01   15.78
   4   1  -4  111.47   27.85
   4  -1   4  120.06   29.39
  -4  -1  -3  680.83   40.28
   4  -1   3  697.22   61.42
  -4  -1  -3  621.76   43.07
  -4   1   3  660.98   37.98
  -4   1   3  680.36   44.94
   4   1  -3  669.52   59.17
   4  -1   3  545.83   53.43
  -4  -1  -2  259.15   24.40
  -4   1   2  226.11   20.41
  -4  -1  -2  199.37   24.26
  -4   1   2  239.00   23.50
   4  -1   2  185.48   34.65
  -4   1   2  226.39   25.93
   4   1  -2  204.81   35.21
   4  -1   2  223.40   37.21
  -4  -1  -1  363.30   27.56
  -4  -1  -1  320.73   28.86
  -4   1   1  352.18   26.16
  -4   1   1  403.31   29.57
   4  -1   1  312.78   42.99
  -4   1   1  374.49   31.04
   4   1  -1  353.00   45.32
   4  -1   1  363.58   45.04
  -4   1   0   76.99   14.04
  -4  -1   0   75.98   13.80
  -4   1   0   98.72   15.19
  -4  -1   0   57.77   13.58
   4  -1   0  100.63   26.23
  -4   1   0   77.79   13.94
  -4   1   0   59.88   13.42
  -4  -1   0   82.05   13.74
   4   1   0   64.80   25.84
   4  -1   0   63.67   21.54
  -4  -1   1  372.12   25.89
  -4   1  -1  402.22   30.32
  -4   1  -1  364.63   29.29
  -4  -1   1  414.04   31.25
  -4  -1   1  373.54   25.98
   4  -1  -1  330.23   44.18
   4   1   1  310.54   42.76
   4  -1  -1  343.59   43.30
  -4  -1   2  250.71   21.12
  -4   1  -2  254.11   25.69
  -4   1  -2  236.93   25.63
  -4  -1   2  248.49   24.60
  -4  -1   2  226.17   20.34
   4  -1  -2  200.09   36.04
   4   1   2  184.94   33.46
   4  -1  -2  164.55   31.44
  -4   1  -3  643.36   39.97
  -4  -1   3  639.83   36.47
  -4  -1   3  678.76   34.78
   4  -1  -3  639.73   58.38
  -4  -1   3  671.53   43.90
   4   1   3  600.23   56.58
   4  -1  -3  673.50   59.84
  -4   1  -4   54.84   15.66
  -4  -1   4   90.56   14.88
   4  -1  -4   66.86   24.04
  -4  -1   4   99.49   20.15
   4   1   4   51.03   20.62
   4  -1  -4   83.72   24.13
  -4   1  -5   14.28   13.05
  -4  -1   5    5.38    7.59
   4  -1  -5   -5.31   20.08
  -4  -1   5   17.85   13.45
   4   1   5   14.25   18.30
   4  -1  -5   19.87   18.73
  -4   1  -6  101.36   21.48
   4  -1  -6   92.20   28.00
  -4  -1   6   94.18   21.07
   4   1   6  146.67   31.21
   4  -1  -6  108.37   27.32
  -4   1  -7  613.11   46.95
  -4  -1   7  599.64   48.90
   4   1   7  509.95   51.73
   4  -1  -7  551.30   51.19
   4  -1  -8  222.14   34.25
  -4   1  -8  230.91   31.80
   4   1   8  240.99   35.54
  -4  -1   8  222.89   32.32
   4   1   8  231.72   36.61
   4  -1  -9   59.35   18.29
  -4   1  -9   88.02   23.20
   4   1   9  109.92   26.56
  -4  -1   9  121.13   25.62
   4   1   9  110.10   26.70
   4  -1 -10   26.92   15.83
  -4   1 -10   14.64   17.07
   4   1  10    8.61   14.82
  -4  -1  10   13.35   17.76
   4   1  10   22.03   16.02
  -4   1 -11  104.44   28.33
   4   1  11   75.83   26.20
  -4  -1  11  119.80   28.50
  -4   1 -12  198.30   39.66
   4  -1 -12  143.86   29.33
   4   1  12  151.71   32.51
  -4  -1  12  228.85   40.88
  -4   1 -13  229.37   42.94
   4  -1 -13  145.17   32.13
   4   1  13  208.76   39.07
  -4  -1  13  194.25   39.79
   4   1  14   17.61   24.47
  -4   1 -14   69.98   31.41
   4  -1 -14   31.02   21.35
   4   1  14   24.74   22.97
  -4  -1  14    6.99   21.19
   4  -1 -15    4.56   19.34
  -4  -2 -14  125.11   38.61
   4  -2  14   60.66   26.46
  -4   2  14   60.87   26.22
  -4  -2 -13  -31.50   27.24
   4   2 -13   64.14   25.46
   4  -2  13   -3.05   17.81
  -4   2  13   37.78   21.42
  -4  -2 -12   45.74   26.90
   4   2 -12  -21.98   25.01
   4  -2  12    8.16   16.22
  -4   2  12   -1.74   18.48
  -4  -2 -11  161.47   36.39
   4   2 -11  118.98   26.71
   4  -2  11  169.02   34.29
  -4   2  11  121.98   29.05
   4  -2  10  213.35   35.37
  -4  -2 -10  234.94   39.85
   4   2 -10  180.60   31.74
   4  -2  10  197.23   35.17
  -4   2  10  221.14   37.57
   4   2 -10  212.91   31.73
   4  -2   9   40.38   20.73
  -4  -2  -9   67.97   22.91
   4   2  -9   60.25   21.66
   4  -2   9   19.09   15.21
  -4   2   9   64.43   24.09
   4   2  -9   38.30   15.19
   4  -2   8  -11.38   18.63
  -4  -2  -8   10.10   16.00
   4   2  -8  -22.76   16.86
  -4   2   8   36.75   15.08
   4  -2   8   30.23   17.91
   4  -2   8    2.42   14.34
  -4   2   8   30.48   17.49
   4   2  -8   13.19   15.47
   4  -2   7  133.12   32.12
  -4  -2  -7  177.75   29.12
   4   2  -7  151.12   25.07
  -4   2   7  167.60   23.97
   4  -2   7  171.35   29.44
   4  -2   7  117.86   26.23
  -4   2   7  130.91   26.78
   4   2  -7  129.60   27.87
   4  -2   6  191.47   36.68
  -4  -2  -6  195.70   28.13
   4   2  -6  111.15   20.74
  -4   2   6  160.35   22.45
   4  -2   6  142.60   27.84
   4  -2   6  157.27   27.36
  -4   2   6  147.70   26.59
   4   2  -6   95.18   23.63
   4  -2   5  181.09   33.82
  -4  -2  -5  239.09   28.31
  -4   2   5  225.48   25.77
   4  -2   5  223.38   35.78
   4  -2   5  192.53   28.29
  -4   2   5  194.31   28.96
   4   2  -5  190.42   33.26
   4  -2   4   95.30   26.71
  -4  -2  -4  102.99   18.84
  -4  -2  -4  115.62   20.46
  -4   2   4  109.36   18.30
   4  -2   4  123.38   29.04
   4  -2   4  124.28   21.46
  -4   2   4  103.42   21.30
   4   2  -4   67.98   24.65
   4  -2   3   18.51   23.35
  -4  -2  -3    2.07   10.45
  -4  -2  -3   15.54   13.02
  -4   2   3    6.16    8.88
   4  -2   3   11.54   18.91
  -4   2   3   14.08   12.56
   4   2  -3   19.80   20.12
   4  -2   2   43.04   21.95
  -4  -2  -2   40.51   12.53
  -4  -2  -2   24.25   14.18
  -4   2   2   34.56   12.84
   4  -2   2   70.29   26.50
  -4   2   2   23.49   11.51
   4   2  -2   46.76   25.28
  -4   2   1  170.76   18.15
  -4  -2  -1  179.91   19.62
  -4  -2  -1  173.42   22.94
  -4   2   1  175.22   20.71
   4  -2   1  139.59   31.73
  -4   2   1  180.77   22.56
   4   2  -1  164.37   32.96
   4  -2   1  155.68   32.79
  -4   2   0  152.56   18.28
  -4  -2   0  134.34   16.44
  -4  -2   0  128.32   19.35
  -4  -2   0  144.74   16.01
   4  -2   0  170.44   34.95
  -4   2   0  145.04   19.55
  -4   2   0  154.94   19.46
   4   2   0  116.09   29.03
   4  -2   0  132.27   29.60
  -4   2  -1  184.43   21.98
  -4   2  -1  167.66   19.69
  -4  -2   1  174.98   22.49
  -4  -2   1  172.89   16.83
  -4   2  -1  179.56   21.65
   4  -2  -1  149.24   30.93
  -4   2  -1  150.55   18.73
   4   2   1  133.28   30.99
   4  -2  -1  184.25   36.08
   4  -2  -2   15.23   17.87
  -4   2  -2   34.62   12.72
  -4  -2   2   35.27   12.24
   4  -2  -2   36.76   21.16
  -4   2  -2   22.22    9.04
   4   2   2   -0.88   15.86
   4  -2  -3    4.55   20.03
  -4   2  -3   -4.23   12.20
  -4  -2   3   22.42   10.91
   4  -2  -3  -18.54   21.64
   4   2   3    7.01   18.71
   4  -2  -4   94.68   27.30
  -4   2  -4  107.93   18.53
  -4  -2   4  105.19   17.05
   4  -2  -4   61.25   23.83
  -4  -2   4   80.01   17.70
   4   2   4   83.66   26.05
   4  -2  -5  181.05   34.16
  -4   2  -5  230.38   27.63
  -4  -2   5  217.24   22.60
   4  -2  -5  199.33   35.90
  -4  -2   5  177.97   25.37
   4   2   5  199.69   37.42
   4  -2  -6  120.88   27.98
  -4   2  -6  149.14   23.50
  -4  -2   6  170.71   20.25
   4  -2  -6  132.79   29.58
  -4  -2   6  177.92   27.32
   4   2   6  153.19   31.83
   4  -2  -7  133.86   28.24
  -4   2  -7  152.02   25.17
   4  -2  -7  147.38   28.75
  -4  -2   7  136.02   25.52
   4   2   7  157.47   30.46
   4  -2  -8   24.76   19.38
  -4   2  -8   14.29   14.91
   4  -2  -8   -3.89   16.44
  -4  -2   8    4.15   13.34
   4   2   8  -32.19   23.35
   4  -2  -9   25.09   16.61
  -4   2  -9   56.01   20.78
   4  -2  -9   16.00   12.67
  -4  -2   9   54.84   20.71
   4  -2 -10  152.67   29.12
  -4   2 -10  279.18   37.89
   4  -2 -10  197.06   29.58
  -4  -2  10  280.24   38.98
   4   2  10  233.53   35.66
  -4   2 -11  160.39   32.88
   4  -2 -11   82.37   22.68
   4   2  11  131.01   31.30
  -4  -2  11  149.22   31.05
  -4   2 -12   39.69   24.01
   4  -2 -12   24.63   17.82
   4   2  12   17.11   17.53
  -4  -2  12   44.17   25.97
   4   2  13   14.98   24.08
  -4   2 -13    7.06   23.59
   4  -2 -13   11.49   16.10
   4   2  13   66.28   28.46
  -4  -2  13   39.99   22.65
   4   2  14   83.06   32.31
  -4   2 -14   73.10   26.04
   4  -2 -14   44.67   21.65
   4  -2 -15   51.31   22.75
   4   3 -15   13.64   20.72
  -4  -3 -14  112.83   35.82
   4   3 -14   51.41   26.63
  -4   3  14  110.48   33.49
  -4  -3 -13  101.33   31.64
   4   3 -13   18.21   17.58
   4  -3  13   78.31   29.55
  -4   3  13   78.26   30.65
  -4  -3 -12   17.08   20.76
   4   3 -12    6.96   17.59
   4  -3  12   46.68   27.93
  -4   3  12   30.03   20.75
  -4  -3 -11   21.32   21.65
   4   3 -11   29.45   17.93
   4  -3  11   42.23   23.17
  -4   3  11   25.34   21.07
  -4  -3 -10  302.83   44.03
   4   3 -10  291.84   37.98
   4  -3  10  346.87   47.29
  -4   3  10  260.52   40.47
   4   3 -10  321.31   37.86
  -4  -3  -9  128.85   30.95
   4   3  -9   63.34   21.87
  -4   3   9  115.31   23.95
   4  -3   9   92.25   23.90
   4  -3   9  106.20   26.33
  -4   3   9  104.77   27.20
   4   3  -9   97.24   23.47
   4  -3   8   99.54   27.28
  -4  -3  -8   98.16   26.14
   4   3  -8  101.58   23.40
  -4   3   8  136.99   24.85
   4  -3   8  112.01   25.29
   4  -3   8  121.84   28.58
  -4   3   8  108.74   27.05
   4   3  -8   98.50   24.71
   4  -3   7  239.29   40.62
   4   3  -7  139.97   24.40
  -4   3   7  199.52   26.65
   4  -3   7  172.44   29.11
   4  -3   7  175.23   31.81
  -4  -3  -7  197.78   31.52
  -4   3   7  131.89   27.13
   4   3  -7  130.39   27.42
   4  -3   6  238.29   38.61
  -4   3   6  297.51   30.74
  -4  -3  -6  253.13   32.72
  -4  -3  -6  288.09   34.54
   4   3  -6  269.90   30.15
   4  -3   6  247.48   32.94
   4  -3   6  320.61   40.58
  -4   3   6  258.46   35.10
   4   3  -6  215.80   33.89
   4  -3   5   64.13   25.48
  -4  -3  -5   71.61   19.36
  -4  -3  -5   71.12   18.07
   4   3  -5   48.79   14.59
  -4   3   5   49.21   15.27
   4  -3   5   57.36   19.07
   4  -3   5   43.29   17.63
  -4   3   5   67.01   20.26
   4   3  -5   67.49   24.54
  -4  -3  -4  629.61   42.95
  -4  -3  -4  580.92   43.99
   4  -3   4  627.04   57.21
  -4   3   4  599.24   40.04
   4   3  -4  638.43   39.78
   4  -3   4  669.58   46.59
  -4   3   4  574.42   46.14
   4   3  -4  672.31   59.69
   4  -3   4  619.33   58.48
   4  -3   3  163.30   33.19
  -4  -3  -3  255.57   25.46
  -4  -3  -3  203.54   26.75
  -4   3   3  208.74   23.86
   4  -3   3  269.91   28.76
  -4   3   3  224.54   28.11
   4   3  -3  253.66   40.10
   4  -3   3  229.05   39.82
   4  -3   2  179.28   36.91
  -4  -3  -2  167.11   20.38
  -4  -3  -2  173.16   24.21
  -4   3   2  186.91   22.00
  -4   3   2  141.29   22.20
   4   3  -2  151.26   34.36
   4  -3   2  137.96   31.56
   4  -3   1  129.34   29.38
  -4  -3  -1  178.81   23.96
  -4   3   1  159.91   21.02
  -4   3   1  180.28   23.16
   4   3  -1  166.05   34.39
   4  -3   1  122.74   31.50
  -4   3   0  758.89   36.69
  -4  -3   0  719.96   44.32
   4  -3   0  753.08   66.59
  -4   3   0  760.90   42.76
  -4   3   0  714.24   42.34
   4   3   0  711.78   64.00
   4  -3   0  727.40   63.95
   4  -3  -1  179.35   35.87
  -4   3  -1  168.20   21.80
  -4   3  -1  167.04   19.20
  -4  -3   1  193.87   23.73
  -4   3  -1  157.69   19.84
  -4   3  -1  171.84   22.37
   4   3   1  132.36   31.49
   4  -3  -1  132.10   30.96
   4  -3  -2  121.92   32.20
  -4   3  -2  206.92   24.21
  -4  -3   2  150.47   20.94
   4   3   2  139.17   31.72
   4  -3  -2  152.17   32.86
   4  -3  -3  181.66   34.61
  -4   3  -3  226.66   26.51
  -4  -3   3  244.78   25.21
   4   3   3  272.11   41.52
   4  -3  -3  190.35   35.14
  -4   3  -4  631.04   42.38
  -4  -3   4  724.77   41.87
   4  -3  -4  544.62   55.82
   4   3   4  591.43   58.22
   4  -3  -4  625.42   59.01
   4  -3  -5   43.87   19.99
  -4   3  -5   43.30   15.61
  -4  -3   5   74.15   15.97
  -4  -3   5   52.43   17.58
   4  -3  -5   24.34   18.31
   4   3   5   57.46   23.44
   4  -3  -6  212.00   34.93
  -4   3  -6  268.20   30.46
  -4  -3   6  273.11   26.88
  -4  -3   6  275.70   32.47
   4  -3  -6  178.78   33.28
   4   3   6  218.14   37.55
   4  -3  -7  114.75   28.56
  -4   3  -7  168.43   27.11
  -4  -3   7  194.04   22.48
   4  -3  -7  187.12   23.77
   4  -3  -7  130.22   28.32
  -4  -3   7  171.99   27.25
   4   3   7  200.72   34.89
   4  -3  -8   83.67   26.17
  -4   3  -8   92.25   22.14
   4  -3  -8  104.44   20.32
   4  -3  -8   78.27   24.96
  -4  -3   8   77.53   21.19
   4   3   8  137.29   29.88
  -4   3  -9   93.28   24.05
   4  -3  -9   58.31   22.00
   4  -3  -9   91.08   21.95
  -4  -3   9  122.08   26.53
   4   3   9   94.94   24.98
  -4   3 -10  406.26   44.80
   4  -3 -10  340.05   38.06
   4  -3 -10  262.21   36.96
  -4  -3  10  426.15   45.80
   4   3  10  405.13   44.45
  -4   3 -11   30.52   20.71
   4  -3 -11   26.10   18.55
  -4  -3  11   45.08   21.92
   4   3  12   46.26   31.32
  -4   3 -12   38.14   20.81
   4  -3 -12   34.08   19.29
  -4  -3  12   54.28   21.19
   4   3  13    8.68   25.28
  -4   3 -13   77.05   27.15
   4  -3 -13   49.82   20.64
  -4  -3  13   65.36   25.98
  -4   3 -14  131.17   36.40
   4  -3 -14   36.71   20.92
   4  -3 -15  -13.41   21.90
  -4  -4 -14  116.44   36.86
   4   4 -14   61.04   27.80
  -4  -4 -13   87.47   32.87
   4   4 -13   68.31   28.13
   4  -4  13   58.30   27.56
  -4   4  13   47.85   24.67
  -4  -4 -12   57.54   22.06
   4   4 -12   82.73   25.54
   4  -4  12   53.70   25.77
  -4   4  12  106.97   31.26
  -4  -4 -11   74.84   29.00
  -4   4  11   82.19   22.90
   4   4 -11   20.57   16.86
   4  -4  11   87.70   30.08
  -4   4  11   41.77   20.42
  -4  -4 -10  103.81   28.84
  -4   4  10  122.78   26.89
   4   4 -10  103.84   27.07
   4  -4  10   66.46   21.40
   4  -4  10   46.57   20.62
  -4   4  10   43.92   21.51
   4   4 -10   49.72   18.34
  -4  -4  -9  182.77   35.62
   4   4  -9  182.87   29.76
  -4   4   9  205.87   30.45
   4  -4   9  174.20   34.02
   4  -4   9  160.75   27.28
  -4   4   9  156.69   32.16
   4   4  -9  163.39   29.13
  -4  -4  -8  256.94   37.76
   4   4  -8  228.88   32.55
  -4   4   8  288.58   33.46
   4  -4   8  270.98   40.08
   4  -4   8  228.36   34.30
  -4   4   8  274.67   39.39
   4   4  -8  191.53   32.09
  -4  -4  -7   -1.62   13.40
  -4  -4  -7   74.52   23.73
   4   4  -7   42.13   17.72
  -4   4   7   72.52   19.44
   4  -4   7   23.29   16.42
   4  -4   7   22.39   17.81
  -4   4   7   56.11   21.99
   4   4  -7   29.42   17.64
  -4  -4  -6  122.64   24.40
  -4  -4  -6  120.67   25.18
   4   4  -6  170.87   25.95
  -4   4   6  153.76   23.10
   4  -4   6  121.79   25.05
  -4   4   6  142.15   27.26
   4   4  -6   97.85   26.03
   4  -4   6  131.82   28.15
  -4  -4  -5  421.09   40.32
   4  -4   5  332.69   46.54
  -4  -4  -5  341.53   36.09
  -4   4   5  360.14   33.82
   4   4  -5  329.76   31.74
   4  -4   5  361.56   37.76
  -4   4   5  331.00   38.71
   4   4  -5  306.34   41.39
   4  -4   5  354.53   44.75
   4  -4   4  222.27   38.68
   4  -4   4  169.30   35.06
  -4  -4  -4  179.91   25.56
   4   4  -4  205.32   24.15
  -4   4   4  205.63   24.23
   4  -4   4  233.40   28.97
  -4   4   4  221.72   31.34
   4   4  -4  209.18   36.21
   4  -4   3  211.84   38.07
   4  -4   3  200.67   38.41
  -4  -4  -3  232.05   28.89
   4   4  -3  245.01   24.10
   4  -4   3  252.84   28.22
  -4   4   3  198.98   24.75
  -4   4   3  228.07   30.23
   4   4  -3  260.57   40.62
  -4  -4  -2  436.83   37.19
   4  -4   2  503.92   56.77
  -4   4   2  443.98   34.47
   4  -4   2  457.83   34.88
  -4   4   2  477.70   40.44
   4   4  -2  496.02   56.08
   4  -4   2  472.16   52.93
   4  -4   1  293.80   45.75
   4  -4   1  303.65   45.85
  -4  -4  -1  302.05   30.39
  -4   4   1  298.20   28.32
  -4   4   1  308.37   32.04
   4   4  -1  257.09   42.69
   4  -4   0  171.99   37.01
   4  -4   0  169.52   35.49
  -4  -4   0  196.51   24.75
  -4   4   0  210.00   24.61
   4   4   0  170.53   37.32
   4  -4  -1  283.41   43.58
   4  -4  -1  228.66   39.80
  -4  -4   1  290.04   29.23
  -4   4  -1  293.67   29.16
   4   4   1  305.03   44.78
  -4   4  -2  444.68   35.01
  -4  -4   2  465.40   36.31
   4  -4  -2  445.87   53.72
   4  -4  -2  452.69   52.77
   4   4   2  439.79   52.86
   4  -4  -3  148.05   35.34
   4  -4  -3  248.22   41.01
  -4   4  -3  230.32   26.06
  -4  -4   3  244.40   27.35
   4   4   3  230.66   38.89
   4  -4  -4  210.57   38.09
   4  -4  -4  272.88   41.78
  -4   4  -4  250.34   28.16
  -4  -4   4  248.23   27.04
   4   4   4  271.40   41.76
   4  -4  -5  388.42   48.81
  -4   4  -5  375.44   34.75
   4  -4  -5  293.66   42.53
  -4  -4   5  362.57   31.68
   4  -4  -5  336.74   28.11
   4   4   5  357.12   46.16
  -4   4  -6  132.61   24.24
  -4  -4   6  139.78   20.65
   4  -4  -6  141.40   20.69
  -4  -4   6  117.78   22.30
   4   4   6  179.24   34.68
   4  -4  -6  166.46   33.26
  -4   4  -7   42.36   16.42
  -4  -4   7   46.68   14.85
   4  -4  -7   34.50   13.36
  -4  -4   7   36.72   15.57
   4   4   7   60.54   23.82
   4  -4  -7   14.04   17.86
  -4   4  -8  302.27   35.15
  -4  -4   8  243.99   26.92
   4  -4  -8  204.39   27.46
  -4  -4   8  296.40   35.95
   4  -4  -8  188.38   33.15
   4   4   8  279.80   39.90
  -4   4  -9  184.63   29.14
   4  -4  -9  177.93   27.88
   4  -4  -9  146.02   29.14
  -4  -4   9  168.74   30.10
   4   4   9  196.26   32.97
  -4   4 -10   43.03   19.85
   4  -4 -10   83.91   23.07
   4  -4 -10   41.44   19.25
  -4  -4  10   82.34   23.50
   4   4  10   71.91   21.02
   4   4  11  124.13   32.82
  -4   4 -11   54.43   24.31
   4  -4 -11   48.04   20.90
  -4  -4  11   91.24   24.86
   4   4  12   37.33   22.88
  -4   4 -12   93.17   28.35
   4  -4 -12   75.11   23.31
  -4  -4  12   74.97   20.22
   4   4  13   88.97   34.66
  -4   4 -13   71.94   25.35
   4  -4 -13   77.20   25.20
  -4  -4  13   48.54   25.83
   4  -4 -14  118.15   29.69
  -4  -5 -14   13.98   24.44
   4   5 -14   29.30   22.28
  -4  -5 -13   29.41   23.58
   4   5 -13   44.81   24.32
   4  -5  13  -25.28   28.34
  -4   5  13   13.08   20.58
  -4  -5 -12  -11.69   23.06
  -4   5  12   23.00   16.01
   4   5 -12   25.36   20.04
   4  -5  12    6.13   20.10
  -4   5  12   23.78   23.21
  -4  -5 -11   13.94   20.51
  -4   5  11   66.75   22.53
   4   5 -11   68.36   23.71
   4  -5  11   60.01   29.05
  -4   5  11   22.96   22.07
  -4  -5 -10   36.32   21.44
   4   5 -10   36.21   18.03
  -4   5  10   64.01   20.82
   4  -5  10   40.92   23.98
   4  -5  10   26.95   14.60
  -4   5  10   48.13   20.27
   4   5 -10   37.61   18.52
  -4  -5  -9  145.45   28.29
  -4  -5  -9  231.05   38.93
   4   5  -9  172.48   30.38
  -4   5   9  221.34   33.11
   4  -5   9  229.71   38.50
   4  -5   9  186.36   31.69
  -4   5   9  216.12   36.59
   4   5  -9  133.62   27.21
  -4  -5  -8   43.58   19.90
   4   5  -8   31.30   17.67
  -4   5   8   19.50   13.29
   4  -5   8   30.87   20.05
   4   5  -8   41.75   19.36
  -4   5   8   31.13   19.71
   4  -5   8   49.08   20.93
   4  -5   7  -11.02   19.51
  -4  -5  -7   -0.23   12.59
   4   5  -7   -7.51   13.21
  -4   5   7   18.89   15.43
   4  -5   7   23.81   15.98
   4   5  -7   17.54   17.04
  -4   5   7    2.82   16.33
   4  -5   6  100.35   27.65
  -4  -5  -6   89.91   22.45
   4   5  -6  103.76   19.89
  -4   5   6   74.24   19.01
   4  -5   6   97.97   23.20
   4   5  -6   76.23   24.27
  -4   5   6  114.26   27.13
   4  -5   5  175.27   34.32
  -4  -5  -5  125.68   23.43
   4   5  -5  155.10   23.15
  -4   5   5  164.37   24.67
   4  -5   5   92.17   21.51
   4   5  -5  167.77   33.44
  -4   5   5  143.52   26.97
   4  -5   4   30.99   20.45
  -4  -5  -4   30.62   15.91
   4   5  -4   51.14   14.40
  -4   5   4   38.22   14.39
   4  -5   4   22.94   13.32
   4   5  -4    0.51   18.59
  -4   5   4    5.25   13.01
   4  -5   3   16.68   20.23
  -4  -5  -3   43.29   16.38
   4   5  -3   27.15   12.08
  -4   5   3   63.19   16.71
   4  -5   3   29.81   12.48
   4   5  -3   33.04   21.48
  -4   5   3   37.83   16.49
  -4  -5  -2  119.54   21.52
   4  -5   2  175.60   38.48
   4   5  -2  181.41   20.68
   4  -5   2  120.58   19.67
  -4   5   2  131.03   20.47
   4   5  -2  148.01   37.81
  -4   5   2  150.39   26.53
  -4  -5  -1   53.20   15.85
   4  -5   1   79.29   26.32
   4   5  -1   64.59   13.53
  -4   5   1   73.89   16.80
   4   5  -1   67.77   25.44
  -4  -5   0   58.21   17.11
   4  -5   0   42.69   19.79
  -4   5   0   73.56   16.34
   4   5   0   26.46   17.74
  -4  -5   1   77.13   17.79
   4  -5  -1   60.05   26.01
  -4   5  -1   79.54   17.83
   4   5   1   93.71   30.20
  -4   5  -2  154.19   22.20
  -4  -5   2  153.38   23.88
   4  -5  -2  164.51   36.85
  -4   5  -2  130.65   21.00
   4   5   2  144.01   33.66
  -4   5  -3   43.03   15.63
   4  -5  -3   60.91   27.03
  -4  -5   3   60.10   16.47
   4  -5  -3   58.70   12.93
   4   5   3    5.97   22.04
  -4   5  -4   53.52   17.07
  -4  -5   4   24.31   11.85
   4  -5  -4   33.87   12.36
   4   5   4   15.50   21.03
  -4   5  -5  154.33   24.61
   4  -5  -5  124.66   31.55
  -4  -5   5  168.30   24.73
   4  -5  -5  179.60   21.79
   4   5   5  150.34   34.80
   4  -5  -6   42.76   21.45
  -4   5  -6   72.52   19.19
  -4  -5   6  122.90   20.49
   4  -5  -6  108.45   19.35
   4   5   6   83.85   27.55
   4  -5  -7   17.05   20.13
  -4   5  -7   14.04   12.84
  -4  -5   7    7.37    9.94
   4  -5  -7    7.62   10.83
  -4  -5   7    8.14   11.29
   4   5   7    6.65   17.67
  -4   5  -8   27.57   16.88
  -4  -5   8   42.28   13.90
   4  -5  -8   46.09   17.88
  -4  -5   8   54.95   18.42
   4   5   8   22.98   19.50
   4  -5  -8  -13.82   22.02
  -4   5  -9  225.06   31.23
  -4  -5   9  239.22   28.69
   4  -5  -9  223.85   31.97
  -4  -5   9  216.83   31.83
   4   5   9  193.59   34.69
   4  -5  -9  170.41   32.23
  -4   5 -10   53.45   17.76
   4  -5 -10   76.90   22.15
   4  -5 -10   44.75   21.46
  -4  -5  10   45.01   18.32
   4   5  10   62.78   24.04
   4   5  11   59.41   28.60
  -4   5 -11   44.22   20.34
   4  -5 -11   66.95   20.26
  -4  -5  11   84.96   24.36
   4   5  12   -3.74   23.45
  -4   5 -12   28.28   24.16
   4  -5 -12   57.00   20.84
  -4  -5  12   78.06   22.89
  -4   5 -13   80.96   27.85
   4  -5 -13   43.61   24.33
  -4  -5  13   61.87   23.81
   4  -5 -14   -2.71   16.66
  -4   6  13  109.44   28.91
   4   6 -13   67.30   27.84
   4  -6  13   72.55   32.57
  -4   6  13   76.22   25.49
  -4  -6 -12  133.03   33.85
   4   6 -12  179.40   33.96
   4  -6  12  195.38   42.23
  -4   6  12  236.44   42.23
  -4  -6 -11  -14.15   18.63
  -4   6  11   23.28   17.16
   4   6 -11  -17.66   18.15
   4  -6  11   35.37   25.79
  -4   6  11    3.63   17.81
  -4  -6 -10   53.19   21.88
   4   6 -10   60.99   20.48
  -4   6  10   77.49   24.03
   4  -6  10    5.43   24.90
   4  -6  10   62.07   21.94
   4   6 -10   65.15   20.42
  -4   6  10   45.76   22.52
  -4  -6  -9   56.36   21.89
   4   6  -9   25.49   16.57
  -4   6   9   53.99   20.06
   4  -6   9   79.76   28.94
   4   6  -9   31.38   16.49
  -4   6   9   39.59   23.16
   4  -6   9   44.99   19.21
  -4  -6  -8  340.29   41.94
  -4   6   8  523.92   47.63
   4  -6   8  444.14   48.16
   4   6  -8  489.01   44.67
   4  -6   8  391.87   48.22
   4   6  -8  460.13   49.30
  -4   6   8  464.74   50.85
   4  -6   7  153.65   31.06
  -4  -6  -7   75.18   21.81
   4   6  -7  130.89   24.32
  -4   6   7  161.16   28.12
   4  -6   7  138.23   30.39
   4   6  -7  142.58   31.92
  -4   6   7  141.68   31.47
  -4  -6  -6  150.28   27.86
   4  -6   6  252.28   39.19
   4   6  -6  189.80   26.71
  -4   6   6  197.12   28.63
   4  -6   6  132.63   27.62
   4   6  -6  134.39   31.47
  -4   6   6  147.05   31.17
  -4  -6  -5    0.90   12.11
   4  -6   5   57.24   21.91
   4   6  -5   35.38   13.06
  -4   6   5   39.72   15.08
   4  -6   5   19.88   16.05
   4   6  -5   18.87   22.08
  -4   6   5   29.89   18.08
  -4  -6  -4  320.72   35.82
  -4   6   4  336.28   34.40
   4  -6   4  324.19   44.55
   4   6  -4  347.06   31.38
   4  -6   4  317.22   34.52
   4   6  -4  287.41   45.02
  -4   6   4  323.14   39.51
  -4  -6  -3   41.30   15.76
   4  -6   3   40.50   24.48
   4   6  -3   66.96   15.94
  -4   6   3   79.21   18.39
   4  -6   3   43.19   13.83
   4   6  -3   55.04   24.36
  -4  -6  -2  849.38   54.30
  -4   6   2  909.33   52.14
   4   6  -2  936.46   46.05
   4   6  -2  844.80   76.98
  -4  -6  -1   82.91   19.12
   4  -6   1   64.24   26.40
   4   6  -1   71.48   14.45
  -4   6   1   45.06   15.22
   4   6  -1   52.97   26.36
  -4  -6   0   70.50   19.00
   4  -6   0   99.60   31.38
   4   6   0  100.13   16.83
  -4   6   0   89.29   18.55
   4   6   0   37.39   20.62
  -4  -6   1   71.92   18.81
   4  -6  -1   44.42   23.90
   4  -6  -1   73.73   13.43
  -4   6  -1   63.34   17.24
   4   6   1   26.91   19.75
  -4   6  -2  984.93   54.20
  -4  -6   2  980.33   55.45
  -4   6  -2  938.65   53.47
   4  -6  -2  853.89   74.95
   4  -6  -2  876.88   42.80
   4   6   2  889.88   78.94
  -4   6  -3   79.31   19.24
  -4  -6   3   40.50   15.04
   4  -6  -3   39.80   20.93
   4  -6  -3   79.05   14.97
   4   6   3   38.58   24.13
  -4   6  -3   39.64   14.98
  -4   6  -4  424.85   36.77
  -4  -6   4  352.14   34.96
   4  -6  -4  265.89   44.55
   4  -6  -4  352.33   29.34
   4   6   4  320.52   49.52
  -4   6  -5   24.23   13.20
  -4  -6   5   50.99   16.12
   4  -6  -5   52.97   25.50
   4  -6  -5   27.72   12.18
   4   6   5   32.26   22.14
  -4   6  -6  212.81   28.90
   4  -6  -6  162.59   34.13
  -4  -6   6  217.22   28.46
   4  -6  -6  167.25   23.91
   4   6   6  222.02   38.45
  -4   6  -7  161.56   27.41
   4  -6  -7  111.79   25.81
  -4  -6   7  174.15   25.89
   4  -6  -7  137.33   22.91
   4   6   7   79.08   24.42
  -4   6  -8  468.56   43.87
   4  -6  -8  402.97   48.74
  -4  -6   8  434.41   37.90
   4  -6  -8  446.21   39.92
  -4  -6   8  458.96   43.71
   4   6   8  485.34   53.63
   4  -6  -9   11.34   18.22
  -4   6  -9   59.83   20.99
  -4  -6   9   53.94   16.36
   4  -6  -9   28.83   17.47
  -4  -6   9   66.34   21.02
   4   6   9   70.18   24.53
  -4   6 -10   37.88   20.35
  -4  -6  10   63.06   17.82
   4  -6 -10   45.87   20.35
  -4  -6  10   38.53   18.32
   4   6  10   19.47   15.61
   4  -6 -10   45.55   20.73
   4   6  11   52.59   25.49
  -4   6 -11   53.22   22.54
   4  -6 -11    4.71   13.98
  -4  -6  11   38.67   17.88
   4   6  12  202.48   44.19
  -4   6 -12  272.80   39.22
   4  -6 -12  204.02   33.50
  -4  -6  12  208.81   33.68
   4  -6 -13   85.71   24.51
   4  -6 -14  109.07   28.79
  -4   7  13  -29.68   25.40
   4   7 -13  -40.75   25.98
  -4   7  13  -20.36   21.59
  -4  -7 -12  -45.38   23.31
  -4   7  12   31.05   17.55
   4   7 -12   -1.50   18.97
   4  -7  12   62.59   31.62
  -4   7  12  -11.04   25.78
  -4  -7 -11   19.06   16.48
   4   7 -11   54.12   20.64
  -4   7  11   34.63   18.81
   4  -7  11   58.06   28.47
  -4   7  11   32.93   24.71
   4  -7  10  304.86   41.15
  -4  -7 -10  204.35   36.58
   4   7 -10  230.71   34.98
  -4   7  10  340.60   42.79
   4  -7  10  228.38   43.73
   4   7 -10  262.10   36.88
  -4   7  10  352.64   48.70
   4  -7   9   27.86   20.45
  -4  -7  -9   13.03   15.08
   4   7  -9   45.41   20.17
  -4   7   9   17.77   16.02
   4  -7   9   23.45   19.17
   4   7  -9   30.29   16.49
  -4   7   9   31.11   20.95
   4  -7   8   65.23   23.94
  -4  -7  -8   24.39   17.87
   4   7  -8   63.77   19.01
  -4   7   8   52.69   17.54
   4  -7   8   36.89   21.70
   4   7  -8   11.30   15.91
  -4   7   8   20.33   20.91
  -4  -7  -7   21.84   15.63
   4  -7   7   53.76   21.87
   4   7  -7   61.80   18.58
  -4   7   7   45.09   18.88
   4  -7   7   61.08   22.95
   4   7  -7   35.40   21.68
  -4   7   7   70.51   25.25
  -4  -7  -6  273.98   35.75
   4  -7   6  234.16   38.17
   4   7  -6  273.24   31.65
  -4   7   6  258.33   33.27
   4  -7   6  240.76   36.43
   4   7  -6  222.98   37.64
  -4   7   6  202.96   34.39
  -4  -7  -5   75.89   21.40
   4  -7   5  101.54   28.75
   4   7  -5   89.18   19.21
  -4   7   5   93.11   21.54
   4  -7   5  104.64   23.27
   4   7  -5   86.79   27.64
  -4   7   5   63.99   22.71
  -4  -7  -4  287.70   34.59
  -4   7   4  325.05   33.90
   4   7  -4  326.38   31.30
   4  -7   4  296.83   45.78
   4  -7   4  290.18   34.32
   4   7  -4  300.82   46.27
  -4  -7  -3    3.84   12.09
   4  -7   3    1.55   20.64
   4   7  -3    1.17    9.71
  -4   7   3   -5.37   12.69
   4   7  -3   49.50   26.08
  -4  -7  -2   76.33   20.56
   4  -7   2   85.78   31.41
   4   7  -2   88.84   17.38
  -4   7   2   95.93   20.39
   4   7  -2   95.97   32.86
  -4  -7  -1   45.14   17.95
   4   7  -1   74.98   15.99
   4  -7   1   22.41   24.33
  -4   7   1   33.11   13.42
   4   7  -1    9.31   25.71
  -4  -7   0  509.05   42.26
  -4   7   0  501.64   40.21
   4   7   0  518.25   34.53
   4  -7   0  435.89   59.07
   4   7   0  457.42   62.64
  -4  -7   1   44.00   16.04
   4   7   1   43.44   13.62
   4  -7  -1   15.37   22.91
   4  -7  -1   46.83   12.59
  -4   7  -1   43.33   15.12
   4   7   1   44.10   26.09
  -4  -7   2   77.21   18.72
   4   7   2   87.72   15.67
   4  -7  -2   73.40   31.83
   4  -7  -2   82.37   15.27
  -4   7  -2   66.18   17.35
   4   7   2   55.83   27.14
  -4   7  -3   12.15   13.21
  -4  -7   3   20.52   14.19
   4  -7  -3   -7.98   19.28
   4  -7  -3   -4.47   11.01
   4   7   3   11.03   21.27
  -4   7  -3   -4.51   11.70
  -4   7  -4  340.79   34.37
  -4  -7   4  330.28   34.89
   4  -7  -4  342.10   50.28
   4  -7  -4  312.41   28.77
   4   7   4  343.37   51.11
  -4   7  -5  101.21   20.32
  -4  -7   5  119.12   22.41
   4  -7  -5  127.59   34.85
   4  -7  -5   88.70   18.82
   4   7   5  125.54   34.36
  -4   7  -6  300.92   34.04
  -4  -7   6  322.61   34.73
   4  -7  -6  267.46   45.00
   4  -7  -6  220.20   28.46
   4   7   6  296.50   46.47
  -4   7  -7   69.72   22.85
  -4  -7   7   60.52   17.93
   4  -7  -7   53.56   20.69
   4  -7  -7   31.05   14.33
   4   7   7   82.93   29.38
  -4   7  -8   70.23   20.01
   4  -7  -8   20.74   19.12
  -4  -7   8   63.79   18.63
   4  -7  -8   45.21   16.81
  -4  -7   8   36.18   15.26
   4   7   8   60.48   25.45
  -4   7  -9   59.49   21.15
   4  -7  -9   37.91   23.05
  -4  -7   9   30.08   16.14
   4  -7  -9   46.48   18.15
  -4  -7   9   30.04   17.11
   4   7   9   31.40   20.47
   4   7  10  284.53   44.48
   4  -7 -10  218.58   35.76
  -4   7 -10  281.37   37.80
  -4  -7  10  282.39   34.54
   4  -7 -10  282.64   36.31
  -4  -7  10  324.35   39.61
   4   7  10  334.09   44.85
   4   7  11   53.29   27.84
  -4   7 -11   23.44   20.40
  -4  -7  11   33.92   16.96
   4  -7 -11   81.66   24.10
  -4  -7  11   47.41   20.83
  -4   7 -12  -21.23   20.19
   4  -7 -12   44.55   22.82
  -4  -7  12   50.09   23.69
   4  -7 -13   -0.83   16.54
  -4   8  12   92.90   27.44
   4   8 -12   98.09   29.31
   4  -8  12  156.17   40.13
  -4   8  12   88.06   30.04
  -4  -8 -11   58.39   24.04
   4   8 -11   89.34   27.23
  -4   8  11   97.40   29.29
   4  -8  11   92.68   34.20
  -4   8  11  118.77   32.85
   4  -8  10   14.62   16.32
  -4  -8 -10   40.81   22.10
   4   8 -10   -1.76   16.99
  -4   8  10    9.44   17.02
   4  -8  10    5.50   20.45
   4   8 -10   23.34   17.61
  -4   8  10   35.75   23.48
  -4  -8  -9   65.22   21.39
   4  -8   9   37.76   21.90
   4   8  -9   77.78   23.90
  -4   8   9   64.52   21.70
   4  -8   9   -4.49   21.11
   4   8  -9   59.38   22.13
  -4   8   9    1.81   19.79
  -4  -8  -8   97.08   24.99
   4  -8   8  192.28   33.43
   4   8  -8  144.60   27.31
  -4   8   8  188.47   31.74
   4  -8   8  205.79   38.66
   4   8  -8  130.31   30.94
  -4   8   8  152.58   33.46
  -4  -8  -7  169.60   31.50
   4  -8   7  209.66   36.91
   4   8  -7  196.46   29.26
  -4   8   7  184.58   30.84
   4  -8   7  161.17   35.09
   4   8  -7  171.50   36.11
  -4   8   7  186.30   35.71
  -4  -8  -6  114.62   25.07
   4  -8   6  135.92   32.54
   4   8  -6   99.42   21.78
  -4   8   6  116.87   24.61
   4  -8   6  108.81   27.92
   4   8  -6  170.90   38.01
  -4  -8  -5   12.22   15.42
   4  -8   5   35.70   23.55
   4   8  -5   25.76   14.92
  -4   8   5   61.46   19.52
   4   8  -5   -2.88   21.26
  -4  -8  -4   96.48   23.80
   4   8  -4   75.47   17.67
   4  -8   4   95.82   29.67
  -4   8   4  114.92   22.83
   4   8  -4  127.08   37.20
  -4  -8  -3  120.58   24.33
   4   8  -3  126.61   20.31
   4  -8   3  138.82   35.61
  -4   8   3  114.82   22.07
   4   8  -3  120.66   38.85
  -4  -8  -2  223.29   31.20
  -4   8   2  298.52   33.15
   4   8  -2  274.72   28.72
   4  -8   2  275.69   50.44
   4   8  -2  232.20   48.17
  -4  -8  -1   91.56   21.10
   4   8  -1  114.66   19.53
   4  -8   1  102.83   33.99
  -4   8   1   77.28   19.31
  -4  -8   0    0.78   13.34
   4   8   0   11.13   12.54
   4  -8   0   -8.68   21.73
  -4   8   0   19.72   12.95
  -4  -8   1   99.46   22.77
   4   8   1   65.50   15.73
   4  -8  -1  110.19   33.49
   4  -8  -1  116.05   18.74
  -4   8  -1  103.37   20.19
  -4  -8   2  280.96   33.42
   4   8   2  326.94   28.75
   4  -8  -2  270.67   26.29
   4  -8  -2  279.12   49.86
  -4   8  -2  239.14   30.14
  -4   8  -3  154.49   25.50
  -4  -8   3  175.28   27.37
   4   8   3  143.08   21.32
   4  -8  -3  175.09   41.55
   4  -8  -3  156.45   21.42
   4   8   3  134.84   37.35
  -4   8  -3  129.95   23.75
  -4   8  -4   87.87   20.44
  -4  -8   4  119.07   22.83
   4  -8  -4  114.02   35.03
   4  -8  -4   82.51   17.48
   4   8   4  108.22   36.08
  -4   8  -4   63.39   18.79
  -4   8  -5   23.07   14.96
  -4  -8   5   57.79   18.22
   4  -8  -5   21.01   19.83
   4  -8  -5   20.27   13.31
   4   8   5   69.25   27.98
  -4   8  -6  101.71   22.68
  -4  -8   6  129.17   24.06
   4  -8  -6  141.95   34.84
   4  -8  -6  137.65   23.91
   4   8   6  124.26   33.70
  -4   8  -7  191.66   29.24
  -4  -8   7  207.01   30.04
   4  -8  -7  199.25   40.35
   4  -8  -7  210.92   29.97
   4   8   7  207.50   40.20
  -4   8  -8  175.75   29.61
  -4  -8   8  179.83   28.85
   4  -8  -8  131.48   33.88
   4  -8  -8  181.96   27.35
   4   8   8  252.95   42.38
  -4   8  -9   30.52   18.52
   4  -8  -9    3.40   18.19
  -4  -8   9   39.93   18.02
   4  -8  -9   35.17   18.87
  -4  -8   9   44.23   18.28
   4   8   9   35.08   24.69
  -4   8 -10   42.40   20.20
   4  -8 -10  -14.24   16.81
  -4  -8  10   10.92   15.35
   4  -8 -10   47.41   20.20
  -4  -8  10   21.87   14.88
   4   8  10   11.60   17.25
   4   8  11   71.86   27.59
  -4   8 -11   62.96   24.07
  -4  -8  11  136.85   26.81
   4  -8 -11  111.66   28.30
  -4  -8  11   90.97   25.14
   4  -8 -12  149.44   30.88
  -4   9  12   64.80   27.11
   4   9 -11   77.03   24.89
  -4   9  11   78.61   24.90
   4  -9  11   40.44   24.67
  -4   9  11   51.25   26.16
  -4  -9 -10   85.51   25.47
   4  -9  10  129.02   29.10
   4   9 -10   94.80   24.86
  -4   9  10  127.58   30.77
   4  -9  10   95.21   33.40
   4   9 -10   73.01   25.60
  -4   9  10  121.25   34.34
  -4  -9  -9   43.17   20.47
   4  -9   9  132.60   30.61
   4   9  -9   72.29   22.65
  -4   9   9  102.25   27.23
   4  -9   9  121.32   34.38
   4   9  -9   67.10   22.42
  -4   9   9  101.00   30.18
  -4  -9  -8   12.74   15.11
   4  -9   8  -15.47   21.73
   4   9  -8   -3.19   13.54
  -4   9   8  -13.03   15.54
   4  -9   8   -9.16   17.38
   4   9  -8   26.47   20.57
  -4  -9  -7   91.97   24.51
   4  -9   7   59.09   24.94
   4   9  -7   78.27   21.62
  -4   9   7  128.13   27.85
   4  -9   7   82.49   23.67
   4   9  -7  119.09   32.94
  -4  -9  -6  196.96   32.95
   4   9  -6  177.58   27.80
   4  -9   6  261.71   43.26
  -4   9   6  212.07   32.61
   4   9  -6  196.68   40.56
  -4  -9  -5   85.30   23.10
   4   9  -5  135.13   24.78
   4  -9   5  128.44   34.65
  -4   9   5  118.76   24.67
   4   9  -5  128.73   34.10
  -4  -9  -4   41.23   18.01
   4   9  -4   48.02   14.75
   4  -9   4   41.22   26.78
  -4   9   4   69.07   20.25
  -4  -9  -3   73.31   22.15
   4   9  -3   36.68   13.47
   4  -9   3   60.38   30.84
  -4   9   3   55.85   18.49
  -4  -9  -2   39.51   17.40
   4   9  -2   21.93   12.38
  -4   9   2   29.93   14.45
  -4  -9  -1  129.90   26.02
   4   9  -1  137.64   22.41
   4  -9   1  162.89   42.40
  -4   9   1  118.56   22.78
  -4  -9   0  259.15   33.55
   4   9   0  257.64   27.84
   4  -9   0  205.47   43.80
  -4   9   0  259.45   31.24
  -4  -9   1  126.10   24.93
   4   9   1  125.25   21.24
   4  -9  -1  116.52   19.49
   4  -9  -1   86.85   31.98
  -4   9  -1   98.51   21.47
  -4  -9   2   56.53   19.24
   4   9   2   37.31   15.09
   4  -9  -2   22.87   26.87
   4  -9  -2   45.17   15.24
  -4   9  -2   31.60   15.34
  -4   9  -3   35.32   17.60
  -4  -9   3   32.51   18.03
   4   9   3   58.48   16.26
   4  -9  -3   36.22   13.27
  -4   9  -3   51.95   15.81
  -4   9  -4   78.24   21.30
  -4  -9   4  101.04   23.57
   4   9   4   56.35   16.58
   4  -9  -4   30.49   27.22
   4  -9  -4   76.09   17.79
  -4   9  -4   62.25   19.12
  -4   9  -5  153.27   26.76
  -4  -9   5  149.49   26.99
   4  -9  -5  127.43   23.41
  -4   9  -5  104.98   23.51
  -4   9  -6  244.76   31.86
  -4  -9   6  236.09   32.59
   4  -9  -6  229.88   44.91
   4  -9  -6  191.24   28.05
   4   9   6  221.49   42.27
  -4   9  -7   88.21   23.57
  -4  -9   7  120.44   25.24
   4  -9  -7  143.45   26.10
   4   9   7  104.41   30.08
  -4   9  -8   17.05   16.86
  -4  -9   8   -6.51   14.55
   4  -9  -8    7.00   19.66
   4  -9  -8   43.51   18.60
   4   9   8   43.81   28.03
  -4   9  -9  114.39   26.61
  -4  -9   9   44.45   18.35
   4  -9  -9  102.32   28.46
   4  -9  -9  104.60   24.27
  -4  -9   9   84.86   23.26
   4   9   9   90.94   28.03
  -4   9 -10  109.63   28.48
   4  -9 -10   71.35   24.34
  -4  -9  10  123.59   26.93
   4  -9 -10   78.33   23.67
  -4  -9  10  130.17   28.44
   4   9  10  114.59   30.28
  -4  -9  11   94.83   25.37
   4  -9 -11   87.16   26.14
  -4  -9  12  119.04   26.19
   4 -10  11   65.81   36.01
  -4  10  11  133.51   34.70
   4  10 -10    9.02   16.71
  -4  10  10   28.08   21.50
   4 -10  10    2.46   23.69
   4  10 -10  -11.73   19.34
  -4 -10  -9  191.51   35.49
   4 -10   9  231.36   39.90
   4  10  -9  155.92   29.15
  -4  10   9  182.71   34.26
   4 -10   9   90.31   31.98
   4  10  -9  157.66   35.07
  -4 -10  -8   23.75   18.64
   4 -10   8   60.11   26.22
   4  10  -8   15.32   16.35
  -4  10   8   25.78   18.11
   4 -10   8   48.89   24.54
   4  10  -8   28.11   20.51
  -4 -10  -7   79.44   24.58
   4  10  -7  114.78   25.44
   4 -10   7  125.21   31.95
  -4  10   7  148.28   29.17
   4  10  -7   77.33   29.41
  -4 -10  -6   -2.16   17.43
   4  10  -6   11.52   14.34
  -4  10   6   12.05   16.46
   4 -10   6   53.79   26.59
  -4  10   5  408.88   43.03
  -4 -10  -5  315.69   38.52
   4  10  -5  429.45   39.24
   4 -10   5  444.58   60.25
  -4 -10  -4   32.83   18.66
   4  10  -4   10.52   14.28
  -4  10   4   22.95   17.59
   4 -10   4    1.11   23.92
  -4 -10  -3  120.04   26.32
   4  10  -3  153.41   25.22
  -4  10   3  160.94   28.21
   4 -10   3  147.63   38.43
  -4 -10  -2   43.84   18.74
   4  10  -2   20.08   12.59
  -4  10   2   15.05   12.84
   4 -10   2   54.17   34.47
  -4 -10  -1  370.01   40.65
  -4  10   1  403.26   40.75
   4  10  -1  410.97   36.94
   4 -10   1  370.16   61.11
  -4 -10   0   16.33   15.21
   4  10   0   -3.87   11.66
  -4  10   0  -12.39   14.69
   4 -10   0   22.43   25.96
  -4 -10   1  305.89   37.53
  -4  10  -1  368.26   38.60
   4  10   1  398.20   35.90
   4 -10  -1  464.22   37.37
   4 -10  -1  288.88   55.27
  -4 -10   2   51.19   21.41
   4  10   2   20.70   13.99
   4 -10  -2   37.14   14.54
  -4  10  -2   15.64   14.05
   4 -10  -2   40.14   34.33
  -4  10  -3  145.93   26.39
  -4 -10   3  147.04   27.18
   4  10   3  126.02   21.27
   4 -10  -3  187.04   26.24
  -4  10  -3  119.57   24.00
  -4  10  -4   31.06   15.49
  -4 -10   4   26.62   15.66
   4  10   4   21.99   12.97
   4 -10  -4    8.34   12.82
   4 -10  -4    3.88   23.20
  -4  10  -4   25.61   15.80
  -4  10  -5  420.05   42.29
  -4 -10   5  421.91   44.18
  -4  10  -5  408.16   40.77
   4  10   5  372.47   36.11
   4 -10  -5  391.72   37.97
   4 -10  -5  283.62   50.22
  -4  10  -6   20.14   17.81
  -4 -10   6    9.72   14.76
   4 -10  -6   36.72   25.35
   4 -10  -6    4.72   14.22
  -4  10  -6   16.00   14.80
  -4  10  -7  143.61   27.44
  -4 -10   7  148.99   28.26
   4 -10  -7  107.18   31.33
   4 -10  -7  148.50   27.45
   4  10   7  123.41   34.72
  -4  10  -8   29.79   19.05
  -4 -10   8   50.83   19.65
   4 -10  -8  -16.15   25.76
   4 -10  -8   40.68   17.96
   4  10   8   72.40   27.71
  -4  10  -9  215.11   34.26
  -4 -10   9  266.78   37.15
   4 -10  -9  129.51   33.55
   4 -10  -9  186.17   31.84
  -4 -10   9  197.98   31.54
   4  10   9  222.47   42.54
  -4 -10  10  -22.46   14.64
   4 -10 -10   -3.75   16.24
   4 -10 -10   -4.77   17.30
   4  10  10    4.56   17.46
  -4 -10  11  116.57   28.19
   4 -11  10  129.12   42.72
   4  11 -10   19.87   17.68
   4 -11   9   64.69   25.74
   4  11  -9   64.18   20.50
   4  11  -9   18.28   22.65
  -4 -11  -8    8.38   16.78
   4  11  -8   38.97   19.43
   4 -11   8   -4.66   19.51
  -4  11   8   64.73   21.02
   4  11  -8   36.36   23.42
  -4 -11  -7   96.70   27.05
   4  11  -7   99.77   24.73
  -4  11   7  147.54   31.65
   4 -11   7  149.50   34.18
  -4 -11  -6   29.77   18.55
   4  11  -6   49.69   18.75
  -4  11   6   21.03   14.90
   4 -11   6   54.17   24.78
  -4 -11  -5  124.93   28.70
   4  11  -5  138.99   24.41
  -4  11   5  135.02   28.29
   4 -11   5  120.24   33.73
  -4 -11  -4   69.25   23.76
   4  11  -4   74.37   20.26
  -4  11   4  123.82   26.75
   4 -11   4  125.39   34.69
  -4 -11  -3  150.86   29.53
   4  11  -3  161.93   27.60
  -4  11   3  217.96   33.40
   4 -11   3  175.60   44.33
  -4 -11  -2   18.92   18.19
   4  11  -2    7.53   13.01
  -4  11   2    2.37   12.18
   4 -11   2   26.90   26.21
   4 -11   1  213.21   55.26
  -4 -11  -1  206.72   33.37
   4  11  -1  249.24   30.45
  -4  11   1  247.81   33.13
   4 -11   0  126.44   47.77
  -4 -11   0  105.54   25.34
   4  11   0   63.46   18.29
  -4  11   0  104.45   22.70
   4 -11  -1  224.42   54.43
  -4 -11   1  233.68   33.52
   4  11   1  244.66   30.08
   4 -11  -1  266.25   30.12
  -4  11  -1  243.43   33.31
  -4 -11   2   31.05   18.07
   4  11   2   14.18   14.38
   4 -11  -2  -17.49   15.59
  -4  11  -2   -5.76   14.03
  -4  11  -3  259.26   34.44
  -4 -11   3  210.90   34.09
   4  11   3  183.54   26.45
   4 -11  -3  193.15   26.84
  -4  11  -3  190.55   30.36
  -4  11  -4  100.53   24.20
  -4 -11   4   80.14   21.77
   4  11   4   93.80   20.34
   4 -11  -4   76.34   19.77
  -4  11  -4   85.99   22.84
   4 -11  -4   69.84   33.64
  -4  11  -5  145.07   27.05
  -4 -11   5  120.76   26.27
   4  11   5  116.11   21.57
   4 -11  -5  139.18   25.30
  -4  11  -5  126.94   26.10
   4 -11  -5  135.67   41.56
  -4  11  -6   54.15   18.96
  -4 -11   6   45.26   20.34
   4 -11  -6   25.08   13.92
   4 -11  -6   29.24   28.79
  -4  11  -6   14.64   13.03
  -4  11  -7  188.32   31.28
  -4 -11   7  169.09   31.04
   4 -11  -7  100.20   36.11
   4 -11  -7  134.55   25.84
  -4  11  -7  108.61   24.13
  -4  11  -8   14.42   18.27
  -4 -11   8   46.87   21.86
   4 -11  -8  -26.90   29.35
   4 -11  -8   17.72   17.52
  -4 -11   9   63.06   21.80
   4 -11  -9   95.34   32.54
   4 -11  -9   55.75   22.39
   4  11   9   96.45   33.87
   4  11  10   34.33   22.98
   4  12  -9   19.85   20.68
   4  12  -8   42.70   20.30
   4 -12   8   37.48   23.54
   4  12  -7   12.45   16.46
   4 -12   7  -37.82   21.38
  -4 -12  -6   44.78   23.45
   4  12  -6   18.66   17.00
  -4  12   6   23.42   19.88
   4 -12   6   29.12   26.61
  -4 -12  -5   -2.53   20.13
   4  12  -5   -0.04   15.83
  -4  12   5   20.09   17.19
   4 -12   5  -13.21   26.04
  -4 -12  -4   59.67   21.37
   4  12  -4   87.10   22.86
  -4  12   4   37.51   17.66
   4 -12   4   51.73   32.11
   4 -12   3   20.97   22.33
  -4 -12  -3   80.86   24.75
   4  12  -3   92.72   22.65
  -4  12   3   84.03   24.32
   4 -12   2  -39.02   36.08
  -4 -12  -2   -0.38   15.51
   4  12  -2  -34.56   19.02
  -4  12   2    6.95   13.94
   4 -12   1  -20.21   34.16
  -4 -12  -1   17.27   19.78
   4  12  -1   33.53   15.83
  -4  12   1   41.04   20.43
   4 -12   0   23.81   25.96
  -4 -12   0   -0.19   17.29
   4  12   0   -7.52   12.82
  -4  12   0   39.81   20.05
   4 -12  -1   16.94   32.10
  -4 -12   1   -6.38   17.93
   4  12   1   10.74   13.10
  -4  12  -1   10.42   12.95
   4 -12  -2  -16.92   39.31
  -4 -12   2   -4.37   13.88
   4  12   2  -13.09   15.07
   4 -12  -2   -3.81   12.64
  -4  12  -2    0.44   13.27
  -4  12  -3   62.47   20.62
   4 -12  -3   94.52   39.84
  -4 -12   3   73.35   22.83
   4  12   3   53.80   17.27
   4 -12  -3   42.90   17.09
  -4  12  -3   89.70   23.84
   4 -12  -4   10.18   27.66
  -4  12  -4   60.88   21.65
  -4 -12   4   67.35   23.20
   4  12   4   69.14   19.20
   4 -12  -4   37.35   15.86
  -4  12  -4   36.58   16.34
  -4  12  -5   25.67   18.22
  -4 -12   5   -5.40   16.88
   4  12   5  -18.28   16.55
   4 -12  -5    0.95   13.55
  -4  12  -5  -28.82   17.45
   4 -12  -5  -16.87   23.08
  -4  12  -6   26.89   18.45
  -4 -12   6   35.06   19.11
   4  12   6   19.43   13.43
   4 -12  -6    6.35   14.64
  -4  12  -6   54.59   21.81
   4 -12  -6   -6.23   22.09
  -4 -12   7   -5.46   16.69
   4 -12  -7   41.70   18.57
   4 -12  -7   20.24   21.31
   4 -12  -8   13.82   24.90
   4 -12  -8   55.93   21.61
   4  13  -6   47.75   20.26
   4  13  -5   49.43   19.61
   4 -13   4   43.26   28.92
   4  13  -4   95.51   23.36
   4 -13   3  346.97   61.25
  -4 -13  -3  327.07   43.71
   4  13  -3  325.78   37.66
  -4  13   3  252.00   37.37
   4 -13   2  110.60   45.27
  -4 -13  -2   57.45   23.53
   4  13  -2   39.59   17.87
  -4  13   2   47.88   20.85
  -4 -13  -1  216.67   36.01
   4 -13   1  179.56   55.49
   4  13  -1  217.25   31.05
  -4  13   1  223.71   35.55
  -4 -13   0   35.33   18.98
   4 -13   0   22.32   29.39
   4  13   0   66.85   19.25
  -4  13   0   30.83   18.30
  -4 -13   1  179.07   32.56
   4 -13  -1  191.41   56.35
   4  13   1  219.79   30.65
  -4  13  -1  189.28   31.36
   4 -13  -2    8.06   40.52
  -4 -13   2   22.91   16.15
   4  13   2   39.98   17.60
   4 -13  -2   42.63   17.70
  -4  13  -2   32.94   17.68
  -4  13  -3  344.66   39.88
  -4 -13   3  395.50   46.60
  -4  13  -3  351.74   41.95
   4  13   3  307.60   35.39
   4 -13  -3  311.72   35.82
  -4 -13   4   83.06   23.01
   4  13   4  101.91   21.98
   4 -13  -4   43.64   19.82
   4  13   5    4.15   15.50
   4 -13  -5   65.23   21.23
   4  13   6   37.14   17.97
   4 -13  -6   50.74   20.07
   4  14  -3   91.93   25.10
   4  14  -2   12.51   15.26
   4  14  -1  151.88   28.05
   4  14   0   19.52   17.17
   4  14   1   95.05   23.14
   4  14   2   27.38   18.82
   4  14   3  156.20   29.83
   4 -14  -3   86.57   23.35
   4  14   4   40.29   18.09
   4  14   5  118.94   25.47
   5   0   0   23.97   26.76
  -5   0   1   45.98   16.03
   5   0   1   14.48   24.17
   5   0  -1   72.65   32.92
  -5   0  -2   33.56   14.63
  -5   0   2   14.93   13.18
   5   0   2   42.91   23.80
   5   0  -2   33.14   23.63
  -5   0  -3  274.58   32.40
  -5   0   3  334.35   37.69
   5   0   3  284.73   50.48
   5   0  -3  324.14   51.22
  -5   0  -4   38.08   15.92
  -5   0  -4   25.70   16.04
  -5   0   4   58.31   21.03
   5   0   4   73.82   31.54
   5   0  -4    6.80   20.56
  -5   0  -5    4.57   13.21
  -5   0  -5   14.08   14.01
  -5   0   5   -7.13   14.19
   5   0   5  -33.87   26.45
   5   0  -5   -2.89   17.23
  -5   0  -6  -14.31   16.11
  -5   0  -6    5.36   12.65
  -5   0   6   17.53   17.63
   5   0   6   -8.57   22.46
   5   0  -6   35.87   21.55
   5   0   7  141.12   34.96
   5   0  -7  171.40   38.25
  -5   0  -7  154.34   28.96
  -5   0   7  177.38   35.06
   5   0   8   57.39   26.45
   5   0  -8   44.80   24.54
  -5   0  -8   35.94   18.26
  -5   0   8   59.44   21.26
   5   0   9  140.09   35.05
   5   0  -9  109.65   31.62
  -5   0  -9  113.42   30.45
  -5   0   9  129.13   33.37
   5   0  10   -5.49   18.15
   5   0 -10   62.07   24.72
  -5   0 -10   57.65   27.82
  -5   0  10   42.47   23.57
  -5   0 -11  144.13   36.64
  -5  -1 -11   11.97   23.87
   5   1 -10  105.84   28.66
   5  -1  10  165.32   37.01
  -5  -1 -10  217.90   41.02
  -5   1  10  203.56   41.44
   5   1  -9   47.44   22.67
   5  -1   9   43.75   27.24
  -5  -1  -9   74.57   25.90
  -5   1   9   51.38   24.69
   5  -1   8   83.50   29.12
  -5  -1  -8   94.41   26.13
  -5  -1  -8  108.71   26.78
  -5   1   8  102.91   30.46
   5   1  -8   78.81   28.79
   5  -1   7  132.59   37.24
  -5  -1  -7   67.73   22.93
  -5   1   7   68.96   27.09
   5   1  -7   94.06   29.74
   5  -1   6  139.95   36.23
  -5  -1  -6  131.29   27.91
  -5   1   6  139.92   29.57
   5   1  -6   93.05   29.13
   5  -1   5  -20.62   24.84
  -5  -1  -5    9.93   14.13
  -5   1   5    0.58   13.88
   5   1  -5   30.30   25.07
   5  -1   4  153.06   38.18
  -5  -1  -4  236.84   32.42
  -5   1   4  226.02   32.18
   5   1  -4  248.12   44.98
   5  -1   3  132.19   36.95
  -5  -1  -3  151.96   26.11
  -5   1   3  135.81   25.46
   5   1  -3  113.73   31.43
   5  -1   2  125.83   35.09
  -5  -1  -2  126.78   24.06
  -5   1   2  100.52   22.98
   5   1  -2  161.93   39.43
   5  -1   1   83.10   31.03
  -5  -1  -1   91.84   19.06
   5   1  -1   88.70   31.85
   5  -1   0  287.50   47.76
   5   1   0  274.91   47.67
   5  -1  -1   76.77   28.18
  -5   1  -1   55.90   16.56
  -5  -1   1   59.02   16.96
   5   1   1  120.36   35.10
   5  -1  -2  133.85   36.05
  -5   1  -2  137.32   22.12
  -5  -1   2  137.38   25.20
  -5   1  -2  125.39   21.55
   5   1   2   91.29   32.72
   5  -1  -3  105.90   32.87
  -5   1  -3  187.64   26.17
  -5   1  -3  122.54   22.89
  -5  -1   3  143.96   26.19
   5   1   3  149.27   37.68
   5  -1  -4  259.43   46.71
  -5   1  -4  226.25   29.72
  -5   1  -4  222.52   30.64
  -5  -1   4  281.22   34.88
   5   1   4  295.81   48.99
   5  -1  -5   38.38   25.88
  -5   1  -5   45.74   20.56
  -5   1  -5   27.70   15.98
  -5  -1   5   36.17   18.17
   5   1   5  -34.07   26.59
   5  -1  -6  126.81   34.73
  -5   1  -6  176.11   29.71
  -5  -1   6  130.85   28.63
   5   1   6  169.85   40.86
   5  -1  -7   61.75   27.21
  -5   1  -7   74.80   23.81
  -5  -1   7   89.24   25.93
   5   1   7   85.78   28.25
   5  -1  -8   25.77   21.13
  -5   1  -8   88.53   25.43
  -5  -1   8  124.07   28.23
   5   1   8   99.56   31.01
   5   1   9   29.03   23.79
   5  -1  -9   24.21   20.24
  -5   1  -9   40.87   22.42
  -5  -1   9   59.48   24.38
   5   1  10  164.33   35.13
   5  -1 -10  104.71   30.74
  -5   1 -10  219.07   36.17
  -5  -1  10  171.90   35.30
  -5   1 -11   32.07   22.43
   5  -2  10   34.42   21.03
  -5   2  10   28.75   22.11
   5   2 -10   33.61   22.66
   5  -2   9  126.84   34.42
  -5  -2  -9   71.35   24.55
  -5   2   9   77.52   28.92
   5   2  -9   71.80   25.08
   5  -2   8  -10.99   23.40
  -5  -2  -8   16.05   17.10
  -5   2   8    1.56   16.85
   5   2  -8    2.65   15.07
   5  -2   7  -15.16   20.51
  -5  -2  -7   50.27   21.82
  -5   2   7    8.42   18.96
   5   2  -7   42.55   26.15
   5  -2   6   -6.79   25.67
  -5  -2  -6  -10.77   17.79
  -5   2   6   43.07   22.95
   5   2  -6   19.83   22.25
   5  -2   5  131.59   35.85
  -5  -2  -5   59.98   19.30
  -5   2   5  138.46   27.81
   5   2  -5   80.75   31.92
   5  -2   4   13.93   23.28
  -5  -2  -4   36.88   16.54
  -5   2   4   22.00   17.23
   5   2  -4   22.18   22.37
   5  -2   3   77.27   30.27
  -5  -2  -3   72.20   20.59
  -5   2   3   71.85   20.70
   5   2  -3   56.43   30.22
   5  -2   2   27.24   27.12
  -5  -2  -2    4.72   10.99
   5  -2   2   20.24   23.23
   5   2  -2    8.05   22.77
   5  -2   1   46.69   31.74
  -5   2   1   93.47   17.44
  -5  -2  -1   88.60   19.95
   5  -2   1  139.88   40.43
   5   2  -1   53.21   25.15
   5  -2   0    7.17   24.60
  -5   2   0   21.86   14.47
  -5  -2   0   22.62   12.75
   5  -2   0   65.95   32.20
  -5   2   0   18.18   11.87
   5   2   0   14.09   23.54
   5  -2  -1   47.11   29.18
  -5   2  -1  116.35   21.55
   5  -2  -1   39.87   24.36
  -5   2  -1   63.63   16.38
   5   2   1   93.89   32.55
   5  -2  -2   23.83   25.56
  -5   2  -2   20.59   13.36
   5  -2  -2   -3.82   24.68
  -5  -2   2   -9.01   12.40
  -5   2  -2   -8.68   12.22
   5   2   2   24.32   23.96
   5  -2  -3   26.99   28.47
  -5   2  -3   24.44   14.60
   5  -2  -3  100.71   33.08
  -5  -2   3   47.60   17.44
  -5   2  -3   58.51   17.11
   5   2   3   20.05   22.60
   5  -2  -4   19.59   21.69
  -5   2  -4   22.11   13.90
  -5  -2   4   15.59   15.01
   5   2   4   25.21   25.33
   5  -2  -5  122.44   34.84
  -5   2  -5  134.94   26.10
  -5   2  -5  105.37   23.52
  -5  -2   5  136.82   26.72
   5   2   5   84.22   27.61
   5  -2  -6   34.62   22.94
  -5   2  -6   13.20   14.23
  -5  -2   6   14.67   16.30
   5   2   6    9.87   21.46
   5  -2  -7   21.09   23.28
  -5   2  -7   21.08   15.20
  -5  -2   7   16.80   17.00
   5   2   7   11.32   20.83
   5  -2  -8   14.35   20.52
  -5   2  -8    6.24   17.93
  -5  -2   8    7.19   16.57
   5   2   8   37.46   23.57
   5  -2  -9  100.87   30.54
  -5   2  -9  141.13   30.62
  -5  -2   9  135.32   29.93
   5   2   9  121.53   33.24
  -5   2 -10   33.23   22.45
   5   2  10   12.69   17.44
   5  -3  10   48.91   27.67
  -5   3  10   15.37   20.78
   5   3 -10   31.38   21.75
  -5  -3  -9    1.10   16.94
   5  -3   9   24.44   20.46
  -5   3   9   10.38   18.29
   5   3  -9   39.46   23.76
  -5  -3  -8   18.52   18.35
   5  -3   8   20.48   20.47
  -5   3   8   19.40   16.49
   5   3  -8  -16.07   17.98
   5  -3   7  185.43   41.49
  -5  -3  -7   97.59   25.67
  -5   3   7  178.10   35.26
   5   3  -7  169.35   36.25
   5  -3   6   87.04   30.38
  -5  -3  -6   44.36   20.02
   5  -3   6   55.83   25.65
  -5   3   6   93.22   27.08
   5   3  -6   27.76   21.38
   5  -3   5  156.04   41.59
  -5  -3  -5  124.05   25.77
   5  -3   5  160.59   36.13
  -5   3   5  101.35   27.05
   5   3  -5  173.63   38.06
   5  -3   4   -7.71   24.84
  -5  -3  -4   -3.94   13.51
   5  -3   4   55.36   28.80
   5   3  -4  -16.93   25.89
   5  -3   3  138.68   39.43
  -5  -3  -3  130.99   25.11
   5  -3   3  108.79   32.96
   5   3  -3  125.01   35.69
   5  -3   2   20.14   27.97
  -5  -3  -2   62.67   19.08
   5  -3   2   17.27   24.55
  -5   3   2   33.28   14.58
   5   3  -2   19.93   24.04
   5  -3   1  218.42   45.19
  -5   3   1  227.78   27.63
  -5  -3  -1  216.43   29.41
   5  -3   1  252.14   49.97
  -5   3   1  223.45   27.72
   5   3  -1  270.20   49.98
   5  -3   0   94.66   31.99
  -5   3   0  120.25   21.10
  -5  -3   0   89.59   18.93
   5  -3   0   75.38   28.07
  -5   3   0   95.26   20.15
   5   3   0  138.50   38.42
   5  -3  -1  198.95   46.02
  -5   3  -1  237.00   29.07
  -5  -3   1  219.15   28.49
   5  -3  -1  216.37   43.54
  -5   3  -1  230.57   28.89
   5   3   1  152.10   40.06
   5  -3  -2   17.93   27.40
  -5   3  -2   59.66   17.25
   5  -3  -2   31.48   23.06
  -5   3  -2   47.46   15.86
   5   3   2   31.88   21.73
   5  -3  -3  128.94   35.62
  -5   3  -3  178.24   27.34
   5  -3  -3   52.66   26.93
  -5  -3   3  103.85   23.17
  -5   3  -3  125.93   23.12
   5   3   3   68.05   32.27
   5  -3  -4   19.86   28.25
  -5   3  -4    8.18   14.07
   5  -3  -4   13.98   23.43
  -5  -3   4   42.39   16.50
   5   3   4   44.36   27.50
   5  -3  -5  111.88   35.77
  -5   3  -5  145.73   26.91
   5  -3  -5  135.65   36.16
  -5  -3   5  152.90   28.89
   5   3   5  118.04   30.39
   5  -3  -6   52.61   28.60
  -5   3  -6   72.76   22.45
   5  -3  -6   97.50   30.97
  -5  -3   6   77.62   24.14
   5   3   6   75.45   28.02
   5  -3  -7  151.05   35.82
  -5   3  -7  191.86   32.38
  -5  -3   7  152.21   30.63
   5   3   7  228.08   43.04
  -5   3  -8   23.77   18.30
  -5  -3   8   37.21   17.38
   5   3   8   75.79   28.92
  -5   3  -9   43.67   20.32
  -5  -3   9   24.39   20.76
   5   3   9   29.96   23.63
  -5   3 -10   35.05   20.98
   5   3  10   20.56   19.74
   5  -4  10   82.17   29.21
  -5   4  10   70.27   28.57
   5   4 -10   19.35   21.96
  -5  -4  -9  -22.45   19.86
   5  -4   9   11.50   19.07
  -5   4   9  -28.46   23.19
   5   4  -9   47.64   23.63
  -5  -4  -8   79.02   24.50
   5  -4   8  165.35   35.04
   5  -4   8  154.99   34.27
  -5   4   8  118.07   30.68
   5   4  -8   97.29   29.32
  -5  -4  -7   38.01   19.34
   5  -4   7   28.84   22.61
   5  -4   7   27.44   15.58
  -5   4   7   -9.28   19.90
   5   4  -7   26.04   21.33
  -5  -4  -6  175.75   31.97
   5  -4   6  301.77   47.00
  -5   4   6  274.25   41.47
   5   4  -6  232.41   42.60
  -5  -4  -5   16.30   17.64
   5  -4   5   31.58   25.33
   5   4  -5   21.59   23.34
  -5  -4  -4  149.97   28.11
  -5   4   4  152.40   25.78
   5  -4   4  202.05   42.30
   5   4  -4   77.12   30.48
   5  -4   3  -17.13   29.07
  -5  -4  -3    3.72   14.06
  -5   4   3    4.83   11.61
   5  -4   3    4.96   21.97
   5  -4   2  327.57   54.70
  -5  -4  -2  301.70   35.61
  -5   4   2  381.84   37.11
   5  -4   2  407.77   60.59
   5   4  -2  257.22   49.09
   5  -4   1   61.08   28.37
  -5   4   1   49.62   17.69
  -5  -4  -1   30.40   16.53
  -5   4   1   39.96   14.97
   5  -4   1   20.15   24.61
   5   4  -1   54.08   28.30
  -5   4   0  332.62   34.02
   5  -4   0  267.28   49.75
  -5  -4   0  271.86   33.66
   5  -4   0  232.72   45.43
  -5   4   0  267.13   30.73
   5   4   0  310.73   54.25
   5  -4  -1   54.11   28.93
  -5   4  -1   40.17   16.32
  -5  -4   1   48.18   16.76
   5  -4  -1   38.36   26.50
  -5   4  -1   60.04   17.74
   5   4   1   71.65   29.97
  -5   4  -2  397.68   38.88
   5  -4  -2  326.32   53.37
  -5  -4   2  292.23   33.08
  -5   4  -2  349.54   36.01
   5  -4  -2  267.06   49.79
   5   4   2  275.78   49.98
   5  -4  -3    5.02   25.66
  -5   4  -3  -13.08   14.66
  -5  -4   3   -2.59   10.88
   5  -4  -3  -15.30   24.01
  -5   4  -3   14.30   13.99
   5   4   3  -12.40   25.68
  -5   4  -4  183.56   28.19
   5  -4  -4  133.33   37.69
  -5  -4   4  118.79   25.28
  -5   4  -4  175.42   27.93
   5   4   4  105.54   33.52
  -5   4  -5   60.50   21.36
   5  -4  -5    8.68   22.77
  -5  -4   5   36.76   19.93
   5   4   5   31.89   23.90
  -5   4  -6  228.05   33.23
   5  -4  -6  158.65   38.63
  -5  -4   6  272.87   37.65
   5   4   6  267.33   46.82
  -5   4  -7   57.14   21.33
   5  -4  -7    8.04   21.84
  -5  -4   7   31.41   18.80
   5   4   7   -1.70   19.73
  -5   4  -8  143.37   30.04
   5  -4  -8  120.72   35.90
  -5  -4   8  166.11   31.90
   5   4   8  137.99   35.98
  -5   4  -9   14.53   19.24
   5   4   9   49.32   26.86
   5   4  10    3.16   18.40
   5  -5  10   32.36   26.33
  -5   5  10    0.55   20.67
   5   5 -10   47.82   22.03
   5  -5   9  -42.19   24.24
   5  -5   9  -21.41   22.75
  -5   5   9   40.41   22.45
   5   5  -9   -1.15   18.87
  -5  -5  -8    4.92   18.45
   5  -5   8   -1.37   19.59
   5  -5   8   -9.82   17.69
  -5   5   8   12.43   21.00
   5   5  -8   36.62   24.30
  -5  -5  -7    9.02   15.43
   5  -5   7   26.91   21.68
   5   5  -7    6.68   20.90
  -5  -5  -6   46.10   20.06
   5  -5   6   42.52   23.24
   5   5  -6  -19.66   23.64
  -5  -5  -5   41.29   21.25
  -5   5   5   -9.17   14.94
   5  -5   5   -8.24   19.36
   5   5  -5   50.13   29.73
  -5  -5  -4   11.10   14.19
  -5   5   4   26.56   14.82
   5  -5   4   68.16   26.93
   5   5  -4   -0.85   23.82
  -5  -5  -3   30.33   17.41
  -5   5   3   36.15   16.79
   5  -5   3   27.14   23.14
   5   5  -3   43.76   25.25
  -5  -5  -2    0.05   13.77
  -5   5   2    3.92   12.39
   5  -5   2  -18.22   21.92
   5   5  -2   23.79   30.89
  -5  -5  -1   34.17   16.44
  -5   5   1    9.13   11.28
   5  -5   1   16.85   25.68
   5   5  -1   -2.47   26.03
  -5   5   0   56.13   17.68
  -5  -5   0   45.35   18.03
  -5   5   0   52.13   17.93
   5  -5   0   31.78   28.33
   5   5   0   76.96   32.94
  -5   5  -1   20.14   13.42
  -5  -5   1    9.97   12.88
  -5   5  -1    1.19   12.74
   5  -5  -1   23.71   27.65
   5   5   1   44.97   28.80
  -5   5  -2   17.47   14.23
  -5  -5   2   24.98   15.13
  -5   5  -2   -8.27   11.05
   5   5   2    2.63   25.75
  -5   5  -3   63.59   19.91
  -5  -5   3   38.51   16.45
  -5   5  -3    9.61   11.38
   5  -5  -3  -31.65   25.39
   5   5   3    7.94   24.91
  -5   5  -4   23.41   16.15
  -5  -5   4   15.70   13.90
   5  -5  -4   10.41   26.44
  -5   5  -4   10.18   12.58
  -5   5  -5   16.81   16.98
   5  -5  -5    2.20   23.61
  -5  -5   5   17.10   14.65
   5   5   5  -20.09   25.95
  -5   5  -6   41.85   18.57
   5  -5  -6   13.42   22.34
  -5  -5   6   49.96   20.21
   5   5   6  -25.84   27.72
  -5   5  -7   83.97   24.59
   5  -5  -7   84.83   32.28
  -5  -5   7   11.86   16.30
   5   5   7   66.16   30.17
  -5   5  -8   19.53   17.20
   5  -5  -8   -5.86   22.95
  -5  -5   8   26.77   18.84
   5   5   8   23.06   21.98
   5  -5  -9  -65.28   29.84
   5   5   9  -16.69   23.05
   5   5  10   62.48   25.31
   5  -6   9   99.36   31.25
   5   6  -9   51.24   24.63
   5  -6   8  130.77   32.75
   5   6  -8  147.66   36.26
  -5  -6  -7   31.60   20.85
   5  -6   7   42.99   25.29
  -5  -6  -6   88.60   25.68
  -5   6   6  181.84   30.64
   5  -6   6   72.44   27.92
   5   6  -6  127.98   33.91
  -5  -6  -5  119.89   27.83
  -5   6   5  125.33   26.68
   5  -6   5  158.06   37.54
   5   6  -5  129.94   35.68
  -5  -6  -4   70.60   21.20
  -5   6   4   74.98   22.10
   5   6  -4   90.48   33.22
   5  -6   4  117.93   37.32
  -5  -6  -3   46.70   21.23
  -5   6   3   33.64   16.07
   5   6  -3   47.38   31.37
   5  -6   3   27.29   25.57
  -5  -6  -2  316.11   39.40
  -5   6   2  243.65   32.95
   5   6  -2  290.71   52.54
   5  -6   2  303.31   54.00
  -5  -6  -1  104.44   23.01
  -5   6   1  138.87   25.22
   5   6  -1   93.30   39.41
   5  -6   1   83.80   32.74
  -5   6   0  152.23   25.79
  -5  -6   0  121.62   23.80
  -5   6   0  123.91   24.12
   5   6   0  119.40   41.63
   5  -6   0  112.37   38.38
  -5   6  -1  124.11   24.65
  -5  -6   1  138.62   25.30
  -5   6  -1  149.74   25.08
   5   6   1   64.94   34.11
   5  -6  -1   77.84   36.62
  -5   6  -2  325.00   36.87
  -5  -6   2  296.59   36.23
  -5   6  -2  297.11   35.30
   5   6   2  224.96   47.90
   5  -6  -2  294.66   53.30
  -5   6  -3   77.76   22.44
  -5  -6   3   22.35   14.32
  -5   6  -3   23.20   16.55
   5   6   3  112.75   37.55
   5  -6  -3  -18.96   27.88
  -5   6  -4   74.85   20.06
  -5  -6   4   77.56   20.87
  -5   6  -4   83.05   21.73
   5   6   4   -1.00   28.86
   5  -6  -4   86.39   34.67
  -5   6  -5  137.00   25.49
  -5  -6   5  126.70   24.54
  -5   6  -5  183.80   29.73
   5  -6  -5  161.44   40.20
   5   6   5   82.44   35.58
  -5   6  -6   99.87   25.81
  -5  -6   6  113.11   27.03
   5  -6  -6   58.68   28.75
   5   6   6  146.56   39.18
  -5   6  -7   34.07   20.15
   5  -6  -7   83.52   31.61
  -5  -6   7   14.71   16.36
   5   6   7   16.05   21.17
   5  -6  -8  126.25   34.03
   5   6   8  126.39   33.65
   5  -6  -9   -0.82   23.05
   5   6   9   78.21   33.34
   5   7  -8  105.97   31.14
  -5   7   7   19.32   17.42
   5  -7   7   16.42   25.29
   5   7  -7  -18.43   21.73
  -5  -7  -6   -5.95   16.20
  -5   7   6   33.84   17.00
   5   7  -6   -3.54   24.11
   5  -7   6    1.49   20.19
  -5  -7  -5   22.65   16.67
  -5   7   5   78.61   21.62
   5   7  -5   61.35   32.50
   5  -7   5   57.07   27.84
  -5  -7  -4   36.52   18.18
  -5   7   4   58.73   20.04
   5   7  -4   20.08   24.83
   5  -7   4   70.12   29.31
   5  -7   3   38.19   31.97
  -5  -7  -3   27.98   18.72
  -5   7   3  -10.07   14.74
   5   7  -3   36.34   27.43
   5  -7   2  114.64   36.66
  -5  -7  -2  125.49   27.42
  -5   7   2  143.23   26.35
   5   7  -2  166.63   49.60
   5  -7   1   -4.57   29.61
  -5  -7  -1   38.14   17.19
  -5   7   1   21.97   14.77
   5   7  -1   28.60   29.30
   5  -7   0   41.41   33.92
  -5  -7   0   58.84   20.24
  -5   7   0   86.63   21.67
   5   7   0   52.91   33.24
   5  -7  -1   30.18   30.03
  -5   7  -1   -2.92   13.95
  -5  -7   1   12.35   13.95
  -5   7  -1   -6.22   13.63
   5   7   1    1.74   27.72
   5  -7  -2  149.00   41.20
  -5   7  -2  113.42   23.77
  -5  -7   2  126.25   26.38
  -5   7  -2  120.67   24.25
   5   7   2   26.56   30.32
   5  -7  -3   30.84   23.31
  -5   7  -3    2.26   14.84
  -5  -7   3   21.29   15.12
  -5   7  -3   16.03   11.51
   5   7   3   -4.06   23.67
   5  -7  -4   96.72   36.51
  -5   7  -4   90.23   21.56
  -5  -7   4   63.30   18.65
  -5   7  -4   64.21   20.40
   5   7   4   39.02   29.01
  -5   7  -5   32.63   15.74
  -5  -7   5   66.84   19.68
  -5   7  -5   34.80   16.88
   5   7   5   45.19   28.34
   5  -7  -5   44.26   28.35
  -5   7  -6   67.72   20.26
  -5  -7   6  101.10   24.59
  -5  -7   6   50.06   20.14
  -5   7  -6   12.61   14.33
   5   7   6  104.17   36.27
   5  -7  -6  -34.85   30.40
   5   7   7   23.45   28.84
   5  -7  -7  -29.94   28.56
   5   7   8  120.71   33.37
  -5   8   7   98.83   25.88
  -5   8   6   34.47   16.94
   5  -8   5  271.14   49.31
  -5  -8  -5  185.13   34.71
  -5   8   5  295.26   38.80
   5   8  -5  229.25   49.53
   5  -8   4    0.41   23.24
  -5  -8  -4   -3.12   15.90
  -5   8   4    4.97   12.91
   5   8  -4   43.34   32.34
   5  -8   3   34.23   29.89
  -5  -8  -3   67.86   20.99
  -5   8   3   79.31   22.21
   5   8  -3   69.09   35.55
   5  -8   2   11.57   24.66
  -5  -8  -2   64.12   21.87
  -5   8   2   88.74   22.76
   5   8  -2   55.24   35.06
   5  -8   1  143.18   45.81
  -5  -8  -1  181.68   31.22
  -5   8   1  167.36   29.76
   5   8  -1  105.84   39.93
   5  -8   0  -14.92   35.29
  -5  -8   0   -4.00   15.22
  -5   8   0   -7.90   13.05
   5   8   0    3.63   23.62
  -5   8  -1  251.73   34.30
   5  -8  -1  184.88   48.66
  -5  -8   1  208.36   32.73
  -5   8  -1  235.15   34.14
   5   8   1  213.67   53.82
  -5   8  -2   77.28   23.01
   5  -8  -2   18.59   28.57
  -5  -8   2   39.60   18.05
  -5   8  -2   33.48   17.42
  -5   8  -3   53.65   18.94
   5  -8  -3  118.93   39.92
  -5  -8   3   67.26   20.75
  -5   8  -3   57.87   20.35
   5   8   3   88.14   39.27
   5  -8  -4   44.74   34.35
  -5   8  -4    0.33   15.08
  -5  -8   4   20.16   15.97
  -5   8  -4   -2.66   12.80
   5   8   4    8.20   26.44
   5  -8  -5  207.30   47.79
  -5   8  -5  302.61   37.98
  -5  -8   5  296.40   37.70
  -5   8  -5  254.77   35.19
   5   8   5  302.64   54.99
  -5  -8   6   16.63   14.33
  -5   9   5  -14.83   17.70
  -5   9   4   85.36   23.60
  -5  -9  -3    3.93   15.41
  -5   9   3   -0.96   15.93
  -5  -9  -2   34.96   19.48
  -5   9   2    6.98   13.17
  -5  -9  -1   14.89   15.14
  -5   9   1   18.05   16.85
  -5  -9   0   88.61   22.82
  -5   9   0   61.16   21.13
  -5   9  -1  -14.19   14.52
  -5  -9   1   19.86   16.24
  -5   9  -1   -0.45   13.85
  -5   9  -2   68.89   23.25
  -5  -9   2   73.55   24.05
  -5   9  -2   65.12   23.15
  -5  -9   3   20.84   17.03
  -5  -9   4  108.25   26.70
  -5  -9   5   22.27   16.29
  -5  -9   6    5.73   16.67
   0   0   0    0.00    0.00
;
_shelx_hkl_checksum              8082
loop_
_space_group_symop_operation_xyz
'x, y, z'
'-x+1/2, -y, z+1/2'
'-x, y+1/2, -z+1/2'
'x+1/2, -y+1/2, -z'
loop_
_atom_site_label
_atom_site_type_symbol
_atom_site_fract_x
_atom_site_fract_y
_atom_site_fract_z
_atom_site_U_iso_or_equiv
_atom_site_adp_type
_atom_site_occupancy
_atom_site_site_symmetry_order
_atom_site_calc_flag
_atom_site_refinement_flags_posn
_atom_site_refinement_flags_adp
_atom_site_refinement_flags_occupancy
_atom_site_disorder_assembly
_atom_site_disorder_group
C11 C 0.2985(12) 0.2268(3) 0.3364(3) 0.0142(11) Uani 1 1 d . . . . .
Br11 Br 0.44078(12) 0.10520(3) 0.39217(4) 0.01827(14) Uani 1 1 d . . . . .
C12 C 0.1347(11) 0.2240(3) 0.2501(3) 0.0142(11) Uani 1 1 d . . . . .
H12 H 0.0941 0.1639 0.2192 0.017 Uiso 1 1 calc R U . . .
C13 C 0.0339(12) 0.3134(4) 0.2116(3) 0.0146(10) Uani 1 1 d . . . . .
Br13 Br -0.18586(12) 0.31174(4) 0.09210(4) 0.01805(13) Uani 1 1 d . . . . .
C14 C 0.0941(11) 0.4039(4) 0.2543(4) 0.0158(11) Uani 1 1 d . . . . .
H14 H 0.0253 0.4633 0.2266 0.019 Uiso 1 1 calc R U . . .
C15 C 0.2615(11) 0.4028(4) 0.3404(4) 0.0165(11) Uani 1 1 d . . . . .
Br15 Br 0.35576(11) 0.52517(3) 0.40228(4) 0.01976(14) Uani 1 1 d . . . . .
C16 C 0.3671(11) 0.3151(4) 0.3831(3) 0.0150(10) Uani 1 1 d . . . . .
H16 H 0.4796 0.3156 0.4408 0.018 Uiso 1 1 calc R U . . .
loop_
_atom_site_aniso_label
_atom_site_aniso_U_11
_atom_site_aniso_U_22
_atom_site_aniso_U_33
_atom_site_aniso_U_23
_atom_site_aniso_U_13
_atom_site_aniso_U_12
C11 0.014(2) 0.011(2) 0.019(3) 0.004(2) 0.004(2) 0.001(2)
Br11 0.0209(3) 0.0134(2) 0.0204(3) 0.0019(2) -0.0012(2) 0.0022(2)
C12 0.015(2) 0.012(2) 0.016(3) -0.002(2) 0.004(2) -0.001(2)
C13 0.012(2) 0.021(2) 0.011(2) -0.001(2) 0.001(2) -0.002(2)
Br13 0.0195(2) 0.0215(2) 0.0132(3) 0.0008(2) -0.0011(2) -0.0014(2)
C14 0.015(3) 0.015(3) 0.017(3) 0.002(2) 0.003(2) 0.000(2)
C15 0.015(3) 0.015(3) 0.020(3) -0.003(2) 0.006(2) -0.005(2)
Br15 0.0234(3) 0.0125(2) 0.0233(3) -0.0031(2) -0.0030(3) -0.0023(2)
C16 0.012(2) 0.020(2) 0.013(2) -0.003(2) -0.0023(19) -0.002(2)
loop_
_atom_type_symbol
_atom_type_description
_atom_type_scat_dispersion_real
_atom_type_scat_dispersion_imag
_atom_type_scat_source
C C 0.0033 0.0016 'International Tables Vol C Tables 4.2.6.8 and 6.1.1.4'
H H 0.0000 0.0000 'International Tables Vol C Tables 4.2.6.8 and 6.1.1.4'
Br Br -0.2901 2.4595 'International Tables Vol C Tables 4.2.6.8 and 6.1.1.4'
loop_
_geom_angle_atom_site_label_1
_geom_angle_atom_site_label_2
_geom_angle_atom_site_label_3
_geom_angle
_geom_angle_site_symmetry_1
_geom_angle_site_symmetry_3
_geom_angle_publ_flag
C12 C11 C16 122.5(4) . . ?
C12 C11 Br11 118.9(4) . . ?
C16 C11 Br11 118.6(4) . . ?
C13 C12 C11 117.5(4) . . ?
C13 C12 H12 121.2 . . ?
C11 C12 H12 121.2 . . ?
C14 C13 C12 123.0(4) . . ?
C14 C13 Br13 118.7(4) . . ?
C12 C13 Br13 118.3(3) . . ?
C13 C14 C15 117.3(5) . . ?
C13 C14 H14 121.3 . . ?
C15 C14 H14 121.3 . . ?
C14 C15 C16 122.3(5) . . ?
C14 C15 Br15 119.3(4) . . ?
C16 C15 Br15 118.3(4) . . ?
C11 C16 C15 117.4(4) . . ?
C11 C16 H16 121.3 . . ?
C15 C16 H16 121.3 . . ?
loop_
_geom_bond_atom_site_label_1
_geom_bond_atom_site_label_2
_geom_bond_distance
_geom_bond_site_symmetry_2
_geom_bond_publ_flag
C11 C12 1.382(7) . ?
C11 C16 1.383(6) . ?
C11 Br11 1.898(5) . ?
C12 C13 1.377(7) . ?
C12 H12 0.9300 . ?
C13 C14 1.376(7) . ?
C13 Br13 1.900(4) . ?
C14 C15 1.386(7) . ?
C14 H14 0.9300 . ?
C15 C16 1.387(7) . ?
C15 Br15 1.896(5) . ?
C16 H16 0.9300 . ?
loop_
_geom_torsion_atom_site_label_1
_geom_torsion_atom_site_label_2
_geom_torsion_atom_site_label_3
_geom_torsion_atom_site_label_4
_geom_torsion
_geom_torsion_site_symmetry_1
_geom_torsion_site_symmetry_2
_geom_torsion_site_symmetry_3
_geom_torsion_site_symmetry_4
_geom_torsion_publ_flag
C16 C11 C12 C13 -1.1(7) . . . . ?
Br11 C11 C12 C13 179.8(3) . . . . ?
C11 C12 C13 C14 1.1(7) . . . . ?
C11 C12 C13 Br13 179.1(3) . . . . ?
C12 C13 C14 C15 -0.6(7) . . . . ?
Br13 C13 C14 C15 -178.6(3) . . . . ?
C13 C14 C15 C16 0.1(7) . . . . ?
C13 C14 C15 Br15 179.4(4) . . . . ?
C12 C11 C16 C15 0.6(7) . . . . ?
Br11 C11 C16 C15 179.7(3) . . . . ?
C14 C15 C16 C11 -0.1(7) . . . . ?
Br15 C15 C16 C11 -179.4(4) . . . . ?

_cod_database_fobs_code 2108855
