#------------------------------------------------------------------------------
#$Date: 2022-06-02 05:16:25 +0300 (Thu, 02 Jun 2022) $
#$Revision: 275739 $
#$URL: file:///home/coder/svn-repositories/cod/cif/2/10/89/2108987.cif $
#------------------------------------------------------------------------------
#
# This file is available in the Crystallography Open Database (COD),
# http://www.crystallography.net/. The original data for this entry
# were provided by IUCr Journals, http://journals.iucr.org/.
#
# The file may be used within the scientific community so long as
# proper attribution is given to the journal article from which the
# data were obtained.
#
data_2108987
loop_
_publ_author_name
'Rey, Juan Manuel'
'Movilla, Federico'
'Su\'arez, Sebasti\'an Angel'
'Di Salvo, Florencia'
_publ_section_title
;
 Synthesis, structural and electrochemical properties of a new family of
 amino-acid-based coordination complexes
;
_journal_issue                   '3 Part 2'
_journal_name_full               'Acta Crystallographica Section B'
_journal_page_first
;
;
_journal_paper_doi               10.1107/S2052520622003912
_journal_volume                  78
_journal_year                    2022
_chemical_absolute_configuration syn
_chemical_formula_moiety         'C34 H34 Cu N2 O9'
_chemical_formula_sum            'C34 H34 Cu N2 O9'
_chemical_formula_weight         678.17
_space_group_crystal_system      triclinic
_space_group_IT_number           1
_space_group_name_Hall           'P 1'
_space_group_name_H-M_alt        'P 1'
_atom_sites_solution_hydrogens   mixed
_audit_creation_date             2021-07-01
_audit_creation_method
;
Olex2 1.3
(compiled 2020.11.12 svn.r5f609507 for OlexSys, GUI svn.r6226)
;
_audit_update_record
;
2021-08-18 deposited with the CCDC. 2021-09-02 downloaded from the CCDC.
;
_cell_angle_alpha                91.685(11)
_cell_angle_beta                 97.664(7)
_cell_angle_gamma                112.798(8)
_cell_formula_units_Z            1
_cell_length_a                   7.2450(17)
_cell_length_b                   7.2510(12)
_cell_length_c                   16.014(3)
_cell_measurement_reflns_used    9181
_cell_measurement_temperature    100(2)
_cell_measurement_theta_max      27.496
_cell_measurement_theta_min      2.900
_cell_volume                     765.6(3)
_computing_cell_refinement       'XDS (Kabsch, 2010)'
_computing_data_collection       'MXCuBE (Gabadinho et al., 2010)'
_computing_data_reduction        'XDS (Kabsch, 2010)'
_computing_molecular_graphics    'Olex2 1.3 (Dolomanov et al., 2009)'
_computing_publication_material  'Olex2 1.3 (Dolomanov et al., 2009)'
_computing_structure_refinement  'SHELXL 2018/3 (Sheldrick, 2015)'
_computing_structure_solution    'XT (Sheldrick, 2015)'
_diffrn_ambient_temperature      100.0
_diffrn_detector_area_resol_mean 5.814
_diffrn_measured_fraction_theta_full 0.937
_diffrn_measured_fraction_theta_max 0.937
_diffrn_measurement_device_type  mx2_info_2019
_diffrn_measurement_method       'shuterless \f scans'
_diffrn_radiation_type           synchrotron
_diffrn_radiation_wavelength     0.79986
_diffrn_reflns_av_R_equivalents  0.0352
_diffrn_reflns_av_unetI/netI     0.0539
_diffrn_reflns_Laue_measured_fraction_full 0.937
_diffrn_reflns_Laue_measured_fraction_max 0.921
_diffrn_reflns_limit_h_max       7
_diffrn_reflns_limit_h_min       -7
_diffrn_reflns_limit_k_max       8
_diffrn_reflns_limit_k_min       -8
_diffrn_reflns_limit_l_max       18
_diffrn_reflns_limit_l_min       -18
_diffrn_reflns_number            7949
_diffrn_reflns_point_group_measured_fraction_full 0.909
_diffrn_reflns_point_group_measured_fraction_max 0.894
_diffrn_reflns_theta_full        27.496
_diffrn_reflns_theta_max         27.496
_diffrn_reflns_theta_min         2.900
_diffrn_source                   LNLS-MX2
_exptl_absorpt_coefficient_mu    1.061
_exptl_absorpt_correction_T_max  1
_exptl_absorpt_correction_T_min  0.779676
_exptl_absorpt_correction_type   empirical
_exptl_absorpt_process_details   'XDS (Kabsch, 2010)'
_exptl_crystal_colour            blue
_exptl_crystal_colour_primary    blue
_exptl_crystal_density_diffrn    1.471
_exptl_crystal_description       plate
_exptl_crystal_F_000             353
_exptl_crystal_recrystallization_method 'Gel crystallization'
_exptl_crystal_size_max          0.2
_exptl_crystal_size_mid          0.1
_exptl_crystal_size_min          0.05
_refine_diff_density_max         2.333
_refine_diff_density_min         -0.822
_refine_diff_density_rms         0.106
_refine_ls_abs_structure_details
;
 Flack x determined using 1962 quotients [(I+)-(I-)]/[(I+)+(I-)]
 (Parsons, Flack and Wagner, Acta Cryst. B69 (2013) 249-259).
;
_refine_ls_abs_structure_Flack   0.012(7)
_refine_ls_extinction_method     none
_refine_ls_goodness_of_fit_ref   1.042
_refine_ls_hydrogen_treatment    constr
_refine_ls_matrix_type           full
_refine_ls_number_parameters     416
_refine_ls_number_reflns         4427
_refine_ls_number_restraints     165
_refine_ls_restrained_S_all      1.036
_refine_ls_R_factor_all          0.0613
_refine_ls_R_factor_gt           0.0600
_refine_ls_shift/su_max          0.000
_refine_ls_shift/su_mean         0.000
_refine_ls_structure_factor_coef Fsqd
_refine_ls_weighting_details
'w=1/[\s^2^(Fo^2^)+(0.1244P)^2^+0.2776P] where P=(Fo^2^+2Fc^2^)/3'
_refine_ls_weighting_scheme      calc
_refine_ls_wR_factor_gt          0.1570
_refine_ls_wR_factor_ref         0.1589
_reflns_Friedel_coverage         0.942
_reflns_Friedel_fraction_full    0.881
_reflns_Friedel_fraction_max     0.867
_reflns_number_gt                4293
_reflns_number_total             4427
_reflns_threshold_expression     'I > 2\s(I)'
_cod_data_source_file            lo5107sup1.cif
_cod_data_source_block           cu_phepip
_cod_database_code               2108987
_publcif_datablock.id            {4ff6c69e-c9e6-4a9c-8ee5-eb70ec225d5b}
_shelx_shelxl_version_number     2018/3
_shelx_space_group_comment
;
The symmetry employed for this shelxl refinement is uniquely defined
by the following loop, which should always be used as a source of
symmetry information in preference to the above space-group names.
They are only intended as comments.
;
_shelx_estimated_absorpt_t_max   0.949
_shelx_estimated_absorpt_t_min   0.816
_exptl_absorpt_special_details
;
_exptl_absorpt_correction_T_min and _exptl_absorpt_correction_T_max
from ABSORP.cbf, the absorption factors used by XDS.
;
_olex2_refinement_description
;
1. Fixed Uiso
 At 1.2 times of:
  All C(H) groups, All C(H,H) groups, All N(H) groups
 At 1.5 times of:
  All O(H,H) groups
2. Restrained planarity
 C1, C4, C11, C16, C19, C20
 with sigma of 0.1
 C2, C14, C21, C25, C31, C33
 with sigma of 0.1
 C8, C10, C12, C22, C28, C34
 with sigma of 0.1
 C3, C7, C15, C23, C26, C32
 with sigma of 0.1
3. Uiso/Uaniso restraints and constraints
C1 \\sim C4 \\sim C11 \\sim C16 \\sim C19 \\sim C20: within 1.7A with sigma of
0.04 and sigma for terminal atoms of 0.08 within 1.7A
C2 \\sim C14 \\sim C21 \\sim C25 \\sim C31 \\sim C33: within 1.7A with sigma of
0.04 and sigma for terminal atoms of 0.08 within 1.7A
C3 \\sim C7 \\sim C15 \\sim C23 \\sim C26 \\sim C32: within 1.7A with sigma of
0.04 and sigma for terminal atoms of 0.08 within 1.7A
C8 \\sim C10 \\sim C12 \\sim C22 \\sim C28 \\sim C34: within 1.7A with sigma of
0.04 and sigma for terminal atoms of 0.08 within 1.7A
Cu1 \\sim O2: within 1.7A with sigma of 0.04 and sigma for terminal atoms of
0.08 within 1.7A
Uanis(O2) \\sim Ueq: with sigma of 0.001 and sigma for terminal atoms of 0.01
4.a Rotating group:
 O2(H2A,H2B)
4.b Ternary CH refined with riding coordinates:
 N1(H1), N2(H2), C6(H6), C17(H17)
4.c Secondary CH2 refined with riding coordinates:
 C9(H9A,H9B), C13(H13A,H13B), C18(H18A,H18B), C24(H24A,H24B), C27(H27A,H27B),
 C29(H29A,H29B)
4.d Aromatic/amide H refined with riding coordinates:
 C2(H2C), C3(H3), C7(H7), C11(H11), C12(H12), C15(H15), C16(H16), C19(H19),
 C21(H21), C22(H22), C23(H23), C25(H25), C31(H31), C32(H32), C33(H33), C34(H34)
;
_shelx_res_file
;
TITL Cu_Phepip.res in P1
    cu_phepip.res
    created by SHELXL-2018/3 at 11:59:57 on 01-Jul-2021
REM Old TITL 20_c_k0_3_proc1_hkl4_SG1 in P1
REM SHELXT solution in P1: R1 0.092, Rweak 0.047, Alpha 0.000
REM <I/s> 0.000 for 0 systematic absences, Orientation as input
REM Flack x = 0.005 ( 0.009 ) from 2189 Parsons' quotients
REM Formula found by SHELXT: C35 Cu C6 O3
CELL 0.79986 7.245 7.251 16.014 91.685 97.664 112.798
ZERR 1 0.0017 0.0012 0.0025 0.011 0.007 0.008
LATT -1
SFAC C H Cu N O
DISP C 0.0048 0.0021 14.959
DISP Cu 0.2832 1.5891 7133.7933
DISP H -0 0 0.6287
DISP N 0.0087 0.0042 26.4688
DISP O 0.0151 0.008 44.7392
UNIT 34 34 1 2 9
EQIV $1 1+X,+Y,+Z
EQIV $2 +X,1+Y,+Z
FLAT C1 C4 C11 C16 C19 C20
FLAT C2 C14 C21 C25 C31 C33
FLAT C8 C10 C12 C22 C28 C34
FLAT C3 C7 C15 C23 C26 C32
SIMU 0.04 0.08 1.7 C1 C4 C11 C16 C19 C20
SIMU 0.04 0.08 1.7 C2 C14 C21 C25 C31 C33
SIMU 0.04 0.08 1.7 C3 C7 C15 C23 C26 C32
SIMU 0.04 0.08 1.7 C8 C10 C12 C22 C28 C34
SIMU 0.04 0.08 1.7 Cu1 O2
ISOR 0.001 0.01 O2

L.S. 25
PLAN  5
SIZE 0.1 0.2 0.05
TEMP -173.15
HTAB O2 O1_$1
HTAB O2 O3_$2
CONF
BOND $H
LIST 6
MORE -1
fmap 2
acta 50
OMIT -3 55
REM <olex2.extras>
REM <HklSrc "%./Cu_Phepip.hkl">
REM </olex2.extras>

WGHT    0.124400    0.277600
FVAR       0.90612
CU1   3    0.713370    0.791000    0.502460    11.00000    0.02386    0.02157 =
         0.02769    0.00277    0.00326    0.01242
O1    5    0.378004    1.106265    0.512646    11.00000    0.03207    0.02618 =
         0.04235    0.00941    0.01028    0.01966
O2    5    0.981095    1.054960    0.505105    11.00000    0.02762    0.03669 =
         0.15780    0.02857    0.02140    0.02031
AFIX   7
H2A   2    1.104073    1.074290    0.497562    11.00000   -1.50000
H2B   2    0.963625    1.160322    0.487158    11.00000   -1.50000
AFIX   0
O3    5    1.010560    0.440403    0.492074    11.00000    0.03187    0.02539 =
         0.04206   -0.00097   -0.00414    0.02305
O4    5    0.542936    0.929349    0.465102    11.00000    0.03036    0.03046 =
         0.02843    0.00724    0.00415    0.01669
O5    5    0.283637    0.024173    0.066806    11.00000    0.05081    0.03681 =
         0.02944   -0.00395    0.00018    0.01956
O6    5   -0.012193    0.649215    0.814216    11.00000    0.03257    0.04212 =
         0.03687    0.00573    0.00922    0.01661
O7    5    0.390658   -0.103222    0.185530    11.00000    0.04014    0.02999 =
         0.03633    0.00030    0.00296    0.02214
O8    5    0.178066    0.589178    0.931355    11.00000    0.03678    0.04662 =
         0.02865    0.00252    0.00979    0.01770
O9    5    0.867444    0.633720    0.539720    11.00000    0.03078    0.02885 =
         0.02774   -0.00213    0.00042    0.01941
N1    4    0.659482    0.631345    0.389378    11.00000    0.01833    0.02171 =
         0.02857    0.00010    0.00662    0.00982
AFIX  13
H1    2    0.665087    0.720644    0.342532    11.00000   -1.20000
AFIX   0
N2    4    0.613704    0.798517    0.613568    11.00000    0.02523    0.01571 =
         0.02471    0.00199    0.00215    0.00882
AFIX  13
H2    2    0.727302    0.825565    0.661377    11.00000   -1.20000
AFIX   0
C1    1    0.147521    0.611953    0.789585    11.00000    0.02367    0.02772 =
         0.03544    0.00335    0.00433    0.01108
C2    1    0.974094    1.096218    0.875467    11.00000    0.08826    0.02886 =
         0.05916    0.00162   -0.02748    0.01636
AFIX  43
H2C   2    1.100823    1.092218    0.897410    11.00000   -1.20000
AFIX   0
C3    1    0.803479    0.865078    0.141720    11.00000    0.02826    0.04440 =
         0.03829    0.00931    0.00809    0.00563
AFIX  43
H3    2    0.787875    0.982766    0.123944    11.00000   -1.20000
AFIX   0
C4    1    0.261066    0.577234    0.859783    11.00000    0.03395    0.02080 =
         0.02942    0.00015    0.00927    0.00678
C5    1    0.478524    1.002445    0.524051    11.00000    0.02653    0.01935 =
         0.02788    0.00364    0.00364    0.00722
C6    1    0.539489    0.963604    0.615016    11.00000    0.02191    0.01675 =
         0.03237    0.00106    0.00560    0.00669
AFIX  13
H6    2    0.417944    0.921580    0.644362    11.00000   -1.20000
AFIX   0
C7    1    0.771552    0.526532    0.112065    11.00000    0.04486    0.04768 =
         0.04101   -0.00167    0.01728    0.00953
AFIX  43
H7    2    0.732562    0.411427    0.073262    11.00000   -1.20000
AFIX   0
C8    1    0.386423    0.346167    0.295949    11.00000    0.01484    0.02160 =
         0.03441   -0.00149    0.00400    0.00384
C9    1    0.990516    0.687480    0.344566    11.00000    0.01895    0.03667 =
         0.03527    0.00191    0.00449    0.01072
AFIX  23
H9A   2    1.048965    0.825478    0.372898    11.00000   -1.20000
H9B   2    1.099112    0.635799    0.348471    11.00000   -1.20000
AFIX   0
C10   1    0.306025    0.147875    0.137469    11.00000    0.02693    0.02844 =
         0.02873    0.00258   -0.00077    0.00795
C11   1    0.428157    0.537016    0.853748    11.00000    0.03118    0.02554 =
         0.03447    0.00428   -0.00011    0.00945
AFIX  43
H11   2    0.503173    0.509187    0.901430    11.00000   -1.20000
AFIX   0
C12   1    0.318435    0.420755    0.224540    11.00000    0.02811    0.02068 =
         0.03970    0.00306    0.00420    0.01231
AFIX  43
H12   2    0.299690    0.542711    0.230976    11.00000   -1.20000
AFIX   0
C13   1   -0.007770    0.608648    0.900986    11.00000    0.03545    0.03418 =
         0.03974    0.00463    0.01611    0.01362
AFIX  23
H13A  2   -0.124102    0.482968    0.906788    11.00000   -1.20000
H13B  2   -0.018558    0.719489    0.934827    11.00000   -1.20000
AFIX   0
C14   1    0.747126    1.126991    0.757332    11.00000    0.04983    0.01452 =
         0.03413   -0.00077   -0.00007    0.01210
C15   1    0.852381    0.523478    0.194764    11.00000    0.04489    0.05942 =
         0.03805    0.00735    0.00779    0.02635
AFIX  43
H15   2    0.867914    0.405804    0.212603    11.00000   -1.20000
AFIX   0
C16   1    0.196218    0.611464    0.709989    11.00000    0.02049    0.01862 =
         0.03526    0.00205    0.00442    0.00757
AFIX  43
H16   2    0.115905    0.633114    0.662447    11.00000   -1.20000
AFIX   0
C17   1    0.817994    0.552623    0.389282    11.00000    0.02520    0.02426 =
         0.02469    0.00278    0.00575    0.01376
AFIX  13
H17   2    0.756751    0.415301    0.358635    11.00000   -1.20000
AFIX   0
C18   1    0.450965    0.469693    0.382044    11.00000    0.02027    0.02274 =
         0.03384    0.00580    0.01099    0.00598
AFIX  23
H18A  2    0.353296    0.531366    0.389581    11.00000   -1.20000
H18B  2    0.447971    0.379615    0.427581    11.00000   -1.20000
AFIX   0
C19   1    0.482565    0.539350    0.772218    11.00000    0.02775    0.02194 =
         0.03095    0.00163    0.00132    0.00771
AFIX  43
H19   2    0.598997    0.514190    0.764966    11.00000   -1.20000
AFIX   0
C20   1    0.371386    0.577219    0.702369    11.00000    0.01549    0.01493 =
         0.03407    0.00257    0.00489    0.00283
C21   1    0.596054    1.099805    0.808168    11.00000    0.05796    0.03047 =
         0.03390    0.00158    0.01288    0.01136
AFIX  43
H21   2    0.467947    1.099634    0.785492    11.00000   -1.20000
AFIX   0
C22   1    0.277050    0.322895    0.144157    11.00000    0.03308    0.03546 =
         0.02995    0.00690    0.00308    0.01488
AFIX  43
H22   2    0.230592    0.375297    0.095873    11.00000   -1.20000
AFIX   0
C23   1    0.746742    0.698417    0.085086    11.00000    0.03488    0.05915 =
         0.03159    0.00652    0.00793    0.01476
AFIX  43
H23   2    0.691146    0.700362    0.028095    11.00000   -1.20000
AFIX   0
C24   1    0.704813    1.155611    0.662904    11.00000    0.03409    0.01691 =
         0.02857   -0.00148    0.00280    0.00644
AFIX  23
H24A  2    0.660719    1.268448    0.656748    11.00000   -1.20000
H24B  2    0.830898    1.189732    0.638146    11.00000   -1.20000
AFIX   0
C25   1    0.642649    1.072634    0.894713    11.00000    0.08856    0.02275 =
         0.04223   -0.00672    0.01286    0.00334
AFIX  43
H25   2    0.543341    1.052609    0.930565    11.00000   -1.20000
AFIX   0
C26   1    0.911596    0.691711    0.252515    11.00000    0.02471    0.04428 =
         0.03641    0.00768    0.01415    0.01179
C27   1    0.302252   -0.152359    0.097894    11.00000    0.03305    0.03180 =
         0.03842   -0.00632    0.00032    0.01250
AFIX  23
H27A  2    0.389831   -0.193363    0.065760    11.00000   -1.20000
H27B  2    0.167335   -0.264534    0.091680    11.00000   -1.20000
AFIX   0
C28   1    0.370520    0.070547    0.209051    11.00000    0.02442    0.02601 =
         0.03481    0.00300    0.00300    0.01210
C29   1    0.449193    0.596674    0.618160    11.00000    0.02275    0.01426 =
         0.02579    0.00350    0.00314    0.00388
AFIX  23
H29A  2    0.501752    0.491451    0.609365    11.00000   -1.20000
H29B  2    0.335187    0.574017    0.572020    11.00000   -1.20000
AFIX   0
C30   1    0.907178    0.537538    0.480924    11.00000    0.02515    0.01913 =
         0.02921    0.00191   -0.00171    0.00159
C31   1    0.930499    1.123516    0.790878    11.00000    0.05043    0.02220 =
         0.05200   -0.00021   -0.00633    0.01556
AFIX  43
H31   2    1.029713    1.140212    0.755267    11.00000   -1.20000
AFIX   0
C32   1    0.883679    0.859495    0.225020    11.00000    0.02046    0.05073 =
         0.03504    0.00464    0.01008    0.01084
AFIX  43
H32   2    0.920219    0.973783    0.264029    11.00000   -1.20000
AFIX   0
C33   1    0.829571    1.074775    0.927726    11.00000    0.10688    0.02611 =
         0.03589    0.00363   -0.01768    0.00406
AFIX  43
H33   2    0.859599    1.061574    0.986272    11.00000   -1.20000
AFIX   0
C34   1    0.410442    0.163592    0.288711    11.00000    0.01952    0.02557 =
         0.03378    0.00409    0.00234    0.01322
AFIX  43
H34   2    0.452370    0.107556    0.336817    11.00000   -1.20000
AFIX   0
HKLF 4




REM  Cu_Phepip.res in P1
REM wR2 = 0.1589, GooF = S = 1.042, Restrained GooF = 1.036 for all data
REM R1 = 0.0600 for 4293 Fo > 4sig(Fo) and 0.0613 for all 4427 data
REM 416 parameters refined using 165 restraints

END

WGHT      0.1244      0.2776

REM Highest difference peak  2.333,  deepest hole -0.822,  1-sigma level  0.106
Q1    1   1.1243  1.2058  0.5036  11.00000  0.05    2.33
Q2    1   0.2997  0.3808  0.5026  11.00000  0.05    2.23
Q3    1   0.5396  0.6183  0.5027  11.00000  0.05    1.42
Q4    1   0.8803  0.9505  0.5025  11.00000  0.05    1.14
Q5    1   1.0348  1.2044  0.6198  11.00000  0.05    0.69
;
_shelx_res_checksum              26987
_shelx_hkl_file
;
   0   0  -2  188.27    9.40
   0   0  -2  186.63    9.18
   0   0   2  160.95    8.06
   0   0   2  186.63    9.18
   0   0  -3 7535.45  319.67
   0   0  -3 7338.37  311.30
   0   0   3 7705.67  326.83
   0   0   3 7108.45  301.60
   0   0  -4  127.88    7.88
   0   0  -4  133.36    8.11
   0   0   4  140.25    8.44
   0   0   4  128.18    7.81
   0   0  -5 1846.91   81.12
   0   0  -5 1864.83   81.69
   0   0   5 1793.16   78.71
   0   0  -6  447.62   22.31
   0   0  -6  431.79   21.93
   0   0   6  438.51   21.90
   0   0   6  455.97   22.83
   0   0  -7 4244.76  183.49
   0   0  -7 4053.65  174.83
   0   0   7 4582.19  197.53
   0   0   7 3976.01  171.70
   0   0  -8 1115.16   52.02
   0   0  -8 1027.37   47.76
   0   0   8 1206.84   55.66
   0   0   8 1133.38   52.41
   0   0  -9  801.02   39.18
   0   0  -9  799.98   38.51
   0   0   9  826.56   39.66
   0   0   9  820.14   39.61
   0   0 -10 1073.50   50.55
   0   0 -10 1095.90   51.99
   0   0  10 1262.53   58.72
   0   0  10 1218.33   56.77
   0   0 -11  204.40   13.58
   0   0 -11  193.05   13.50
   0   0  11  243.67   15.68
   0   0  11  221.27   14.43
   0   0 -12    6.49    3.33
   0   0  12   15.21    4.43
   0   0 -13    4.10    3.55
   0   0 -13    7.84    3.90
   0   0  13   17.07    4.32
   0   0  13   17.71    4.89
   0   0 -14  183.20   13.83
   0   0 -14  176.92   13.53
   0   0  14  190.66   13.82
   0   0  14  187.97   14.03
   0   0 -15    7.22    4.21
   0   0 -15    6.36    3.55
   0   0  15    6.98    3.73
   0   0  15    2.42    3.59
   0   0 -16   76.12    8.87
   0   0 -16   56.50    7.87
   0   0  16   81.34    9.45
   0   0  16   79.42    9.20
   0   0 -17   85.99    9.54
   0   0 -17   76.67    8.69
   0   0  17   96.33   10.13
   0   0  17   85.21    9.22
   0   0 -18   30.25    5.86
   0   0 -18   35.03    6.53
   0   0  18   48.21    7.44
   0   0  18   46.06    7.30
   0  -1  18   86.75    9.90
   0  -1  18   99.93   10.38
   0   1 -18   83.64    9.58
   0   1 -18   80.48   10.32
   0  -1  17  100.87   10.08
   0  -1  17   90.60    9.83
   0   1 -17   72.73    8.51
   0   1 -17   74.77    9.86
   0  -1  16   64.93    8.83
   0  -1  16   81.43    9.25
   0   1 -16   78.94    9.05
   0   1 -16   66.87    9.49
   0  -1  15   49.58    6.88
   0  -1  15   62.45    8.41
   0   1 -15   25.62    5.23
   0   1 -15   37.91    7.04
   0  -1  14   40.28    6.30
   0  -1  14   56.69    7.79
   0   1 -14   56.06    7.53
   0   1 -14   41.09    7.14
   0  -1  13  462.10   25.95
   0  -1  13  463.44   25.64
   0   1 -13  608.72   32.43
   0   1 -13  500.77   28.28
   0  -1  12  105.29    9.33
   0   1 -12  102.44    9.73
   0  -1  11  199.32   13.32
   0  -1  11  196.93   13.68
   0   1 -11  166.92   12.52
   0   1 -11  200.82   14.03
   0  -1  10  285.92   17.33
   0  -1  10  300.40   17.57
   0   1 -10  268.75   16.95
   0   1 -10  278.30   17.17
   0  -1   9  673.66   33.27
   0  -1   9  617.98   31.00
   0   1  -9  626.49   31.83
   0   1  -9  590.50   30.46
   0  -1   8  554.53   27.99
   0  -1   8  589.46   29.32
   0  -1   7   85.81    7.31
   0   1  -7   86.27    7.51
   0  -1   6   14.27    3.31
   0   1  -6   21.11    3.64
   0  -1   5  148.37    9.32
   0  -1   5  165.13   10.21
   0   1  -5  219.78   12.65
   0   1  -5  240.68   13.23
   0  -1   4  218.44   11.95
   0  -1   4  226.20   12.46
   0   1  -4  278.60   14.33
   0   1  -4  298.91   16.07
   0  -1   3 1029.76   45.82
   0  -1   3  964.06   42.94
   0   1  -3 1099.78   48.57
   0   1  -3 1072.46   47.87
   0  -1   2 2795.00  120.10
   0  -1   2 2500.87  107.28
   0   1  -2 2663.62  114.16
   0   1  -2 2581.49  111.04
   0  -1   1  402.68   18.53
   0  -1   1  398.20   18.63
   0   1  -1  360.87   17.01
   0   1  -1  392.22   18.10
   0  -1   0 2135.07   91.82
   0  -1   0 2109.69   90.46
   0  -1  -1  611.41   27.37
   0  -1  -1  578.56   26.41
   0   1   1  559.44   25.49
   0   1   1  561.09   25.29
   0  -1  -2  595.58   27.56
   0  -1  -2  533.32   24.43
   0   1   3  302.05   15.17
   0   1   3  347.44   17.19
   0   1   4  371.62   18.56
   0   1   4  370.57   18.53
   0  -1  -5  225.16   13.00
   0  -1  -5  244.72   13.53
   0   1   5  251.29   13.82
   0   1   5  291.00   16.02
   0  -1  -6  591.70   29.14
   0   1   6  639.03   30.95
   0  -1  -7 1608.02   72.03
   0   1   7 1515.45   68.64
   0  -1  -8  237.25   14.70
   0  -1  -8  270.54   15.86
   0   1   8  213.66   13.76
   0   1   8  188.57   12.60
   0  -1  -9   98.99    8.81
   0  -1  -9  111.25    9.09
   0   1   9   85.84    8.04
   0   1   9   60.35    6.71
   0  -1 -10  179.02   12.87
   0  -1 -10  194.10   13.25
   0   1  10  189.47   13.15
   0   1  10  179.91   12.78
   0  -1 -11   91.70    8.53
   0  -1 -11  108.13    9.73
   0   1  11  138.04   11.02
   0   1  11  139.53   11.03
   0  -1 -12  193.65   14.46
   0  -1 -12  205.89   14.05
   0   1  12  253.22   16.75
   0  -1 -13   45.57    6.50
   0  -1 -13   44.18    6.65
   0   1  13   60.44    7.66
   0   1  13   46.55    6.87
   0  -1 -14   11.99    4.21
   0  -1 -14   15.44    4.57
   0   1  14   13.31    4.86
   0   1  14   14.96    4.56
   0  -1 -15   81.60    8.81
   0  -1 -15   73.79    8.75
   0   1  15   76.70    9.01
   0   1  15   70.20    8.63
   0  -1 -16    7.84    4.04
   0   1  16   25.28    5.66
   0  -1 -17   21.04    5.46
   0  -1 -17   32.52    6.17
   0   1  17   28.76    5.88
   0   1  17   29.08    5.96
   0  -1 -18    4.02    3.44
   0   1  18    2.35    3.25
   0  -2  18   35.15    6.40
   0   2 -18   51.99    8.20
   0  -2  17   34.49    6.16
   0  -2  17   18.30    5.17
   0   2 -17   39.10    6.78
   0   2 -17   27.10    7.29
   0  -2  16    2.27    3.46
   0   2 -16    9.99    5.48
   0  -2  15  199.77   14.34
   0  -2  15  198.43   15.24
   0   2 -15  260.68   17.92
   0   2 -15  244.57   18.99
   0  -2  14   91.69    8.98
   0  -2  14   87.03    9.52
   0   2 -14   69.74    9.72
   0   2 -14   75.28    8.97
   0  -2  13  247.11   16.30
   0  -2  13  235.16   16.41
   0   2 -13  263.37   17.59
   0   2 -13  215.15   17.01
   0  -2  12  191.56   14.28
   0   2 -12  217.99   16.83
   0  -2  11    7.43    3.40
   0  -2  11    9.77    3.33
   0   2 -11    8.20    4.09
   0   2 -11    7.59    3.46
   0  -2  10   28.04    4.81
   0  -2  10   37.30    5.68
   0   2 -10    6.14    3.89
   0   2 -10   15.18    4.03
   0  -2   9  146.62   10.69
   0  -2   9  153.18   11.29
   0   2  -9  176.03   11.88
   0   2  -9  188.72   13.77
   0  -2   8   46.49    5.71
   0  -2   8   55.57    6.51
   0   2  -8   74.50    7.87
   0   2  -8   83.51    7.55
   0  -2   7  368.63   20.11
   0  -2   7  388.64   20.93
   0   2  -7  344.30   20.01
   0   2  -7  351.77   19.11
   0  -2   6  582.59   28.85
   0   2  -6  702.33   35.04
   0  -2   5   41.10    4.89
   0   2  -5   12.67    3.13
   0  -2   4   50.38    5.41
   0  -2   4   47.43    4.79
   0   2  -4   40.88    4.49
   0   2  -4   38.54    4.74
   0  -2   3   92.58    6.78
   0  -2   3   94.11    7.41
   0   2  -3  129.78    8.37
   0   2  -3  117.56    8.40
   0  -2   2 1206.99   53.93
   0  -2   2 1138.61   51.54
   0   2  -2 1172.49   52.57
   0   2  -2 1122.48   51.17
   0  -2   1 1590.10   70.49
   0  -2   1 1788.68   78.37
   0   2  -1 2011.15   88.27
   0   2  -1 2093.26   91.18
   0  -2   0 3819.24  163.93
   0  -2   0 3704.27  159.60
   0   2   0 3602.74  154.83
   0   2   0 3540.04  152.73
   0  -2  -1 3511.67  151.69
   0  -2  -1 3744.59  160.80
   0   2   1 3510.17  151.54
   0   2   1 3620.66  155.72
   0  -2  -2 1570.69   69.25
   0  -2  -2 1449.91   65.16
   0   2   2 1749.87   77.10
   0   2   2 1594.58   71.07
   0  -2  -3   90.26    6.70
   0  -2  -3   80.19    7.09
   0   2   3  131.56    8.87
   0   2   3  121.82    8.56
   0  -2  -4  913.00   43.22
   0   2   4  954.22   44.15
   0  -2  -5  493.60   24.62
   0  -2  -5  481.66   25.26
   0   2   5  441.50   22.90
   0   2   5  462.99   23.98
   0  -2  -6  604.99   30.98
   0  -2  -6  625.74   30.68
   0   2   6  476.88   24.77
   0   2   6  550.35   27.92
   0  -2  -7  194.69   12.58
   0  -2  -7  177.22   12.45
   0   2   7  190.96   12.77
   0   2   7  179.31   12.06
   0   2   8  804.01   39.25
   0   2   8  863.13   42.12
   0  -2  -9   48.63    6.22
   0  -2  -9   36.10    5.60
   0   2   9   69.53    7.55
   0   2   9   46.76    6.40
   0  -2 -10   71.86    8.33
   0  -2 -10   89.91    8.53
   0   2  10  106.77    9.39
   0   2  10  100.33    9.33
   0  -2 -11  244.42   16.86
   0  -2 -11  269.94   16.96
   0   2  11  288.46   18.29
   0   2  11  280.39   17.72
   0  -2 -12  293.98   18.30
   0  -2 -12  275.02   18.30
   0   2  12  281.14   18.26
   0   2  12  250.99   16.75
   0  -2 -13  151.10   13.14
   0  -2 -13  142.56   12.03
   0   2  13  124.42   11.10
   0   2  13  155.27   12.63
   0  -2 -14   63.25    8.28
   0  -2 -14   85.07    8.89
   0   2  14   93.60    9.69
   0   2  14   84.37    9.11
   0  -2 -15  130.94   11.16
   0  -2 -15  100.14   11.22
   0   2  15  149.76   13.06
   0  -2 -16   29.07    6.30
   0  -2 -16   37.45    6.38
   0   2  16   43.43    7.30
   0   2  16   34.37    6.53
   0  -2 -17   44.09    7.92
   0  -2 -17   56.83    7.69
   0   2  17   55.69    7.98
   0   2  17   54.20    8.11
   0  -3  17   33.40    6.51
   0  -3  17   41.52    6.53
   0   3 -17   43.24    8.84
   0   3 -17   54.88    7.92
   0  -3  16   32.56    5.94
   0  -3  16   33.00    6.42
   0   3 -16   42.16    7.05
   0   3 -16   21.68    6.70
   0  -3  15  184.69   14.75
   0  -3  15  164.23   14.22
   0   3 -15  194.69   17.53
   0   3 -15  238.59   18.60
   0  -3  14   91.49   10.16
   0  -3  14  105.23    9.92
   0   3 -14   87.06    9.54
   0   3 -14   83.12   10.85
   0  -3  13  244.42   17.36
   0  -3  13  234.41   15.81
   0   3 -13  189.32   16.29
   0  -3  12  488.68   26.58
   0  -3  12  441.20   25.56
   0   3 -12  467.17   28.97
   0   3 -12  504.21   27.41
   0  -3  11   81.30    8.96
   0   3 -11  130.99   12.96
   0  -3  10  102.53    9.25
   0   3 -10  118.42    9.92
   0  -3   9   95.62    9.04
   0  -3   9   89.85    8.46
   0   3  -9   81.30    7.78
   0   3  -9   88.34    9.82
   0  -3   8  514.36   27.74
   0  -3   8  491.66   26.44
   0   3  -8  547.06   30.20
   0   3  -8  511.07   26.58
   0  -3   7  457.92   24.73
   0  -3   7  444.19   24.16
   0   3  -7  474.64   26.49
   0   3  -7  471.65   24.93
   0  -3   6  121.15    9.46
   0  -3   6  140.07   10.58
   0   3  -6  154.97   10.73
   0   3  -6  153.33   11.85
   0  -3   5  495.10   25.70
   0  -3   5  552.44   28.74
   0   3  -5  475.54   25.83
   0   3  -5  425.67   22.37
   0  -3   4  227.99   14.56
   0  -3   4  218.44   13.46
   0   3  -4  154.38   10.48
   0   3  -4  149.46   11.32
   0  -3   3  339.08   18.53
   0   3  -3  371.92   20.98
   0  -3   2  697.41   33.59
   0   3  -2  636.49   32.18
   0   3  -2  658.43   33.16
   0  -3   1  383.41   20.99
   0  -3   1  440.90   22.62
   0   3  -1  451.36   23.22
   0   3  -1  440.75   23.62
   0  -3   0  371.02   20.41
   0  -3   0  364.30   19.23
   0   3   0  387.75   21.16
   0   3   0  375.80   19.96
   0  -3  -1  117.65    8.49
   0   3   1   90.87    8.08
   0   3   1   82.34    7.42
   0  -3  -2  214.11   12.90
   0   3   2  154.68   11.13
   0  -3  -3  840.44   39.82
   0  -3  -3  855.82   41.66
   0   3   3  813.72   39.72
   0   3   3  859.70   40.98
   0  -3  -4 1524.41   70.37
   0  -3  -4 1433.04   65.19
   0   3   4 1335.09   61.72
   0   3   4 1378.83   63.25
   0  -3  -5  339.67   20.20
   0  -3  -5  345.80   19.36
   0   3   5  298.61   17.62
   0   3   5  279.65   16.77
   0  -3  -6  441.50   25.07
   0  -3  -6  524.36   27.99
   0   3   6  440.01   24.02
   0   3   6  422.69   23.32
   0  -3  -7  713.23   37.21
   0  -3  -7  769.97   37.89
   0   3   7  622.90   32.00
   0   3   7  664.41   34.00
   0  -3  -8  679.04   36.39
   0  -3  -8  705.92   35.56
   0   3   8  681.43   34.95
   0   3   8  712.34   35.89
   0  -3  -9   69.34    8.21
   0  -3  -9   52.44    7.71
   0   3   9   78.36    8.23
   0  -3 -10  380.88   21.92
   0   3  10  349.98   20.78
   0  -3 -11  810.13   40.66
   0  -3 -11  846.57   44.34
   0   3  11  733.69   38.31
   0   3  11  841.19   42.25
   0  -3 -12  124.15   12.49
   0  -3 -12  103.47    9.72
   0   3  12   79.01    8.82
   0   3  12   89.48    9.55
   0  -3 -13  392.08   25.58
   0  -3 -13  352.52   21.16
   0   3  13  415.52   24.19
   0   3  13  406.41   24.58
   0  -3 -14  195.59   14.40
   0   3  14  191.11   14.77
   0   3  14  158.11   14.51
   0  -3 -15   25.71    5.66
   0  -3 -15   17.65    6.03
   0   3  15   23.28    5.53
   0   3  15   24.95    5.62
   0  -3 -16   95.81   11.63
   0  -3 -16   90.09    9.41
   0   3  16   74.34    9.18
   0   3  16   84.75    9.65
   0  -4  16   40.51    6.70
   0  -4  16   37.91    7.31
   0   4 -16   61.93    8.25
   0   4 -16   35.16    8.67
   0  -4  15   37.42    6.11
   0  -4  15   31.13    6.66
   0   4 -15   42.66    8.63
   0  -4  14  149.04   13.13
   0   4 -14  133.12   14.79
   0  -4  13   20.50    5.71
   0  -4  13   25.08    5.23
   0   4 -13   25.07    5.20
   0   4 -13   13.87    5.78
   0  -4  12  171.25   14.03
   0  -4  12  188.87   13.79
   0   4 -12  145.35   14.39
   0   4 -12  140.84   11.48
   0  -4  11  256.35   16.80
   0  -4  11  271.14   18.33
   0   4 -11  269.05   17.29
   0   4 -11  250.54   19.07
   0  -4  10  311.60   20.01
   0  -4  10  310.56   19.07
   0   4 -10  401.78   22.62
   0   4 -10  393.57   25.47
   0  -4   9  305.48   19.36
   0   4  -9  264.42   19.11
   0  -4   8  549.30   29.53
   0   4  -8  571.09   29.68
   0  -4   7  216.05   14.91
   0  -4   7  245.61   16.35
   0   4  -7  238.89   14.98
   0   4  -7  253.67   17.90
   0  -4   6  128.96   10.66
   0  -4   6  128.67   10.94
   0   4  -6  106.80    8.87
   0   4  -6  118.33   11.14
   0  -4   5  658.73   33.68
   0  -4   5  631.57   33.22
   0   4  -5  676.65   35.83
   0   4  -5  597.82   30.50
   0  -4   4   23.86    4.78
   0  -4   4   26.74    4.59
   0   4  -4   14.14    3.47
   0   4  -4   11.09    3.91
   0  -4   3  404.77   23.11
   0  -4   3  405.81   22.53
   0   4  -3  458.36   25.73
   0   4  -3  446.43   23.95
   0  -4   2  453.15   25.07
   0  -4   2  486.44   25.81
   0   4  -2  449.27   25.14
   0   4  -2  446.73   24.01
   0  -4   1  744.14   37.06
   0  -4   1  660.67   33.95
   0   4  -1  601.25   30.71
   0   4  -1  617.53   32.29
   0  -4   0 1185.19   55.87
   0  -4   0 1341.22   62.98
   0   4   0 1318.52   61.17
   0   4   0 1356.15   63.83
   0  -4  -1   27.37    4.95
   0  -4  -1   36.64    5.25
   0   4   1   32.74    5.35
   0   4   1   39.92    5.27
   0  -4  -2  810.73   40.84
   0  -4  -2  810.88   39.52
   0   4   2  747.28   38.03
   0   4   2  782.06   38.61
   0  -4  -3  234.71   14.84
   0  -4  -3  262.03   17.24
   0   4   3  302.19   18.25
   0   4   3  305.33   18.98
   0  -4  -4  113.46   10.60
   0  -4  -4  102.47    8.72
   0   4   4   89.97    8.52
   0   4   4   79.95    8.50
   0  -4  -5   72.82    7.43
   0  -4  -5   66.37    8.43
   0   4   5   75.25    7.86
   0   4   5   87.60    8.46
   0  -4  -6   41.57    7.31
   0  -4  -6   37.03    5.72
   0   4   6   56.53    7.54
   0   4   6   44.69    6.41
   0  -4  -7  102.21   11.23
   0   4   7   65.95    7.89
   0  -4  -8   44.18    6.22
   0   4   8   25.70    5.20
   0  -4  -9  204.40   14.31
   0  -4  -9  195.89   16.53
   0   4   9  216.94   15.62
   0   4   9  233.07   15.98
   0  -4 -10  113.19   12.80
   0  -4 -10  120.24   10.48
   0   4  10  145.01   12.07
   0   4  10  126.49   11.50
   0  -4 -11  139.87   11.72
   0  -4 -11  126.49   14.01
   0   4  11  132.23   11.12
   0   4  11  107.74   10.68
   0  -4 -12   49.20    8.78
   0   4  12   29.35    6.11
   0  -4 -13   15.81    6.44
   0  -4 -13   20.11    5.21
   0   4  13   11.05    4.52
   0   4  13    7.46    4.31
   0  -4 -14   42.60    6.68
   0  -4 -14   33.82    7.77
   0   4  14   29.94    6.25
   0   4  14   41.78    6.87
   0  -4 -15   33.38    8.37
   0   4  15   32.85    6.65
   0  -5  15   28.22    5.23
   0   5 -15   35.27    6.21
   0  -5  14   87.33    9.33
   0  -5  14   75.43    9.83
   0   5 -14  110.14   10.37
   0   5 -14   93.17   12.62
   0  -5  13   -0.20    2.87
   0  -5  13    3.32    3.13
   0   5 -13    7.51    3.78
   0   5 -13    9.46    5.54
   0  -5  12   11.40    4.43
   0   5 -12    8.77    5.16
   0  -5  11  298.31   20.37
   0  -5  11  339.23   20.62
   0   5 -11  293.68   21.83
   0   5 -11  307.57   19.29
   0  -5  10  321.16   20.10
   0  -5  10  318.92   20.87
   0   5 -10  321.31   22.86
   0   5 -10  334.00   20.17
   0  -5   9  208.13   15.74
   0  -5   9  200.37   14.57
   0   5  -9  195.59   13.73
   0   5  -9  206.04   16.83
   0  -5   8  100.27   10.10
   0  -5   8   93.73    9.68
   0   5  -8   94.50    8.89
   0   5  -8   77.92   10.07
   0  -5   7  288.61   18.71
   0  -5   7  299.36   19.35
   0   5  -7  296.07   17.98
   0   5  -7  339.52   22.74
   0  -5   6  374.16   22.35
   0   5  -6  372.51   23.72
   0  -5   5  210.22   14.78
   0  -5   5  211.87   15.51
   0   5  -5  228.44   16.86
   0   5  -5  212.02   14.28
   0  -5   4  107.53   10.34
   0   5  -4  101.74    8.99
   0  -5   3   30.09    5.52
   0   5  -3   28.67    4.91
   0  -5   2  260.83   17.11
   0  -5   2  227.84   16.04
   0   5  -2  244.12   17.05
   0   5  -2  244.72   15.81
   0  -5   1  392.22   23.62
   0  -5   1  393.72   22.62
   0   5  -1  348.63   21.63
   0   5  -1  382.52   22.07
   0  -5   0  120.12   11.04
   0  -5   0  112.53    9.83
   0   5   0  113.35   10.68
   0   5   0  125.39   10.43
   0  -5  -1  537.50   28.92
   0  -5  -1  492.26   28.32
   0   5   1  563.03   30.14
   0   5   1  528.25   31.74
   0  -5  -2  399.84   24.47
   0   5   2  475.98   26.40
   0  -5  -3   19.23    4.75
   0  -5  -3   26.55    6.07
   0   5   3   44.54    6.39
   0   5   3   41.25    7.00
   0  -5  -4   69.11    7.60
   0   5   4   90.37   10.06
   0  -5  -5  170.65   14.73
   0  -5  -5  146.77   11.41
   0   5   5  139.26   11.75
   0   5   5  112.11   10.47
   0  -5  -6   57.15    7.20
   0  -5  -6   50.63    8.45
   0   5   6   31.26    5.88
   0   5   6   23.96    5.18
   0  -5  -7   69.92   10.01
   0  -5  -7   87.08    8.65
   0  -5  -8  148.58   15.39
   0  -5  -8  148.88   11.81
   0   5   8  134.71   11.87
   0   5   8  123.52   11.08
   0  -5  -9  240.39   19.89
   0  -5  -9  262.03   17.10
   0   5   9  224.26   16.56
   0   5   9  215.30   15.38
   0  -5 -10   51.27    9.78
   0   5  10   96.26   12.37
   0   5  10   72.64    8.97
   0  -5 -11   19.69    6.77
   0  -5 -11   19.68    5.18
   0   5  11   24.62    5.63
   0   5  11    6.71    4.15
   0  -5 -12   49.57    7.18
   0  -5 -12   43.48    8.83
   0  -5 -13    0.21    3.67
   0  -5 -13    3.73    4.42
   0   5  13    1.21    2.82
   0   5  13    4.27    3.72
   0  -6  13   69.62    8.27
   0   6 -13   77.28    8.89
   0  -6  12    2.83    3.54
   0  -6  12    6.67    3.29
   0   6 -12   10.21    5.17
   0   6 -12   10.62    3.63
   0  -6  11   51.93    8.06
   0  -6  11   54.91    7.48
   0   6 -11   36.64    7.90
   0   6 -11   41.12    6.24
   0  -6  10  124.16   11.19
   0  -6  10  166.02   14.43
   0   6 -10  119.39   10.64
   0   6 -10  135.87   15.53
   0  -6   9  143.70   12.59
   0   6  -9  145.98   12.66
   0   6  -9  158.71   15.11
   0  -6   8  282.93   19.56
   0  -6   8  287.71   19.26
   0   6  -8  227.25   18.81
   0   6  -8  276.36   17.96
   0  -6   7  276.06   18.89
   0  -6   7  269.34   18.68
   0   6  -7  234.56   16.01
   0   6  -7  245.31   18.87
   0  -6   6   16.86    5.02
   0  -6   6   22.11    5.40
   0   6  -6   31.15    6.84
   0   6  -6   36.22    5.77
   0  -6   5   56.84    7.87
   0  -6   5   78.43    9.16
   0   6  -5   42.72    6.18
   0   6  -5   58.24    8.58
   0  -6   4  334.15   20.92
   0  -6   4  344.45   22.08
   0   6  -4  277.56   17.83
   0   6  -4  327.73   22.08
   0  -6   3   57.44    7.74
   0  -6   3   50.30    7.00
   0   6  -3   37.58    6.89
   0   6  -3   34.40    5.66
   0  -6   2  246.06   17.62
   0  -6   2  260.24   17.42
   0   6  -2  246.81   16.75
   0   6  -2  242.78   18.23
   0  -6   1  227.10   15.48
   0  -6   1  217.39   16.42
   0   6  -1  197.53   14.52
   0   6  -1  194.84   15.59
   0   6   0  185.44   15.26
   0   6   0  187.08   14.28
   0  -6  -1  688.30   37.64
   0  -6  -1  634.40   33.09
   0   6   1  683.97   37.54
   0   6   1  751.91   39.06
   0  -6  -2   27.58    5.20
   0  -6  -2   23.53    6.04
   0   6   2   23.55    5.84
   0   6   2   22.47    4.95
   0  -6  -3  170.65   14.98
   0  -6  -3  172.15   12.70
   0   6   3  181.55   14.99
   0   6   3  163.04   13.06
   0  -6  -4    3.73    2.93
   0  -6  -4    3.90    3.87
   0   6   4    0.29    2.56
   0   6   4    1.43    3.59
   0  -6  -5    7.56    5.13
   0  -6  -5   11.95    4.06
   0   6   5   17.75    5.05
   0   6   5   26.53    5.92
   0  -6  -6  143.56   11.98
   0  -6  -6  158.26   15.41
   0  -6  -7   13.05    4.52
   0   6   7    5.25    4.06
   0   6   7   10.29    4.70
   0  -6  -8   59.78    7.67
   0  -6  -8   51.00    9.71
   0   6   8   64.43    9.06
   0   6   8   72.56    9.00
   0  -6  -9   36.85    8.17
   0  -6  -9   34.59    6.13
   0   6   9   28.73    5.90
   0   6   9   30.94    6.66
   0  -6 -10   50.05    9.68
   0   6  10   55.48    8.57
   0   6  10   58.65    8.16
   0   6  11   18.80    6.99
   0   7 -10   54.06    8.72
   0  -7   9   74.62    8.85
   0  -7   9   64.19    8.93
   0   7  -9   72.56   11.02
   0   7  -9   56.14    7.21
   0  -7   8   13.24    4.73
   0  -7   8   10.43    4.32
   0   7  -8   19.60    6.10
   0   7  -8   22.28    4.75
   0  -7   7   88.48   10.15
   0  -7   7   81.95    9.69
   0   7  -7  106.86    9.82
   0   7  -7  102.39   11.97
   0  -7   6   26.76    5.91
   0  -7   6   27.89    6.38
   0   7  -6   27.08    5.32
   0   7  -6   21.51    6.02
   0  -7   5   12.39    4.39
   0  -7   5   29.97    6.48
   0   7  -5    9.00    4.59
   0   7  -5    8.03    3.62
   0  -7   4  149.12   13.68
   0  -7   4  160.65   13.17
   0   7  -4  143.98   14.40
   0   7  -4  126.17   11.18
   0  -7   3   84.52   10.33
   0  -7   3   77.67    8.76
   0   7  -3   70.38    8.76
   0   7  -3   86.52   10.85
   0  -7   2  134.72   11.61
   0   7  -2  140.66   13.86
   0  -7   1  170.21   13.23
   0   7  -1  181.70   16.10
   0  -7   0   22.05    6.51
   0  -7   0   30.29    5.36
   0   7   0   35.85    7.38
   0  -7  -1   42.93    7.68
   0  -7  -1   52.06    6.96
   0   7   1   57.38    8.94
   0   7   1   56.41    8.22
   0  -7  -2  167.82   15.15
   0  -7  -2  183.49   13.57
   0   7   2  171.10   15.27
   0   7   2  160.95   13.72
   0  -7  -3  124.03   14.00
   0  -7  -3  149.46   12.11
   0   7   3  161.69   15.05
   0   7   3  184.54   14.93
   0  -7  -4   10.43    4.92
   0  -7  -4    6.42    3.67
   0   7   4   12.87    4.87
   0   7   4   16.27    4.69
   0  -7  -5   21.26    6.55
   0   7   5   11.79    4.49
   0   7   5   20.93    5.54
   0  -7  -6   59.10    7.97
   0   7   6   57.35    8.30
   0   7   6   60.90    8.81
   0  -7  -7   26.52    7.48
  -1   8   5  142.22   14.57
  -1   8   4   26.65    7.82
  -1   8   4   39.70    7.48
   1  -8  -4   45.76    8.35
   1  -8  -4   40.64    7.01
  -1   8   3   12.15    5.81
  -1   8   3   11.27    4.48
   1  -8  -3   13.33    5.39
   1  -8  -3   11.82    4.17
  -1   8   2  150.51   14.71
  -1   8   2  165.73   14.05
   1  -8  -2  127.08   13.04
   1  -8  -2  156.17   12.54
  -1   8   1  111.01   12.48
  -1   8   1  126.21   11.93
   1  -8  -1  119.33   12.65
   1  -8  -1  123.04   11.11
  -1   8   0   90.02   11.09
  -1   8   0   77.59    9.44
   1  -8   0   66.37    9.57
   1  -8   0   73.77    8.38
  -1   8  -1  189.17   16.39
  -1   8  -1  156.77   13.04
   1  -8   1  165.13   15.05
   1  -8   1  173.64   13.70
  -1   8  -2  143.98   14.13
  -1   8  -2  129.66   11.53
   1  -8   2  132.33   12.94
   1  -8   2  132.66   11.72
  -1   8  -3   68.64   10.12
  -1   8  -3   56.59    7.57
   1  -8   3   53.05    8.49
   1  -8   3   57.03    7.88
  -1   8  -4   51.51    8.81
  -1   8  -4   51.29    6.92
   1  -8   4   41.36    7.27
   1  -8   4   41.64    6.82
  -1   8  -5  103.33   12.14
  -1   8  -5  111.05   10.46
   1  -8   5  106.17   11.44
   1  -8   5  106.23   10.87
  -1   8  -6   77.44    8.91
   1  -8   6   91.97   10.43
  -1   7   9   87.60   10.02
  -1   7   9   91.00   11.88
   1  -7  -9  100.68   13.62
   1  -7  -9  120.37   11.24
  -1   7   8   41.93    7.34
  -1   7   8   31.19    6.85
   1  -7  -8   34.94    8.50
   1  -7  -8   46.93    7.12
  -1   7   7  108.37   11.09
  -1   7   7   88.78   10.68
  -1   7   6   71.77    9.31
  -1   7   6   74.62    9.43
   1  -7  -6   60.39   10.08
   1  -7  -6   85.18    9.23
   1  -7  -5   69.10    8.15
  -1   7   4    9.77    4.27
   1  -7  -4   11.50    5.63
  -1   7   3  121.98   13.28
  -1   7   3  108.13   10.70
   1  -7  -3   86.91    8.88
   1  -7  -3  105.40   12.36
  -1   7   2   95.17   10.16
  -1   7   1   60.80    9.29
   1  -7  -1  100.09   11.25
   1  -7  -1   95.14    9.27
  -1   7   0  325.04   22.78
   1  -7   0  298.91   20.90
   1  -7   0  316.83   19.84
  -1   7  -1   89.61    9.85
  -1   7  -1   65.28    9.39
   1  -7   1   79.25    9.80
   1  -7   1   80.18    8.76
  -1   7  -2   64.83    7.86
  -1   7  -2   70.58    9.85
   1  -7   2   65.38    9.28
   1  -7   2   70.68    8.19
  -1   7  -3    9.84    3.70
  -1   7  -3   13.26    5.24
   1  -7   3    3.88    2.93
  -1   7  -4   21.57    5.91
  -1   7  -4   20.77    4.58
   1  -7   4    9.77    4.25
  -1   7  -5   48.69    6.67
  -1   7  -6    6.11    4.31
  -1   7  -6    6.20    2.94
   1  -7   6   17.08    5.14
  -1   7  -7   33.44    7.39
   1  -7   7   17.53    5.09
  -1   7  -8   29.71    5.35
  -1   7  -8   27.08    6.92
   1  -7   8   24.55    5.90
  -1   7  -9   57.50    7.55
  -1   7  -9   75.49   11.01
   1  -7   9   61.96    9.37
  -1   7 -10   32.01    6.12
  -1   7 -10   39.04    8.21
   1  -7  10   18.42    5.47
   1  -7  11    7.31    3.81
  -1   6  12    8.99    4.25
  -1   6  12   14.21    5.30
   1  -6 -12    2.88    5.45
   1  -6 -12   15.08    4.89
  -1   6  11   31.01    6.12
  -1   6  11   33.77    6.92
   1  -6 -11   30.19    8.31
   1  -6 -11   25.61    5.72
  -1   6  10    4.03    3.69
  -1   6  10    3.91    3.29
   1  -6 -10    4.89    4.76
   1  -6 -10    3.27    3.44
  -1   6   9  113.67   12.50
  -1   6   9  117.39   11.56
   1  -6  -9   72.83   11.57
  -1   6   8   92.93   10.32
   1  -6  -8  104.28   13.88
   1  -6  -8  118.27   10.80
  -1   6   7   96.38   10.13
   1  -6  -7  113.28   13.04
   1  -6  -7  109.77   10.14
  -1   6   6   98.99   10.17
  -1   6   6   97.60   10.83
   1  -6  -6   87.16    8.93
   1  -6  -6   85.42   11.40
  -1   6   5   44.09    7.35
  -1   6   5   41.73    6.82
   1  -6  -5   70.16    7.91
  -1   6   4  322.05   21.08
  -1   6   4  372.51   22.71
   1  -6  -4  354.45   23.40
  -1   6   3   59.84    8.55
  -1   6   3   51.06    8.07
   1  -6  -3   64.17    7.51
   1  -6  -3   72.20   10.06
  -1   6   2   38.27    6.94
  -1   6   2   57.00    7.96
   1  -6  -2   19.05    5.36
   1  -6  -2   20.81    4.58
  -1   6   1  589.76   32.80
   1  -6  -1  504.35   27.49
  -1   6   0  233.22   17.04
   1  -6   0  221.27   15.20
  -1   6  -1  236.06   17.02
   1  -6   1  204.55   14.36
  -1   6  -2  143.22   12.67
   1  -6   2  159.01   12.53
  -1   6  -3  250.09   17.86
  -1   6  -3  241.28   15.95
   1  -6   3  314.74   19.71
   1  -6   3  274.57   18.86
  -1   6  -4   32.47    5.23
  -1   6  -4   35.49    6.47
   1  -6   4   33.24    5.77
   1  -6   4   33.77    6.27
  -1   6  -5   29.77    5.19
  -1   6  -5   32.12    6.72
   1  -6   5   15.09    4.65
   1  -6   5   15.59    4.61
  -1   6  -6  177.67   13.11
  -1   6  -6  205.00   16.50
   1  -6   6  176.33   13.86
   1  -6   6  204.70   15.38
  -1   6  -7  323.10   19.74
  -1   6  -7  353.26   23.81
   1  -6   7  293.09   19.48
   1  -6   7  293.68   19.35
  -1   6  -9   42.40    6.24
  -1   6  -9   42.73    8.27
   1  -6   9   23.59    5.70
   1  -6   9   27.22    5.59
  -1   6 -10  116.01   10.52
   1  -6  10  116.33   10.81
  -1   6 -11   17.17    4.80
  -1   6 -11   20.28    6.72
   1  -6  11   11.45    4.36
   1  -6  11   17.78    5.39
  -1   6 -12   85.75    9.11
  -1   6 -12   68.86   10.81
   1  -6  12   94.17    9.53
   1  -6  12   75.16    9.65
  -1   6 -13   31.76    5.79
  -1   6 -13   33.37    8.18
   1  -6  13   28.16    6.63
   1  -6  13   26.61    5.52
  -1   5  14   29.32    5.80
  -1   5  14   25.53    6.31
   1  -5 -14   17.33    4.68
   1  -5 -14   29.65    8.15
  -1   5  13   20.56    5.73
  -1   5  13   23.65    5.73
   1  -5 -13   23.41    5.74
   1  -5 -13   27.64    7.73
  -1   5  12   16.41    5.54
   1  -5 -12   12.44    4.61
  -1   5  11   39.73    6.99
   1  -5 -11   12.87    6.26
   1  -5 -11   21.59    5.13
  -1   5  10   -1.16    2.70
  -1   5  10   -1.86    2.62
   1  -5 -10    0.41    4.90
   1  -5 -10   10.13    4.02
  -1   5   9  192.75   14.71
  -1   5   9  187.97   13.75
   1  -5  -9  158.41   15.89
  -1   5   8  176.33   13.73
  -1   5   8  211.87   15.27
   1  -5  -8  186.33   16.17
   1  -5  -8  177.82   13.03
  -1   5   7  106.52    9.95
   1  -5  -7  166.62   12.97
  -1   5   6  556.61   30.37
   1  -5  -6  636.34   35.74
  -1   5   5  102.96    9.58
  -1   5   5  129.94   12.31
   1  -5  -5   97.00    9.16
   1  -5  -5   99.65   10.80
  -1   5   4  123.15   10.66
  -1   5   4  130.03   11.72
   1  -5  -4  110.11    9.43
   1  -5  -4  124.51   11.56
  -1   5   3   54.88    7.30
  -1   5   3   50.08    6.37
   1  -5  -3   55.08    7.43
   1  -5  -3   35.40    5.29
  -1   5   2  316.98   19.05
  -1   5   2  320.56   20.20
   1  -5  -2  307.27   18.25
   1  -5  -2  265.91   18.05
  -1   5   1  896.43   45.11
  -1   5   1 1002.14   48.36
   1  -5  -1  872.84   44.21
   1  -5  -1  858.06   41.87
  -1   5   0  334.45   19.81
  -1   5   0  325.94   20.32
   1  -5   0  312.95   18.51
   1  -5   0  290.55   18.83
  -1   5  -1  827.01   40.67
  -1   5  -1  780.57   40.09
   1  -5   1  786.69   40.22
   1  -5   1  825.96   40.79
  -1   5  -2  327.13   20.81
  -1   5  -2  332.21   19.28
   1  -5   2  365.94   22.35
   1  -5   2  360.57   21.14
  -1   5  -3 1144.28   55.80
  -1   5  -3 1022.89   48.78
   1  -5   3 1182.35   57.20
   1  -5   3 1203.55   57.17
  -1   5  -4  556.76   31.67
  -1   5  -4  488.83   25.95
   1  -5   4  547.36   30.06
   1  -5   4  637.24   33.76
  -1   5  -5  230.68   16.53
  -1   5  -5  227.10   14.64
   1  -5   5  223.81   15.32
   1  -5   5  219.63   15.66
  -1   5  -6  498.83   26.58
   1  -5   6  523.62   29.01
  -1   5  -7  157.21   13.75
  -1   5  -7  158.71   11.78
   1  -5   7  201.71   14.53
   1  -5   7  182.00   13.75
  -1   5  -8  302.05   20.90
  -1   5  -8  303.54   18.50
   1  -5   8  318.62   20.26
   1  -5   8  333.70   20.72
  -1   5  -9  157.96   14.46
  -1   5  -9  152.14   11.81
   1  -5   9  155.57   12.81
   1  -5   9  122.99   11.50
  -1   5 -10  262.92   19.87
  -1   5 -10  285.02   17.98
   1  -5  10  258.89   17.93
   1  -5  10  273.82   17.69
  -1   5 -11  253.81   19.87
  -1   5 -11  286.52   18.33
   1  -5  11  247.70   16.66
   1  -5  11  213.81   16.08
  -1   5 -12  140.13   11.84
  -1   5 -13  131.71   14.58
  -1   5 -13  131.33   11.88
   1  -5  13  141.93   11.66
   1  -5  13  132.00   12.61
  -1   5 -14   21.32    7.10
  -1   5 -14   18.75    5.20
   1  -5  14    8.90    3.79
   1  -5  14    4.01    4.40
  -1   5 -15   12.73    6.32
  -1   5 -15    9.54    3.92
   1  -5  15    5.20    3.98
   1  -5  15    9.75    3.66
  -1   4  16    4.96    4.10
  -1   4  16    7.42    4.29
   1  -4 -16   14.69    5.81
   1  -4 -16   10.19    4.13
  -1   4  15  103.60   10.44
  -1   4  15   89.51   10.14
   1  -4 -15   97.83   10.10
   1  -4 -15   98.17   12.33
  -1   4  14   25.89    5.89
   1  -4 -14   24.20    5.49
   1  -4 -14   19.41    7.85
  -1   4  13    7.84    3.86
  -1   4  13   10.07    4.38
   1  -4 -13    3.92    3.21
  -1   4  12   72.73    9.19
  -1   4  12   78.04    8.69
   1  -4 -12   55.91    9.96
  -1   4  11   38.16    6.24
  -1   4  11   35.74    6.19
   1  -4 -11   15.30    5.72
   1  -4 -11   20.84    5.00
  -1   4  10  125.27   11.19
  -1   4  10  134.99   11.18
   1  -4 -10  155.12   14.21
   1  -4 -10  153.03   11.98
  -1   4   9   68.17    7.87
   1  -4  -9  111.91   11.75
  -1   4   8  196.34   13.64
  -1   4   8  182.00   13.37
   1  -4  -8  161.54   11.98
   1  -4  -8  167.97   14.18
  -1   4   7  120.66   10.24
  -1   4   7  123.31   10.49
   1  -4  -7  114.65   11.21
   1  -4  -7  108.52    9.36
  -1   4   6   16.35    4.25
  -1   4   6   12.35    3.53
   1  -4  -6   25.56    4.76
   1  -4  -6   18.10    4.80
  -1   4   5   23.22    4.48
  -1   4   5   32.06    5.22
   1  -4  -5   47.24    5.70
   1  -4  -5   53.68    7.34
  -1   4   4   17.01    4.26
  -1   4   4   18.66    3.98
   1  -4  -4   21.34    4.79
   1  -4  -4   20.35    4.15
  -1   4   3  524.06   27.74
  -1   4   3  503.91   26.37
   1  -4  -3  517.05   27.83
   1  -4  -3  465.98   24.29
  -1   4   2  680.08   33.67
  -1   4   2  653.07   33.15
   1  -4  -2  733.39   36.91
   1  -4  -2  760.86   36.76
  -1   4   1   61.77    6.13
  -1   4   1   71.91    7.36
   1  -4  -1   29.46    4.39
   1  -4  -1   35.46    5.22
  -1   4   0  261.88   15.50
  -1   4   0  247.40   15.63
   1  -4   0  267.85   16.42
   1  -4   0  240.09   14.44
   1  -4   1 1097.69   51.20
   1  -4   1 1022.00   48.70
   1  -4   2  129.63    9.70
   1  -4   2  118.33    9.58
  -1   4  -3  492.56   26.67
  -1   4  -3  460.45   23.93
   1  -4   3  558.70   29.22
   1  -4   3  499.58   25.95
  -1   4  -4  802.07   40.36
  -1   4  -4  804.76   38.74
   1  -4   4  763.54   37.43
   1  -4   4  772.65   38.48
  -1   4  -5  300.10   18.93
  -1   4  -5  278.90   16.42
   1  -4   5  382.67   21.78
   1  -4   5  357.13   20.28
  -1   4  -6  250.54   16.96
  -1   4  -6  218.73   13.82
   1  -4   6  249.49   15.90
   1  -4   6  221.27   14.60
  -1   4  -7  475.39   25.02
  -1   4  -7  475.68   27.32
   1  -4   7  466.87   25.74
   1  -4   7  459.86   25.23
  -1   4  -8  453.45   26.73
  -1   4  -8  477.18   25.41
   1  -4   8  461.20   25.52
   1  -4   8  451.36   25.47
  -1   4  -9   65.05    7.21
   1  -4   9   58.18    7.32
  -1   4 -10  357.13   23.86
   1  -4  10  417.31   24.31
  -1   4 -11  216.35   17.66
  -1   4 -11  232.17   15.48
   1  -4  11  217.09   14.79
   1  -4  11  189.32   14.48
  -1   4 -12   22.57    5.26
  -1   4 -12   33.71    7.21
   1  -4  12    7.46    3.96
   1  -4  12   10.09    3.78
  -1   4 -13  117.12   13.25
  -1   4 -13  117.77   12.18
   1  -4  13  134.20   11.12
   1  -4  13  118.03   11.31
  -1   4 -14   13.09    5.92
  -1   4 -14   19.48    5.71
   1  -4  14   30.86    6.13
   1  -4  14   20.04    5.42
  -1   4 -15   14.32    5.86
  -1   4 -15    9.09    3.80
   1  -4  15   16.17    4.41
   1  -4  15    9.94    4.32
  -1   4 -16   35.34    8.52
  -1   4 -16   40.57    6.91
   1  -4  16   20.19    5.50
   1  -4  16   22.69    5.31
  -1   3  17   27.68    5.99
  -1   3  17   38.33    7.33
   1  -3 -17   41.01    8.06
   1  -3 -17   21.98    5.30
  -1   3  16   15.59    4.78
   1  -3 -16   32.55    7.61
   1  -3 -16   32.06    6.20
  -1   3  15   51.69    7.54
  -1   3  15   34.03    6.68
   1  -3 -15   50.99    7.57
  -1   3  14  113.97   10.77
  -1   3  14  129.97   11.79
   1  -3 -14   97.21   11.35
   1  -3 -14  116.80   10.68
  -1   3  13  101.18    9.73
  -1   3  13   92.21   10.02
   1  -3 -13   45.37    7.99
   1  -3 -13   73.49    8.45
  -1   3  12  341.32   20.99
  -1   3  12  280.39   18.53
   1  -3 -12  336.84   22.19
   1  -3 -12  343.41   20.57
  -1   3  11  222.92   15.78
  -1   3  11  228.44   15.45
   1  -3 -11  219.03   14.83
   1  -3 -11  210.67   16.07
  -1   3  10  162.14   12.56
  -1   3  10  185.29   13.31
   1  -3 -10  143.22   11.19
   1  -3 -10  140.41   12.38
  -1   3   9  179.76   12.86
  -1   3   9  153.48   11.78
   1  -3  -9  193.35   14.67
   1  -3  -9  211.42   14.05
  -1   3   8   46.06    6.00
  -1   3   8   45.28    6.13
   1  -3  -8   15.60    4.62
   1  -3  -8   19.51    4.30
  -1   3   7   66.47    7.04
  -1   3   7   64.08    6.89
   1  -3  -7   70.34    7.66
   1  -3  -7   75.43    7.18
  -1   3   6   53.96    6.01
  -1   3   6   55.44    6.22
   1  -3  -6   54.18    6.09
   1  -3  -6   45.27    6.11
  -1   3   5  154.83   10.70
   1  -3  -5  184.39   11.78
  -1   3   4   32.77    4.51
  -1   3   4   32.29    4.39
   1  -3  -4   55.84    5.41
   1  -3  -4   64.78    6.57
  -1   3   3  206.79   12.29
   1  -3  -3  198.28   12.58
  -1   3   2    5.93    2.28
  -1   3   2    5.06    2.60
   1  -3  -2   17.75    3.47
   1  -3  -2   16.71    2.99
  -1   3   1  593.49   29.20
  -1   3   1  525.71   25.61
   1  -3  -1  497.49   25.26
   1  -3  -1  453.74   22.40
  -1   3   0  398.50   20.83
  -1   3   0  402.53   20.35
   1  -3   0  386.55   20.60
   1  -3   0  381.77   19.38
  -1   3  -1  259.19   14.95
  -1   3  -1  274.27   14.89
   1  -3   1  313.24   17.08
   1  -3   1  323.40   16.99
  -1   3  -2  261.28   14.37
  -1   3  -2  249.94   14.75
   1  -3   2  337.73   18.29
   1  -3   2  333.25   17.56
  -1   3  -3   59.77    5.51
   1  -3   3   62.99    6.22
  -1   3  -4  723.84   34.44
  -1   3  -4  698.75   34.61
   1  -3   4  667.24   32.83
   1  -3   4  662.32   32.19
  -1   3  -5  395.36   22.02
   1  -3   5  459.71   23.87
  -1   3  -6  250.39   16.08
  -1   3  -6  259.19   14.98
   1  -3   6  227.40   13.95
   1  -3   6  220.38   13.70
  -1   3  -7 1170.55   56.00
  -1   3  -7 1114.12   51.75
   1  -3   7 1032.30   48.88
   1  -3   7 1013.79   47.70
  -1   3  -8  180.36   12.13
  -1   3  -8  154.97   12.44
   1  -3   8  209.03   14.09
   1  -3   8  192.16   12.80
  -1   3  -9  120.21    9.56
  -1   3  -9  106.87   10.87
   1  -3   9  124.43    9.86
   1  -3   9  115.88   10.02
  -1   3 -10  517.49   27.49
  -1   3 -10  500.77   28.76
   1  -3  10  526.75   27.98
   1  -3  10  492.41   27.07
  -1   3 -11  177.97   14.86
   1  -3  11  183.05   13.57
  -1   3 -12   16.77    4.66
  -1   3 -12    7.58    4.84
   1  -3  12    4.81    3.38
   1  -3  12    3.79    2.99
  -1   3 -13  414.77   26.59
  -1   3 -13  503.01   28.31
   1  -3  13  416.41   24.84
   1  -3  13  508.39   27.65
  -1   3 -14  206.94   17.33
  -1   3 -14  248.30   17.26
   1  -3  14  194.84   14.21
   1  -3  14  178.72   14.30
  -1   3 -15    8.77    5.57
   1  -3  15   23.95    5.57
  -1   3 -16   77.22   11.36
  -1   3 -16   98.93   10.37
   1  -3  16   77.46    8.70
   1  -3  16   72.67    9.04
  -1   3 -17   15.72    4.86
  -1   3 -17   19.59    7.00
   1  -3  17    9.57    4.53
   1  -3  17   21.07    4.91
  -1   2  18   47.94    8.12
   1  -2 -18   39.76    6.94
  -1   2  17   91.18    9.77
  -1   2  17   73.53    9.13
   1  -2 -17   95.45   10.32
   1  -2 -17   97.54   11.17
  -1   2  16  156.32   12.99
   1  -2 -16  143.19   11.99
  -1   2  15   85.06    9.69
  -1   2  15   90.05    9.75
   1  -2 -15   98.41    9.69
   1  -2 -15   86.13    9.76
  -1   2  14  792.06   40.70
  -1   2  14  737.13   38.51
   1  -2 -14  657.84   34.27
   1  -2 -14  712.79   37.71
  -1   2  13  210.07   15.21
   1  -2 -13  154.08   12.02
   1  -2 -13  166.32   13.42
  -1   2  12  154.97   12.01
  -1   2  12  168.56   12.83
   1  -2 -12  203.50   14.08
   1  -2 -12  173.64   13.58
  -1   2  11  752.80   37.98
  -1   2  11  784.15   39.03
   1  -2 -11  878.06   42.96
   1  -2 -11  780.42   39.63
  -1   2  10  207.98   14.13
  -1   2  10  202.31   13.66
   1  -2 -10  143.95   11.41
   1  -2 -10  157.36   11.49
  -1   2   9 1391.83   64.59
  -1   2   9 1561.74   71.22
   1  -2  -9 1305.53   60.13
   1  -2  -9 1309.26   61.14
  -1   2   8  384.01   21.23
  -1   2   8  396.70   21.50
   1  -2  -8  528.54   27.25
   1  -2  -8  497.93   26.68
  -1   2   7  681.58   33.24
   1  -2  -7  813.27   38.89
  -1   2   6 1745.39   77.64
   1  -2  -6 1561.74   70.31
  -1   2   5  489.57   24.22
  -1   2   5  429.55   21.63
   1  -2  -5  422.09   21.69
   1  -2  -5  491.36   24.19
  -1   2   4 1493.05   66.17
  -1   2   4 1402.43   62.17
   1  -2  -4 1510.97   66.61
   1  -2  -4 1551.29   69.01
  -1   2   3  351.47   17.38
  -1   2   3  324.14   16.39
   1  -2  -3  265.01   14.16
   1  -2  -3  291.29   14.77
  -1   2   2 1781.21   77.68
  -1   2   2 1688.64   73.47
   1  -2  -2 1573.68   68.70
   1  -2  -2 1633.41   71.59
  -1   2   1  460.01   21.50
  -1   2   1  498.08   23.41
   1  -2  -1  466.73   22.13
   1  -2  -1  477.33   22.16
  -1   2   0   32.25    3.21
  -1   2   0   30.64    3.23
   1  -2   0   56.96    4.23
   1  -2   0   54.87    4.38
  -1   2  -1  554.38   25.90
  -1   2  -1  526.45   24.32
   1  -2   1  569.15   26.41
   1  -2   1  560.04   25.80
  -1   2  -2  373.56   18.51
  -1   2  -2  375.35   18.14
   1  -2   2  398.50   19.41
   1  -2   2  382.52   18.62
  -1   2  -3  312.80   16.50
  -1   2  -3  304.14   15.45
   1  -2   3  269.79   14.21
   1  -2   3  290.25   15.04
  -1   2  -4  435.83   21.44
  -1   2  -4  446.58   22.65
   1  -2   4  408.65   20.98
   1  -2   4  371.62   18.92
  -1   2  -5 2057.44   90.26
   1  -2   5 1848.41   81.67
  -1   2  -6   54.81    5.61
  -1   2  -6   49.49    5.78
   1  -2   6   50.73    5.46
  -1   2  -7   68.05    6.89
  -1   2  -7   59.71    6.03
   1  -2   7  103.16    8.27
   1  -2   7  100.74    7.90
  -1   2  -8  330.86   19.19
   1  -2   8  329.52   18.71
   1  -2   8  315.19   17.56
  -1   2  -9  203.65   14.11
  -1   2  -9  226.20   14.82
   1  -2   9  208.28   13.42
   1  -2   9  205.44   13.79
  -1   2 -10  232.62   15.80
  -1   2 -10  266.36   16.92
   1  -2  10  254.11   15.66
   1  -2  10  248.75   15.92
   1  -2  11  643.51   33.58
   1  -2  11  690.24   34.91
  -1   2 -12  149.07   12.60
   1  -2  12  185.73   13.73
  -1   2 -13   48.18    7.48
  -1   2 -13   40.19    6.42
   1  -2  13   26.61    5.64
   1  -2  13   39.24    6.01
  -1   2 -14  427.46   26.25
  -1   2 -14  441.95   25.34
   1  -2  14  405.51   23.55
   1  -2  14  387.89   23.40
  -1   2 -15   68.65    9.72
  -1   2 -15   94.26    9.65
   1  -2  15   64.69    7.91
   1  -2  15   45.81    7.87
  -1   2 -16   24.11    6.54
  -1   2 -16   28.64    5.79
   1  -2  16   14.37    4.34
   1  -2  16   20.02    5.63
  -1   2 -17   50.66    9.01
  -1   2 -17   74.32    8.79
   1  -2  17   54.09    7.78
   1  -2  17   61.57    7.96
  -1   2 -18   31.40    6.41
   1  -2  18   22.57    6.43
  -1   1  18  103.62   10.94
  -1   1  18  112.26   11.09
   1  -1 -18   90.36    9.92
   1  -1 -18   86.01   10.11
  -1   1  17  118.82   11.08
  -1   1  17  121.67   11.46
   1  -1 -17   87.37    9.81
   1  -1 -17  111.98   11.08
  -1   1  16  198.28   15.08
   1  -1 -16  206.94   15.69
  -1   1  15  199.32   14.75
  -1   1  15  194.54   14.53
   1  -1 -15  191.56   14.20
   1  -1 -15  155.57   12.80
  -1   1  14  442.99   25.28
  -1   1  14  453.89   25.74
   1  -1 -14  411.04   23.59
   1  -1 -14  368.03   22.22
  -1   1  13   30.09    5.48
   1  -1 -13   37.12    5.79
  -1   1  12   10.35    4.21
  -1   1  12   12.12    3.84
   1  -1 -12    1.00    2.79
   1  -1 -12    5.92    3.79
  -1   1  11 1146.97   54.65
  -1   1  11 1142.79   54.06
   1  -1 -11 1015.73   48.39
   1  -1 -11  981.53   47.61
  -1   1  10   82.57    7.83
  -1   1  10   69.23    7.12
   1  -1 -10   58.18    6.37
   1  -1 -10   72.10    7.37
  -1   1   9  797.14   38.52
  -1   1   9  821.18   39.52
   1  -1  -9  741.46   36.33
   1  -1  -9  767.58   37.04
  -1   1   8 2587.46  113.70
   1  -1  -8 2702.43  118.31
   1  -1  -8 2451.60  108.11
  -1   1   7  487.33   24.37
   1  -1  -7  446.28   22.90
  -1   1   6  598.57   28.59
  -1   1   6  609.47   29.08
   1  -1  -6  551.39   26.73
   1  -1  -6  597.97   28.61
  -1   1   5  376.10   18.59
  -1   1   5  372.37   18.54
   1  -1  -5  375.80   18.69
   1  -1  -5  373.26   18.51
  -1   1   4 1445.43   63.29
  -1   1   4 1480.96   64.71
   1  -1  -4 1424.97   62.35
   1  -1  -4 1338.08   58.71
  -1   1   3    5.98    1.82
  -1   1   3    2.09    1.64
  -1   1   2  503.61   22.41
  -1   1   2  481.81   21.50
  -1   1   1 2151.50   91.43
  -1   1   1 2005.17   85.34
   1  -1  -1 2123.13   90.24
   1  -1  -1 2123.13   90.37
   1  -1   0   99.02    4.84
   1  -1   0  102.45    5.05
  -1   1  -1 9999.00  422.69
  -1   1  -1 9576.46  404.92
   1  -1   1 9618.27  406.71
   1  -1   1 9473.44  400.59
  -1   1  -2   64.95    4.40
  -1   1  -2   65.20    4.37
   1  -1   2   69.65    4.57
   1  -1   2   69.35    4.51
  -1   1  -3  431.20   20.45
   1  -1   3  482.70   22.52
   1  -1   3  463.44   21.72
  -1   1  -4  532.73   25.25
  -1   1  -4  461.35   22.28
   1  -1   4  512.27   24.25
   1  -1   4  494.95   23.65
  -1   1  -5    1.73    2.36
  -1   1  -5    4.02    2.36
   1  -1   5    7.96    2.66
   1  -1   5    3.48    2.35
  -1   1  -6   98.94    7.78
   1  -1   6   81.72    6.94
  -1   1  -7  805.80   38.73
   1  -1   7  841.94   39.85
  -1   1  -8  882.10   42.00
  -1   1  -8 1001.09   47.43
   1  -1   8  989.00   46.49
   1  -1   8  918.83   43.22
  -1   1  -9  119.83    9.75
  -1   1  -9  122.33    9.93
   1  -1   9  131.97   10.14
   1  -1   9  127.58    9.79
  -1   1 -10   58.86    6.95
  -1   1 -10   51.47    6.59
   1  -1  10   61.80    6.75
   1  -1  10   53.03    6.45
  -1   1 -11  968.99   47.02
  -1   1 -11 1086.49   52.48
   1  -1  11 1047.23   49.96
   1  -1  11 1050.82   50.47
  -1   1 -12  199.77   14.19
   1  -1  12  208.28   14.74
  -1   1 -13  196.04   14.33
  -1   1 -13  195.29   14.20
   1  -1  13  239.64   16.14
   1  -1  13  246.51   16.13
  -1   1 -14  262.33   17.35
  -1   1 -14  249.05   17.19
   1  -1  14  283.53   18.60
   1  -1  14  256.35   16.90
  -1   1 -15  203.50   15.36
  -1   1 -15  199.62   14.59
   1  -1  15  214.11   15.63
   1  -1  15  207.54   14.98
  -1   1 -16    7.25    4.24
  -1   1 -16    5.45    4.53
   1  -1  16   20.83    5.26
   1  -1  16    8.94    3.88
  -1   1 -17  194.69   15.51
  -1   1 -17  203.35   15.26
   1  -1  17  200.52   15.18
   1  -1  17  218.44   15.84
  -1   1 -18   45.40    7.02
   1  -1  18   40.30    6.83
  -1   0  18   21.57    5.50
  -1   0  18   12.63    4.99
   1   0 -18   12.85    5.18
   1   0 -18    3.57    3.70
  -1   0  17   38.76    6.82
  -1   0  17   33.58    6.49
   1   0 -17   33.46    6.65
   1   0 -17   40.24    6.70
  -1   0  16   17.38    5.36
  -1   0  16   28.19    5.86
   1   0 -16   22.19    5.67
   1   0 -16   25.58    5.47
  -1   0  15   21.63    5.52
  -1   0  15   26.05    5.36
   1   0 -15   21.02    5.32
   1   0 -15   17.17    4.59
  -1   0  14   56.35    7.47
  -1   0  14   65.96    7.69
   1   0 -14   52.30    7.20
   1   0 -14   47.43    6.96
  -1   0  13   32.43    5.84
   1   0 -13   64.57    7.83
  -1   0  12  101.83    9.29
  -1   0  12  101.30    9.36
   1   0 -12  141.19   11.37
   1   0 -12  170.65   12.84
  -1   0  11   28.65    5.11
  -1   0  11   41.43    5.66
   1   0 -11   43.93    6.06
   1   0 -11   55.38    6.85
  -1   0  10  270.54   16.20
  -1   0  10  258.44   15.78
  -1   0   9  255.31   15.04
  -1   0   9  283.68   16.50
  -1   0   8 1015.73   47.24
   1   0  -8  875.08   41.37
  -1   0   7 1198.92   54.33
   1   0  -7 1346.59   61.01
  -1   0   6  242.92   13.41
  -1   0   6  278.60   15.02
   1   0  -6  291.29   15.72
   1   0  -6  311.15   16.56
  -1   0   5  276.36   14.39
  -1   0   5  259.64   13.68
   1   0  -5  283.08   14.92
   1   0  -5  333.25   16.66
  -1   0   4  285.32   14.34
  -1   0   4  276.96   13.92
   1   0  -4  351.17   17.27
   1   0  -4  375.20   17.96
  -1   0   3  545.87   24.75
  -1   0   3  538.10   24.55
   1   0  -3  614.69   27.88
   1   0  -3  673.66   30.13
  -1   0   2  118.28    6.40
  -1   0   2  113.13    6.01
   1   0  -2  161.25    8.27
   1   0  -2  169.01    8.36
  -1   0   1 2320.21   98.94
  -1   0   1 2232.12   95.03
   1   0  -1 2129.10   90.93
   1   0  -1 2130.59   90.73
  -1   0   0  777.43   33.98
  -1   0   0  787.59   34.16
   1   0   0  806.10   35.28
   1   0   0  704.87   30.68
  -1   0  -1 1338.53   57.99
  -1   0  -1 1385.85   59.75
   1   0   1 1386.45   59.98
   1   0   1 1409.15   60.78
  -1   0  -2 2730.80  117.22
  -1   0  -2 2992.08  127.96
   1   0   2 2923.40  125.15
   1   0   2 2803.96  120.06
  -1   0  -3  255.76   13.40
  -1   0  -3  283.38   14.35
   1   0   3  336.54   16.62
   1   0   3  338.48   16.65
  -1   0  -4  273.08   14.57
  -1   0  -4  303.39   15.72
   1   0   4  321.01   16.33
   1   0   4  356.09   17.99
  -1   0  -5  103.19    7.68
  -1   0  -5  105.93    7.57
   1   0   5  180.81   10.84
   1   0   5  159.75    9.99
  -1   0  -6   84.78    7.75
  -1   0  -6   82.30    7.16
   1   0   6   53.33    5.84
  -1   0  -7  262.92   15.62
  -1   0  -7  280.69   16.17
   1   0   7  341.32   18.86
   1   0   7  346.39   19.17
  -1   0  -8  629.33   31.19
  -1   0  -8  641.27   32.26
   1   0   8  681.13   34.31
   1   0   8  657.39   32.71
  -1   0  -9  595.58   30.22
  -1   0  -9  568.55   29.56
   1   0   9  553.63   29.11
   1   0   9  545.12   28.31
  -1   0 -10  166.02   11.89
  -1   0 -10  164.68   12.14
   1   0  10  140.29   11.46
   1   0  10  138.13   10.75
  -1   0 -11   51.20    6.66
  -1   0 -11   66.02    7.47
   1   0  11   39.28    5.92
   1   0  11   53.15    6.92
  -1   0 -12  437.32   24.64
   1   0  12  510.48   28.29
  -1   0 -13  353.11   21.22
  -1   0 -13  323.70   20.25
   1   0  13  437.77   25.05
   1   0  13  425.22   24.62
  -1   0 -14    9.15    4.13
  -1   0 -14    9.46    4.07
   1   0  14   14.27    4.82
   1   0  14   11.55    4.20
  -1   0 -15   67.83    8.24
  -1   0 -15   76.89    9.85
   1   0  15   60.01    8.80
   1   0  15   67.59    8.31
  -1   0 -16   90.67    9.91
  -1   0 -16  100.42   10.33
   1   0  16  109.49   10.76
   1   0  16   95.21    9.95
  -1   0 -17   98.57   10.29
  -1   0 -17   66.41    8.49
   1   0  17   63.66    8.14
   1   0  17   75.04    9.03
  -1  -1  18   36.42    6.53
  -1  -1  18   36.43    6.83
   1   1 -18   35.21    6.24
   1   1 -18   25.73    6.81
  -1  -1  17   90.02    9.80
  -1  -1  17   75.64    9.17
   1   1 -17  104.22   11.52
   1   1 -17   94.36   11.78
  -1  -1  16   85.39    9.46
   1   1 -16   57.27    7.75
  -1  -1  15   28.77    5.57
  -1  -1  15   35.03    6.47
   1   1 -15   46.51    6.89
   1   1 -15   37.97    7.44
  -1  -1  14  126.03   11.23
  -1  -1  14  135.77   11.08
   1   1 -14  201.86   14.84
   1   1 -14  167.97   14.23
  -1  -1  13  280.39   17.78
  -1  -1  13  321.01   19.74
   1   1 -13  354.75   22.11
   1   1 -13  335.64   21.63
  -1  -1  12   57.41    7.05
   1   1 -12   92.30    9.35
  -1  -1  11   76.00    7.67
  -1  -1  11   80.18    8.26
   1   1 -11   71.59    8.53
   1   1 -11   94.53    9.15
  -1  -1  10 1326.13   61.25
  -1  -1  10 1313.89   61.19
   1   1 -10 1182.95   55.77
   1   1 -10 1176.67   56.27
  -1  -1   9   65.96    6.72
  -1  -1   9   60.75    6.39
   1   1  -9   32.07    4.76
   1   1  -9   31.73    5.22
  -1  -1   8  655.61   32.09
  -1  -1   8  630.67   31.18
   1   1  -8  567.21   29.43
   1   1  -8  627.53   30.61
  -1  -1   7 1214.00   55.63
   1   1  -7 1160.71   54.18
  -1  -1   6  493.45   24.70
   1   1  -6  536.76   26.29
  -1  -1   5  996.32   45.78
  -1  -1   5  950.33   43.40
   1   1  -5 1023.79   46.46
   1   1  -5  930.33   43.30
  -1  -1   4  648.74   30.77
  -1  -1   4  635.45   29.82
   1   1  -4  654.71   30.49
   1   1  -4  636.94   30.47
  -1  -1   3 5422.78  231.87
  -1  -1   3 5377.99  229.49
   1   1  -3 5091.33  217.24
   1   1  -3 5040.56  215.75
  -1  -1   2 3196.63  137.25
  -1  -1   2 2996.56  129.27
   1   1  -2 2827.85  121.63
   1   1  -2 2820.38  121.91
  -1  -1   1 4379.14  187.53
  -1  -1   1 4667.30  199.17
   1   1  -1 4582.19  196.04
   1   1  -1 4600.10  196.19
  -1  -1   0 3380.28  145.47
  -1  -1   0 3514.65  150.80
   1   1   0 3675.91  157.96
   1   1   0 3646.04  156.02
  -1  -1  -1 3062.26  131.65
  -1  -1  -1 3204.10  138.28
   1   1   1 2757.68  119.33
   1   1   1 2781.56  119.82
  -1  -1  -2 5092.82  218.29
  -1  -1  -2 5442.19  232.17
   1   1   2 5067.44  216.94
   1   1   2 5271.98  225.16
  -1  -1  -3  592.14   28.83
  -1  -1  -3  624.25   29.37
  -1  -1  -4  958.25   44.75
  -1  -1  -4 1024.54   46.60
   1   1   4 1047.23   47.82
   1   1   4 1087.39   49.73
   1   1   5  534.07   26.52
   1   1   5  565.12   27.99
   1   1   6 1234.46   56.69
   1   1   6 1202.81   55.27
  -1  -1  -7  286.37   17.29
  -1  -1  -7  328.92   18.50
   1   1   7  282.93   16.72
   1   1   7  290.10   17.16
  -1  -1  -8  105.86    9.29
  -1  -1  -8  117.43    9.53
   1   1   8   97.36    8.60
   1   1   8   91.21    8.40
  -1  -1  -9 1318.22   61.99
  -1  -1  -9 1415.12   65.16
   1   1   9 1376.00   63.87
   1   1   9 1432.14   66.35
  -1  -1 -10   46.91    6.69
  -1  -1 -10   55.00    6.59
   1   1  10   55.12    6.98
   1   1  10   53.21    6.74
  -1  -1 -11   64.02    7.92
  -1  -1 -11   68.34    7.67
   1   1  11  109.89    9.98
   1   1  11  106.66    9.79
  -1  -1 -12  167.07   13.44
  -1  -1 -12  165.58   12.78
   1   1  12  177.52   13.61
   1   1  12  148.97   12.28
  -1  -1 -13   98.32   10.27
  -1  -1 -13   95.12    9.36
   1   1  13  139.16   11.89
   1   1  13  121.39   10.99
  -1  -1 -14   33.22    6.12
  -1  -1 -14   45.43    6.91
   1   1  14   71.89    8.41
   1   1  14   78.49    9.27
  -1  -1 -15   40.89    6.42
   1   1  15   30.53    6.10
  -1  -1 -16   60.05    8.42
  -1  -1 -16   67.13    8.11
   1   1  16   67.96    8.51
   1   1  16   63.57    8.37
  -1  -1 -17   28.71    5.88
  -1  -1 -17   32.50    6.09
   1   1  17   17.98    5.01
   1   1  17   28.82    6.08
  -1  -2  18   31.82    7.12
  -1  -2  18   40.92    6.72
   1   2 -18   39.31    6.79
   1   2 -18   31.89    8.40
  -1  -2  17   47.48    7.00
  -1  -2  17   32.52    6.61
   1   2 -17   62.28    8.26
   1   2 -17   52.03    9.59
  -1  -2  16   82.94    9.75
   1   2 -16   93.45   11.79
  -1  -2  15   54.75    7.57
  -1  -2  15   43.42    7.16
   1   2 -15   38.15    6.35
   1   2 -15   35.53    7.72
  -1  -2  14   57.77    7.46
  -1  -2  14   60.14    8.04
   1   2 -14  106.11   10.53
   1   2 -14   79.37   10.31
  -1  -2  13   59.13    7.08
  -1  -2  13   52.41    7.52
   1   2 -13   64.17    7.91
   1   2 -13   60.93    9.20
  -1  -2  12  370.87   22.29
   1   2 -12  314.74   21.28
  -1  -2  11  283.68   17.29
   1   2 -11  272.18   16.87
  -1  -2  10  289.65   17.41
  -1  -2  10  243.37   15.98
   1   2 -10  251.73   17.66
   1   2 -10  260.98   16.08
  -1  -2   9   54.38    6.44
  -1  -2   9   49.03    6.48
   1   2  -9   69.13    8.51
   1   2  -9   70.43    7.16
  -1  -2   8   68.80    6.89
  -1  -2   8   65.16    7.02
   1   2  -8   90.88    9.14
   1   2  -8   95.12    7.85
  -1  -2   7  478.37   24.99
  -1  -2   7  528.84   27.52
   1   2  -7  527.35   26.68
   1   2  -7  542.58   29.04
  -1  -2   6  278.60   16.92
  -1  -2   6  250.99   15.04
   1   2  -6  249.79   15.93
   1   2  -6  257.25   14.90
  -1  -2   5  147.98   10.24
   1   2  -5  154.08   11.21
  -1  -2   4  466.13   24.59
  -1  -2   4  435.83   22.59
   1   2  -4  367.29   19.23
   1   2  -4  387.30   21.19
  -1  -2   3  510.33   26.02
   1   2  -3  485.54   24.17
  -1  -2   2  387.00   20.60
  -1  -2   2  374.60   19.38
   1   2  -2  377.89   20.25
   1   2  -2  338.48   17.84
   1   2  -1  841.94   39.27
   1   2  -1  983.62   46.40
  -1  -2   0 2154.48   95.57
  -1  -2   0 2044.00   90.26
   1   2   0 1940.98   86.55
   1   2   0 2144.03   94.29
  -1  -2  -1  224.56   14.00
   1   2   1  295.92   16.23
  -1  -2  -2  381.32   20.93
   1   2   2  281.44   15.74
  -1  -2  -3  254.86   14.69
   1   2   3  307.27   17.56
  -1  -2  -4  312.05   17.36
  -1  -2  -4  252.33   15.78
   1   2   4  334.00   18.54
   1   2   4  322.20   18.19
  -1  -2  -5  238.15   14.50
  -1  -2  -5  243.37   15.86
   1   2   5  192.60   12.71
   1   2   5  195.74   12.95
  -1  -2  -6  209.48   13.46
  -1  -2  -6  193.65   13.72
   1   2   6  239.94   14.96
   1   2   6  241.13   15.11
  -1  -2  -7  620.96   31.43
  -1  -2  -7  598.27   31.98
   1   2   7  537.20   28.02
   1   2   7  510.48   27.17
  -1  -2  -8  115.28   10.53
  -1  -2  -8  120.00    9.83
   1   2   8  106.46    9.33
   1   2   8  114.59    9.67
  -1  -2  -9  312.65   18.80
  -1  -2  -9  288.01   19.08
   1   2   9  265.16   16.74
   1   2   9  321.46   19.50
  -1  -2 -10   10.23    4.80
  -1  -2 -10   13.48    4.50
   1   2  10    2.94    3.53
   1   2  10    8.67    4.04
   1   2  11  352.07   21.34
   1   2  11  309.06   19.50
  -1  -2 -12   10.85    4.99
  -1  -2 -12   13.60    4.26
   1   2  12    2.47    3.11
   1   2  12   10.97    4.19
  -1  -2 -13   42.61    6.76
  -1  -2 -13   48.49    7.73
   1   2  13   16.60    4.62
   1   2  13   14.72    4.47
  -1  -2 -14  191.11   16.27
  -1  -2 -14  161.10   12.71
   1   2  14  169.61   13.91
   1   2  14  194.84   15.01
  -1  -2 -15    6.29    3.43
  -1  -2 -15    8.69    4.27
   1   2  15   13.50    4.57
   1   2  15   21.68    5.14
  -1  -2 -16    4.88    3.63
  -1  -2 -16    8.91    4.06
   1   2  16    1.96    2.86
  -1  -3  17   15.35    4.48
  -1  -3  17    6.41    4.37
   1   3 -17   21.01    6.80
   1   3 -17   12.76    4.27
  -1  -3  16   56.23    7.43
  -1  -3  16   42.24    7.22
   1   3 -16   52.79    9.80
   1   3 -16   68.47    8.61
  -1  -3  15   58.99    8.37
   1   3 -15   38.69    8.06
  -1  -3  14   34.39    6.35
  -1  -3  14   40.58    6.23
   1   3 -14   41.39    8.54
   1   3 -14   51.39    7.05
  -1  -3  13   89.31    8.91
  -1  -3  13   80.49    9.49
   1   3 -13  124.27   10.78
   1   3 -13  104.81   11.98
  -1  -3  12  301.00   18.66
  -1  -3  12  287.56   18.99
   1   3 -12  237.85   18.44
   1   3 -12  259.49   16.65
  -1  -3  11   17.27    4.59
  -1  -3  11   10.53    4.30
   1   3 -11   24.86    4.92
   1   3 -11   23.50    6.14
  -1  -3  10    2.08    2.72
  -1  -3  10    6.08    3.72
   1   3 -10    6.62    4.25
   1   3 -10    4.18    2.91
  -1  -3   9  257.40   16.80
  -1  -3   9  264.57   16.74
   1   3  -9  286.96   17.32
   1   3  -9  301.60   20.02
  -1  -3   8   23.19    4.93
  -1  -3   8   36.00    5.39
   1   3  -8   49.35    7.26
   1   3  -8   45.76    5.68
  -1  -3   7   42.12    5.80
  -1  -3   7   47.75    6.26
   1   3  -7   67.80    6.77
   1   3  -7   96.79    9.76
  -1  -3   6  286.37   17.33
  -1  -3   6  273.38   17.33
   1   3  -6  307.27   17.77
   1   3  -6  334.60   20.51
  -1  -3   5  114.58    9.33
  -1  -3   5  107.52    9.37
   1   3  -5  102.95    8.41
   1   3  -5  113.37   10.06
  -1  -3   4   12.42    3.68
  -1  -3   4    4.88    2.48
   1   3  -4   16.66    3.98
   1   3  -4   24.84    4.16
  -1  -3   3   15.50    3.75
  -1  -3   3    7.65    2.97
   1   3  -3   18.56    3.67
   1   3  -3   20.26    4.47
  -1  -3   2  327.88   18.54
  -1  -3   2  287.26   17.62
   1   3  -2  367.14   20.17
   1   3  -2  351.92   20.56
  -1  -3   1  300.25   17.78
  -1  -3   1  264.27   16.62
   1   3  -1  182.45   12.93
   1   3  -1  205.00   13.09
  -1  -3   0 1190.41   56.39
  -1  -3   0 1233.71   56.96
   1   3   0 1192.65   56.38
   1   3   0 1249.69   57.75
  -1  -3  -1 1471.10   67.05
  -1  -3  -1 1509.48   70.08
   1   3   1 1660.28   76.25
   1   3   1 1727.47   78.09
  -1  -3  -2  150.06   10.86
  -1  -3  -2  166.47   13.11
   1   3   2  148.92   10.86
   1   3   2  157.36   11.92
  -1  -3  -3  369.68   21.87
  -1  -3  -3  377.89   20.89
   1   3   3  403.57   22.78
   1   3   3  341.62   20.13
  -1  -3  -4  341.47   19.54
  -1  -3  -4  318.32   19.99
   1   3   4  341.32   20.08
   1   3   4  359.22   20.56
  -1  -3  -5  475.83   27.05
  -1  -3  -5  449.41   24.25
  -1  -3  -6  372.81   21.19
  -1  -3  -6  363.85   22.46
   1   3   6  341.17   20.35
   1   3   6  314.44   18.93
  -1  -3  -7  441.80   24.28
  -1  -3  -7  447.32   27.17
   1   3   7  407.60   23.41
   1   3   7  426.72   24.11
  -1  -3  -8  164.68   12.51
  -1  -3  -8  152.29   13.47
   1   3   8  150.36   11.94
   1   3   8  132.26   11.24
  -1  -3  -9   83.85   10.30
  -1  -3  -9   88.73    9.02
   1   3   9   80.88    8.76
   1   3   9   79.88    8.55
  -1  -3 -10  150.21   12.16
  -1  -3 -10  161.54   14.88
   1   3  10   98.47    9.83
   1   3  10  105.54   10.66
  -1  -3 -11  233.97   16.02
  -1  -3 -11  201.41   17.27
   1   3  11  225.01   15.92
   1   3  11  256.65   17.33
  -1  -3 -12  220.08   18.33
  -1  -3 -12  241.28   16.41
   1   3  12  232.92   16.75
   1   3  12  251.44   17.16
  -1  -3 -13   93.66    9.56
   1   3  13   76.01    9.15
  -1  -3 -14  140.49   12.06
  -1  -3 -14  140.14   14.07
   1   3  14  128.39   11.81
   1   3  14  121.21   11.15
  -1  -3 -15   33.68    7.50
  -1  -3 -15   23.08    5.40
   1   3  15   37.18    6.59
   1   3  15   30.55    6.22
  -1  -4  16   64.98    8.17
   1   4 -16   93.75    9.62
   1   4 -16   59.54   11.69
  -1  -4  15  118.55   10.94
  -1  -4  15  105.34   11.45
   1   4 -15  118.15   10.94
   1   4 -15   92.91   12.41
  -1  -4  14   69.70    9.25
  -1  -4  14   67.38    8.06
   1   4 -14   69.74   10.73
   1   4 -14   82.30    8.76
  -1  -4  13  407.75   23.68
   1   4 -13  396.26   23.07
  -1  -4  12   36.59    6.27
  -1  -4  12   28.88    6.27
   1   4 -12   15.05    4.57
   1   4 -12   24.37    6.54
  -1  -4  11   19.83    4.84
  -1  -4  11   20.99    5.42
   1   4 -11   15.35    5.65
   1   4 -11    5.87    3.32
  -1  -4  10  272.03   18.69
  -1  -4  10  260.98   17.20
   1   4 -10  247.70   19.01
   1   4 -10  238.15   15.65
  -1  -4   9  240.54   16.77
  -1  -4   9  222.32   15.47
   1   4  -9  229.49   17.80
   1   4  -9  220.97   14.65
  -1  -4   8  343.71   21.31
   1   4  -8  388.94   24.83
  -1  -4   7   47.84    6.92
   1   4  -7   71.59    7.31
  -1  -4   6  334.90   20.37
  -1  -4   6  382.97   22.86
   1   4  -6  404.92   24.67
   1   4  -6  384.91   21.63
  -1  -4   5  230.68   15.53
  -1  -4   5  243.52   16.68
   1   4  -5  183.94   12.67
   1   4  -5  198.28   15.01
  -1  -4   4   33.76    5.78
  -1  -4   4   27.07    5.03
   1   4  -4   53.81    6.22
   1   4  -4   51.41    7.02
  -1  -4   3  222.47   15.54
  -1  -4   3  214.85   14.49
   1   4  -3  176.48   13.49
   1   4  -3  193.95   13.16
  -1  -4   2   43.88    6.33
  -1  -4   2   45.14    6.12
   1   4  -2   48.72    6.69
   1   4  -2   58.86    6.55
  -1  -4   1  232.17   16.01
  -1  -4   1  225.45   14.66
   1   4  -1  317.72   18.87
   1   4  -1  305.93   19.44
  -1  -4   0  327.43   19.19
  -1  -4   0  337.88   20.90
   1   4   0  304.14   18.35
   1   4   0  265.76   17.71
  -1  -4  -1  749.97   37.63
  -1  -4  -1  743.40   38.61
   1   4   1  723.69   36.51
   1   4   1  739.66   39.03
  -1  -4  -2  273.67   18.41
  -1  -4  -2  269.19   16.62
   1   4   2  343.71   21.28
   1   4   2  299.36   18.41
  -1  -4  -3  214.40   15.95
  -1  -4  -3  244.12   15.56
   1   4   3  256.50   16.68
   1   4   3  230.53   16.26
  -1  -4  -4  535.26   30.37
   1   4   4  530.63   28.85
  -1  -4  -5  195.44   15.66
  -1  -4  -5  204.55   14.29
   1   4   5  183.49   14.09
   1   4   5  159.01   12.47
  -1  -4  -6  336.24   23.11
  -1  -4  -6  347.89   20.60
   1   4   6  282.19   18.66
   1   4   6  290.70   19.04
  -1  -4  -7  191.71   14.44
  -1  -4  -7  187.68   15.69
   1   4   7  161.40   13.93
   1   4   7  138.77   12.03
  -1  -4  -8   84.85   10.88
  -1  -4  -8   81.77    8.54
   1   4   8   69.62    8.34
   1   4   8   53.62    7.36
  -1  -4  -9  203.95   17.77
  -1  -4  -9  228.89   15.72
   1   4   9  190.81   14.62
   1   4   9  186.93   14.08
  -1  -4 -10  533.77   29.20
  -1  -4 -10  527.95   33.01
   1   4  10  516.75   28.52
   1   4  10  523.02   29.74
  -1  -4 -11  274.12   17.86
   1   4  11  255.46   17.68
  -1  -4 -12  185.88   17.71
  -1  -4 -12  225.30   15.83
   1   4  12  194.84   15.48
   1   4  12  210.97   15.35
  -1  -4 -13   67.01   10.85
  -1  -4 -13   81.76    9.32
   1   4  13   71.41    9.16
   1   4  13   73.53    9.01
  -1  -5  14    1.68    3.31
  -1  -5  14   -0.22    3.88
   1   5 -14    5.31    3.19
   1   5 -14    1.73    4.70
  -1  -5  13   98.62   11.23
  -1  -5  13  136.75   12.15
   1   5 -13  112.00   13.14
   1   5 -13  141.74   11.82
  -1  -5  12   23.20    5.98
  -1  -5  12   20.93    4.86
   1   5 -12   23.83    6.87
   1   5 -12   21.96    4.65
  -1  -5  11    8.05    4.31
   1   5 -11   12.46    5.65
  -1  -5  10   74.80    8.72
  -1  -5  10   57.65    8.52
   1   5 -10   78.74    8.29
   1   5 -10   59.86    9.68
  -1  -5   9   76.92    9.24
  -1  -5   9   85.69    9.39
   1   5  -9   75.38    8.12
   1   5  -9   64.78   10.14
  -1  -5   8  399.24   24.44
  -1  -5   8  401.93   24.35
   1   5  -8  428.96   27.25
   1   5  -8  357.28   21.25
  -1  -5   7  284.87   19.04
  -1  -5   7  252.77   17.78
   1   5  -7  244.72   18.48
   1   5  -7  229.49   15.33
  -1  -5   6  178.87   14.03
  -1  -5   6  166.62   13.61
   1   5  -6  152.88   13.92
   1   5  -6  140.37   11.09
  -1  -5   5   53.68    7.28
  -1  -5   5   56.21    7.63
   1   5  -5   44.39    7.35
   1   5  -5   55.14    6.59
  -1  -5   4    5.35    3.28
  -1  -5   4   10.11    4.04
   1   5  -4   -0.03    3.11
   1   5  -4   -0.20    2.20
  -1  -5   3   60.66    7.88
  -1  -5   3   62.62    8.04
   1   5  -3   86.31    8.56
   1   5  -3   87.90    9.89
  -1  -5   2   76.79    8.82
  -1  -5   2   69.96    7.81
   1   5  -2   88.48    8.70
   1   5  -2   68.25    8.79
  -1  -5   1  116.68   10.19
  -1  -5   1  143.91   13.00
   1   5  -1  141.67   11.43
   1   5  -1  147.52   13.12
  -1  -5   0  132.50   12.13
  -1  -5   0  131.90   11.05
   1   5   0  107.01    9.85
   1   5   0   94.97   10.23
  -1  -5  -1  492.11   28.89
  -1  -5  -1  482.40   26.61
   1   5   1  478.37   26.95
   1   5   1  455.08   27.25
  -1  -5  -2  371.47   21.68
  -1  -5  -2  362.51   23.23
   1   5   2  387.00   22.92
   1   5   2  438.66   26.53
  -1  -5  -3    5.15    3.88
  -1  -5  -3    8.63    3.69
   1   5   3    9.91    3.70
   1   5   3   16.21    5.35
  -1  -5  -4   91.43    8.88
  -1  -5  -4  111.80   11.97
   1   5   4   73.28    8.44
   1   5   4   66.52    8.70
  -1  -5  -5   35.97    5.96
  -1  -5  -5   40.69    7.89
   1   5   5   44.00    6.73
   1   5   5   38.97    6.96
  -1  -5  -6   68.46   11.09
  -1  -5  -6   79.91    8.65
   1   5   6  108.44   10.60
   1   5   6   99.77   10.37
  -1  -5  -7  100.08    9.88
  -1  -5  -7   97.80   12.05
   1   5   7   83.72    9.47
   1   5   7   77.92    9.40
  -1  -5  -8   15.53    5.94
  -1  -5  -8   19.14    5.15
   1   5   8   20.34    5.15
   1   5   8   18.56    5.57
  -1  -5  -9   72.52   10.89
  -1  -5  -9   74.94    8.43
   1   5   9   81.54    9.91
   1   5   9   84.64    9.47
  -1  -5 -10   61.89    7.94
  -1  -5 -10   56.00    9.66
   1   5  10   47.51    7.30
   1   5  10   53.82    7.95
  -1  -5 -11   58.80   10.18
  -1  -5 -11   56.42    7.82
   1   5  11   43.40    7.57
   1   5  11   45.37    7.25
  -1  -6  12  118.94   12.35
   1   6 -12   98.35   10.19
  -1  -6  11   42.66    7.49
  -1  -6  11   36.36    6.41
   1   6 -11   46.39    6.63
   1   6 -11   43.90    8.61
  -1  -6  10   16.17    4.92
  -1  -6  10   16.21    5.40
   1   6 -10   25.11    5.00
   1   6 -10   26.99    6.88
  -1  -6   9  469.86   27.85
  -1  -6   9  503.91   29.41
   1   6  -9  448.97   28.77
   1   6  -9  432.69   24.65
  -1  -6   8  293.83   20.11
  -1  -6   8  259.04   18.39
   1   6  -8  256.95   20.04
   1   6  -8  222.92   15.41
  -1  -6   7   49.97    7.49
   1   6  -7   55.97    8.84
  -1  -6   6  147.13   13.11
   1   6  -6  158.26   12.43
   1   6  -5  127.60   10.89
  -1  -6   4   45.63    6.83
  -1  -6   4   48.11    7.51
   1   6  -4   39.06    5.99
   1   6  -4   40.09    7.46
  -1  -6   3   44.12    7.30
  -1  -6   3   56.06    7.71
   1   6  -3   70.16    7.90
   1   6  -3   66.69    9.67
  -1  -6   2  199.62   15.72
  -1  -6   2  213.96   15.36
   1   6  -2  230.68   17.99
   1   6  -2  226.95   15.90
  -1  -6   1  448.22   27.16
  -1  -6   1  445.53   25.46
   1   6  -1  477.48   27.28
   1   6  -1  483.60   29.44
  -1  -6   0   66.99    7.83
  -1  -6   0   72.07    9.40
   1   6   0   69.28    8.55
   1   6   0   70.26    9.72
  -1  -6  -1   23.31    5.12
  -1  -6  -1   21.93    5.69
   1   6   1   15.84    5.19
   1   6   1   12.51    4.59
  -1  -6  -2  243.67   18.47
   1   6   2  215.30   15.95
  -1  -6  -3   20.62    5.88
   1   6   3   36.71    8.31
   1   6   3   36.10    6.71
  -1  -6  -4  138.93   11.40
   1   6   4  184.24   15.23
  -1  -6  -5   90.18   11.58
  -1  -6  -5   96.11    9.48
   1   6   5   89.34   10.09
   1   6   5  101.99   10.87
  -1  -6  -6    4.11    3.49
  -1  -6  -6    1.65    3.51
   1   6   6    3.63    3.23
   1   6   6    1.88    3.38
  -1  -6  -7   23.75    5.25
  -1  -6  -7   18.68    6.17
   1   6   7   22.89    5.74
   1   6   7   24.56    5.97
  -1  -6  -8   30.04    7.54
  -1  -6  -8   46.08    6.97
   1   6   8   36.18    7.11
   1   6   8   50.35    7.69
  -1  -7   7   70.65    9.12
   1   7  -7   54.17    7.09
  -1  -7   6    9.79    4.26
  -1  -7   6   16.05    4.97
   1   7  -6   11.59    4.03
   1   7  -6    9.45    4.87
  -1  -7   5  124.45   11.67
  -1  -7   5  141.52   13.23
   1   7  -5  144.70   11.91
   1   7  -5  158.11   14.92
  -1  -7   4   64.40    8.92
  -1  -7   4   59.01    7.83
   1   7  -4   44.54    6.54
   1   7  -4   69.67    9.99
  -1  -7   3  100.92   10.07
  -1  -7   3  125.45   12.46
   1   7  -3  103.16   10.15
   1   7  -3  118.43   12.89
  -1  -7   2  241.43   16.65
  -1  -7   2  233.67   17.96
   1   7  -2  244.27   17.27
   1   7  -2  242.48   18.81
  -1  -7   1  179.31   15.11
  -1  -7   1  176.33   13.52
   1   7  -1  147.03   12.75
   1   7  -1  123.85   12.65
  -1  -7   0  138.37   11.72
  -1  -7   0  114.55   12.01
   1   7   0  147.56   12.98
   1   7   0  171.25   15.53
  -1  -7  -1    7.67    3.36
  -1  -7  -1    8.59    4.34
   1   7   1   24.08    5.50
   1   7   1   14.91    5.38
  -1  -7  -2   43.51    8.21
  -1  -7  -2   66.58    8.03
   1   7   2   52.78    9.37
   1   7   2   54.65    8.17
  -1  -7  -3  107.59   12.53
  -1  -7  -3   76.44   10.25
   1   7   3  115.10   12.10
  -1  -7  -4    1.41    4.70
   1   7   4    1.48    3.94
  -2   8   8   22.83    6.41
  -2   8   7   31.64    6.92
  -2   8   7   26.11    6.76
  -2   8   6   40.58    7.31
  -2   8   6   41.73    7.93
   2  -8  -6   38.95    6.83
   2  -8  -6   24.92    7.58
  -2   8   5    9.06    4.92
  -2   8   5   12.07    4.47
   2  -8  -5   10.45    4.32
   2  -8  -5   11.06    5.29
  -2   8   4   -1.26    3.45
  -2   8   4    2.65    3.25
   2  -8  -4    6.10    4.59
   2  -8  -4    4.73    3.50
  -2   8   3   33.33    6.42
  -2   8   3   54.57    9.03
   2  -8  -3   26.41    6.81
   2  -8  -3   22.89    5.35
  -2   8   2   28.80    6.79
  -2   8   2   31.44    6.40
   2  -8  -2   26.67    5.62
   2  -8  -2   12.01    5.14
  -2   8   1   16.57    5.32
   2  -8  -1   28.40    6.98
   2  -8  -1   28.80    5.56
  -2   8   0   24.32    6.14
   2  -8   0   34.65    5.98
   2  -8   0   30.38    8.38
  -2   8  -1   66.11    9.60
   2  -8   1   88.78    9.60
   2  -8   1   74.18   11.40
  -2   8  -2   51.00    8.59
   2  -8   2   21.78    6.59
   2  -8   2   30.85    6.08
  -2   8  -3    8.36    4.83
  -2   8  -3   11.04    3.66
   2  -8   3   12.80    4.71
   2  -8   3    8.51    3.77
  -2   8  -4   16.68    4.33
  -2   8  -4   19.72    6.11
   2  -8   4   14.52    4.55
   2  -8   4   13.17    5.19
  -2   8  -5   65.32    9.96
  -2   8  -5   48.55    6.75
   2  -8   5   34.79    7.14
   2  -8   5   39.67    6.92
  -2   8  -6    7.39    4.81
  -2   8  -6   13.64    3.94
   2  -8   6   15.95    5.05
   2  -8   6   16.04    5.01
  -2   8  -7   86.18   11.78
  -2   8  -7   64.26    7.83
   2  -8   7   95.39   10.21
   2  -8   7   90.63   10.82
  -2   8  -8   77.03    8.93
  -2   8  -8   51.93    9.26
   2  -8   8   82.12   10.41
   2  -8   8   69.29    8.89
  -2   7  11   44.46    7.57
  -2   7  11   24.29    7.02
   2  -7 -11   60.75    8.80
   2  -7 -11   41.49    9.11
  -2   7  10  140.66   12.63
  -2   7  10  132.83   13.54
   2  -7 -10  121.66   14.75
   2  -7 -10  134.99   12.25
  -2   7   9   47.11    7.29
  -2   7   9   29.14    7.11
   2  -7  -9   43.13    9.36
   2  -7  -9   63.23    8.31
  -2   7   8  269.49   18.11
   2  -7  -8  262.18   17.87
  -2   7   7  105.92   11.51
   2  -7  -7  104.62   13.29
   2  -7  -7  128.38   12.44
  -2   7   6   49.24    7.68
  -2   7   6   51.57    7.71
   2  -7  -6   38.76    8.24
   2  -7  -6   38.69    6.56
  -2   7   5  169.16   13.87
  -2   7   5  138.25   12.44
   2  -7  -5  131.35   14.09
   2  -7  -5  166.32   13.00
  -2   7   4  253.22   17.92
  -2   7   4  234.86   17.47
   2  -7  -4  254.56   16.81
   2  -7  -4  263.97   20.14
  -2   7   3  133.38   12.05
  -2   7   3  147.65   13.30
   2  -7  -3  128.38   12.83
   2  -7  -3  157.51   12.28
  -2   7   2   82.48    9.85
  -2   7   2   78.49    8.80
   2  -7  -2   85.52   10.41
   2  -7  -2   94.84    9.15
  -2   7   1  374.90   24.34
  -2   7   1  360.27   22.20
   2  -7  -1  366.84   23.72
   2  -7  -1  356.54   21.35
  -2   7   0  105.99   11.50
  -2   7   0  109.10   10.23
   2  -7   0   87.64    8.89
   2  -7   0   84.64    9.75
  -2   7  -1  134.60   12.92
  -2   7  -1  120.72   10.66
   2  -7   1  108.73   11.17
   2  -7   1  122.51   10.80
  -2   7  -2  319.67   22.46
  -2   7  -2  276.36   17.90
   2  -7   2  280.99   19.77
   2  -7   2  313.84   20.86
  -2   7  -3   84.82   10.52
  -2   7  -3   61.56    7.34
   2  -7   3   62.59    8.41
   2  -7   3   76.71    8.74
  -2   7  -4  181.70   15.50
  -2   7  -4  154.68   12.08
   2  -7   4  190.96   15.30
   2  -7   4  198.87   15.09
  -2   7  -5   54.29    6.71
  -2   7  -5   67.55    9.25
   2  -7   5   67.31    8.40
   2  -7   5   77.40    9.53
  -2   7  -6   51.75    8.41
  -2   7  -6   39.04    6.05
   2  -7   6   73.73    8.94
   2  -7   6   63.13    8.45
  -2   7  -7  133.56   14.46
  -2   7  -7  149.24   11.71
   2  -7   7  188.27   15.08
   2  -7   7  158.71   13.50
  -2   7  -8  136.16   14.36
  -2   7  -8  156.17   12.31
   2  -7   8  148.94   13.56
  -2   7  -9   98.35    9.33
  -2   7  -9   90.94   11.90
   2  -7   9   74.50    9.73
   2  -7   9   80.77    9.48
  -2   7 -10  148.12   12.12
  -2   7 -10  161.10   16.96
   2  -7  10  167.67   15.63
   2  -7  10  164.83   13.32
  -2   7 -11   83.81    9.23
  -2   7 -11   52.59    9.76
   2  -7  11   64.77    9.56
   2  -7  11   73.53    8.63
  -2   7 -12   18.47    5.19
   2  -7  12   27.71    6.24
  -2   6  14   53.81    9.07
   2  -6 -14   28.44    9.30
  -2   6  13   47.23    8.20
  -2   6  13   61.45    8.62
   2  -6 -13   61.96    8.40
   2  -6 -13   53.18   10.71
  -2   6  12   83.25    9.47
  -2   6  12   60.32    8.94
   2  -6 -12   84.95    9.74
   2  -6 -12   76.83   12.48
  -2   6  11   64.28    9.14
  -2   6  11   63.65    8.14
   2  -6 -11   91.23   10.24
  -2   6  10   67.65   10.02
  -2   6  10   65.40    8.31
   2  -6 -10   68.22    8.41
   2  -6 -10   53.56   10.29
  -2   6   9   49.08    7.52
  -2   6   9   42.45    7.36
   2  -6  -9   50.42    7.06
   2  -6  -9   32.98    7.90
   2  -6  -8  183.94   13.77
   2  -6  -8  198.58   18.27
  -2   6   7   97.35    9.84
  -2   6   7  104.23   10.63
   2  -6  -7  106.11   10.37
   2  -6  -7   72.67   10.61
  -2   6   6  154.38   12.75
   2  -6  -6  209.33   14.75
   2  -6  -6  211.87   17.72
  -2   6   5  468.67   27.05
  -2   6   5  401.48   23.87
   2  -6  -5  447.17   24.87
  -2   6   4  505.85   28.25
   2  -6  -4  528.99   30.65
  -2   6   3  307.27   19.38
   2  -6  -3  281.74   19.36
   2  -6  -3  293.98   18.23
  -2   6   2   11.53    4.02
  -2   6   2    6.18    3.86
   2  -6  -2   10.02    3.56
   2  -6  -2    7.89    4.15
  -2   6   1  184.54   14.21
  -2   6   1  199.47   14.12
   2  -6  -1  208.13   14.32
   2  -6  -1  196.78   14.98
  -2   6   0  471.06   26.02
  -2   6   0  437.47   26.93
   2  -6   0  363.85   22.56
   2  -6   0  399.39   22.63
  -2   6  -1   75.49    7.93
   2  -6   1   59.66    6.92
   2  -6   1   59.68    7.85
  -2   6  -2  251.58   16.63
   2  -6   2  270.09   17.41
   2  -6   2  261.43   17.92
   2  -6   3  100.78   10.21
   2  -6   3   91.26    9.21
   2  -6   4  126.91   11.60
  -2   6  -5   67.22    9.15
   2  -6   5   86.12    9.09
  -2   6  -6   75.21    9.63
   2  -6   6   69.31    8.38
   2  -6   6   77.49    8.76
  -2   6  -7   38.18    7.38
   2  -6   7   21.46    4.98
   2  -6   7   20.14    5.10
  -2   6  -8   11.63    4.19
  -2   6  -8   13.41    5.37
   2  -6   8   11.38    3.96
   2  -6   8   20.28    5.28
  -2   6  -9   47.37    6.84
   2  -6   9   37.63    6.93
   2  -6   9   28.49    5.62
  -2   6 -10   71.37    8.34
   2  -6  10   45.27    7.47
   2  -6  10   54.20    7.51
  -2   6 -11   59.90   11.10
  -2   6 -11   51.64    7.41
   2  -6  11   33.73    7.14
  -2   6 -12   14.07    6.30
  -2   6 -12   10.13    4.09
   2  -6  12    7.01    4.25
   2  -6  12   15.36    4.79
  -2   6 -13    5.56    5.39
  -2   6 -13   13.07    4.51
   2  -6  13   15.01    4.58
   2  -6  13    9.91    4.53
  -2   6 -14   18.47    5.55
   2  -6  14   14.88    4.58
  -2   5  15    1.09    3.29
  -2   5  15    7.23    4.09
   2  -5 -15    4.31    3.76
   2  -5 -15    7.37    5.22
  -2   5  14   94.14   10.89
  -2   5  14  112.08   11.06
   2  -5 -14   98.94   10.33
   2  -5 -14   80.60   12.41
  -2   5  13   86.84   10.18
   2  -5 -13  112.86   14.55
  -2   5  12    2.68    3.37
  -2   5  12    1.71    3.60
   2  -5 -12    2.57    4.97
   2  -5 -12    4.60    3.79
  -2   5  11   44.54    7.44
  -2   5  11   42.12    6.67
   2  -5 -11   41.90    6.56
   2  -5 -11   36.55    8.49
  -2   5  10   36.85    6.43
  -2   5  10   42.88    6.41
   2  -5 -10   33.74    6.12
   2  -5 -10   34.41    7.36
  -2   5   9   30.13    5.82
   2  -5  -9   18.39    4.91
  -2   5   8   38.79    6.41
   2  -5  -8   69.50   10.05
  -2   5   7  715.47   37.04
  -2   5   7  731.60   37.21
   2  -5  -7  677.55   34.52
   2  -5  -7  698.30   38.07
  -2   5   6  177.82   13.45
   2  -5  -6  147.28   13.02
   2  -5  -6  173.64   12.37
  -2   5   5   81.97    8.24
   2  -5  -5   99.26   10.14
   2  -5  -5  103.11    8.67
  -2   5   4  369.38   21.51
  -2   5   4  344.15   20.31
   2  -5  -4  361.17   20.05
   2  -5  -4  346.39   21.29
  -2   5   3  158.11   11.67
  -2   5   3  153.03   12.16
   2  -5  -3  147.49   11.88
   2  -5  -3  137.62   10.11
  -2   5   2  116.45   10.11
  -2   5   2  121.88    9.89
   2  -5  -2  114.79    8.96
  -2   5   1  212.76   13.92
  -2   5   1  196.49   13.92
   2  -5   0  376.10   21.87
  -2   5  -1   84.73    8.42
  -2   5  -1   88.57    7.86
   2  -5   1   83.16    8.04
   2  -5   1   74.70    7.81
  -2   5  -2  334.45   20.19
  -2   5  -2  299.95   17.51
   2  -5   2  349.23   19.98
   2  -5   2  342.21   20.40
  -2   5  -3  356.99   21.43
  -2   5  -3  320.71   18.41
   2  -5   3  370.72   21.66
   2  -5   3  350.43   20.22
  -2   5  -4  162.59   12.73
  -2   5  -4  184.39   12.53
   2  -5   4  181.11   13.18
   2  -5   4  163.78   11.97
  -2   5  -5   78.33    7.54
  -2   5  -5   67.02    8.14
   2  -5   5   85.34    8.48
   2  -5   5   98.14    9.61
  -2   5  -6  159.45   11.61
  -2   5  -6  135.48   12.28
   2  -5   6  212.16   14.69
   2  -5   6  200.52   14.19
  -2   5  -7  163.64   11.88
  -2   5  -7  136.02   13.03
  -2   5  -8   64.77    7.17
  -2   5  -8   65.47    9.26
   2  -5   8   36.59    6.34
   2  -5   8   38.16    6.59
  -2   5  -9   75.61    9.81
  -2   5  -9   72.38    8.06
   2  -5   9   41.61    6.37
   2  -5   9   40.82    6.77
  -2   5 -10    9.03    3.88
  -2   5 -10   12.63    5.25
   2  -5  10    0.23    3.49
   2  -5  10    1.05    3.26
  -2   5 -11   64.11    9.92
  -2   5 -11   74.25    8.44
   2  -5  11   78.53    8.67
  -2   5 -12  148.01   15.65
  -2   5 -12  195.14   14.58
   2  -5  12  125.25   13.48
   2  -5  12  167.07   13.75
  -2   5 -13    2.67    5.12
   2  -5  13    9.30    4.23
  -2   5 -14   29.79    6.46
  -2   5 -14   10.79    6.20
   2  -5  14   19.89    5.50
   2  -5  14   23.34    5.63
  -2   5 -15   22.65    7.29
   2  -5  15   39.09    6.65
   2  -5  15   25.05    6.35
  -2   4  17   44.58    7.38
   2  -4 -17   19.13    6.73
  -2   4  16   33.80    6.87
  -2   4  16   46.30    8.11
   2  -4 -16   55.29   10.03
   2  -4 -16   51.03    7.41
  -2   4  15   35.42    6.51
   2  -4 -15   35.67    9.23
   2  -4 -15   38.36    6.72
  -2   4  14   34.97    6.45
  -2   4  14   20.59    5.27
   2  -4 -14   33.33    7.91
   2  -4 -14   35.24    6.57
  -2   4  13   39.86    6.49
  -2   4  13   49.82    7.55
   2  -4 -13   52.11    9.39
   2  -4 -13   45.00    6.95
  -2   4  12   45.45    7.00
  -2   4  12   37.74    6.23
   2  -4 -12   15.62    6.16
   2  -4 -12   23.92    5.07
  -2   4  11   66.90    8.01
   2  -4 -11   55.03    6.90
  -2   4  10   49.27    7.36
   2  -4 -10   57.20    7.28
   2  -4 -10   58.26    9.16
  -2   4   9  291.29   17.93
   2  -4  -9  324.14   19.01
   2  -4  -9  289.35   19.65
  -2   4   8   50.60    6.33
  -2   4   8   52.84    6.81
   2  -4  -8   47.69    6.12
   2  -4  -8   37.60    6.64
  -2   4   7   75.79    7.43
  -2   4   7   66.71    7.27
   2  -4  -7   94.63    8.39
  -2   4   6  432.39   23.29
  -2   4   6  427.32   23.20
   2  -4  -6  474.49   26.58
  -2   4   5   65.78    6.79
  -2   4   5   73.28    7.07
   2  -4  -5   70.58    6.75
   2  -4  -5   56.86    7.08
  -2   4   4  422.98   23.37
   2  -4  -4  404.62   21.35
  -2   4   3  270.69   16.10
  -2   4   3  308.62   17.45
   2  -4  -3  269.79   15.15
   2  -4  -3  287.71   17.44
  -2   4   2  268.00   15.15
   2  -4  -2  256.95   15.53
  -2   4   1  516.30   25.81
   2  -4  -1  559.15   28.41
  -2   4   0 1384.36   62.44
   2  -4   0 1293.88   59.53
  -2   4  -1  862.98   40.33
  -2   4  -1  792.36   38.58
   2  -4   1  807.30   38.97
  -2   4  -2  791.92   37.40
  -2   4  -2  728.17   35.89
   2  -4   2  800.13   38.89
   2  -4   2  854.18   40.27
  -2   4  -3 1136.22   53.74
   2  -4   3 1206.09   55.39
  -2   4  -4  186.93   13.18
  -2   4  -4  191.11   12.08
   2  -4   4  188.27   12.43
   2  -4   4  197.08   12.66
  -2   4  -5 1066.64   49.63
  -2   4  -5 1091.42   52.57
   2  -4   5 1163.24   54.33
   2  -4   5 1056.04   49.78
  -2   4  -6  296.97   17.19
  -2   4  -6  282.93   18.35
   2  -4   6  284.13   16.84
   2  -4   6  286.07   17.23
  -2   4  -7  218.29   15.89
  -2   4  -7  233.67   14.62
   2  -4   7  233.97   14.90
   2  -4   7  211.87   14.34
  -2   4  -8  444.93   26.25
  -2   4  -8  452.70   24.38
   2  -4   8  392.22   21.93
   2  -4   8  365.80   21.49
  -2   4  -9  185.44   15.38
  -2   4  -9  219.18   14.43
   2  -4   9  217.84   14.47
   2  -4   9  186.18   13.66
  -2   4 -10  395.21   25.56
   2  -4  10  381.77   22.78
  -2   4 -11   93.96   11.40
   2  -4  11   84.30    8.88
   2  -4  11   88.48    9.63
  -2   4 -12   99.71    9.91
  -2   4 -12   65.47   10.03
   2  -4  12   78.22    9.17
   2  -4  12  103.35    9.74
  -2   4 -13   61.83   10.11
  -2   4 -13   84.91    9.24
   2  -4  13   89.72    9.98
   2  -4  13   93.24    9.50
  -2   4 -14   78.07   11.48
  -2   4 -14   82.51   10.51
   2  -4  14   65.43    8.81
  -2   4 -15   43.73    9.20
  -2   4 -15   53.30    7.81
   2  -4  15   34.97    6.02
   2  -4  15   29.76    6.00
  -2   4 -16   49.09    7.60
  -2   4 -16   34.64    8.38
   2  -4  16   32.61    5.94
   2  -4  16   23.04    6.50
  -2   3  18   30.38    6.39
   2  -3 -18   33.71    7.31
  -2   3  17   18.25    5.05
  -2   3  17    9.90    4.37
   2  -3 -17   17.71    4.96
   2  -3 -17   17.57    5.85
  -2   3  16  111.77   10.89
   2  -3 -16   86.28    9.34
  -2   3  15   96.09   10.04
  -2   3  15  125.87   11.82
   2  -3 -15  136.54   11.55
   2  -3 -15  117.34   12.39
  -2   3  14   42.63    6.61
  -2   3  14   32.59    6.14
   2  -3 -14   35.50    6.98
   2  -3 -14   51.23    6.77
  -2   3  13  295.77   19.31
  -2   3  13  299.51   19.08
   2  -3 -13  262.18   18.98
   2  -3 -13  304.14   19.01
  -2   3  12   72.47    8.58
   2  -3 -12   48.87    6.89
   2  -3 -12   46.06    7.65
  -2   3  11    9.47    3.63
  -2   3  11    9.17    3.56
   2  -3 -11   -2.60    2.91
   2  -3 -11    0.79    3.10
  -2   3  10   59.86    7.08
  -2   3  10   59.77    7.15
   2  -3 -10   52.53    6.28
  -2   3   9   65.77    7.21
  -2   3   9   62.53    6.91
   2  -3  -9   58.17    7.15
   2  -3  -9   44.18    6.17
  -2   3   8  148.92   10.74
  -2   3   8  134.69   10.27
   2  -3  -8  147.31   11.53
   2  -3  -8  153.03   10.77
  -2   3   7   78.64    7.03
   2  -3  -7  136.10    9.62
   2  -3  -7  134.63   10.57
  -2   3   6  504.80   25.64
  -2   3   6  540.94   26.90
   2  -3  -6  514.36   26.80
   2  -3  -6  461.20   23.90
  -2   3   5  104.71    7.86
  -2   3   5  112.53    8.08
   2  -3  -5   88.46    7.66
   2  -3  -5   82.57    6.53
  -2   3   4   30.68    3.98
  -2   3   4   35.47    4.22
   2  -3  -4   48.02    4.59
   2  -3  -4   51.75    5.44
  -2   3   3  149.18    9.34
  -2   3   3  159.16    9.86
   2  -3  -3  142.34    9.36
   2  -3  -3  141.81    8.57
  -2   3   2  512.12   24.29
  -2   3   2  538.55   25.92
   2  -3  -2  405.07   19.63
   2  -3  -2  450.46   22.34
  -2   3   1  407.60   19.84
  -2   3   1  424.18   20.99
   2  -3  -1  342.06   16.93
   2  -3  -1  372.81   19.07
  -2   3   0  666.65   30.74
  -2   3   0  745.79   35.04
   2  -3   0  700.54   32.22
   2  -3   0  718.76   33.50
  -2   3  -1  931.67   42.88
  -2   3  -1  902.25   40.81
   2  -3   1  866.72   39.40
   2  -3   1  931.97   42.76
  -2   3  -2  194.84   11.85
  -2   3  -2  202.01   11.37
   2  -3   2  242.92   13.69
   2  -3   2  223.21   12.41
  -2   3  -3 1235.06   55.45
  -2   3  -3 1211.17   55.51
   2  -3   3 1244.47   56.20
   2  -3   3 1196.68   54.03
  -2   3  -4  115.94    8.10
   2  -3   4  112.88    8.10
  -2   3  -5  349.38   18.63
  -2   3  -5  341.91   19.47
   2  -3   5  262.92   15.09
  -2   3  -6  952.72   44.54
  -2   3  -6  905.24   44.09
   2  -3   6  784.90   37.42
   2  -3   6  822.23   39.34
  -2   3  -7  345.80   20.56
  -2   3  -7  331.61   18.57
   2  -3   7  331.16   18.81
   2  -3   7  335.05   18.63
  -2   3  -8  430.30   23.96
  -2   3  -8  425.37   24.71
   2  -3   8  376.55   20.68
   2  -3   8  384.31   21.56
  -2   3  -9   80.19    9.09
  -2   3  -9   92.57    8.66
   2  -3   9   86.45    8.29
   2  -3   9   74.31    7.99
  -2   3 -10  391.78   22.62
  -2   3 -10  355.49   22.25
   2  -3  10  361.32   21.37
   2  -3  10  391.18   22.14
  -2   3 -11   78.58    9.53
   2  -3  11   72.82    8.17
  -2   3 -12  158.11   14.09
  -2   3 -12  166.47   13.11
   2  -3  12  143.56   12.19
   2  -3  12  156.92   11.99
  -2   3 -13  141.68   12.02
  -2   3 -13  120.91   12.83
   2  -3  13   99.98    9.43
   2  -3  13   90.88    9.88
  -2   3 -14   -1.95    2.96
  -2   3 -14   -1.78    4.06
   2  -3  14   -0.42    3.17
   2  -3  14    4.75    3.71
  -2   3 -15   54.41    9.56
   2  -3  15   48.09    7.38
   2  -3  15   45.45    8.09
  -2   3 -16   10.14    3.95
  -2   3 -16   12.34    6.14
   2  -3  16   13.22    4.40
   2  -3  16    5.58    3.65
  -2   3 -17   10.00    3.76
   2  -3  17   10.23    4.01
  -2   2  18   45.70    7.41
  -2   2  18   39.63    6.88
   2  -2 -18   27.34    6.18
   2  -2 -18   29.05    5.86
  -2   2  17   88.27    9.88
  -2   2  17   93.60    9.90
   2  -2 -17   62.34    8.78
   2  -2 -17   86.72    9.86
  -2   2  16   64.56    8.28
   2  -2 -16   41.16    7.15
   2  -2 -16   52.42    8.11
  -2   2  15  201.86   15.21
  -2   2  15  194.10   15.04
   2  -2 -15  203.21   14.73
   2  -2 -15  201.26   15.21
  -2   2  14  374.16   22.40
   2  -2 -14  315.78   20.23
   2  -2 -14  339.08   20.42
  -2   2  13  179.61   13.08
   2  -2 -13  161.25   12.01
  -2   2  12   67.99    7.73
  -2   2  12   77.10    8.27
   2  -2 -12   68.52    7.90
  -2   2  11   58.53    6.98
  -2   2  11   44.16    6.29
   2  -2 -11   36.88    5.72
   2  -2 -11   37.82    5.37
  -2   2  10  271.14   17.13
  -2   2  10  281.29   17.08
   2  -2 -10  289.65   16.86
   2  -2 -10  282.19   17.30
  -2   2   9  114.83    9.06
  -2   2   9  125.79    9.75
   2  -2  -9   98.94    8.08
   2  -2  -9   80.61    7.80
  -2   2   8  808.19   38.52
   2  -2  -8  718.16   34.31
  -2   2   7  598.86   29.55
   2  -2  -7  546.46   27.29
  -2   2   6  460.45   22.89
  -2   2   6  488.83   24.16
   2  -2  -6  444.64   22.43
   2  -2  -6  477.63   23.25
  -2   2   5   76.79    5.78
  -2   2   5   86.70    6.31
  -2   2   4   68.58    4.97
  -2   2   4   74.74    5.33
   2  -2  -4   86.00    5.71
   2  -2  -4   72.25    5.38
  -2   2   3  770.41   34.28
  -2   2   3  724.58   32.34
  -2   2   2   62.81    4.21
  -2   2   2   62.63    4.11
   2  -2  -2   63.25    3.92
   2  -2  -2   53.38    3.73
  -2   2   1  441.50   19.78
  -2   2   1  450.76   20.42
   2  -2  -1  436.12   19.66
   2  -2  -1  448.37   19.99
  -2   2   0 2279.89   97.41
  -2   2   0 2112.67   90.64
   2  -2   0 2166.43   92.78
   2  -2   0 2132.09   91.20
  -2   2  -1  276.51   13.59
  -2   2  -1  302.05   14.31
  -2   2  -2  187.38   10.39
  -2   2  -2  215.00   11.17
  -2   2  -3 2748.72  119.19
  -2   2  -3 2860.70  123.21
   2  -2   3 2602.40  112.47
   2  -2   3 2665.11  115.00
  -2   2  -4  785.35   36.67
   2  -2   4  870.15   39.79
   2  -2   4  847.01   39.03
  -2   2  -5   53.50    5.33
   2  -2   5   59.33    5.88
   2  -2   5   67.78    5.91
  -2   2  -6 1646.84   74.04
   2  -2   6 1703.58   76.16
  -2   2  -7 1175.48   55.26
  -2   2  -7 1134.87   52.90
   2  -2   7 1127.11   52.24
   2  -2   7 1041.56   48.76
  -2   2  -8  242.33   15.53
  -2   2  -8  264.72   16.27
   2  -2   8  254.56   15.18
   2  -2   8  249.64   15.33
  -2   2  -9  223.36   14.81
  -2   2  -9  242.33   15.50
   2  -2   9  226.80   14.36
   2  -2   9  210.67   13.99
  -2   2 -10  971.98   48.35
  -2   2 -10  997.21   48.08
   2  -2  10  903.00   44.10
   2  -2  10  948.24   45.75
  -2   2 -11  606.03   31.92
   2  -2  11  619.47   32.03
  -2   2 -12  301.15   19.80
  -2   2 -12  242.92   16.69
   2  -2  12  283.08   17.84
   2  -2  12  273.23   17.60
  -2   2 -13  243.67   16.59
  -2   2 -13  220.82   16.11
   2  -2  13  236.50   16.26
   2  -2  13  234.56   15.78
  -2   2 -14   15.36    4.16
  -2   2 -14   15.89    5.46
   2  -2  14   24.47    5.74
   2  -2  14   30.82    5.65
  -2   2 -15  102.10   11.34
  -2   2 -15   98.32   11.30
   2  -2  15   88.43    9.92
   2  -2  15  114.88   11.12
  -2   2 -16   26.95    6.68
  -2   2 -16   10.97    4.18
   2  -2  16   24.02    5.32
   2  -2  16   16.56    5.14
  -2   2 -17  132.80   11.95
  -2   2 -17   96.51   11.57
   2  -2  17  137.53   11.69
   2  -2  17  113.97   10.91
  -2   1  19   58.18    8.46
   2  -1 -19   34.13    6.81
  -2   1  18   50.18    7.71
  -2   1  18   52.88    7.74
   2  -1 -18   48.27    8.08
   2  -1 -18   45.73    7.29
  -2   1  17  189.62   14.91
   2  -1 -17  165.73   15.18
   2  -1 -17  177.22   14.68
  -2   1  16   93.58   10.15
  -2   1  16   90.72   10.22
   2  -1 -16   79.71    9.49
   2  -1 -16   83.67   10.11
  -2   1  15  343.56   21.25
  -2   1  15  354.89   22.28
   2  -1 -15  323.70   20.51
   2  -1 -15  307.72   20.42
  -2   1  14  873.58   43.61
  -2   1  14  880.60   44.00
   2  -1 -14  870.90   43.87
  -2   1  13    4.10    3.31
  -2   1  13    2.56    3.35
   2  -1 -13   -3.03    3.11
  -2   1  12  557.20   29.46
  -2   1  12  587.22   30.80
   2  -1 -12  554.23   29.26
   2  -1 -12  533.17   28.65
  -2   1  11  442.10   24.22
  -2   1  11  425.82   23.28
   2  -1 -11  430.90   23.78
   2  -1 -11  409.70   22.86
  -2   1  10  554.68   28.47
  -2   1  10  536.31   27.62
   2  -1 -10  547.51   28.10
   2  -1 -10  565.12   29.14
  -2   1   9 1158.77   53.48
  -2   1   9 1270.44   58.41
   2  -1  -9 1213.86   55.78
   2  -1  -9 1202.95   55.66
  -2   1   8  455.38   23.23
  -2   1   8  448.67   23.20
   2  -1  -8  335.49   18.11
  -2   1   7 1708.06   75.91
  -2   1   7 1727.47   76.43
   2  -1  -7 1630.42   72.38
   2  -1  -7 1764.80   78.30
  -2   1   6  715.77   33.30
  -2   1   6  749.07   34.74
   2  -1  -6  766.08   35.39
   2  -1  -6  843.73   38.89
  -2   1   5 1094.56   48.63
  -2   1   5 1251.78   55.36
   2  -1  -5 1197.43   53.27
   2  -1  -5 1196.83   53.02
  -2   1   4  417.61   19.45
  -2   1   4  389.54   18.33
   2  -1  -4  423.13   19.77
   2  -1  -4  407.75   19.19
  -2   1   3 1092.62   47.40
  -2   1   3 1051.41   45.63
   2  -1  -3 1166.82   50.64
   2  -1  -3 1256.71   54.38
   2  -1  -2 1630.42   69.52
   2  -1  -2 1494.55   63.86
  -2   1   0  303.54   13.66
  -2   1   0  352.37   15.68
   2  -1   0  288.01   12.83
   2  -1   0  251.44   11.25
  -2   1  -1  494.35   22.19
  -2   1  -1  480.16   21.71
   2  -1   1  410.44   18.66
   2  -1   1  405.07   18.33
  -2   1  -2  373.71   17.84
  -2   1  -2  396.41   18.60
   2  -1   2  423.43   19.87
   2  -1   2  405.07   18.96
  -2   1  -3  166.32    9.48
  -2   1  -3  150.21    8.83
   2  -1   3  171.40    9.65
   2  -1   3  161.84    9.17
  -2   1  -4 1249.69   55.84
  -2   1  -4 1175.78   52.84
   2  -1   4 1283.88   57.29
   2  -1   4 1343.75   59.78
  -2   1  -5  791.47   37.24
  -2   1  -5  838.80   39.09
   2  -1   5  884.93   40.82
  -2   1  -6   73.70    6.87
  -2   1  -6   76.98    6.71
   2  -1   6   40.54    5.02
  -2   1  -7  153.03   10.79
  -2   1  -7  180.21   11.71
   2  -1   7  170.65   11.37
   2  -1   7  169.01   11.43
  -2   1  -8  222.32   14.56
  -2   1  -8  202.61   13.10
   2  -1   8  233.22   14.69
   2  -1   8  211.87   13.49
  -2   1  -9  215.30   14.22
  -2   1  -9  206.04   13.52
   2  -1   9  255.61   16.07
   2  -1   9  230.53   14.71
  -2   1 -10  399.54   22.41
  -2   1 -10  429.26   23.93
   2  -1  10  437.47   24.43
   2  -1  10  436.42   24.16
  -2   1 -11  261.43   17.10
   2  -1  11  252.33   16.36
  -2   1 -12   64.72    8.32
  -2   1 -12   66.72    8.06
   2  -1  12   69.98    8.29
   2  -1  12   65.92    7.90
  -2   1 -13  398.94   23.46
  -2   1 -13  369.83   22.60
   2  -1  13  434.03   25.05
   2  -1  13  374.46   22.22
  -2   1 -14  227.99   16.32
  -2   1 -14  232.77   16.33
   2  -1  14  217.39   15.38
   2  -1  14  240.98   16.92
  -2   1 -15   12.02    4.48
  -2   1 -15    5.71    4.19
   2  -1  15    9.79    4.82
   2  -1  15   14.03    4.66
  -2   1 -16   39.10    6.63
  -2   1 -16   52.26    7.87
   2  -1  16   52.00    7.40
   2  -1  16   44.03    7.13
  -2   1 -17   17.45    5.09
  -2   1 -17   22.01    5.89
   2  -1  17   16.32    4.78
   2  -1  17   18.47    5.09
  -2   0  19   16.92    5.25
   2   0 -19   21.29    5.44
  -2   0  18   42.63    7.14
  -2   0  18   19.96    5.56
   2   0 -18   30.76    7.41
   2   0 -18   24.52    5.76
  -2   0  17   56.81    8.07
   2   0 -17   60.78    8.67
   2   0 -17   57.20    8.82
  -2   0  16  101.63   10.11
  -2   0  16  100.23   10.52
   2   0 -16   86.48   10.72
  -2   0  15   61.35    8.01
  -2   0  15   45.43    7.22
   2   0 -15   33.58    6.98
   2   0 -15   47.57    7.28
  -2   0  14  153.63   12.47
  -2   0  14  167.37   12.86
   2   0 -14  181.11   13.97
   2   0 -14  180.81   14.35
  -2   0  13  138.35   11.39
  -2   0  13  162.74   13.09
   2   0 -13  111.31   10.85
   2   0 -13  139.04   11.89
  -2   0  12  254.26   16.02
  -2   0  12  272.03   17.19
   2   0 -12  312.65   19.20
   2   0 -12  262.77   17.44
  -2   0  11  140.87   10.96
  -2   0  11  163.49   11.59
   2   0 -11  226.50   15.21
   2   0 -11  176.33   13.11
  -2   0  10   88.82    7.99
  -2   0  10   63.05    6.87
   2   0 -10   50.35    6.40
   2   0 -10   49.67    6.44
  -2   0   9  584.08   29.28
  -2   0   9  573.93   28.94
   2   0  -9  548.40   28.61
   2   0  -9  601.40   30.38
  -2   0   8  131.42    9.73
   2   0  -8  107.92    9.01
  -2   0   7  883.59   40.95
   2   0  -7  797.74   37.36
  -2   0   6  342.81   17.86
  -2   0   6  385.80   19.62
   2   0  -6  348.48   18.83
   2   0  -6  359.08   18.36
  -2   0   5  943.17   42.81
  -2   0   5  916.14   41.60
   2   0  -5  927.94   41.90
   2   0  -5  904.94   41.82
  -2   0   4  291.14   14.74
  -2   0   4  321.61   16.24
   2   0  -4  367.89   18.50
   2   0  -4  408.65   19.66
  -2   0   3 1651.32   72.14
  -2   0   3 1657.30   71.97
   2   0  -3 1754.35   75.98
   2   0  -3 1812.57   79.04
  -2   0   2 3556.46  151.84
  -2   0   2 3937.19  168.41
   2   0  -2 3486.28  148.83
   2   0  -2 3422.08  146.59
  -2   0   1 4214.90  180.36
  -2   0   1 3717.71  158.56
   2   0  -1 3883.44  166.02
   2   0  -1 4022.29  171.55
  -2   0   0 1351.97   58.84
  -2   0   0 1342.56   59.14
   2   0   0 1542.33   67.43
   2   0   0 1466.48   63.78
  -2   0  -1 1053.36   46.52
  -2   0  -1 1173.24   52.70
   2   0   1  946.00   42.16
   2   0   1  921.81   41.34
  -2   0  -2  121.42    8.27
  -2   0  -2  125.33    7.72
   2   0   2  158.11    9.32
   2   0   2  165.13    9.37
   2   0   3   66.96    5.48
   2   0   3   74.44    5.94
  -2   0  -4   22.28    3.66
  -2   0  -4   21.53    3.64
   2   0   4    9.26    2.75
   2   0   4    3.51    2.17
   2   0   5  632.61   31.40
   2   0   5  533.17   26.46
  -2   0  -6  312.80   17.36
  -2   0  -6  279.95   16.44
   2   0   6  299.51   17.04
   2   0   6  343.85   19.08
  -2   0  -7   42.73    5.78
  -2   0  -7   34.24    4.75
   2   0   7   66.29    6.77
   2   0   7   60.53    6.57
  -2   0  -8   72.07    7.50
  -2   0  -8   72.74    7.57
   2   0   8   74.40    7.97
   2   0   8   66.40    7.23
  -2   0  -9   -4.34    2.61
  -2   0  -9    1.19    2.85
   2   0   9    3.04    2.87
   2   0   9   11.58    3.86
  -2   0 -10   21.80    4.56
  -2   0 -10   18.05    4.56
   2   0  10   12.74    4.32
   2   0  10   24.53    5.02
  -2   0 -11  359.97   21.04
   2   0  11  344.75   20.74
  -2   0 -12  240.24   16.13
  -2   0 -12  208.43   15.17
   2   0  12  215.60   15.86
   2   0  12  215.90   15.35
  -2   0 -13   18.33    5.03
  -2   0 -13   32.21    5.93
   2   0  13   17.20    4.74
   2   0  13   18.26    5.18
  -2   0 -14  247.40   16.81
  -2   0 -14  239.34   17.16
   2   0  14  283.53   18.95
   2   0  14  278.00   18.35
  -2   0 -15   17.20    4.72
  -2   0 -15   11.59    4.92
   2   0  15   26.55    5.46
   2   0  15   21.86    5.32
  -2   0 -16   26.13    5.91
  -2   0 -16   29.10    6.34
   2   0  16   47.31    7.36
   2   0  16   45.48    6.79
  -2   0 -17   47.00    7.48
   2   0  17   60.54    7.94
  -2  -1  18    2.93    3.58
   2   1 -18    3.17    4.74
   2   1 -18    5.96    3.92
  -2  -1  17   -1.24    3.07
  -2  -1  17    4.26    3.68
   2   1 -17    4.98    3.80
   2   1 -17   -6.51    4.36
  -2  -1  16   35.15    6.00
   2   1 -16   55.91    8.26
  -2  -1  15   36.65    6.04
  -2  -1  15   35.03    6.45
   2   1 -15   52.88    7.72
   2   1 -15   47.06    8.47
  -2  -1  14   77.80    8.40
  -2  -1  14   69.59    8.45
   2   1 -14   59.75    7.89
   2   1 -14   44.96    8.01
  -2  -1  13   80.12    9.38
  -2  -1  13   70.10    8.25
  -2  -1  12   66.81    7.26
   2   1 -12  110.04   10.08
  -2  -1  11  121.12   10.34
  -2  -1  11  118.15    9.66
   2   1 -11  142.38   11.07
   2   1 -11  119.22   11.38
  -2  -1  10  217.54   14.52
  -2  -1  10  228.89   14.39
   2   1 -10  237.40   14.83
   2   1 -10  222.32   15.99
  -2  -1   9  380.43   21.14
  -2  -1   9  438.22   23.53
   2   1  -9  359.67   19.81
   2   1  -9  355.19   21.34
  -2  -1   8  346.09   19.22
  -2  -1   8  362.06   19.95
   2   1  -8  414.17   22.07
   2   1  -8  457.32   25.49
  -2  -1   7   49.09    5.49
  -2  -1   7   49.81    5.79
   2   1  -7   35.74    4.62
   2   1  -7   38.70    5.59
  -2  -1   6  444.34   23.13
  -2  -1   6  499.73   25.25
   2   1  -6  464.34   23.37
   2   1  -6  484.20   25.62
  -2  -1   5  339.52   18.59
   2   1  -5  400.44   20.37
  -2  -1   4  398.79   20.41
  -2  -1   4  419.55   21.83
   2   1  -4  354.89   18.19
   2   1  -4  325.34   17.87
  -2  -1   3  152.29    9.97
  -2  -1   3  166.32   10.18
   2   1  -3  158.56    9.59
   2   1  -3  161.84   10.45
  -2  -1   2 1174.14   52.82
  -2  -1   2 1152.20   52.59
   2   1  -2 1133.23   50.90
   2   1  -2 1128.01   51.48
  -2  -1   1 1787.19   78.55
  -2  -1   1 1712.54   76.18
   2   1  -1 1779.72   78.98
   2   1  -1 1709.55   75.21
  -2  -1   0  569.45   27.20
  -2  -1   0  596.03   29.08
   2   1   0  513.91   24.81
   2   1   0  555.41   27.37
  -2  -1  -1  823.12   38.97
  -2  -1  -1  756.39   35.16
   2   1   1  741.46   34.64
   2   1   1  772.50   36.68
  -2  -1  -2  597.07   29.67
  -2  -1  -2  497.93   24.80
   2   1   2  526.16   25.83
   2   1   2  513.91   25.80
  -2  -1  -3  489.42   24.64
  -2  -1  -3  490.17   25.43
   2   1   3  482.85   24.26
  -2  -1  -4  123.40    9.07
   2   1   4  119.28    9.04
  -2  -1  -5  775.94   37.30
  -2  -1  -5  812.52   40.22
   2   1   5  747.88   36.31
   2   1   5  702.33   34.34
  -2  -1  -6   81.25    7.47
  -2  -1  -6   72.41    7.72
   2   1   6   90.64    8.07
   2   1   6   95.62    8.30
  -2  -1  -7   39.85    6.11
  -2  -1  -7   45.72    6.20
   2   1   7   80.82    7.80
   2   1   7   81.66    7.86
  -2  -1  -8  394.61   22.05
  -2  -1  -8  344.15   20.96
   2   1   8  342.21   19.98
   2   1   8  367.89   21.66
  -2  -1  -9  215.45   14.60
  -2  -1  -9  189.92   14.14
   2   1   9  200.37   14.10
   2   1   9  214.25   14.69
   2   1  10  622.31   32.59
  -2  -1 -11  108.43    9.95
  -2  -1 -11   90.29   10.90
   2   1  11   69.76    8.06
   2   1  11   60.19    7.76
  -2  -1 -12  157.21   12.53
  -2  -1 -12  138.74   12.78
   2   1  12  173.19   13.79
   2   1  12  193.80   14.41
  -2  -1 -13   26.86    5.54
  -2  -1 -13   24.13    5.99
   2   1  13   20.65    5.10
   2   1  13   23.59    5.43
  -2  -1 -14   90.24    9.26
   2   1  14   93.08    9.87
  -2  -1 -15  129.99   11.21
  -2  -1 -15  123.48   12.32
   2   1  15  127.93   11.40
   2   1  15  160.50   13.43
  -2  -1 -16   19.35    4.97
  -2  -1 -16    8.44    4.19
   2   1  16   19.36    5.32
   2   1  16   15.81    4.74
  -2  -2  18   15.47    4.48
   2   2 -18   15.06    5.00
  -2  -2  17   66.13    8.61
  -2  -2  17   60.75    8.74
   2   2 -17   83.52    9.62
   2   2 -17   74.49   11.44
  -2  -2  16   37.12    6.63
  -2  -2  16   40.88    7.28
   2   2 -16   38.16    8.08
   2   2 -16   32.77    6.45
  -2  -2  15   15.11    4.46
  -2  -2  15   12.43    4.86
   2   2 -15   19.13    6.63
   2   2 -15   24.75    5.69
  -2  -2  14   61.25    7.57
  -2  -2  14   53.76    7.79
   2   2 -14   71.46   10.23
  -2  -2  13   42.37    6.26
  -2  -2  13   37.86    6.60
   2   2 -13   61.60    9.02
   2   2 -13   60.77    7.65
  -2  -2  12   50.91    6.70
  -2  -2  12   36.73    6.11
   2   2 -12   22.35    6.15
   2   2 -12   25.23    5.09
  -2  -2  11  583.04   30.49
  -2  -2  11  546.16   29.70
   2   2 -11  562.88   29.61
  -2  -2  10  292.79   18.27
  -2  -2  10  289.05   17.60
   2   2 -10  312.95   20.68
   2   2 -10  258.29   16.13
  -2  -2   9  262.18   16.41
  -2  -2   9  252.18   16.32
   2   2  -9  232.17   16.92
   2   2  -9  206.49   13.51
  -2  -2   8 1275.96   59.71
  -2  -2   8 1097.40   52.17
   2   2  -8 1232.97   59.51
   2   2  -8 1109.04   51.70
  -2  -2   7  231.87   15.05
  -2  -2   7  266.66   16.41
   2   2  -7  239.64   16.33
   2   2  -7  228.74   13.99
  -2  -2   6  177.37   12.57
  -2  -2   6  163.49   11.60
   2   2  -6  171.10   11.22
   2   2  -6  172.74   12.83
  -2  -2   5  725.33   36.18
  -2  -2   5  704.27   34.59
   2   2  -5  725.93   34.97
   2   2  -5  778.33   38.92
  -2  -2   4 1899.17   85.76
  -2  -2   4 1737.92   78.07
   2   2  -4 1714.03   78.24
   2   2  -4 1779.72   79.51
  -2  -2   3 1510.97   68.41
   2   2  -3 1389.59   63.11
   2   2  -3 1428.11   65.83
  -2  -2   2 1285.67   58.81
   2   2  -2 1136.22   53.41
  -2  -2   1 2581.49  113.43
   2   2  -1 2508.33  111.20
  -2  -2   0 1008.11   47.06
   2   2   0  893.89   42.60
   2   2   0  938.24   44.99
  -2  -2  -1 1873.78   84.94
  -2  -2  -1 1809.58   80.91
   2   2   1 1715.52   77.95
   2   2   1 1752.85   78.62
  -2  -2  -2 1730.45   79.15
  -2  -2  -2 1728.96   77.74
   2   2   2 1866.33   84.67
   2   2   2 1846.91   83.24
  -2  -2  -3  530.19   27.17
  -2  -2  -3  519.14   28.08
   2   2   3  628.88   32.24
   2   2   3  537.35   28.19
  -2  -2  -4  123.30    9.58
  -2  -2  -4  124.48   10.67
   2   2   4  134.21   10.44
   2   2   4  157.51   11.24
  -2  -2  -5  390.73   23.26
  -2  -2  -5  434.33   23.72
   2   2   5  405.51   22.56
   2   2   5  390.43   22.05
  -2  -2  -6 1113.37   54.57
  -2  -2  -6 1055.30   50.23
   2   2   6 1079.33   51.51
   2   2   6 1020.06   49.00
  -2  -2  -7  173.79   12.54
  -2  -2  -7  177.52   14.08
   2   2   7  122.81   10.25
   2   2   7  138.47   11.16
  -2  -2  -8  295.62   19.96
   2   2   8  262.33   17.02
  -2  -2  -9  359.37   24.05
  -2  -2  -9  402.68   23.05
   2   2   9  335.19   20.47
   2   2   9  344.15   20.63
  -2  -2 -10   22.35    5.32
  -2  -2 -10   29.22    6.59
   2   2  10   23.71    5.21
   2   2  10   24.73    5.87
  -2  -2 -11    0.35    3.42
  -2  -2 -11    3.83    3.80
   2   2  11    5.29    3.25
   2   2  11    9.26    4.54
  -2  -2 -12   86.15    9.19
  -2  -2 -12   74.13   10.08
   2   2  12  111.16   10.58
   2   2  12   91.64    9.72
  -2  -2 -13   46.46    6.99
   2   2  13   60.42    8.18
  -2  -2 -14   21.60    6.37
  -2  -2 -14   14.02    4.71
   2   2  14   13.16    4.37
   2   2  14    8.35    3.82
  -2  -2 -15   89.20   11.72
  -2  -2 -15   79.43    9.34
   2   2  15   76.91    9.22
   2   2  15   68.20    8.72
  -2  -3  17   61.36    7.84
   2   3 -17   87.13    9.80
  -2  -3  16   41.72    6.64
  -2  -3  16   30.44    6.97
   2   3 -16   33.92    7.99
  -2  -3  15  114.83   12.08
  -2  -3  15  140.25   11.86
   2   3 -15  136.63   11.78
   2   3 -15  147.70   15.26
  -2  -3  14   37.80    6.16
   2   3 -14   42.06    6.34
  -2  -3  13  127.96   11.03
  -2  -3  13  129.73   12.02
   2   3 -13   93.15   11.43
   2   3 -13   99.95    9.76
  -2  -3  12  292.94   18.56
  -2  -3  12  269.05   18.48
   2   3 -12  303.54   18.86
   2   3 -12  298.31   21.26
  -2  -3  11   28.53    5.88
  -2  -3  11   24.34    4.86
   2   3 -11    8.59    4.68
   2   3 -11   11.96    3.93
  -2  -3  10  238.00   16.47
  -2  -3  10  204.10   14.61
   2   3 -10  220.68   17.10
   2   3 -10  195.29   13.64
  -2  -3   9   40.06    6.45
  -2  -3   9   51.75    6.84
   2   3  -9   27.43    6.45
   2   3  -9   23.25    4.62
  -2  -3   8  132.45   11.31
  -2  -3   8  145.62   11.77
   2   3  -8  135.48   10.53
   2   3  -8  118.00   11.47
  -2  -3   7  687.10   35.65
  -2  -3   7  684.71   35.33
   2   3  -7  822.68   42.58
   2   3  -7  770.56   38.09
  -2  -3   6  116.70   10.21
  -2  -3   6  126.99   10.82
   2   3  -6  163.64   11.50
   2   3  -6  185.14   14.50
  -2  -3   5  488.97   26.64
  -2  -3   5  480.91   26.93
   2   3  -5  542.58   28.04
   2   3  -5  524.81   29.16
  -2  -3   4  257.40   16.96
  -2  -3   4  260.68   16.44
   2   3  -4  260.83   17.45
   2   3  -4  234.41   14.69
  -2  -3   3  146.74   11.68
  -2  -3   3  155.57   11.44
   2   3  -3  116.09   10.92
   2   3  -3  114.34    9.16
  -2  -3   2  177.97   12.40
  -2  -3   2  169.31   12.78
   2   3  -2  143.96   10.82
   2   3  -2  129.72   10.93
  -2  -3   1  134.60   10.34
  -2  -3   1  136.26   11.30
   2   3  -1  120.22   10.32
   2   3  -1  131.44   10.12
  -2  -3   0   90.45    8.15
  -2  -3   0   91.11    8.84
   2   3   0  145.29   10.75
   2   3   0  122.27   10.55
  -2  -3  -1  488.23   26.07
  -2  -3  -1  459.71   26.22
   2   3   1  512.72   27.17
   2   3   1  522.42   28.62
  -2  -3  -2  485.54   25.89
  -2  -3  -2  495.25   28.01
   2   3   2  550.94   29.04
   2   3   2  554.38   29.97
  -2  -3  -3  173.49   13.65
  -2  -3  -3  190.36   13.04
   2   3   3  250.84   16.07
   2   3   3  232.32   15.87
  -2  -3  -4  514.51   27.38
  -2  -3  -4  533.47   30.04
   2   3   4  482.85   26.82
   2   3   4  583.93   30.80
  -2  -3  -5   61.10    8.45
   2   3   5   46.82    6.34
  -2  -3  -6  149.18   11.71
  -2  -3  -6  125.93   12.48
   2   3   6  118.33   10.54
   2   3   6  110.16   10.26
  -2  -3  -7   48.00    6.70
  -2  -3  -7   53.63    8.26
   2   3   7   48.24    6.86
   2   3   7   62.19    7.74
  -2  -3  -8   56.54    7.54
  -2  -3  -8   49.08    8.41
   2   3   8   63.95    7.93
   2   3   8   55.39    7.49
  -2  -3  -9   59.80    9.45
  -2  -3  -9   75.32    8.49
   2   3   9   46.20    6.78
   2   3   9   72.67    8.52
  -2  -3 -10   57.17    9.70
  -2  -3 -10   60.29    8.02
   2   3  10   83.84    9.49
   2   3  10   73.29    8.54
  -2  -3 -11   83.12   11.49
   2   3  11  108.10   10.75
  -2  -3 -12   80.85    9.26
  -2  -3 -12   87.42   11.75
   2   3  12   86.84    9.82
   2   3  12   70.99    8.83
  -2  -3 -13  100.69   12.87
  -2  -3 -13  128.53   12.42
   2   3  13  138.19   12.05
   2   3  13  125.42   11.84
  -2  -3 -14    1.04    3.70
   2   3  14    4.14    3.06
  -2  -4  15   96.33   11.61
  -2  -4  15  106.83   10.40
   2   4 -15   79.62   11.63
   2   4 -15   94.23    9.39
  -2  -4  14    2.13    3.67
  -2  -4  14    3.40    3.21
   2   4 -14    0.37    3.80
   2   4 -14   -1.04    2.77
  -2  -4  13   58.04    8.55
  -2  -4  13   76.49    9.28
   2   4 -13   75.97    8.20
   2   4 -13   59.72   10.11
  -2  -4  12   48.26    7.00
   2   4 -12   69.04    7.74
  -2  -4  11   39.73    7.14
  -2  -4  11   52.96    7.24
   2   4 -11   29.23    7.21
   2   4 -11   45.87    6.57
  -2  -4  10   27.67    5.92
  -2  -4  10   33.24    5.82
   2   4 -10   16.08    5.92
   2   4 -10   31.64    5.33
  -2  -4   9  136.93   12.33
  -2  -4   9  111.83   10.95
   2   4  -9  164.38   12.45
   2   4  -9  158.71   14.31
  -2  -4   8    2.52    3.01
  -2  -4   8    2.39    3.00
   2   4  -8    5.63    3.76
   2   4  -8    3.51    2.74
  -2  -4   7  178.12   13.86
  -2  -4   7  212.16   15.98
   2   4  -7  204.85   16.15
   2   4  -7  200.07   13.61
  -2  -4   6   64.01    7.89
   2   4  -6   84.55    9.93
   2   4  -6   68.64    7.80
  -2  -4   5   65.46    7.66
   2   4  -5   98.11   10.39
  -2  -4   4   65.20    7.73
  -2  -4   4   57.93    7.40
   2   4  -4   37.12    5.51
   2   4  -4   31.80    6.29
  -2  -4   3   27.43    5.31
   2   4  -3   24.34    4.54
  -2  -4   2  147.94   12.30
   2   4  -2  228.74   15.26
  -2  -4   1   39.34    6.39
   2   4  -1   47.48    6.33
  -2  -4   0   57.60    7.94
  -2  -4   0   53.65    6.99
   2   4   0   87.02    8.54
   2   4   0   89.78   10.17
  -2  -4  -1   17.17    4.87
  -2  -4  -1   12.19    3.64
   2   4   1   23.72    5.54
   2   4   1   24.08    5.15
  -2  -4  -2  298.16   18.38
   2   4   2  262.48   18.41
  -2  -4  -3  313.09   19.08
  -2  -4  -3  321.31   21.54
   2   4   3  315.04   19.89
   2   4   3  330.57   21.51
  -2  -4  -4  149.61   11.90
  -2  -4  -4  149.61   13.75
   2   4   4  136.69   12.09
   2   4   4  137.89   11.64
  -2  -4  -5   18.65    5.52
  -2  -4  -5   18.27    4.51
   2   4   5   11.56    4.21
   2   4   5   21.54    5.03
  -2  -4  -6   14.98    4.59
  -2  -4  -6   19.16    5.67
   2   4   6   14.32    4.30
   2   4   6   15.21    5.17
  -2  -4  -7   48.61    7.21
  -2  -4  -7   54.87    9.56
   2   4   7   69.41    8.47
   2   4   7   55.99    7.61
  -2  -4  -8   52.62    9.36
  -2  -4  -8   63.28    8.01
   2   4   8   59.87    8.05
   2   4   8   68.70    8.79
  -2  -4  -9  142.11   12.16
   2   4   9  160.65   13.12
  -2  -4 -10  128.35   11.41
  -2  -4 -10  139.49   14.99
   2   4  10  124.84   11.59
   2   4  10   97.39   10.48
  -2  -4 -11   64.56   10.67
  -2  -4 -11   77.49    8.90
   2   4  11   91.40    9.63
   2   4  11   60.42    8.65
  -2  -4 -12   37.71    8.57
   2   4  12   30.34    6.33
  -2  -5  13   29.23    5.72
  -2  -5  13   28.02    7.12
   2   5 -13   39.28    8.19
   2   5 -13   37.61    5.78
  -2  -5  12   51.69    7.43
  -2  -5  12   57.81    8.77
   2   5 -12   32.49    7.87
   2   5 -12   43.70    6.18
  -2  -5  11  141.55   12.55
  -2  -5  11  120.51   12.36
   2   5 -11  126.82   13.68
   2   5 -11  149.06   11.71
  -2  -5  10   20.69    5.21
  -2  -5  10   20.38    5.50
   2   5 -10   46.54    8.25
   2   5 -10   45.25    6.28
  -2  -5   9  163.34   14.12
  -2  -5   9  165.58   14.49
   2   5  -9  188.87   16.99
   2   5  -9  158.71   12.25
  -2  -5   8  153.18   13.35
  -2  -5   8  115.15   12.29
   2   5  -8   99.21   12.19
   2   5  -8  104.05    9.42
  -2  -5   7  154.83   13.44
  -2  -5   7  143.02   12.36
   2   5  -7   97.59   11.21
   2   5  -7  116.50   10.11
  -2  -5   6  264.42   18.47
  -2  -5   6  312.05   20.37
   2   5  -6  260.09   19.38
   2   5  -6  228.74   15.54
  -2  -5   5   13.76    4.63
  -2  -5   5   16.84    4.59
   2   5  -5   18.17    4.26
   2   5  -5   17.48    5.27
  -2  -5   4  218.59   15.77
  -2  -5   4  226.20   16.48
   2   5  -4  224.71   17.30
   2   5  -4  204.85   14.58
  -2  -5   3   62.35    7.97
  -2  -5   3   70.49    8.29
   2   5  -3   54.24    8.29
   2   5  -3   68.79    7.79
  -2  -5   2   30.67    6.03
  -2  -5   2   25.17    5.07
   2   5  -2   63.95    8.92
   2   5  -2   54.27    7.12
  -2  -5   1  234.26   17.60
  -2  -5   1  236.06   16.13
   2   5  -1  220.23   15.45
   2   5  -1  244.42   18.30
  -2  -5   0  361.46   21.69
  -2  -5   0  388.04   24.26
   2   5   0  373.41   22.53
   2   5   0  399.24   25.50
  -2  -5  -1   77.10    9.69
  -2  -5  -1   76.59    8.19
   2   5   1   76.98    9.83
   2   5   1   96.39    9.67
  -2  -5  -2  274.57   17.87
  -2  -5  -2  251.14   18.78
   2   5   2  204.40   16.33
   2   5   2  254.71   17.29
  -2  -5  -3  291.89   20.99
  -2  -5  -3  274.72   17.83
   2   5   3  318.62   20.44
   2   5   3  283.23   19.71
  -2  -5  -4   15.98    5.54
  -2  -5  -4    4.84    3.92
   2   5   4    5.75    3.45
   2   5   4   11.91    4.61
  -2  -5  -5  170.35   16.04
   2   5   5  193.95   15.26
   2   5   6  154.83   13.52
   2   5   6  119.58   12.74
  -2  -5  -7   77.50    8.82
  -2  -5  -7   64.65   10.27
   2   5   7   57.90    8.39
   2   5   7   40.97    7.33
  -2  -5  -8   84.03   11.88
  -2  -5  -8  105.02   10.23
   2   5   8   84.45   10.21
   2   5   8   74.86    9.09
  -2  -5  -9  106.86   10.41
  -2  -5  -9   82.40   11.85
   2   5   9   82.06   10.15
   2   5   9   91.38    9.86
  -2  -6  10   64.59    8.85
   2   6 -10   27.43    5.42
  -2  -6   9   98.35   11.05
  -2  -6   9  101.24   11.35
   2   6  -9   88.06   11.39
   2   6  -9   76.55    8.12
  -2  -6   8   81.52    9.93
  -2  -6   8   77.47    9.49
   2   6  -8  102.51   12.50
   2   6  -8   85.73    8.72
  -2  -6   7   60.93    8.49
  -2  -6   7   41.12    7.18
   2   6  -7   41.21    6.15
   2   6  -7   40.81    7.79
  -2  -6   6   85.54    9.99
  -2  -6   6   89.82   10.42
   2   6  -6   85.69    8.68
   2   6  -6   84.04   10.79
  -2  -6   5   27.73    5.72
  -2  -6   5   29.62    6.27
   2   6  -5   41.93    7.99
   2   6  -5   36.09    5.76
  -2  -6   4  138.53   13.07
  -2  -6   4  136.24   11.87
   2   6  -4  147.29   11.87
   2   6  -4  161.99   14.98
  -2  -6   3   10.41    4.13
  -2  -6   3   11.34    4.49
   2   6  -3    7.41    4.32
   2   6  -3    9.23    3.40
  -2  -6   2   67.87    8.98
  -2  -6   2   62.66    7.90
   2   6  -2   91.08   10.87
   2   6  -2   67.37    8.04
  -2  -6   1  141.32   11.92
  -2  -6   1  157.07   14.05
   2   6  -1  162.14   13.12
   2   6  -1  160.80   14.89
  -2  -6   0   96.51   11.34
  -2  -6   0   92.82    9.71
   2   6   0   70.44   10.01
   2   6   0   70.76    8.54
  -2  -6  -1   56.44    7.29
  -2  -6  -1   46.45    7.96
   2   6   1   77.04    9.06
   2   6   1   68.25    9.58
  -2  -6  -2   17.59    5.61
  -2  -6  -2   17.59    4.72
   2   6   2   27.64    5.70
   2   6   2   38.82    7.61
  -2  -6  -3   28.35    5.94
  -2  -6  -3   27.19    6.99
   2   6   3   28.47    6.34
   2   6   3   32.13    7.07
  -2  -6  -4  123.63   10.97
  -2  -6  -4  125.73   13.52
   2   6   4  106.77   11.39
   2   6   4  126.14   12.40
  -2  -6  -5    5.97    3.89
  -2  -6  -5    1.95    3.95
   2   6   5   19.98    5.18
   2   6   5   13.45    4.73
  -2  -6  -6   38.51    9.67
   2   6   6   56.08    9.51
  -3   9   5   15.15    5.66
  -3   9   4   26.11    6.15
   3  -9  -4   19.32    5.66
   3  -9  -4   30.20    7.31
  -3   9   3   20.69    5.97
  -3   9   3   20.28    5.55
   3  -9  -3   18.10    5.64
   3  -9  -3   23.77    5.90
  -3   9   2   -1.31    3.55
  -3   9   2    4.44    3.60
   3  -9  -2    5.25    4.00
   3  -9  -2    3.82    3.91
  -3   9   1   43.45    7.95
  -3   9   1   44.36    7.33
   3  -9  -1   27.47    5.81
   3  -9  -1   22.31    6.08
  -3   9   0   85.58    9.85
  -3   9   0   90.75   10.68
   3  -9   0   85.63    9.58
   3  -9   0   75.59   10.19
  -3   9  -1  116.34   11.18
  -3   9  -1  105.59   11.22
   3  -9   1  123.79   11.49
   3  -9   1  109.07   12.01
  -3   9  -2   63.37    8.53
  -3   9  -2   68.74    9.50
   3  -9   2   68.40    8.90
   3  -9   2   79.40   10.29
  -3   9  -3   44.03    7.57
  -3   9  -3   47.30    7.31
   3  -9   3   51.84    8.70
   3  -9   3   60.35    8.53
  -3   9  -4  116.62   11.24
   3  -9   4   86.84   11.24
   3  -9   4  106.08   11.77
  -3   9  -5   21.10    6.04
  -3   8  10   11.26    4.63
   3  -8 -10    1.14    3.57
  -3   8   9   66.02    9.15
  -3   8   9   60.95    9.37
  -3   8   8   14.50    5.04
  -3   8   8   17.77    5.90
   3  -8  -8   18.13    5.43
   3  -8  -8    8.80    5.00
  -3   8   7  129.54   12.35
  -3   8   7   94.00   12.03
  -3   8   6    9.76    4.76
   3  -8  -6   14.04    5.04
  -3   8   5    0.29    3.28
  -3   8   5    1.96    2.94
   3  -8  -5   -0.60    3.72
  -3   8   4   40.09    7.20
  -3   8   4   18.83    6.21
   3  -8  -4   30.62    6.35
   3  -8  -4   19.69    6.24
  -3   8   3   -1.83    3.07
  -3   8   3    3.44    4.07
   3  -8  -3    6.75    4.17
   3  -8  -3    3.64    4.18
  -3   8   2   28.01    6.85
  -3   8   2    9.07    4.50
   3  -8  -2   10.45    5.02
   3  -8  -2    5.37    3.86
  -3   8   1   96.81   10.00
  -3   8   1  106.55   11.28
   3  -8  -1   60.20    7.83
   3  -8  -1   70.23    9.91
  -3   8   0   56.57    7.58
  -3   8   0   67.80    9.45
   3  -8   0   48.32    7.17
   3  -8   0   45.42    8.00
  -3   8  -1   51.29    7.02
  -3   8  -1   33.71    7.19
   3  -8   1   23.71    6.10
   3  -8   1   19.57    5.37
  -3   8  -2  137.45   13.60
  -3   8  -2  124.00   10.86
   3  -8   2   99.21   11.54
   3  -8   2  109.59   11.08
  -3   8  -3   19.83    4.76
  -3   8  -3   24.02    6.11
   3  -8   3   19.19    5.00
   3  -8   3   19.20    5.68
  -3   8  -4   52.17    7.06
   3  -8   4   38.88    7.38
  -3   8  -5   17.29    4.89
  -3   8  -5   13.92    5.42
   3  -8   5    4.17    3.55
  -3   8  -6   44.84    8.58
  -3   8  -6   45.73    7.01
   3  -8   6   46.37    8.21
   3  -8   6   34.68    6.47
  -3   8  -7   98.90   12.10
  -3   8  -7   97.05    9.67
   3  -8   7   98.80   10.18
   3  -8   7  114.38   12.67
  -3   8  -8    4.43    3.52
  -3   8  -8    2.59    4.28
   3  -8   8    7.93    4.77
   3  -8   8   10.54    4.66
  -3   8  -9   56.93    8.03
  -3   8  -9   45.34    8.62
   3  -8   9   36.67    7.70
   3  -8   9   38.66    7.25
  -3   7  13   10.14    4.82
   3  -7 -13    2.35    4.06
  -3   7  12   45.70    7.74
  -3   7  12   20.50    6.68
   3  -7 -12   39.49    7.44
   3  -7 -12   33.67    7.96
  -3   7  11   34.95    6.62
  -3   7  11   19.51    6.20
   3  -7 -11   54.27    8.26
   3  -7 -11   41.67    8.91
  -3   7  10   -3.69    3.63
  -3   7  10   -1.06    3.35
   3  -7 -10    1.40    4.21
  -3   7   9   47.93    9.02
  -3   7   9   69.50    8.77
  -3   7   8   48.69    8.64
  -3   7   8   53.03    7.44
   3  -7  -8   52.14    9.66
   3  -7  -8   54.85    8.00
  -3   7   7   16.20    4.82
  -3   7   7    8.58    4.38
   3  -7  -7   11.32    5.33
   3  -7  -7   15.35    4.78
  -3   7   6   33.33    6.40
  -3   7   6   28.19    6.85
   3  -7  -6   18.90    6.92
   3  -7  -6   25.46    5.47
  -3   7   5   32.29    6.32
  -3   7   5   16.39    5.60
   3  -7  -5   20.78    4.95
   3  -7  -5   13.88    5.42
  -3   7   4   14.05    5.09
  -3   7   4    7.18    4.00
   3  -7  -4   15.41    5.38
   3  -7  -4   13.02    4.12
  -3   7   3  159.60   13.89
   3  -7  -3  148.50   11.72
  -3   7   2  149.91   13.30
   3  -7  -2  135.51   11.16
  -3   7   1    9.04    3.91
  -3   7   1   11.42    4.40
   3  -7  -1   17.56    4.40
   3  -7   0   40.13    6.22
  -3   7  -1  187.38   15.27
   3  -7   1  128.69   11.08
  -3   7  -2  139.43   13.10
   3  -7   2  120.94   10.82
   3  -7   2  100.35   10.78
  -3   7  -3  139.46   13.10
  -3   7  -3  125.30   10.66
   3  -7   3  138.86   12.54
   3  -7   3  151.10   13.24
  -3   7  -4  108.25   11.76
  -3   7  -4  115.61    9.90
   3  -7   4  118.42   11.30
   3  -7   4   90.67    9.97
  -3   7  -5  160.05   12.30
  -3   7  -5  142.40   13.37
   3  -7   5  146.62   13.01
   3  -7   5  144.83   12.26
  -3   7  -6  101.60   11.83
  -3   7  -6  112.25   10.19
   3  -7   6  120.40   11.88
   3  -7   6  114.91   10.84
  -3   7  -7   92.97   11.62
  -3   7  -7   84.93    8.90
   3  -7   7  111.01   11.32
   3  -7   7   89.37   10.39
  -3   7  -8  100.56   11.90
  -3   7  -8  121.15   10.75
   3  -7   8  113.73   11.88
   3  -7   8  124.12   11.64
  -3   7  -9   83.03   11.44
  -3   7  -9  115.55   10.57
   3  -7   9   87.57   11.34
  -3   7 -10  101.57   10.08
  -3   7 -10   87.54   12.05
   3  -7  10   93.67   11.21
   3  -7  10  122.31   11.22
  -3   7 -11  208.58   15.47
  -3   7 -11  183.20   19.11
   3  -7  11  180.36   13.88
   3  -7  11  146.70   15.08
  -3   7 -12   78.74    9.53
  -3   7 -12   52.09   10.39
   3  -7  12   62.02    9.85
   3  -7  12   66.87    8.82
  -3   6  15   27.50    6.76
   3  -6 -15   23.40    6.87
  -3   6  14   18.54    5.35
  -3   6  14    7.08    4.59
   3  -6 -14    1.12    4.96
   3  -6 -14   14.88    5.12
  -3   6  13   48.18   10.48
  -3   6  13   48.02    7.21
   3  -6 -13   52.26   11.01
   3  -6 -13   56.44    8.17
  -3   6  12  103.08   12.01
   3  -6 -12  121.12   15.32
   3  -6 -12  148.61   14.15
  -3   6  11  299.21   21.26
  -3   6  11  296.52   19.36
   3  -6 -11  335.05   21.29
   3  -6 -11  287.86   23.68
  -3   6  10   86.15    9.46
  -3   6  10   85.63   10.62
   3  -6 -10  111.80   10.71
   3  -6 -10   95.53   12.81
  -3   6   9   92.39   10.11
  -3   6   9  103.26   10.40
   3  -6  -9   76.38    8.68
   3  -6  -9   62.28   10.05
  -3   6   8  152.59   12.20
   3  -6  -8  158.41   12.44
  -3   6   7   81.39    9.68
   3  -6  -7   80.76   10.97
  -3   6   6  517.49   28.82
  -3   6   6  490.62   27.16
  -3   6   5  245.01   16.63
  -3   6   5  260.98   17.19
   3  -6  -5  276.81   17.02
   3  -6  -5  258.89   18.72
  -3   6   4  398.20   23.10
  -3   6   4  354.89   21.57
   3  -6  -4  400.44   24.62
   3  -6  -4  411.94   22.83
  -3   6   3  431.94   24.41
  -3   6   3  437.02   25.11
   3  -6  -3  385.21   21.60
   3  -6  -3  348.04   22.02
  -3   6   2  585.57   31.56
  -3   6   2  631.86   32.67
   3  -6  -2  647.09   34.62
   3  -6  -2  586.17   30.17
  -3   6   1  176.63   12.60
  -3   6   1  187.53   14.12
   3  -6  -1  215.30   15.44
   3  -6  -1  191.56   12.99
  -3   6   0  137.95   11.56
  -3   6   0  139.86   10.69
   3  -6   0  133.65   10.49
   3  -6   0  149.91   12.21
  -3   6  -1  378.79   21.23
  -3   6  -1  431.50   25.20
   3  -6   1  427.61   25.05
   3  -6   1  466.58   25.41
  -3   6  -2   44.16    5.68
  -3   6  -2   54.68    7.41
   3  -6   2   30.11    5.69
   3  -6   2   47.84    6.25
  -3   6  -3  194.40   13.05
  -3   6  -3  200.97   15.08
   3  -6   3  227.10   15.29
   3  -6   3  234.56   16.15
  -3   6  -4  477.03   27.91
  -3   6  -4  419.85   23.26
   3  -6   4  498.23   27.80
   3  -6   4  522.72   28.68
  -3   6  -5  172.59   14.30
  -3   6  -5  193.95   13.43
   3  -6   5  212.91   14.86
   3  -6   5  209.03   15.14
  -3   6  -6   60.80    8.77
  -3   6  -6   70.86    7.75
   3  -6   6  104.80    9.88
  -3   6  -7  245.31   19.08
   3  -6   7  255.91   17.01
   3  -6   7  231.73   16.75
   3  -6   8  464.19   27.70
   3  -6   8  463.29   26.07
  -3   6  -9   18.90    6.38
  -3   6  -9   16.38    4.81
   3  -6   9   25.61    6.16
   3  -6   9   31.64    6.02
  -3   6 -10   75.21    8.61
  -3   6 -10   77.65   11.10
   3  -6  10   76.71    9.39
   3  -6  10   64.20    7.78
  -3   6 -11   59.45    7.96
   3  -6  11   49.44    7.30
  -3   6 -12   62.35   10.76
   3  -6  12   49.08    8.32
   3  -6  12   52.94    7.72
  -3   6 -13  101.96   14.00
  -3   6 -13  130.38   12.25
   3  -6  13  113.82   10.95
   3  -6  13  104.31   11.99
  -3   6 -14   62.44    8.42
   3  -6  14   70.14    9.02
  -3   5  16    8.45    5.09
  -3   5  16   13.22    4.90
   3  -5 -16    8.63    5.46
   3  -5 -16   13.04    4.96
  -3   5  15   17.04    5.48
  -3   5  15   12.59    4.44
   3  -5 -15   20.28    5.38
   3  -5 -15   14.38    6.38
  -3   5  14  149.61   13.66
   3  -5 -14  121.49   15.29
  -3   5  13   62.02    9.09
  -3   5  13   65.86    8.23
   3  -5 -13   78.61    9.17
   3  -5 -13   72.56   11.75
  -3   5  12   72.01    9.46
  -3   5  12   79.31    9.27
   3  -5 -12   52.66   10.18
   3  -5 -12   77.18    8.77
  -3   5  11  260.83   18.26
  -3   5  11  261.58   17.17
   3  -5 -11  250.54   16.54
   3  -5 -11  255.46   20.40
  -3   5  10   78.15    9.27
   3  -5 -10   57.11    9.82
   3  -5  -9  164.98   12.24
   3  -5  -9  144.19   13.62
  -3   5   8  451.50   25.43
  -3   5   8  546.31   29.44
   3  -5  -8  468.22   25.29
   3  -5  -8  461.50   27.92
  -3   5   7  150.36   11.38
  -3   5   7  143.19   11.78
   3  -5  -7  127.42   10.14
   3  -5  -7  105.75   10.77
  -3   5   6  346.39   19.99
  -3   5   6  315.33   18.92
   3  -5  -6  354.00   19.74
   3  -5  -6  345.35   21.98
  -3   5   5  377.44   21.01
  -3   5   5  409.99   22.77
   3  -5  -5  430.30   24.93
   3  -5  -5  432.39   22.81
  -3   5   4  487.33   25.59
  -3   5   4  548.70   28.32
   3  -5  -4  620.52   30.59
   3  -5  -4  592.29   31.16
  -3   5   3  266.95   16.50
   3  -5  -3  225.01   13.52
   3  -5  -3  231.87   15.29
  -3   5   2  182.90   12.56
   3  -5  -2  145.62    9.90
  -3   5   1  396.26   22.02
   3  -5  -1  383.71   20.42
  -3   5   0   10.96    3.33
   3  -5   0   22.26    3.97
  -3   5  -1   49.94    6.14
   3  -5   1   49.12    5.56
   3  -5   1   54.39    6.24
  -3   5  -2  105.46    8.34
  -3   5  -2  127.79   10.51
   3  -5   2   81.70    7.47
   3  -5   2   69.68    7.18
  -3   5  -3   13.04    3.44
  -3   5  -3   14.63    3.99
   3  -5   3    5.28    2.65
   3  -5   3    6.41    2.91
  -3   5  -4   23.99    4.27
  -3   5  -4   16.77    4.34
   3  -5   4   23.26    4.29
   3  -5   4   19.35    4.24
   3  -5   5  152.73   11.41
   3  -5   5  166.47   12.13
  -3   5  -6  201.26   15.44
  -3   5  -6  223.21   14.44
   3  -5   6  155.27   12.08
   3  -5   6  157.21   11.87
  -3   5  -7   46.46    6.23
  -3   5  -7   39.76    6.97
   3  -5   7   29.05    5.64
   3  -5   7   33.04    5.80
  -3   5  -8    4.75    2.93
   3  -5   8    8.37    3.58
  -3   5  -9  200.37   16.63
   3  -5   9  187.38   14.63
   3  -5   9  150.95   12.80
  -3   5 -10    1.72    3.75
   3  -5  10    0.14    3.11
   3  -5  10    3.70    3.26
  -3   5 -11   19.74    6.51
  -3   5 -11   22.74    5.57
   3  -5  11   29.94    5.81
   3  -5  11   20.37    5.41
  -3   5 -12   32.77    6.38
  -3   5 -12   21.28    7.53
   3  -5  12   15.44    4.99
   3  -5  12   17.24    5.03
  -3   5 -13   34.64    8.89
   3  -5  13   36.61    7.16
  -3   5 -14   31.58    8.46
  -3   5 -14   25.90    5.78
   3  -5  14   35.27    6.88
   3  -5  14   39.46    6.71
  -3   5 -15   11.07    6.23
  -3   5 -15   10.90    3.99
   3  -5  15   14.39    5.16
   3  -5  15   16.50    4.58
  -3   4  17   29.94    6.85
  -3   4  17   44.49    7.64
   3  -4 -17   45.64    8.81
   3  -4 -17   33.16    6.93
  -3   4  16   16.78    5.04
  -3   4  16    4.61    4.08
   3  -4 -16   11.04    4.61
   3  -4 -16   10.04    5.55
  -3   4  15   78.21    9.79
  -3   4  15   72.25    9.04
   3  -4 -15   61.17    8.19
   3  -4 -15   72.34   10.92
  -3   4  14  160.95   13.25
  -3   4  14  139.52   12.85
   3  -4 -14  182.90   13.85
   3  -4 -14  193.95   16.90
  -3   4  13    7.49    3.69
  -3   4  13    8.09    3.63
   3  -4 -13    7.40    3.69
   3  -4 -13   12.89    5.42
  -3   4  12   39.36    5.94
  -3   4  12   29.01    6.06
   3  -4 -12   27.38    5.38
  -3   4  11   53.23    7.11
  -3   4  11   57.29    7.11
   3  -4 -11   40.06    6.08
   3  -4 -11   40.40    7.54
  -3   4  10  197.23   13.75
  -3   4  10  164.23   12.61
   3  -4 -10  146.92   11.18
   3  -4 -10  140.95   12.90
  -3   4   9   11.80    3.73
  -3   4   9   20.60    4.36
   3  -4  -9    3.89    2.72
   3  -4  -9    6.60    3.75
  -3   4   8   48.67    6.25
  -3   4   8   58.11    6.56
   3  -4  -8   71.53    6.95
   3  -4  -8   79.65    9.08
  -3   4   7  541.09   27.41
  -3   4   7  553.48   28.70
   3  -4  -7  602.60   29.76
   3  -4  -7  575.27   30.65
  -3   4   6   79.88    7.36
  -3   4   6   96.44    7.86
   3  -4  -6  107.69    8.04
  -3   4   5  571.09   28.47
   3  -4  -5  576.17   29.65
  -3   4   4  698.60   33.40
  -3   4   4  701.89   33.34
   3  -4  -4  698.15   32.86
   3  -4  -4  713.83   35.04
  -3   4   3   10.18    2.42
  -3   4   3    5.23    2.41
   3  -4  -3    6.53    2.31
   3  -4  -3    4.94    2.50
  -3   4   2  114.73    7.85
  -3   4   2  119.22    8.49
   3  -4  -2   80.36    6.81
   3  -4  -2   67.59    5.42
   3  -4  -1  637.69   29.95
   3  -4  -1  696.06   33.41
   3  -4   0    1.95    1.87
   3  -4   0    4.13    1.72
  -3   4  -1  453.60   23.65
   3  -4   1  430.30   21.62
   3  -4   1  412.53   21.28
  -3   4  -2  887.92   42.49
   3  -4   2  840.59   39.46
   3  -4   2  939.28   43.57
  -3   4  -3  190.66   12.03
   3  -4   3  275.62   15.93
  -3   4  -4  697.11   35.24
   3  -4   4  632.16   31.31
  -3   4  -5   89.76    7.94
  -3   4  -5  100.50    9.27
   3  -4   5   60.90    6.23
   3  -4   5   65.93    6.68
  -3   4  -6   66.71    7.94
   3  -4   6   68.73    7.01
   3  -4   6   67.89    6.64
  -3   4  -7   19.57    4.95
   3  -4   7   24.35    4.39
   3  -4   7   24.58    4.70
  -3   4  -8  121.07   11.67
   3  -4   8   89.52    8.73
   3  -4   8   87.46    8.07
  -3   4  -9  340.27   24.17
  -3   4  -9  299.95   20.29
   3  -4   9  280.99   17.89
   3  -4   9  313.09   18.78
   3  -4  10   38.27    6.44
  -3   4 -11  207.24   15.12
   3  -4  11  203.50   15.30
   3  -4  11  231.13   16.21
  -3   4 -12   69.01    8.19
  -3   4 -12   44.40    8.57
   3  -4  12   60.56    7.99
   3  -4  12   72.73    8.13
  -3   4 -13   79.89   11.43
  -3   4 -13   75.59    9.09
   3  -4  13   62.66    8.23
   3  -4  13   65.87    7.82
  -3   4 -14   43.97    9.03
   3  -4  14   31.97    6.37
  -3   4 -15   10.40    5.72
  -3   4 -15    9.28    4.11
   3  -4  15    5.03    3.79
   3  -4  15    6.55    4.00
  -3   4 -16   43.63    7.09
   3  -4  16   40.09    6.57
   3  -4  16   21.07    6.44
  -3   3  18   70.38    9.24
  -3   3  18   57.00    8.77
   3  -3 -18   61.14    8.56
   3  -3 -18   67.67   10.55
  -3   3  17   55.03    8.07
  -3   3  17   83.27    9.50
   3  -3 -17   78.64   10.16
   3  -3 -17   88.82    9.95
  -3   3  16  194.25   15.06
   3  -3 -16  192.16   15.65
   3  -3 -16  150.51   13.98
  -3   3  15    8.68    4.10
  -3   3  15    4.32    3.69
   3  -3 -15    1.82    3.55
   3  -3 -15    4.96    3.88
  -3   3  14  135.96   11.81
  -3   3  14  160.65   12.74
   3  -3 -14  161.54   13.63
   3  -3 -14  171.70   13.22
   3  -3 -13  145.22   11.51
  -3   3  12    0.09    2.82
  -3   3  12    4.34    3.50
   3  -3 -12    8.15    3.50
   3  -3 -12    2.80    3.23
  -3   3  11   39.27    5.94
  -3   3  11   31.94    5.53
   3  -3 -11   33.44    5.78
   3  -3 -11   45.84    5.93
  -3   3  10   17.78    4.30
   3  -3 -10    7.16    3.07
   3  -3 -10    8.71    3.36
  -3   3   9  313.54   17.81
  -3   3   9  320.86   18.53
   3  -3  -9  276.06   17.02
   3  -3  -9  299.81   16.92
  -3   3   8  382.82   20.44
   3  -3  -8  410.14   21.68
  -3   3   7  549.15   27.31
   3  -3  -7  578.86   29.34
  -3   3   6  705.92   34.25
   3  -3  -6  802.37   36.97
   3  -3  -6  774.00   37.09
  -3   3   5  806.25   37.07
   3  -3  -5  785.94   36.94
   3  -3  -5  791.02   36.03
  -3   3   4  767.43   34.76
  -3   3   4  693.97   31.76
   3  -3  -4  786.99   35.37
   3  -3  -4  716.07   33.22
  -3   3   3  558.85   25.61
  -3   3   3  637.69   28.86
   3  -3  -3  565.72   26.25
   3  -3  -3  590.95   26.70
  -3   3   2   12.60    1.93
  -3   3   2   16.93    2.13
   3  -3  -2   18.23    2.10
   3  -3  -2   19.53    2.38
  -3   3   1  301.30   14.60
  -3   3   1  303.39   14.37
   3  -3  -1  307.12   14.77
  -3   3   0 4697.15  200.52
  -3   3   0 4894.24  208.28
  -3   3  -1 2542.68  110.28
  -3   3  -1 2514.31  108.13
  -3   3  -2 2359.03  102.98
  -3   3  -2 2323.20  100.42
   3  -3   2 2351.57  101.71
  -3   3  -3 1873.78   82.00
  -3   3  -3 1881.25   83.52
   3  -3   3 1839.45   80.54
   3  -3   3 1625.94   72.41
  -3   3  -4 1067.08   49.14
  -3   3  -4  987.80   46.36
   3  -3   4 1012.59   46.11
   3  -3   4  907.93   42.40
  -3   3  -5  631.71   31.88
  -3   3  -5  641.27   31.43
   3  -3   5  556.46   27.26
   3  -3   5  624.40   31.35
  -3   3  -6  222.32   13.89
  -3   3  -6  208.88   14.00
   3  -3   6  212.02   12.98
  -3   3  -7  612.30   31.98
  -3   3  -7  694.27   34.65
   3  -3   7  697.26   34.68
  -3   3  -8  882.39   43.07
  -3   3  -8  825.81   41.27
   3  -3   8  788.33   38.34
  -3   3  -9  382.82   22.87
  -3   3  -9  392.82   22.46
   3  -3   9  392.52   22.31
  -3   3 -10   99.60    9.53
  -3   3 -11  660.82   35.64
   3  -3  11  711.89   36.71
   3  -3  12  206.64   15.14
   3  -3  12  186.03   13.84
  -3   3 -13    5.11    4.49
   3  -3  13   16.05    5.06
   3  -3  13   15.36    4.66
  -3   3 -14   87.46    9.83
   3  -3  14   99.93   10.14
  -3   3 -15   29.67    6.18
   3  -3  15   35.18    6.37
   3  -3  15   35.70    6.52
  -3   3 -16    2.84    5.36
  -3   3 -16    6.81    3.83
   3  -3  16    8.52    4.40
   3  -3  16    5.25    3.94
  -3   2  19   33.35    6.75
   3  -2 -19   26.59    6.65
  -3   2  18   36.00    6.90
  -3   2  18   37.64    6.89
   3  -2 -18   31.12    6.50
   3  -2 -18   34.24    7.28
  -3   2  17   34.55    6.32
   3  -2 -17   36.88    7.26
  -3   2  16  239.94   16.60
  -3   2  16  224.11   16.66
   3  -2 -16  205.15   15.75
   3  -2 -16  250.99   18.56
  -3   2  15   54.77    7.59
  -3   2  15   55.63    7.47
   3  -2 -15   30.37    6.27
   3  -2 -15   32.38    6.08
  -3   2  14   57.78    7.57
  -3   2  14   54.93    7.53
   3  -2 -14   63.86    7.97
   3  -2 -14   58.99    7.58
  -3   2  13  427.32   24.47
   3  -2 -13  429.85   24.75
  -3   2  12   38.80    5.80
  -3   2  12   29.37    5.32
   3  -2 -12   42.16    6.21
   3  -2 -12   37.95    6.10
  -3   2  11   57.83    6.82
  -3   2  11   49.75    6.29
   3  -2 -11   47.23    6.36
   3  -2 -11   53.94    6.70
  -3   2  10   15.29    4.03
  -3   2  10   16.47    3.97
   3  -2 -10   25.55    4.51
   3  -2 -10   23.96    4.58
  -3   2   8  114.59    8.99
   3  -2  -8   80.65    6.97
   3  -2  -7   19.62    3.31
   3  -2  -7   18.10    3.36
  -3   2   6  671.42   31.29
  -3   2   6  661.72   30.74
   3  -2  -6  672.62   31.12
   3  -2  -6  658.43   31.00
  -3   2   5   95.85    6.26
  -3   2   5  108.01    6.71
   3  -2  -4   22.98    2.45
   3  -2  -4   20.65    2.25
  -3   2   3  181.85    8.38
  -3   2   3  158.26    7.46
   3  -2  -3  232.32   10.56
   3  -2  -3  205.30    9.45
  -3   2   0  758.62   32.94
  -3   2   0  863.58   37.42
   3  -2   0  916.59   39.36
   3  -2   0  945.41   40.58
  -3   2  -1  211.42   10.61
  -3   2  -1  224.86   11.16
   3  -2   1  199.32    9.82
   3  -2   1  207.83   10.10
  -3   2  -2  627.24   28.80
  -3   2  -2  682.92   31.07
   3  -2   2  596.18   27.26
   3  -2   2  596.92   27.31
  -3   2  -3  713.38   33.00
  -3   2  -3  763.10   35.04
   3  -2   3  728.17   33.44
   3  -2   3  752.06   34.52
  -3   2  -4   29.91    3.95
  -3   2  -4   32.07    4.07
   3  -2   4   65.60    5.60
   3  -2   4   73.43    6.05
  -3   2  -5  962.12   44.79
   3  -2   5 1069.77   48.97
  -3   2  -6  316.38   17.78
   3  -2   6  323.25   18.80
   3  -2   6  337.14   18.50
  -3   2  -7  309.81   17.99
  -3   2  -7  272.33   16.30
   3  -2   7  308.32   17.86
   3  -2   7  294.13   17.10
  -3   2  -8  178.27   12.42
  -3   2  -8  197.98   13.55
   3  -2   8  218.29   14.02
   3  -2   8  219.18   14.24
  -3   2  -9  277.86   17.50
  -3   2  -9  288.91   17.98
   3  -2   9  293.53   18.14
   3  -2   9  278.75   17.29
  -3   2 -10  255.31   16.69
  -3   2 -10  232.62   16.07
   3  -2  10  251.73   16.53
   3  -2  10  272.78   17.39
  -3   2 -11   22.44    5.06
   3  -2  11   35.65    6.07
  -3   2 -12  277.86   18.35
  -3   2 -12  241.58   16.77
   3  -2  12  237.85   16.74
   3  -2  12  273.23   17.81
  -3   2 -13   17.10    5.20
  -3   2 -13   20.57    4.86
   3  -2  13   36.33    6.46
  -3   2 -14   10.66    4.04
   3  -2  14   10.13    5.42
   3  -2  14   17.62    5.31
  -3   2 -15   42.60    6.83
  -3   2 -15   40.75    7.37
   3  -2  15   49.20    7.31
  -3   2 -16    8.29    4.54
   3  -2  16   15.01    5.04
   3  -2  16    3.86    3.70
  -3   1  19   17.32    5.42
  -3   1  18   17.53    5.10
  -3   1  18   18.41    5.48
   3  -1 -18   14.34    5.99
   3  -1 -18   24.70    5.72
  -3   1  17   32.70    7.08
  -3   1  17   36.51    6.61
   3  -1 -17   31.25    7.48
  -3   1  16   88.27    9.55
  -3   1  16   85.03    9.53
   3  -1 -16   58.05    8.81
   3  -1 -16   62.62    8.58
  -3   1  15   40.07    6.69
  -3   1  15   40.66    6.82
   3  -1 -15   41.60    7.26
   3  -1 -15   35.18    6.35
  -3   1  14   67.62    8.42
  -3   1  14   71.70    8.59
   3  -1 -14   89.11    9.85
   3  -1 -14   78.77    8.80
  -3   1  13  358.03   21.34
   3  -1 -13  315.48   19.65
  -3   1  12  119.63   10.22
  -3   1  12  117.46   10.21
   3  -1 -12  110.14   10.10
   3  -1 -12  114.18   10.43
  -3   1  11  182.45   13.03
  -3   1  10  200.97   13.21
  -3   1  10  201.26   13.53
   3  -1 -10  190.06   13.01
   3  -1 -10  169.46   12.12
  -3   1   9    2.17    2.75
  -3   1   9    3.84    2.61
   3  -1  -9    3.56    3.00
   3  -1  -9    4.37    2.90
  -3   1   8   24.31    3.79
  -3   1   8   24.56    4.24
  -3   1   7  138.11    9.05
  -3   1   7  136.60    8.99
   3  -1  -7  138.78    9.24
   3  -1  -7  125.64    9.66
  -3   1   6  227.10   12.39
  -3   1   6  250.24   13.65
   3  -1  -6  224.56   12.98
   3  -1  -6  257.25   13.91
  -3   1   5   72.46    5.29
  -3   1   5   80.74    5.55
   3  -1  -5   42.52    4.28
  -3   1   4  231.87   11.64
  -3   1   4  195.44   10.16
   3  -1  -4  211.57   10.72
   3  -1  -4  185.44   10.11
  -3   1   3   19.95    2.25
  -3   1   3   19.19    2.05
   3  -1  -3   46.64    3.22
   3  -1  -3   42.57    3.34
  -3   1   2  609.47   27.08
  -3   1   2  528.69   23.44
   3  -1  -2  590.65   26.26
   3  -1  -2  582.59   25.59
  -3   1   1  168.11    8.56
  -3   1   1  195.59    9.41
   3  -1  -1  190.36    9.22
   3  -1  -1  164.23    8.15
   3  -1   0  155.57    7.97
   3  -1   0  175.13    8.89
   3  -1   1  231.43   11.75
   3  -1   1  246.21   12.34
   3  -1   2  120.37    7.59
   3  -1   2  135.75    8.21
  -3   1  -3  707.41   33.25
  -3   1  -3  821.48   37.70
   3  -1   3  780.57   36.07
   3  -1   3  837.91   38.48
   3  -1   4  326.38   17.26
   3  -1   4  300.40   16.35
  -3   1  -5  302.05   17.21
  -3   1  -5  301.15   16.68
   3  -1   5  337.88   18.30
   3  -1   5  356.84   19.45
  -3   1  -6 1201.16   55.75
  -3   1  -6 1265.96   58.02
   3  -1   6 1340.47   61.28
   3  -1   6 1268.65   58.09
  -3   1  -7  143.73   10.88
  -3   1  -7  141.01   10.31
   3  -1   7  106.80    8.86
   3  -1   7  118.40    9.42
  -3   1  -8  154.97   11.73
  -3   1  -8  170.50   11.97
   3  -1   8  172.45   12.11
  -3   1  -9  591.85   30.74
  -3   1  -9  567.21   30.01
   3  -1   9  549.45   29.04
   3  -1   9  622.46   32.34
  -3   1 -10   64.60    7.92
   3  -1  10  106.80    9.85
  -3   1 -11   25.10    5.92
  -3   1 -11   28.13    5.38
   3  -1  11   57.26    7.42
   3  -1  11   51.21    7.02
  -3   1 -12  618.43   33.47
  -3   1 -12  613.95   32.71
  -3   1 -13  208.88   15.62
  -3   1 -13  225.75   16.18
   3  -1  13  202.16   15.01
   3  -1  13  261.43   18.05
  -3   1 -14   21.93    5.56
   3  -1  14   41.01    7.41
  -3   1 -15   72.32    9.20
  -3   1 -15   92.41   10.33
   3  -1  15   92.88    9.81
   3  -1  15  113.71   10.98
  -3   1 -16   31.88    6.61
  -3   1 -16   20.01    5.44
   3  -1  16   38.03    6.45
  -3   0  19   65.14    8.76
   3   0 -19   61.68    9.20
  -3   0  18   37.54    6.96
  -3   0  18   44.39    7.30
   3   0 -18   38.39    6.86
   3   0 -18   35.92    8.57
  -3   0  17   59.96    8.18
   3   0 -17   51.38    9.26
   3   0 -17   53.50    8.59
  -3   0  16   71.40    8.87
  -3   0  16   65.05    8.19
   3   0 -16   75.68    9.37
   3   0 -16   49.55    9.04
  -3   0  15  428.06   24.81
  -3   0  15  390.13   23.62
   3   0 -15  441.95   27.94
   3   0 -15  472.10   27.26
  -3   0  14  118.48   10.91
  -3   0  14  113.64   10.33
   3   0 -14  138.28   11.95
   3   0 -14  120.92   12.36
  -3   0  13  518.69   28.05
   3   0 -13  460.90   27.58
  -3   0  12  780.12   39.12
   3   0 -12  972.57   47.69
   3   0 -12  881.50   45.08
  -3   0  11   25.10    5.02
  -3   0  11   16.81    4.30
   3   0 -11   27.11    5.60
   3   0 -11   36.77    5.93
  -3   0  10  475.24   25.67
  -3   0  10  462.25   24.50
  -3   0   9  725.03   35.62
  -3   0   9  731.30   35.37
   3   0  -9  663.96   34.88
   3   0  -9  767.58   36.98
  -3   0   8  587.67   29.37
   3   0  -8  622.46   31.98
   3   0  -8  642.47   31.25
  -3   0   7  316.68   17.32
  -3   0   7  331.46   18.16
   3   0  -7  333.70   18.99
   3   0  -7  335.94   17.83
  -3   0   6  816.25   38.34
  -3   0   6  853.88   39.78
   3   0  -6  800.87   37.16
   3   0  -6  815.06   39.07
  -3   0   5 1708.06   75.47
  -3   0   5 1578.16   70.23
   3   0  -5 1612.50   71.16
   3   0  -5 1676.70   75.04
  -3   0   4   87.57    6.45
  -3   0   4  112.83    7.93
   3   0  -4   68.53    5.35
   3   0  -4   79.52    6.54
  -3   0   3  130.78    8.17
  -3   0   3  148.24    9.36
   3   0  -3  118.28    8.05
   3   0  -3  116.73    7.34
  -3   0   2  201.11   11.10
  -3   0   2  209.92   11.91
   3   0  -2  186.18   10.36
   3   0  -2  185.14   10.82
  -3   0   1  617.38   28.94
  -3   0   1  567.81   27.22
   3   0  -1  631.12   29.40
   3   0  -1  729.96   34.91
  -3   0   0  702.48   32.47
  -3   0   0  676.05   32.00
   3   0   0  639.18   30.26
   3   0   0  654.41   30.50
  -3   0  -1  362.96   18.33
  -3   0  -1  342.21   18.26
   3   0   1  315.48   16.62
   3   0   1  316.38   16.42
  -3   0  -2   62.54    6.08
  -3   0  -2   85.94    7.05
   3   0   2   57.98    5.40
   3   0   2   62.62    5.57
  -3   0  -3  482.40   25.08
   3   0   3  413.43   21.51
  -3   0  -4  310.11   17.13
   3   0   4  335.49   18.33
  -3   0  -5  108.86    8.61
  -3   0  -5   92.54    8.63
   3   0   5   86.82    7.61
   3   0   5   86.79    7.58
   3   0   6  713.83   35.36
   3   0   6  755.19   36.92
  -3   0  -7  153.63   11.27
  -3   0  -7  133.14   10.82
   3   0   7  148.22   11.05
   3   0   7  168.56   12.20
  -3   0  -8   58.47    6.98
  -3   0  -8   45.78    6.32
   3   0   8   50.79    6.59
   3   0   8   59.08    7.01
   3   0   9  179.61   13.09
   3   0   9  194.10   13.72
  -3   0 -10  302.19   18.71
   3   0  10  285.17   18.27
  -3   0 -11  382.82   22.37
  -3   0 -11  356.84   22.38
   3   0  11  355.19   21.77
   3   0  11  336.54   20.59
  -3   0 -12   12.79    4.24
  -3   0 -12   14.67    4.63
   3   0  12   11.28    4.13
   3   0  12   16.92    4.76
  -3   0 -13  212.02   15.44
  -3   0 -13  190.96   15.26
   3   0  13  222.32   15.75
   3   0  13  231.58   16.68
  -3   0 -14   78.59    9.09
  -3   0 -14   78.91   10.38
   3   0  14  100.32   10.38
   3   0  14   83.04    9.43
  -3   0 -15   26.67    6.08
  -3   0 -15   33.10    6.67
   3   0  15   31.56    6.17
   3   0  15   31.86    6.01
  -3   0 -16   28.62    6.36
   3   0  16   39.30    6.80
  -3  -1  18   22.31    6.07
  -3  -1  18   22.86    5.16
   3   1 -18   11.43    4.92
   3   1 -18   24.40    7.27
  -3  -1  17   11.81    4.49
  -3  -1  17   10.87    3.90
   3   1 -17   27.59    7.58
   3   1 -17   24.50    6.01
  -3  -1  16  113.13   12.03
  -3  -1  16  136.01   11.66
   3   1 -16  138.56   13.74
  -3  -1  15  125.76   10.98
  -3  -1  15  103.45   10.64
   3   1 -15  127.05   11.86
   3   1 -15   96.77   11.96
  -3  -1  14   77.56    8.57
   3   1 -14  104.44   12.30
   3   1 -14  123.90   11.23
  -3  -1  13  157.96   12.93
   3   1 -13  186.33   14.70
   3   1 -13  192.60   15.98
  -3  -1  12   97.94    9.17
  -3  -1  12   88.78    9.07
   3   1 -12   82.00   10.36
  -3  -1  11   16.39    4.18
  -3  -1  11   12.64    4.04
   3   1 -11   21.31    4.76
  -3  -1  10  271.29   17.14
  -3  -1  10  254.26   16.17
   3   1 -10  267.55   18.17
   3   1 -10  273.38   16.60
  -3  -1   9  346.09   19.78
  -3  -1   9  347.59   20.22
   3   1  -9  377.74   22.74
   3   1  -9  345.80   19.41
  -3  -1   8  369.98   20.69
  -3  -1   8  379.38   21.34
   3   1  -8  393.12   21.23
   3   1  -8  376.55   22.43
  -3  -1   7  369.38   20.60
  -3  -1   7  335.49   19.08
   3   1  -7  365.05   19.66
   3   1  -7  399.24   22.84
  -3  -1   6  270.24   16.26
  -3  -1   6  268.00   15.87
   3   1  -6  282.19   15.84
   3   1  -6  265.61   16.53
  -3  -1   5  341.02   18.74
   3   1  -5  363.26   20.81
  -3  -1   4  319.96   17.60
  -3  -1   4  327.58   18.56
   3   1  -4  360.87   20.17
   3   1  -4  300.70   16.41
  -3  -1   3 1643.86   74.29
  -3  -1   3 1600.56   71.82
   3   1  -3 1709.55   76.04
  -3  -1   2  886.28   42.25
   3   1  -2  979.29   45.37
  -3  -1   1  127.27    9.84
   3   1  -1   86.66    7.34
  -3  -1   0  284.57   15.92
  -3  -1   0  286.96   16.84
   3   1   0  291.89   16.92
   3   1   0  289.80   16.10
  -3  -1  -1    3.68    2.47
   3   1   1   26.23    4.60
  -3  -1  -2   14.93    3.44
  -3  -1  -2   14.70    4.18
   3   1   2   31.97    4.41
   3   1   2   28.64    4.39
   3   1   3  114.22    9.47
   3   1   3   95.00    7.98
  -3  -1  -4  301.60   17.54
  -3  -1  -4  288.61   18.32
   3   1   4  365.05   20.41
   3   1   4  361.17   20.17
  -3  -1  -5  118.28   10.61
  -3  -1  -5  113.06    9.29
   3   1   5  139.68   10.53
   3   1   5  160.50   11.47
   3   1   6  139.56   10.96
   3   1   6  114.76    9.81
  -3  -1  -7  292.49   17.98
  -3  -1  -7  262.48   17.92
   3   1   7  255.46   16.54
   3   1   7  293.98   17.98
  -3  -1  -8   10.62    4.43
   3   1   8   16.50    4.51
  -3  -1  -9   26.11    5.28
   3   1   9   25.43    5.31
   3   1   9   14.42    4.58
  -3  -1 -10  236.65   17.75
  -3  -1 -10  230.68   15.68
   3   1  10  219.78   15.36
   3   1  10  223.36   15.75
  -3  -1 -11  128.26   11.09
  -3  -1 -11  143.19   13.37
   3   1  11  149.12   12.28
   3   1  11  184.39   13.79
  -3  -1 -12   35.98    7.36
  -3  -1 -12   31.98    6.05
   3   1  12   35.30    6.18
   3   1  12   25.90    5.49
  -3  -1 -13   58.72    7.74
   3   1  13   37.00    6.86
   3   1  13   37.76    7.08
  -3  -1 -14   60.72    8.21
  -3  -1 -14   55.87    9.14
   3   1  14   58.60    7.89
   3   1  14   67.74    8.34
  -3  -1 -15   11.28    4.95
  -3  -1 -15    6.02    4.76
   3   1  15   11.75    4.17
  -3  -2  17    7.11    3.86
  -3  -2  17    9.76    4.59
   3   2 -17    7.49    3.73
   3   2 -17    3.06    4.38
  -3  -2  16   49.20    8.28
  -3  -2  16   65.31    8.09
   3   2 -16   85.16   12.16
   3   2 -16   95.21   10.46
  -3  -2  15   50.26    8.92
  -3  -2  15   52.94    7.15
   3   2 -15   44.52    9.68
  -3  -2  14  108.46   11.45
   3   2 -14  146.37   12.40
   3   2 -14  144.08   14.83
  -3  -2  13   96.72    9.44
  -3  -2  13   99.59   10.58
   3   2 -13  146.76   14.40
  -3  -2  12   35.22    6.51
  -3  -2  12   32.77    5.84
   3   2 -12   21.28    5.14
  -3  -2  11  106.49   10.27
   3   2 -11  132.80   11.21
   3   2 -11  136.92   12.84
  -3  -2  10   35.00    5.62
   3   2 -10   52.32    6.62
  -3  -2   9  171.70   12.72
  -3  -2   9  193.95   14.11
   3   2  -9  182.75   14.77
   3   2  -9  168.26   12.16
  -3  -2   8   84.87    8.71
  -3  -2   8   93.87    8.99
   3   2  -8   66.47    6.89
   3   2  -8   55.59    7.73
  -3  -2   7  412.38   23.40
  -3  -2   7  426.87   24.14
   3   2  -7  436.87   25.47
   3   2  -7  394.46   21.60
  -3  -2   6  348.48   20.81
  -3  -2   6  314.14   18.80
   3   2  -6  378.49   20.71
   3   2  -6  387.15   22.99
  -3  -2   5  313.54   18.63
  -3  -2   5  302.64   18.65
   3   2  -5  331.16   20.26
   3   2  -5  328.47   18.60
  -3  -2   4  703.08   35.07
  -3  -2   4  640.23   33.31
   3   2  -4  683.67   33.74
   3   2  -4  699.50   35.91
  -3  -2   3  144.89   10.74
  -3  -2   3  144.34   11.28
   3   2  -3  172.59   11.71
   3   2  -3  150.51   11.59
  -3  -2   2  188.72   12.60
  -3  -2   2  169.61   12.45
   3   2  -2  177.67   12.96
   3   2  -2  175.73   11.86
  -3  -2   1  204.10   14.19
  -3  -2   1  247.40   15.24
   3   2  -1  169.91   12.54
   3   2  -1  174.39   11.78
  -3  -2   0  247.25   16.35
  -3  -2   0  248.00   15.18
   3   2   0  192.30   13.58
   3   2   0  195.14   12.84
  -3  -2  -1  283.23   16.83
  -3  -2  -1  272.33   17.66
   3   2   1  224.71   15.08
   3   2   1  235.46   14.96
  -3  -2  -2  675.31   36.03
  -3  -2  -2  601.10   30.59
   3   2   2  657.24   33.34
   3   2   2  593.94   31.29
  -3  -2  -3  127.96   10.23
  -3  -2  -3  120.31   10.82
   3   2   3  195.89   13.98
   3   2   3  169.16   12.88
  -3  -2  -4  566.76   29.55
  -3  -2  -4  546.61   30.32
   3   2   4  570.19   30.22
   3   2   4  601.55   31.50
  -3  -2  -5  375.65   23.29
  -3  -2  -5  397.90   22.71
   3   2   5  362.66   21.47
   3   2   5  362.21   21.29
  -3  -2  -6   20.34    5.65
   3   2   6   11.42    3.96
  -3  -2  -7  316.83   19.22
   3   2   7  262.77   17.19
  -3  -2  -8   78.39   10.44
  -3  -2  -8   67.93    8.00
   3   2   8   33.34    6.05
   3   2   8   17.81    4.92
  -3  -2  -9  251.44   19.32
  -3  -2  -9  206.04   14.74
   3   2   9  228.59   15.78
   3   2   9  213.96   15.41
  -3  -2 -10  202.91   17.66
  -3  -2 -10  220.08   15.56
   3   2  10  196.19   14.42
   3   2  10  197.53   14.78
  -3  -2 -11   20.38    6.48
   3   2  11    8.06    3.75
  -3  -2 -12  222.02   15.99
  -3  -2 -12  216.49   19.07
   3   2  12  218.14   16.20
   3   2  12  216.49   15.84
  -3  -2 -13   38.66    6.76
  -3  -2 -13   39.42    8.23
   3   2  13   41.39    6.93
   3   2  13   47.40    7.10
  -3  -2 -14   58.89   10.23
   3   2  14   67.53    8.82
  -3  -3  16   24.43    5.29
  -3  -3  16   32.91    7.58
   3   3 -16   37.61    6.59
   3   3 -16   16.17    6.60
  -3  -3  15   77.19    8.79
   3   3 -15   79.24    8.77
   3   3 -15   56.98   10.13
  -3  -3  14   73.56    9.62
  -3  -3  14   67.47    9.66
   3   3 -14   69.23    8.41
   3   3 -14   53.93    9.49
  -3  -3  13   39.09    6.31
   3   3 -13   36.58    6.63
  -3  -3  12   66.46    7.90
  -3  -3  12   57.93    8.66
   3   3 -12   61.68    7.63
   3   3 -12   51.33    9.37
  -3  -3  11   43.73    7.45
  -3  -3  11   45.85    6.65
   3   3 -11   43.76    8.24
   3   3 -11   48.30    6.88
  -3  -3  10   80.16    8.72
  -3  -3  10   68.46    8.64
   3   3 -10   62.10    9.00
   3   3 -10   56.29    6.95
  -3  -3   9   66.47    8.02
  -3  -3   9   47.05    7.21
   3   3  -9   29.64    6.57
   3   3  -9   45.97    6.12
  -3  -3   8  302.34   19.39
   3   3  -8  313.24   21.26
  -3  -3   7  412.23   24.61
  -3  -3   7  401.18   23.56
   3   3  -7  391.33   24.52
   3   3  -7  360.42   20.84
  -3  -3   6  304.43   19.69
   3   3  -6  274.57   16.93
  -3  -3   5  584.68   31.86
  -3  -3   5  545.42   29.49
   3   3  -5  575.87   30.11
   3   3  -5  570.34   31.74
  -3  -3   4  462.69   25.79
  -3  -3   4  427.76   25.05
   3   3  -4  394.46   23.89
   3   3  -4  399.39   22.63
  -3  -3   3  235.76   15.56
  -3  -3   3  240.68   16.41
   3   3  -3  205.59   14.09
   3   3  -3  214.11   15.62
  -3  -3   2  482.55   26.28
  -3  -3   2  511.22   28.82
   3   3  -2  413.43   24.62
   3   3  -2  430.00   24.14
  -3  -3   1  420.00   23.59
  -3  -3   1  460.30   26.76
   3   3  -1  428.51   24.19
   3   3  -1  400.14   24.07
  -3  -3   0  228.74   15.02
  -3  -3   0  253.67   17.47
   3   3   0  182.30   13.47
   3   3   0  177.07   13.88
  -3  -3  -1  463.29   27.05
  -3  -3  -1  430.00   24.04
   3   3   1  446.73   26.14
   3   3   1  464.34   25.87
  -3  -3  -2  497.63   28.98
   3   3   2  446.13   25.28
  -3  -3  -3  303.54   20.71
  -3  -3  -3  288.16   17.90
   3   3   3  260.53   18.45
   3   3   3  275.47   18.41
  -3  -3  -4  355.19   20.96
   3   3   4  293.53   18.95
   3   3   4  321.16   20.17
  -3  -3  -5  262.92   19.44
  -3  -3  -5  271.73   17.48
   3   3   5  239.94   16.81
   3   3   5  255.61   17.69
  -3  -3  -6   35.15    6.40
  -3  -3  -6   45.43    8.23
   3   3   6   34.07    5.97
   3   3   6   38.42    6.62
  -3  -3  -7   49.87    8.78
  -3  -3  -7   52.78    7.19
   3   3   7   23.72    5.27
   3   3   7   30.34    6.01
  -3  -3  -8   49.87    9.14
  -3  -3  -8   36.94    6.23
   3   3   8   31.68    5.90
   3   3   8   21.08    5.16
  -3  -3  -9   78.25   11.19
   3   3   9   87.09    9.43
  -3  -3 -10   53.32   10.02
  -3  -3 -10   59.95    8.16
  -3  -3 -11   59.62   10.30
  -3  -3 -11   88.43    9.92
   3   3  11   51.05    7.55
   3   3  11   48.91    7.35
  -3  -3 -12   60.14    8.68
  -3  -3 -12   72.50   11.43
   3   3  12   69.89    8.92
   3   3  12   95.69   10.19
  -3  -4  14   51.99    7.93
  -3  -4  14   48.61    8.68
   3   4 -14   28.32    7.60
  -3  -4  13   45.99    8.14
  -3  -4  13   61.53    8.14
   3   4 -13   50.60    6.91
  -3  -4  12   11.40    4.60
  -3  -4  12   10.44    5.17
   3   4 -12   12.57    5.22
   3   4 -12   17.83    4.57
  -3  -4  11   18.14    5.51
   3   4 -11    8.77    5.14
  -3  -4  10  140.61   12.33
   3   4 -10  146.32   11.57
   3   4 -10  108.87   13.31
  -3  -4   9   36.34    6.39
  -3  -4   9   28.83    6.80
   3   4  -9   26.82    5.21
   3   4  -9   30.83    7.58
  -3  -4   8  248.75   17.87
  -3  -4   8  230.98   16.84
   3   4  -8  292.64   21.17
   3   4  -8  268.45   17.50
  -3  -4   7   67.47    8.44
  -3  -4   7   63.96    8.15
   3   4  -7   39.31    7.53
   3   4  -7   36.16    5.78
  -3  -4   6  135.07   11.86
  -3  -4   6  117.62   11.51
   3   4  -6  103.59   11.96
   3   4  -6  102.05    9.43
  -3  -4   5  181.40   14.01
  -3  -4   5  165.28   13.51
   3   4  -5  159.30   13.85
   3   4  -5  145.92   11.63
  -3  -4   4   47.69    6.69
  -3  -4   4   45.15    6.94
   3   4  -4   42.96    7.15
   3   4  -4   35.59    5.70
  -3  -4   3  300.10   18.96
  -3  -4   3  320.41   20.84
   3   4  -3  312.50   21.01
   3   4  -3  316.83   19.68
  -3  -4   2  151.40   12.03
  -3  -4   2  143.28   12.48
   3   4  -2  123.12   11.94
   3   4  -2  115.58   10.34
  -3  -4   1   57.44    7.49
  -3  -4   1   53.72    7.67
   3   4  -1   61.77    8.90
   3   4  -1   63.45    7.69
  -3  -4   0  116.74   10.19
  -3  -4   0  124.66   11.97
   3   4   0  129.59   12.27
   3   4   0  172.30   13.19
  -3  -4  -1  180.96   13.17
  -3  -4  -1  170.21   14.98
   3   4   1  209.18   16.18
   3   4   1  231.43   16.50
  -3  -4  -2  272.63   17.48
  -3  -4  -2  235.01   17.84
   3   4   2  232.02   16.02
   3   4   2  228.14   17.16
  -3  -4  -3  186.93   13.68
  -3  -4  -3  194.54   16.27
   3   4   3  177.67   14.64
   3   4   3  219.63   15.50
  -3  -4  -4   47.42    8.46
  -3  -4  -4   52.05    7.17
   3   4   4   65.31    8.20
   3   4   4   61.51    8.12
  -3  -4  -5   99.53   12.28
  -3  -4  -5  118.85   10.75
   3   4   5   96.72   10.27
   3   4   5   78.34    9.05
  -3  -4  -6   66.62   10.77
   3   4   6   98.51   10.31
  -3  -4  -7   29.34    7.87
  -3  -4  -7   33.62    6.23
   3   4   7   55.20    8.04
   3   4   7   49.33    7.51
  -3  -4  -8   43.97    7.26
  -3  -4  -8   32.32    7.91
   3   4   8   44.00    7.10
   3   4   8   48.06    7.47
  -3  -4  -9    0.35    3.27
  -3  -4  -9    0.65    3.56
   3   4   9    3.64    3.51
   3   4   9    5.43    3.90
  -3  -4 -10   52.63    9.86
  -3  -5  11   59.77    8.14
  -3  -5  11   46.33    8.25
   3   5 -11   41.98    8.31
   3   5 -11   42.93    6.22
  -3  -5  10   83.55    9.73
  -3  -5  10   96.35   11.19
   3   5 -10   98.53   11.89
   3   5 -10   91.21    8.84
  -3  -5   9   -2.04    3.02
  -3  -5   9    5.14    3.67
   3   5  -9   -0.97    3.21
   3   5  -9    1.00    2.37
  -3  -5   8   31.37    6.42
  -3  -5   8   18.95    5.30
   3   5  -8   28.73    5.36
   3   5  -8   41.40    8.32
  -3  -5   7   42.94    7.38
  -3  -5   7   44.81    7.26
   3   5  -7   63.87    9.44
   3   5  -7   49.00    6.64
  -3  -5   6    8.97    3.81
   3   5  -6   14.08    5.30
  -3  -5   5   46.05    7.18
  -3  -5   5   51.18    8.33
   3   5  -5   49.70    7.76
   3   5  -5   47.90    8.25
  -3  -5   4  106.11   11.33
  -3  -5   4   70.22    9.28
   3   5  -4   98.36    9.31
  -3  -5   3   54.60    7.96
   3   5  -3   93.39    9.13
  -3  -5   2   45.94    7.58
   3   5  -2   58.57    7.32
  -3  -5   1  103.39   11.03
   3   5  -1  116.30   10.55
  -3  -5   0   76.56    8.71
  -3  -5   0   73.09    9.68
   3   5   0   92.36    9.73
   3   5   0  105.31   11.81
  -3  -5  -1   36.71    6.21
   3   5   1   38.39    7.55
  -3  -5  -2   83.57    9.15
  -3  -5  -2   76.35   10.18
   3   5   2   73.25    9.90
   3   5   2   65.29    8.31
  -3  -5  -3   22.57    6.31
  -3  -5  -3   27.56    5.66
   3   5   3   42.37    7.56
   3   5   3   42.12    6.57
  -3  -5  -4   65.10    8.31
  -3  -5  -4   46.49    8.57
   3   5   4   52.14    7.98
   3   5   4   62.53    8.26
  -3  -5  -5  113.07   10.99
  -3  -5  -5  125.34   13.95
   3   5   5   83.15    9.87
   3   5   5   96.51   10.41
  -3  -5  -6   30.56    7.08
  -3  -5  -6   24.22    5.61
   3   5   6   18.89    5.01
   3   5   6   20.34    5.51
  -3  -5  -7   77.39   11.65
   3   5   7   66.75    9.34
  -3  -6   6    4.69    3.20
   3   6  -6    4.05    3.01
  -3  -6   5    2.84    3.11
   3   6  -5   11.70    3.72
  -3  -6   4   63.92    9.07
  -3  -6   4   54.42    8.50
   3   6  -4   87.00    8.97
   3   6  -4   71.61   10.42
  -3  -6   3   13.33    4.55
  -3  -6   3   11.65    4.54
   3   6  -3    6.92    4.29
   3   6  -3    7.55    3.52
  -3  -6   2   10.18    4.20
  -3  -6   2    9.32    3.88
   3   6  -2    5.60    3.32
   3   6  -2    5.52    4.35
  -3  -6   1   40.66    7.42
  -3  -6   1   39.95    7.28
   3   6  -1   35.95    8.26
   3   6  -1   43.58    6.71
  -3  -6   0   38.91    7.47
   3   6   0   27.47    5.42
  -3  -6  -1   25.07    6.30
   3   6   1   14.30    4.96
  -4   9   2   21.34    6.85
  -4   9   1   43.93    8.08
  -4   9   0   76.09    9.62
  -4   9  -1   52.73    8.72
  -4   9  -1   42.27    7.58
  -4   9  -2  201.41   16.36
  -4   9  -2  188.12   14.95
  -4   9  -3  252.77   18.02
  -4   9  -3  226.35   17.68
  -4   9  -4   33.65    6.77
  -4   9  -4   36.19    7.13
  -4   9  -5   25.73    6.34
  -4   9  -5   15.06    6.04
  -4   9  -6   14.29    5.49
  -4   8   8   33.18    8.30
  -4   8   7   67.90    9.05
  -4   8   7   76.85   11.04
  -4   8   6  120.61   13.67
  -4   8   6  141.92   12.71
  -4   8   5   52.21    8.24
  -4   8   5   54.87    9.17
   4  -8  -5   44.34    8.85
   4  -8  -5   47.82    7.30
  -4   8   4   63.63    8.90
  -4   8   4   76.49    9.77
   4  -8  -4   92.90    9.77
   4  -8  -4   61.08    9.84
  -4   8   3   61.53    9.45
  -4   8   3   66.46    8.50
   4  -8  -3   53.38    9.15
   4  -8  -3   70.41    8.53
  -4   8   2   52.81    7.58
  -4   8   2   64.83    9.59
   4  -8  -2   50.06    7.18
   4  -8  -2   45.28    8.34
  -4   8   1  219.63   17.10
  -4   8   1  221.12   15.89
   4  -8  -1  227.54   18.14
   4  -8  -1  229.78   16.13
  -4   8   0   89.11    9.37
  -4   8   0  115.58   12.30
   4  -8   0  115.67   10.92
   4  -8   0  127.79   12.97
  -4   8  -1   71.76    9.90
  -4   8  -1   72.61    8.44
   4  -8   1   93.99   11.29
   4  -8   1   77.27    8.76
  -4   8  -2  188.12   14.07
  -4   8  -2  213.21   17.29
   4  -8   2  181.11   14.35
   4  -8   2  207.39   16.83
  -4   8  -3  349.53   24.08
  -4   8  -3  301.60   19.31
   4  -8   3  310.71   21.13
   4  -8   3  292.79   19.72
  -4   8  -4  143.14   12.03
  -4   8  -4  154.08   14.68
   4  -8   4  186.03   15.12
   4  -8   4  179.61   14.84
  -4   8  -5   51.91    8.65
  -4   8  -5   76.58    8.96
   4  -8   5   63.54    8.48
   4  -8   5   56.81    8.77
  -4   8  -6  239.79   16.98
  -4   8  -7   39.09    7.85
   4  -8   7   73.67   10.37
  -4   8  -8   16.95    5.62
  -4   8  -8   14.68    5.75
   4  -8   8   17.04    5.93
   4  -8   8   19.57    6.15
  -4   8  -9   37.03    7.74
  -4   8  -9   59.17    8.62
   4  -8   9   64.68    8.90
   4  -8   9   45.82    8.56
  -4   8 -10    4.57    4.39
   4  -8  10    8.97    4.95
   4  -8  10    2.04    4.41
  -4   7  12   14.10    5.25
  -4   7  11   35.70    7.91
  -4   7  11   29.92    6.78
   4  -7 -11   36.21    7.44
   4  -7 -11   32.65    8.21
  -4   7   9    2.52    4.01
  -4   7   9   -4.54    3.47
   4  -7  -9   13.20    4.74
   4  -7  -9    4.60    4.92
  -4   7   8   25.17    5.71
  -4   7   8   26.95    6.26
   4  -7  -8   23.98    6.75
   4  -7  -8   25.67    5.71
  -4   7   7   62.48    8.07
   4  -7  -7   40.42    6.58
  -4   7   6   12.42    5.44
  -4   7   6    4.74    4.85
   4  -7  -6    5.94    4.38
  -4   7   5   53.48    7.68
   4  -7  -5   27.05    5.60
   4  -7  -5   16.87    5.67
  -4   7   4   10.07    4.24
  -4   7   4    3.16    3.26
   4  -7  -4   -1.58    2.94
   4  -7  -4   -1.08    3.30
  -4   7   3   40.61    6.76
  -4   7   3   40.82    6.69
   4  -7  -3   38.82    5.93
   4  -7  -3   37.97    6.99
  -4   7   2    0.66    3.49
  -4   7   2    0.81    3.00
   4  -7  -2    2.95    3.51
   4  -7  -2    3.32    3.21
  -4   7   1   95.78    8.94
  -4   7   1   81.04    9.40
   4  -7  -1  118.00    9.95
   4  -7  -1  110.53   11.31
  -4   7   0  101.57   10.62
  -4   7   0   75.67    7.90
   4  -7   0   61.62    7.94
   4  -7   0   73.19    7.91
  -4   7  -1   20.66    4.76
  -4   7  -1   25.05    5.93
   4  -7   1   23.22    4.95
   4  -7   1   14.38    4.73
  -4   7  -2    4.97    3.99
  -4   7  -2    2.19    3.13
   4  -7   2    5.59    3.45
   4  -7   2    3.81    3.34
  -4   7  -3  115.80   10.16
   4  -7   3   78.34    8.70
  -4   7  -4  130.15   12.59
  -4   7  -4  120.22   10.56
   4  -7   4  106.37   10.93
  -4   7  -5   50.17    8.12
   4  -7   5   51.33    7.42
   4  -7   5   64.93    8.44
  -4   7  -6   36.95    6.45
  -4   7  -6   42.22    8.00
   4  -7   6   55.00    8.20
   4  -7   6   37.64    7.01
  -4   7  -7   10.18    4.99
  -4   7  -7   21.47    5.44
   4  -7   7   29.89    6.46
   4  -7   7   22.08    5.68
  -4   7  -8   83.49    9.31
  -4   7  -8   53.41    9.36
   4  -7   8   73.97   10.13
   4  -7   8   57.89    7.98
  -4   7  -9  139.22   12.39
   4  -7   9  135.14   11.79
   4  -7   9  140.44   14.50
  -4   7 -10   47.79    9.98
   4  -7  10   43.84    9.20
   4  -7  10   51.18    7.72
  -4   7 -11   59.17    8.64
  -4   7 -11   32.18    8.41
   4  -7  11   22.14    6.55
   4  -7  11   28.65    6.73
  -4   7 -12    7.45    4.41
  -4   7 -12   13.33    6.16
   4  -7  12    5.02    4.60
   4  -7  12    0.51    4.46
  -4   6  15    2.61    4.95
  -4   6  14    0.35    3.06
   4  -6 -14    0.84    3.69
  -4   6  13   67.17    8.62
  -4   6  13   56.41    9.54
   4  -6 -13   49.47   10.87
   4  -6 -13   56.00    7.87
  -4   6  12   45.99    8.57
  -4   6  12   39.06    6.87
   4  -6 -12   48.61    7.32
   4  -6 -12   52.14   11.09
  -4   6  11    8.75    4.33
  -4   6  11   14.92    5.85
   4  -6 -11    9.51    5.52
   4  -6 -11   13.02    4.59
  -4   6  10  195.89   16.51
  -4   6  10  190.51   14.33
   4  -6 -10  150.36   12.30
  -4   6   9   87.55   10.17
   4  -6  -9   90.94   11.26
   4  -6  -9   96.39    9.63
  -4   6   8    1.72    3.55
  -4   6   8   -0.51    2.79
   4  -6  -8    2.40    3.28
   4  -6  -8    1.72    3.82
  -4   6   7   80.18    8.19
  -4   6   7   69.25    8.58
   4  -6  -7   43.28    7.92
   4  -6  -7   55.90    6.97
  -4   6   6   38.67    6.12
  -4   6   6   34.36    5.36
   4  -6  -6   24.22    4.74
   4  -6  -6   19.29    5.38
  -4   6   5   31.46    5.29
  -4   6   5   28.59    5.89
   4  -6  -5   26.38    5.97
   4  -6  -5   27.50    4.83
  -4   6   4   27.73    5.00
  -4   6   4   30.80    5.10
   4  -6  -4   62.44    6.65
   4  -6  -4   55.24    7.13
  -4   6   3  413.58   23.71
  -4   6   3  415.67   22.83
   4  -6  -3  428.81   24.32
   4  -6  -3  427.91   22.83
  -4   6   2   60.30    6.55
  -4   6   2   83.52    8.39
   4  -6  -2   58.62    6.24
   4  -6  -2   45.79    6.34
  -4   6   1   34.06    5.73
  -4   6   1   33.38    4.81
   4  -6  -1   14.31    3.92
   4  -6  -1   14.92    3.64
  -4   6   0  317.28   17.92
  -4   6   0  314.29   19.13
   4  -6   0  297.27   17.30
   4  -6   0  308.91   18.93
  -4   6  -1   17.39    4.42
  -4   6  -1   11.96    3.18
   4  -6   1   11.14    3.73
   4  -6   1   10.94    3.50
  -4   6  -2   27.38    4.60
  -4   6  -2   28.34    5.21
   4  -6   2   53.82    6.39
   4  -6   2   50.35    6.13
  -4   6  -3   18.62    4.70
  -4   6  -3   21.10    4.50
   4  -6   3    5.27    3.19
   4  -6   3    6.38    3.28
  -4   6  -4  176.92   12.45
  -4   6  -4  152.73   12.97
   4  -6   4  115.01   10.33
   4  -6   4  136.45   10.74
  -4   6  -5  202.01   15.99
  -4   6  -5  232.47   15.32
   4  -6   5  253.67   16.44
   4  -6   5  259.79   17.38
  -4   6  -6  210.07   14.49
  -4   6  -6  176.63   15.11
   4  -6   6  205.44   15.24
   4  -6   6  199.92   14.30
  -4   6  -7  576.17   33.37
  -4   6  -7  644.71   33.61
   4  -6   7  523.62   30.64
   4  -6   8  158.56   13.81
   4  -6   8  175.28   13.13
  -4   6  -9   96.71   11.88
  -4   6  -9   76.52   10.92
   4  -6   9   91.96    9.67
   4  -6   9   82.51   10.11
  -4   6 -10  145.20   15.06
  -4   6 -10  154.83   13.39
   4  -6  10  132.92   13.26
   4  -6  10  135.50   11.91
  -4   6 -11   62.57    8.61
   4  -6  11   63.14    8.39
   4  -6  11   37.86    8.51
  -4   6 -12   32.25    8.39
  -4   6 -12   38.69    7.11
   4  -6  12   28.76    7.38
   4  -6  12   31.43    6.31
  -4   6 -13   76.49    9.34
  -4   6 -13   57.87   11.22
   4  -6  13   88.97   10.15
   4  -6  13   80.45   11.09
  -4   6 -14   94.51   10.58
   4  -6  14   74.34   10.49
  -4   5  17    1.76    3.81
  -4   5  16   12.23    5.31
  -4   5  16    4.55    4.16
   4  -5 -16    9.84    5.14
   4  -5 -16    2.74    4.40
  -4   5  15   51.11    8.70
   4  -5 -15   56.06   10.32
  -4   5  14  131.80   12.11
  -4   5  14  119.80   12.71
   4  -5 -14  129.45   11.48
   4  -5 -14   97.38   13.81
  -4   5  13  190.51   15.84
  -4   5  13  195.74   14.71
   4  -5 -13  184.24   18.39
   4  -5 -13  195.29   14.62
  -4   5  12  177.52   13.78
   4  -5 -12  181.55   13.49
  -4   5  11   38.00    6.95
  -4   5  11   38.82    7.12
   4  -5 -11   45.72    9.14
   4  -5 -11   46.39    6.59
  -4   5  10  174.83   13.73
  -4   5  10  198.13   13.87
   4  -5 -10  173.64   12.73
   4  -5 -10  182.00   16.08
  -4   5   9  641.57   33.01
  -4   5   9  635.60   33.55
   4  -5  -9  674.41   37.61
   4  -5  -9  663.21   33.38
  -4   5   8    9.26    4.09
  -4   5   8    7.80    3.35
   4  -5  -8   10.08    3.61
   4  -5  -8    9.72    4.40
  -4   5   7  205.00   13.22
  -4   5   7  163.34   11.92
   4  -5  -7  186.78   14.45
   4  -5  -7  228.29   14.12
  -4   5   6  722.94   34.89
   4  -5  -6  743.99   35.56
  -4   5   5  326.68   18.29
   4  -5  -5  329.82   19.53
  -4   5   4  461.05   23.72
   4  -5  -4  449.71   24.19
   4  -5  -4  483.00   24.02
  -4   5   3  711.59   33.91
  -4   5   3  661.27   31.71
   4  -5  -3  688.89   32.53
   4  -5  -3  753.70   36.73
  -4   5   2  455.08   23.19
  -4   5   2  427.91   21.56
   4  -5  -2  474.79   24.65
   4  -5  -2  420.74   21.07
   4  -5  -1  100.90    7.51
   4  -5  -1  108.61    8.66
  -4   5   0  270.24   15.84
  -4   5   0  244.12   13.64
   4  -5   0  278.90   16.15
   4  -5   0  240.09   13.62
  -4   5  -1  149.25    9.74
   4  -5   1  149.91   10.60
   4  -5   1  143.20    9.98
  -4   5  -2  200.67   13.54
  -4   5  -2  195.44   11.95
   4  -5   2  169.61   11.07
  -4   5  -3  233.37   15.23
   4  -5   3  269.94   16.04
  -4   5  -4  407.60   24.14
  -4   5  -4  384.31   20.72
   4  -5   4  388.19   20.99
   4  -5   4  341.17   19.59
  -4   5  -5  850.90   41.00
  -4   5  -5  788.93   40.42
  -4   5  -6  152.73   13.03
  -4   5  -6  161.99   11.71
   4  -5   6  140.38   10.76
   4  -5   6  116.97   10.19
  -4   5  -7  218.44   16.59
  -4   5  -7  258.44   16.81
   4  -5   7  221.42   15.53
   4  -5   7  241.43   15.62
  -4   5  -8    8.68    3.74
  -4   5  -8    5.44    5.25
   4  -5   8   25.47    5.16
   4  -5   8   16.41    4.64
  -4   5  -9   60.81    9.41
   4  -5   9   63.32    8.33
  -4   5 -10  202.61   14.96
  -4   5 -10  202.61   17.29
   4  -5  10  177.97   13.29
   4  -5  10  192.75   15.20
  -4   5 -11   42.76    8.85
  -4   5 -11   31.98    6.09
   4  -5  11   41.49    7.22
   4  -5  11   42.28    6.41
  -4   5 -12  113.28   11.16
  -4   5 -12  101.47   13.08
   4  -5  12   95.73    9.91
   4  -5  12   83.66   10.37
  -4   5 -13  113.59   14.06
   4  -5  13   87.70   10.78
   4  -5  13  106.59   10.93
  -4   5 -15   34.62    6.52
   4  -5  15   26.89    6.91
  -4   4  18    4.66    4.56
  -4   4  18    2.23    3.89
   4  -4 -18    0.87    4.78
  -4   4  17   41.10    7.83
  -4   4  17   30.61    6.58
   4  -4 -17   39.37    8.30
   4  -4 -17   27.76    6.42
  -4   4  16   33.03    7.01
   4  -4 -16   34.15    8.02
  -4   4  15  240.83   17.90
  -4   4  15  249.05   16.95
   4  -4 -15  228.44   19.07
   4  -4 -15  262.18   18.11
  -4   4  14  203.06   14.61
  -4   4  14  161.54   14.17
   4  -4 -14  189.32   14.39
   4  -4 -14  174.83   16.29
  -4   4  13   82.91    9.66
  -4   4  13  106.52    9.80
   4  -4 -13   88.79    9.28
  -4   4  12  243.07   16.02
  -4   4  12  233.07   16.23
   4  -4 -12  224.56   15.04
   4  -4 -12  273.23   19.75
  -4   4  11  203.50   14.44
  -4   4  11  244.57   16.35
   4  -4 -11  225.30   17.24
   4  -4 -11  229.19   14.93
  -4   4  10   47.76    6.10
  -4   4  10   46.82    6.49
   4  -4 -10   32.83    4.81
   4  -4 -10   36.82    6.93
  -4   4   9  123.81    9.96
   4  -4  -9  135.12   11.65
   4  -4  -9  124.12    9.26
  -4   4   8 1107.85   51.78
  -4   4   8 1173.99   53.90
   4  -4  -8 1153.24   52.76
  -4   4   7  284.57   16.10
   4  -4  -7  312.20   18.51
   4  -4  -7  319.52   17.33
  -4   4   6  692.78   33.15
  -4   4   6  657.84   31.04
   4  -4  -6  664.26   31.10
   4  -4  -6  688.89   33.83
  -4   4   5  952.57   42.93
  -4   4   5  910.62   41.54
   4  -4  -5  948.09   43.93
   4  -4  -5  945.26   42.37
  -4   4   4  624.55   29.00
  -4   4   4  690.69   31.50
   4  -4  -4  692.93   31.43
   4  -4  -4  631.71   29.71
  -4   4   3  605.14   27.47
  -4   4   3  568.25   26.01
   4  -4  -3  574.97   26.71
   4  -4  -3  626.49   28.31
  -4   4   2  662.46   29.73
  -4   4   2  608.27   27.49
   4  -4  -2  638.28   28.59
   4  -4  -2  673.51   30.49
  -4   4   1  152.29    8.64
  -4   4   1  161.40    8.55
   4  -4  -1  152.73    8.39
   4  -4  -1  140.95    7.65
  -4   4   0   32.89    3.15
  -4   4   0   28.74    3.31
   4  -4   0   43.51    3.77
   4  -4   0   39.91    3.60
  -4   4  -1  653.52   31.06
  -4   4  -1  690.84   31.58
   4  -4   1  678.74   31.09
   4  -4   1  668.74   31.03
  -4   4  -2  168.86    9.95
  -4   4  -2  172.59   11.12
   4  -4   2  158.26    9.71
   4  -4   2  164.98    9.68
  -4   4  -3  897.92   41.79
  -4   4  -3  837.46   40.16
   4  -4   3  814.16   37.82
   4  -4   3  742.95   35.15
  -4   4  -4   25.76    4.69
  -4   4  -4   19.99    3.79
   4  -4   4   18.78    3.77
  -4   4  -5   91.12    8.67
   4  -4   5   92.90    7.71
   4  -4   5   90.45    7.82
  -4   4  -6   31.19    5.95
  -4   4  -6   37.01    5.43
   4  -4   6   25.92    4.74
   4  -4   6   31.68    5.10
  -4   4  -7  271.88   17.01
  -4   4  -7  258.44   17.69
   4  -4   7  243.82   15.15
   4  -4   7  241.88   15.60
  -4   4  -8   62.04    8.34
  -4   4  -8   50.91    6.76
   4  -4   8   43.90    6.36
   4  -4   8   56.08    6.78
  -4   4  -9    5.16    3.74
  -4   4 -10   -3.27    3.49
   4  -4  10    1.27    3.64
  -4   4 -11  157.51   12.87
  -4   4 -11  166.92   14.92
   4  -4  11  141.52   12.29
   4  -4  11  157.36   12.63
  -4   4 -12   91.23    9.44
  -4   4 -12   89.37   11.46
   4  -4  12   87.43    9.23
   4  -4  12   79.59    9.25
  -4   4 -13   20.71    5.05
   4  -4  13   28.37    6.02
  -4   4 -14    8.60    3.72
  -4   4 -14    5.14    5.50
   4  -4  14    9.16    4.26
   4  -4  14   17.77    5.37
  -4   4 -15   -6.30    4.43
  -4   4 -15    5.58    3.39
   4  -4  15    3.51    3.91
   4  -4  15    7.40    4.19
  -4   3  19    1.54    3.87
  -4   3  18    8.13    4.39
  -4   3  18   11.90    5.25
   4  -3 -18    8.77    4.33
   4  -3 -18    4.05    5.05
  -4   3  17   32.76    6.52
   4  -3 -17   29.16    6.99
  -4   3  16   45.45    7.70
  -4   3  16   37.10    6.40
   4  -3 -16   41.95    7.72
   4  -3 -16   41.55    7.89
  -4   3  15  123.15   11.17
  -4   3  15  110.23   11.49
   4  -3 -15  121.88   12.04
   4  -3 -15  101.60   11.23
  -4   3  14   40.92    6.46
   4  -3 -14   11.27    4.57
   4  -3 -14   16.05    4.79
  -4   3  13   -1.52    3.25
   4  -3 -13    3.80    3.20
   4  -3 -13    6.07    3.60
  -4   3  12   44.05    6.34
  -4   3  12   47.23    6.54
   4  -3 -12   48.08    6.40
   4  -3 -12   42.75    6.78
  -4   3  11   97.14    8.98
  -4   3  11   90.87    8.35
   4  -3 -11   90.00    8.52
   4  -3 -11   95.23    9.15
  -4   3  10   63.31    7.11
  -4   3  10   80.60    7.50
   4  -3 -10  104.38    9.27
   4  -3 -10  104.69    8.59
  -4   3   9    9.78    3.09
   4  -3  -9    3.32    2.45
  -4   3   8  525.71   26.32
   4  -3  -8  528.84   27.08
   4  -3  -8  495.25   24.71
  -4   3   7  119.43    8.17
  -4   3   7  147.19    9.14
   4  -3  -7  120.91    7.95
   4  -3  -7  131.41    9.34
  -4   3   6  268.15   13.98
  -4   3   6  273.53   13.89
   4  -3  -6  270.09   13.72
   4  -3  -6  278.45   14.96
  -4   3   5  885.53   39.21
  -4   3   5  938.39   41.22
   4  -3  -5  942.27   41.48
   4  -3  -5  913.60   40.75
  -4   3  -1 1128.30   49.36
  -4   3  -1 1104.56   48.70
   4  -3   1 1083.66   47.26
   4  -3   1 1030.06   45.08
  -4   3  -2  202.46   11.05
  -4   3  -2  177.37   10.36
  -4   3  -3  516.90   25.04
  -4   3  -3  531.68   26.38
   4  -3   3  465.83   22.72
   4  -3   3  430.15   21.17
  -4   3  -4  362.06   19.10
  -4   3  -4  356.69   19.51
   4  -3   4  383.27   19.80
   4  -3   4  337.28   17.75
  -4   3  -5   56.60    6.31
  -4   3  -5   48.09    5.58
   4  -3   5   75.91    6.71
  -4   3  -6   21.46    4.19
  -4   3  -6   24.44    4.64
   4  -3   6   16.47    3.82
   4  -3   6   22.41    4.26
  -4   3  -7   15.48    3.97
  -4   3  -7   14.22    4.00
   4  -3   7   23.66    4.58
   4  -3   7   31.53    5.30
  -4   3  -8  332.66   19.80
  -4   3  -8  302.05   19.10
   4  -3   8  399.84   22.74
   4  -3   8  390.28   22.25
  -4   3  -9    8.38    3.53
  -4   3  -9   13.83    4.60
   4  -3   9   19.13    4.84
   4  -3   9   16.78    4.52
  -4   3 -10   63.47    8.42
  -4   3 -10   85.12    9.15
   4  -3  10   43.81    7.12
  -4   3 -11  132.63   11.34
  -4   3 -11  112.97   11.44
   4  -3  11  138.47   11.89
   4  -3  11  103.41   10.51
  -4   3 -12   36.04    6.35
  -4   3 -12   27.64    6.42
   4  -3  12   34.98    6.75
   4  -3  12   35.92    6.77
  -4   3 -13  151.69   13.04
  -4   3 -13  166.47   14.65
   4  -3  13  150.36   12.91
   4  -3  13  130.76   12.26
  -4   3 -14    7.62    4.14
  -4   3 -14    6.94    4.47
   4  -3  14   10.96    4.50
   4  -3  14   10.35    4.39
  -4   3 -15   34.76    6.43
  -4   3 -15   47.91    8.52
   4  -3  15   42.36    7.05
   4  -3  15   43.00    7.41
  -4   3 -16    6.51    3.63
  -4   2  19   36.43    7.53
   4  -2 -19   18.35    6.29
   4  -2 -19   22.81    7.20
  -4   2  18   25.77    5.95
  -4   2  18   13.72    5.32
   4  -2 -18   10.25    4.83
   4  -2 -18    4.14    5.06
  -4   2  17   42.72    7.41
  -4   2  17   59.07    8.79
   4  -2 -17   49.93    8.23
  -4   2  16  109.90   11.56
  -4   2  16   90.93    9.69
   4  -2 -16   94.27   11.57
   4  -2 -16   92.88   10.49
  -4   2  15   13.62    5.03
  -4   2  15   15.08    4.70
   4  -2 -15    6.02    4.33
   4  -2 -15   -0.74    3.65
  -4   2  14   61.75    7.74
   4  -2 -14   73.44    9.23
  -4   2  13   24.95    5.51
  -4   2  13   28.88    5.75
   4  -2 -13   34.47    6.32
   4  -2 -13   32.91    5.87
  -4   2  12   32.77    5.61
  -4   2  12   27.26    5.43
   4  -2 -12   36.19    6.15
   4  -2 -12   32.65    5.78
  -4   2  11   99.24    9.25
  -4   2  11   98.50    8.58
   4  -2 -11   99.05    9.05
   4  -2 -11   79.55    8.38
  -4   2  10  223.51   14.13
  -4   2  10  252.77   15.81
   4  -2 -10  236.65   15.26
   4  -2 -10  243.67   15.29
  -4   2   9   39.88    5.46
  -4   2   9   39.40    4.99
   4  -2  -9   37.09    5.29
  -4   2   8  138.47    9.68
  -4   2   8  124.67    8.69
   4  -2  -8   99.72    7.80
   4  -2  -8  103.41    8.25
  -4   2   7  334.30   17.41
  -4   2   7  289.80   15.27
   4  -2  -7  302.49   15.98
   4  -2  -7  291.00   16.02
  -4   2   6  115.35    7.27
  -4   2   6  112.94    7.01
   4  -2  -6  127.12    7.77
   4  -2  -6  117.95    7.70
  -4   2   5  375.80   17.53
  -4   2   5  411.19   19.07
   4  -2  -5  413.88   19.17
   4  -2  -5  348.93   16.63
   4  -2  -4  214.11    9.76
  -4   2   0  793.41   34.71
  -4   2   0  704.42   30.76
   4  -2   0  747.73   32.37
   4  -2   0  734.89   31.88
  -4   2  -1  850.00   38.18
  -4   2  -1  818.05   36.33
   4  -2   1  752.06   33.44
   4  -2   1  800.28   35.43
  -4   2  -2  885.98   40.39
  -4   2  -3  285.77   15.14
  -4   2  -3  251.44   13.99
   4  -2   3  292.79   15.39
   4  -2   3  262.03   14.29
  -4   2  -4 1063.35   49.06
   4  -2   4 1148.31   52.45
   4  -2   4 1146.82   52.09
  -4   2  -5  275.47   15.69
   4  -2   5  278.45   15.89
  -4   2  -6  223.36   14.37
  -4   2  -6  241.73   14.68
   4  -2   6  256.20   15.44
   4  -2   6  227.40   14.20
  -4   2  -7  380.73   21.17
  -4   2  -7  371.92   21.20
   4  -2   7  468.07   25.01
   4  -2   7  445.68   24.10
  -4   2  -8  183.35   13.91
  -4   2  -8  141.89   11.60
   4  -2   8  177.22   13.28
   4  -2   8  148.89   11.44
  -4   2  -9  381.32   22.60
  -4   2  -9  385.65   22.37
   4  -2   9  365.05   21.72
   4  -2   9  339.82   20.41
  -4   2 -10  157.96   12.61
  -4   2 -10  144.64   12.36
   4  -2  10  178.12   13.74
  -4   2 -11   74.16    8.70
  -4   2 -11   70.53    8.77
   4  -2  11   67.34    8.42
   4  -2  11   73.35    8.87
  -4   2 -12   56.95    8.10
  -4   2 -12   34.56    6.38
   4  -2  12   42.63    6.88
   4  -2  12   43.81    7.12
  -4   2 -13   85.54    9.57
  -4   2 -13   98.11   10.71
   4  -2  13   97.12   10.12
   4  -2  13   94.85   10.17
  -4   2 -14   33.15    6.68
  -4   2 -14   44.69    7.66
   4  -2  14   53.29    7.94
   4  -2  14   60.01    8.65
  -4   2 -15   29.73    6.67
  -4   2 -15   21.08    5.35
   4  -2  15   22.71    5.53
   4  -2  15   38.16    6.69
  -4   2 -16    6.53    4.10
  -4   1  19   41.75    7.58
  -4   1  18    3.53    3.90
  -4   1  18    8.01    4.30
   4  -1 -18    1.23    3.91
   4  -1 -18   11.26    5.91
  -4   1  17   47.76    7.72
  -4   1  17   35.58    6.49
   4  -1 -17   30.53   10.37
  -4   1  16   83.72    9.77
  -4   1  16   77.16    8.93
   4  -1 -16   87.45   11.82
   4  -1 -16  108.67   11.29
  -4   1  15    1.51    3.35
  -4   1  15   -0.80    3.36
   4  -1 -15   -2.30    4.22
   4  -1 -15   -0.39    2.78
  -4   1  14   90.20    9.45
   4  -1 -14  116.85   10.97
   4  -1 -14  128.61   13.04
  -4   1  13   10.46    4.12
   4  -1 -13   17.78    4.84
   4  -1 -13   11.50    4.97
  -4   1  12   49.27    6.66
  -4   1  12   51.30    6.77
   4  -1 -12   57.69    8.14
   4  -1 -12   52.96    7.17
  -4   1  11  147.44   11.17
  -4   1  11  172.30   12.23
   4  -1 -11  150.65   11.62
   4  -1 -11  148.15   12.37
  -4   1  10   30.62    4.96
  -4   1  10   35.00    5.01
   4  -1 -10   34.33    5.41
   4  -1 -10   41.15    6.32
  -4   1   9  257.40   15.36
   4  -1  -9  331.16   18.66
   4  -1  -9  282.04   17.47
  -4   1   8   20.68    3.94
  -4   1   8   16.39    3.57
   4  -1  -8   12.67    3.33
  -4   1   7   69.71    5.94
  -4   1   7   67.14    6.11
   4  -1  -7   67.49    6.60
   4  -1  -7   59.39    5.86
  -4   1   6   28.47    3.73
  -4   1   6   30.25    3.68
   4  -1  -6   26.11    3.94
   4  -1  -6   31.83    3.78
  -4   1   5  147.06    9.04
  -4   1   5  142.93    8.59
   4  -1  -5  178.12   10.74
   4  -1  -5  181.40   10.08
  -4   1   4  872.09   39.10
  -4   1   4  862.53   38.77
   4  -1  -4  863.28   39.31
   4  -1  -4  824.32   36.80
  -4   1   3   18.29    2.43
  -4   1   3   15.33    2.43
   4  -1  -3   29.43    3.19
   4  -1  -3   27.37    2.64
  -4   1   2   72.32    4.95
  -4   1   2   82.43    5.75
   4  -1  -2  106.86    6.20
   4  -1  -2  113.34    6.86
   4  -1  -1  710.70   32.55
   4  -1  -1  615.44   28.02
   4  -1   0  526.60   24.67
   4  -1   0  530.49   24.80
   4  -1   1  156.77    9.35
   4  -1   1  173.34   10.05
  -4   1  -2 1051.56   48.36
   4  -1   2  962.42   43.93
   4  -1   2  875.53   40.54
   4  -1   3  245.31   14.10
   4  -1   3  226.35   13.31
  -4   1  -4  210.82   13.06
   4  -1   4  169.16   11.00
  -4   1  -5  451.65   23.66
   4  -1   5  540.19   27.52
   4  -1   5  501.37   25.92
   4  -1   6  426.12   22.98
   4  -1   6  400.59   22.02
  -4   1  -7  200.07   15.66
   4  -1   7  254.26   16.27
   4  -1   7  216.49   14.21
  -4   1  -8  158.26   12.56
   4  -1   8  174.24   12.82
   4  -1   8  170.21   12.66
  -4   1  -9  310.11   19.96
   4  -1   9  337.88   20.59
   4  -1  10   90.33    9.66
   4  -1  10   74.10    8.36
  -4   1 -11   86.27    9.31
  -4   1 -11   71.16    8.87
   4  -1  11   76.76    9.21
   4  -1  11   68.29    8.24
  -4   1 -12   23.86    5.50
  -4   1 -12   30.95    5.96
   4  -1  12   35.21    6.58
   4  -1  12   19.56    4.84
  -4   1 -13    5.40    3.33
  -4   1 -13    8.94    4.60
   4  -1  13   -3.90    3.22
  -4   1 -14   51.79    8.37
  -4   1 -14   53.45    7.99
   4  -1  14   50.99    7.82
   4  -1  14   56.62    7.81
  -4   1 -15   14.29    5.22
  -4   1 -15   21.08    5.35
   4  -1  15   26.85    5.68
   4  -1  15   22.71    6.08
  -4   0  19   18.27    5.98
  -4   0  18   22.66    6.35
  -4   0  18   17.77    5.39
   4   0 -18   24.32    5.97
   4   0 -18   17.72    6.79
  -4   0  17   16.51    5.75
  -4   0  17   22.72    5.79
   4   0 -17   36.45    6.91
   4   0 -17   30.14    8.29
  -4   0  16   54.48    7.90
  -4   0  16   40.19    7.30
   4   0 -16   72.00   10.86
   4   0 -16   67.98    8.93
  -4   0  15   24.61    5.75
  -4   0  15   42.66    6.55
   4   0 -15   45.34    8.64
   4   0 -15   31.09    6.31
  -4   0  14   43.54    6.63
  -4   0  14   46.96    7.21
   4   0 -14   52.67    7.64
   4   0 -14   49.18    8.71
  -4   0  13  155.72   12.75
   4   0 -13  172.74   15.11
  -4   0  12   97.48    9.85
  -4   0  12  119.09   10.09
   4   0 -12  133.72   12.70
   4   0 -12  133.24   11.45
  -4   0  11  114.43    9.60
  -4   0  11  118.24   10.41
   4   0 -11  114.56   11.42
  -4   0  10  105.75    9.44
  -4   0  10   99.27    8.64
   4   0 -10   87.73    9.70
   4   0 -10   86.99    8.30
  -4   0   9  121.21    9.76
  -4   0   9  122.27    9.45
   4   0  -9  121.40    9.34
   4   0  -9  110.99   10.20
  -4   0   8   47.08    5.89
  -4   0   8   69.68    7.00
   4   0  -8   73.20    7.91
   4   0  -8   76.37    7.00
  -4   0   7  183.35   12.16
   4   0  -7  153.33   11.50
  -4   0   6   47.66    5.34
  -4   0   6   40.09    5.02
   4   0  -6   44.10    4.91
   4   0  -6   45.08    6.47
  -4   0   5  581.99   28.88
   4   0  -5  545.27   26.59
   4   0  -4  602.15   28.83
   4   0  -4  641.72   31.58
  -4   0   3  169.61   11.07
   4   0  -3  234.86   14.03
   4   0  -3  225.90   12.86
  -4   0   2 1195.94   54.35
  -4   0   2 1104.86   50.99
   4   0  -2 1291.04   58.06
   4   0  -2 1437.96   65.84
  -4   0   1  706.96   33.49
  -4   0   1  698.45   33.98
   4   0  -1  652.47   31.18
   4   0  -1  650.38   31.64
  -4   0   0  427.46   22.72
   4   0   0  411.19   21.08
   4   0   0  408.80   21.34
  -4   0  -1  255.16   15.59
   4   0   1  271.43   15.35
  -4   0  -2   54.54    5.83
   4   0   2   65.98    6.48
  -4   0  -3  694.57   33.88
  -4   0  -3  654.71   33.62
   4   0   3  616.63   30.80
   4   0   3  610.66   30.49
  -4   0  -4   87.60    9.25
  -4   0  -4   73.50    7.22
   4   0   4   54.94    6.52
   4   0   4   51.90    6.13
  -4   0  -5  339.52   19.34
  -4   0  -5  328.03   20.48
   4   0   5  345.65   19.53
   4   0   5  321.61   18.83
  -4   0  -6  386.55   23.43
  -4   0  -6  457.62   24.87
   4   0   6  457.32   25.11
   4   0   6  394.32   22.34
  -4   0  -7  287.71   19.45
  -4   0  -7  278.45   17.39
   4   0   7  272.78   17.14
   4   0   7  254.56   16.54
  -4   0  -8  450.76   27.46
   4   0   8  454.48   25.76
  -4   0  -9  154.53   12.29
   4   0   9  148.70   12.16
   4   0   9  127.52   11.45
  -4   0 -10  164.98   16.23
  -4   0 -10  139.35   12.18
   4   0  10  136.87   11.74
   4   0  10  112.97   10.74
  -4   0 -11   40.97    7.70
   4   0  11   58.12    7.76
   4   0  11   55.41    7.56
  -4   0 -12  219.18   18.05
   4   0  12  243.52   17.39
  -4   0 -13   37.30    6.61
  -4   0 -13   37.25    7.91
   4   0  13   44.02    7.27
  -4   0 -14   59.96    9.88
  -4   0 -14   42.21    7.09
   4   0  14   40.72    7.06
   4   0  14   57.53    8.10
  -4   0 -15   49.60   11.00
  -4  -1  18   93.57   10.44
  -4  -1  17  101.09   10.16
  -4  -1  17   88.34   11.35
   4   1 -17   75.89    9.52
   4   1 -17   82.78   12.04
  -4  -1  16   93.30   10.58
   4   1 -16   51.93    9.92
   4   1 -16   58.08    8.92
  -4  -1  15  126.51   12.41
  -4  -1  15  140.69   12.74
   4   1 -15  166.77   14.19
   4   1 -15  139.52   15.27
  -4  -1  14  250.24   18.02
  -4  -1  14  268.75   17.54
  -4  -1  13  575.72   32.03
  -4  -1  13  539.89   29.19
   4   1 -13  613.95   32.59
   4   1 -13  581.10   34.41
  -4  -1  12  273.38   18.25
   4   1 -12  246.66   18.74
   4   1 -12  245.31   16.44
  -4  -1  11   85.76    8.54
   4   1 -11   63.32    7.31
  -4  -1  10  191.71   14.00
  -4  -1  10  190.81   13.71
   4   1 -10  166.62   14.23
   4   1 -10  188.72   13.13
  -4  -1   9  338.48   19.86
  -4  -1   9  326.09   19.95
   4   1  -9  272.33   18.71
   4   1  -9  299.36   17.60
  -4  -1   8  301.45   18.53
  -4  -1   8  264.42   16.83
   4   1  -8  259.64   15.84
   4   1  -8  230.38   16.15
  -4  -1   7  422.39   23.47
  -4  -1   7  444.49   24.65
   4   1  -7  373.26   22.07
   4   1  -7  387.00   21.28
  -4  -1   6  377.59   21.72
   4   1  -6  387.45   20.86
   4   1  -6  390.88   22.74
  -4  -1   5  229.63   14.69
   4   1  -5  265.31   16.80
   4   1  -5  267.85   15.57
  -4  -1   4  531.83   27.59
  -4  -1   4  516.15   27.64
   4   1  -4  511.82   27.49
   4   1  -4  511.52   26.11
  -4  -1   3  468.82   25.49
  -4  -1   3  458.96   24.86
   4   1  -3  401.63   22.81
   4   1  -3  412.83   21.98
  -4  -1   2  126.21    9.45
  -4  -1   2  125.79   10.56
   4   1  -2  164.23   11.25
   4   1  -2  179.02   12.62
  -4  -1   1  133.38    9.74
  -4  -1   1  125.97   10.34
   4   1  -1  159.75   11.81
  -4  -1   0  192.60   12.64
  -4  -1   0  183.20   13.15
   4   1   0  149.31   11.61
  -4  -1  -1   38.37    6.02
  -4  -1  -1   41.67    5.38
   4   1   1   52.57    6.85
  -4  -1  -2  106.99    8.82
  -4  -1  -2   97.51    9.51
  -4  -1  -3  357.13   20.20
  -4  -1  -3  372.37   22.68
  -4  -1  -4  104.19    9.19
  -4  -1  -4   92.12    9.77
  -4  -1  -5  262.92   16.54
  -4  -1  -5  219.48   16.38
  -4  -1  -6  243.67   17.71
  -4  -1  -7  142.80   11.51
   4   1   7  139.19   11.75
  -4  -1  -8   45.39    8.03
  -4  -1  -8   36.88    6.28
   4   1   8   20.44    5.18
  -4  -1  -9   14.96    5.58
  -4  -1  -9   21.05    5.58
   4   1   9    5.02    4.32
   4   1   9   13.04    4.54
  -4  -1 -10  374.31   22.55
  -4  -1 -10  307.57   23.32
   4   1  10  372.37   22.71
   4   1  10  338.93   21.80
  -4  -1 -11   68.62    9.81
   4   1  11   73.61    9.29
  -4  -1 -12   62.44   10.18
   4   1  12   84.46    9.80
   4   1  12  109.13   11.00
  -4  -1 -13  123.70   14.22
  -4  -1 -13  144.83   12.91
   4   1  13  154.83   13.01
   4   1  13  166.77   13.71
  -4  -2  17    2.99    3.62
   4   2 -17    7.09    4.19
  -4  -2  16   85.51    9.26
  -4  -2  16   90.72   11.89
   4   2 -16   73.76   10.99
   4   2 -16   96.48   10.46
  -4  -2  15   50.44    8.43
  -4  -2  15   46.14    6.81
   4   2 -15   28.50    7.43
   4   2 -15   42.49    6.90
  -4  -2  14   29.55    5.74
   4   2 -14   47.02    6.95
  -4  -2  13  117.24   12.38
  -4  -2  13  154.68   12.54
   4   2 -13  134.78   11.53
   4   2 -13   98.48   12.46
  -4  -2  12  111.37   11.68
  -4  -2  12  127.15   11.30
   4   2 -12  141.14   11.84
   4   2 -12  131.71   13.71
  -4  -2  11   20.05    5.56
  -4  -2  11   15.11    4.26
   4   2 -11   31.35    7.08
   4   2 -11   25.77    5.15
  -4  -2  10   52.91    7.83
  -4  -2  10   54.21    7.19
   4   2 -10   70.29    9.51
   4   2 -10   54.18    7.07
  -4  -2   9   13.62    4.04
  -4  -2   9    9.71    3.95
   4   2  -9    3.42    3.78
  -4  -2   8   17.74    4.61
   4   2  -8   25.53    4.61
  -4  -2   7  191.86   14.55
   4   2  -7  217.84   16.27
   4   2  -7  190.21   13.00
  -4  -2   6  247.40   16.44
   4   2  -6  251.29   17.45
   4   2  -6  255.61   15.96
  -4  -2   5  200.67   14.20
  -4  -2   5  194.69   14.40
   4   2  -5  193.80   14.59
   4   2  -5  192.75   13.04
  -4  -2   4   25.87    4.94
  -4  -2   4   22.90    4.95
   4   2  -4   43.75    5.76
   4   2  -4   52.38    7.12
  -4  -2   3   50.88    6.37
  -4  -2   3   40.45    6.27
   4   2  -3   69.22    8.16
  -4  -2   2   54.20    7.47
  -4  -2   2   42.60    5.96
   4   2  -2   71.55    8.34
  -4  -2   1   87.99    8.34
  -4  -2   1   99.29   10.00
   4   2  -1  125.66   11.12
  -4  -2   0   67.46    8.24
  -4  -2   0   77.44    7.84
   4   2   0   47.52    6.26
  -4  -2  -1   21.23    5.30
  -4  -2  -1   13.58    3.85
   4   2   1    8.66    3.35
  -4  -2  -2   72.80    8.78
  -4  -2  -2   68.44    7.43
   4   2   2  109.22    9.84
  -4  -2  -3  102.53   11.04
   4   2   3  108.71   10.12
  -4  -2  -4  105.96   11.70
  -4  -2  -4  121.16   10.37
  -4  -2  -5   15.06    4.53
  -4  -2  -5   13.26    4.92
   4   2   5   21.78    5.17
  -4  -2  -6  174.83   13.25
  -4  -2  -6  185.59   15.86
   4   2   6  181.55   13.77
  -4  -2  -7    6.89    3.97
  -4  -2  -7    7.15    4.67
   4   2   7    1.68    3.12
  -4  -2  -8   14.62    5.00
  -4  -2  -8   15.81    5.81
   4   2   8   10.01    4.64
   4   2   8    5.77    4.42
  -4  -2  -9   77.65   10.81
  -4  -2 -10   16.99    5.13
  -4  -2 -10   16.48    6.43
   4   2  10   19.47    5.49
  -4  -2 -11   26.37    5.99
   4   2  11   21.96    5.67
   4   2  11   11.80    4.87
  -4  -2 -12   83.21   13.70
  -4  -2 -12   59.54    8.76
   4   2  12   56.02    8.28
   4   2  12   68.08    8.70
  -4  -3  15   22.44    7.16
  -4  -3  15   34.68    6.07
   4   3 -15   48.11    7.24
   4   3 -15   24.84    7.40
  -4  -3  14   26.11    5.83
  -4  -3  14   43.21    8.25
   4   3 -14   26.17    7.38
   4   3 -14   44.43    6.98
  -4  -3  13    3.26    3.82
  -4  -3  13   -0.92    3.93
   4   3 -13    0.66    4.26
   4   3 -13    5.79    3.70
  -4  -3  12   71.07   10.14
  -4  -3  12   68.13    8.31
   4   3 -12   80.65   12.02
  -4  -3  11   16.89    4.57
  -4  -3  11    9.74    4.48
   4   3 -11   23.19    6.78
   4   3 -11   36.18    6.05
  -4  -3  10   27.70    5.56
  -4  -3  10   36.68    7.15
   4   3 -10   46.02    8.58
   4   3 -10   53.29    6.98
  -4  -3   9  135.81   12.09
  -4  -3   9  136.74   12.65
   4   3  -9  127.26   10.69
   4   3  -9  127.79   13.25
  -4  -3   8   60.26    8.04
  -4  -3   8   48.94    8.84
   4   3  -8   60.65    9.29
   4   3  -8   55.81    7.13
  -4  -3   7  164.98   14.71
  -4  -3   7  206.94   16.95
   4   3  -7  236.95   18.32
   4   3  -7  210.37   14.76
  -4  -3   6  301.45   19.63
   4   3  -6  249.49   18.35
   4   3  -6  248.15   16.26
  -4  -3   5  193.35   14.90
  -4  -3   5  227.25   15.99
   4   3  -5  237.40   15.84
   4   3  -5  225.30   16.98
  -4  -3   4  154.83   13.09
  -4  -3   4  186.93   14.80
   4   3  -4  163.04   14.19
  -4  -3   3   68.14    7.95
   4   3  -3   76.83    9.63
  -4  -3   2  151.40   11.92
   4   3  -2  142.10   11.87
  -4  -3   1  370.27   23.13
  -4  -3   1  392.97   22.80
   4   3  -1  403.72   23.52
  -4  -3   0  105.34   10.93
  -4  -3   0  109.50    9.80
   4   3   0  112.70   10.19
  -4  -3  -1  115.82   10.12
  -4  -3  -1  125.66   11.82
   4   3   1   99.05   11.09
   4   3   1  109.77   10.09
  -4  -3  -2  182.15   16.13
  -4  -3  -2  178.87   13.19
   4   3   2  185.59   13.94
   4   3   2  156.32   13.49
  -4  -3  -3  107.37    9.79
  -4  -3  -3   91.36   11.27
   4   3   3   52.30    7.85
   4   3   3   81.42    8.94
  -4  -3  -4  240.09   16.29
  -4  -3  -4  248.15   19.44
   4   3   4  280.39   18.53
   4   3   4  245.01   17.11
  -4  -3  -5   55.21    7.59
  -4  -3  -5   47.96    9.06
   4   3   5   42.79    7.34
   4   3   5   44.19    7.72
  -4  -3  -6  128.99   13.59
  -4  -3  -6  146.64   12.38
   4   3   6  119.39   11.79
  -4  -3  -7   59.78    7.94
  -4  -3  -8    1.36    4.28
  -4  -3  -8    6.06    4.01
   4   3   8    0.94    2.91
  -4  -3  -9   33.12    8.67
  -4  -3  -9   48.33    7.60
   4   3   9   28.55    6.72
   4   3   9   46.55    7.78
  -4  -3 -10   58.51    8.52
  -4  -3 -10   52.14   10.10
   4   3  10   42.31    7.06
  -4  -4  13   -0.96    2.39
   4   4 -13   -2.40    2.74
  -4  -4  12   13.17    5.46
  -4  -4  12   21.93    5.26
   4   4 -12   -0.45    4.61
   4   4 -12    8.85    4.04
  -4  -4  11   73.09    8.99
  -4  -4  11   70.49    9.57
   4   4 -11   54.15    9.44
   4   4 -11   72.05    8.26
  -4  -4  10   61.51    8.24
  -4  -4  10   61.17    9.12
   4   4 -10   60.51    7.34
   4   4 -10   46.18    8.57
  -4  -4   9   89.91   10.73
  -4  -4   9   71.80    9.80
   4   4  -9   84.25   11.33
   4   4  -9   68.08    7.97
  -4  -4   8  146.53   13.02
  -4  -4   8  129.66   13.78
   4   4  -8  134.81   14.11
  -4  -4   7  106.98   11.12
   4   4  -7  104.11    9.75
  -4  -4   6  105.99   10.85
   4   4  -6   75.19   10.04
   4   4  -6   81.15    8.73
  -4  -4   5   96.94   10.87
  -4  -4   5   82.37   10.23
   4   4  -5   72.58   10.29
   4   4  -5   75.07    8.61
  -4  -4   4  269.05   19.08
  -4  -4   4  235.91   16.78
   4   4  -4  281.14   20.80
  -4  -4   3  236.20   17.44
  -4  -4   3  211.57   15.44
   4   4  -3  240.83   18.81
  -4  -4   2  158.11   13.84
  -4  -4   2  125.84   11.18
   4   4  -2  147.19   12.31
  -4  -4   1  244.87   17.10
  -4  -4   1  283.53   20.51
   4   4  -1  236.50   16.65
  -4  -4   0  151.40   13.73
  -4  -4   0  168.56   13.09
   4   4   0  141.74   12.35
   4   4   1   80.79    9.09
   4   4   1   66.58   10.63
  -4  -4  -2   98.83   11.37
   4   4   2   80.12    9.07
  -4  -4  -3   93.87    9.88
   4   4   3   72.00    9.83
  -4  -4  -4  113.64   13.34
  -4  -4  -4   95.24   10.17
   4   4   4  105.23   11.93
   4   4   4  104.90   10.95
  -4  -4  -5   35.31    6.72
  -4  -4  -5   39.36    8.34
   4   4   5   47.39    7.55
   4   4   5   41.76    8.31
  -4  -4  -6   36.28    6.55
  -4  -4  -6   25.41    7.28
   4   4   6   23.37    5.77
  -4  -4  -7   46.37    7.46
  -4  -4  -7   45.96    9.40
   4   4   7   47.02    7.97
  -4  -5   9    7.78    4.36
  -4  -5   8   27.53    7.54
  -4  -5   8   45.67    7.74
   4   5  -8   32.50    7.75
   4   5  -8   49.87    6.76
  -4  -5   7   35.33    6.87
   4   5  -7   29.29    5.35
   4   5  -7   30.34    7.07
  -4  -5   6   75.25   10.02
  -4  -5   6   57.80    8.86
   4   5  -6   92.44    9.04
   4   5  -6   79.94   10.71
  -4  -5   5   30.50    6.18
   4   5  -5   16.07    4.20
   4   5  -5   13.87    5.49
  -4  -5   4   17.16    4.81
  -4  -5   4   17.48    5.37
   4   5  -4   33.10    5.96
   4   5  -4   34.13    7.31
  -4  -5   3  117.71   12.42
  -4  -5   3   84.46    9.36
   4   5  -3   88.15   11.28
  -4  -5   2    3.16    3.02
  -4  -5   2   10.89    4.39
   4   5  -2    9.88    4.99
  -4  -5   1    7.28    3.56
  -4  -5   1    2.81    3.44
   4   5  -1    8.17    5.20
   4   5  -1    5.08    3.28
  -4  -5   0   43.84    6.94
  -4  -5   0   41.04    8.13
   4   5   0   43.09    6.86
  -4  -5  -1   69.83    8.53
  -4  -5  -1   50.61    8.56
   4   5   1   77.36    9.30
  -4  -5  -2   54.33    9.24
  -4  -5  -2   61.75    8.52
   4   5   2   80.30    9.71
  -4  -5  -3   29.28    7.18
   4   5   3   36.62    7.17
  -5   8   4   89.40   10.63
  -5   8   3   35.73    6.14
  -5   8   2   98.75    9.67
   5  -8  -2  116.40   11.95
   5  -8  -2  108.73   11.51
  -5   8   1  123.67   10.95
   5  -8  -1  178.72   14.78
   5  -8  -1  137.36   11.93
  -5   8   0  150.95   12.23
   5  -8   0  144.28   12.71
  -5   8  -1  224.11   17.93
  -5   8  -1  199.92   14.63
   5  -8   1  186.63   15.02
  -5   8  -2  174.24   13.71
  -5   8  -2  193.50   16.38
   5  -8   2  193.65   14.73
  -5   8  -3   65.72   10.26
   5  -8   3   64.13    8.34
   5  -8   3   64.01    8.32
  -5   8  -4  219.63   16.14
  -5   8  -4  171.85   16.44
   5  -8   4  170.65   13.77
   5  -8   4  167.52   14.30
  -5   8  -5  120.15   13.81
  -5   8  -5  140.90   12.60
   5  -8   5  118.82   11.40
  -5   8  -6   46.23    8.72
  -5   8  -6   73.26    9.36
  -5   8  -7   34.25    8.42
  -5   7   9  143.64   14.62
  -5   7   8   78.12   10.66
  -5   7   8   76.64    9.02
   5  -7  -7   68.47    8.21
   5  -7  -7   44.09    8.31
  -5   7   6   67.81    8.35
  -5   7   6   60.35    7.08
   5  -7  -6   89.06    8.88
   5  -7  -6   69.80    9.39
  -5   7   5   52.54    7.18
  -5   7   5   59.21    7.03
   5  -7  -5   41.48    7.27
   5  -7  -5   39.78    6.32
  -5   7   4  182.45   13.20
  -5   7   4  147.62   11.58
   5  -7  -4  174.09   12.30
   5  -7  -4  143.19   12.83
  -5   7   3   38.09    5.97
  -5   7   3   44.66    6.04
   5  -7  -3   64.53    8.20
   5  -7  -3   75.64    7.52
  -5   7   2  213.96   14.51
  -5   7   2  251.88   15.66
   5  -7  -2  283.08   16.83
   5  -7  -2  282.93   18.51
  -5   7   1  235.61   16.32
  -5   7   1  192.90   13.15
   5  -7  -1  283.68   18.90
   5  -7  -1  249.94   15.45
  -5   7   0   75.94    8.59
  -5   7   0   71.62    7.50
   5  -7   0   64.13    6.86
   5  -7   0   66.49    7.62
  -5   7  -1  252.18   17.29
  -5   7  -1  261.28   16.35
   5  -7   1  266.36   17.51
   5  -7   1  262.92   16.48
  -5   7  -2  314.89   18.80
  -5   7  -2  309.51   20.16
   5  -7   2  301.00   18.66
   5  -7   2  282.04   17.60
  -5   7  -3   50.24    6.83
  -5   7  -3   47.58    7.42
   5  -7   3   42.10    6.29
   5  -7   3   45.06    6.63
  -5   7  -4   13.67    4.62
  -5   7  -4   16.78    5.35
   5  -7   4    3.41    3.74
   5  -7   4    8.56    4.02
  -5   7  -5  256.80   16.98
  -5   7  -6   75.88   10.22
   5  -7   6  115.01   12.20
  -5   7  -7   19.74    6.35
  -5   7  -7   16.26    5.35
   5  -7   7   23.07    5.73
   5  -7   7   15.63    5.17
  -5   7  -8  193.95   15.56
  -5   7  -8  151.84   16.47
   5  -7   8  190.81   17.05
   5  -7   8  190.21   14.91
  -5   7  -9   45.31    9.51
  -5   7  -9   64.19    8.81
   5  -7   9   44.40    7.35
   5  -7   9   50.09    9.20
  -5   7 -10   11.24    6.24
  -5   7 -10   16.74    5.74
   5  -7  10   13.82    5.72
  -5   7 -11   16.89    6.88
  -5   7 -11   19.34    5.90
   5  -7  11   35.59    7.12
  -5   7 -12    5.90    5.30
  -5   6  12   50.15    7.56
  -5   6  11   64.46    9.45
  -5   6  11   61.44    8.37
   5  -6 -11   51.99    9.86
   5  -6 -11   85.61    9.04
  -5   6  10    0.44    3.43
  -5   6  10    6.02    3.18
   5  -6 -10    5.84    3.58
   5  -6 -10    7.66    4.86
  -5   6   9   34.89    6.61
  -5   6   9   58.05    6.89
   5  -6  -9   27.61    7.44
   5  -6  -9   35.83    5.95
  -5   6   8   71.29    7.52
  -5   6   8   50.27    7.14
   5  -6  -8   49.63    6.11
   5  -6  -8   30.65    6.83
  -5   6   7   17.99    4.04
   5  -6  -7   15.63    4.91
   5  -6  -7   22.74    4.16
  -5   6   6   26.10    4.58
  -5   6   6   21.10    4.42
   5  -6  -6   25.34    5.66
   5  -6  -6   20.37    4.65
  -5   6   5   28.73    4.50
   5  -6  -5    9.85    3.82
  -5   6   4   29.97    4.16
  -5   6   4   30.37    4.21
   5  -6  -4   37.03    5.69
   5  -6  -4   40.60    4.88
  -5   6   3   22.57    3.77
  -5   6   3   27.70    3.88
   5  -6  -3   33.28    4.26
   5  -6  -3   32.47    4.75
  -5   6   2   20.63    3.84
  -5   6   2   20.56    3.46
   5  -6  -2   10.51    3.11
   5  -6  -2    6.35    2.45
  -5   6   1  163.93   10.96
  -5   6   1  174.54   10.67
   5  -6  -1  140.89    9.57
   5  -6  -1  143.41    9.38
  -5   6   0   19.60    3.53
   5  -6   0    6.70    2.58
   5  -6   0    7.61    2.97
  -5   6  -1   23.32    3.90
  -5   6  -1   24.55    4.72
   5  -6   1   13.09    3.43
  -5   6  -2  258.00   16.50
   5  -6   2  198.43   13.01
  -5   6  -3   30.31    5.01
  -5   6  -3   42.27    6.15
   5  -6   3   29.65    4.88
   5  -6   3   36.80    5.52
  -5   6  -4  100.11   10.13
   5  -6   4  131.44   10.17
   5  -6   4  127.99   11.02
  -5   6  -5   90.61    8.85
  -5   6  -5   80.94    9.42
   5  -6   5   77.39    8.79
   5  -6   5   75.70    7.71
  -5   6  -6  280.39   18.19
  -5   6  -6  249.49   18.71
   5  -6   6  252.18   17.83
   5  -6   6  239.79   15.89
  -5   6  -7   79.95    9.16
   5  -6   7   51.30    8.04
   5  -6   7   60.30    7.61
  -5   6  -8   74.77   11.06
   5  -6   8   81.57    9.68
   5  -6   8   89.94   10.30
  -5   6  -9   25.95    7.35
  -5   6  -9   31.12    6.31
   5  -6   9   33.24    6.22
   5  -6   9   19.20    5.97
  -5   6 -10   13.84    4.81
  -5   6 -10   14.43    6.45
   5  -6  10   19.34    5.07
   5  -6  10    5.78    4.56
  -5   6 -11   32.77    6.59
   5  -6  11   23.10    5.52
   5  -6  11   12.16    6.04
  -5   6 -12    4.99    5.73
  -5   6 -12   24.35    6.13
   5  -6  12   14.29    5.95
   5  -6  12   23.20    5.85
  -5   6 -13    2.25    5.02
  -5   6 -13   14.17    5.06
   5  -6  13    9.95    5.40
   5  -6  13   19.14    5.63
  -5   5  14   59.07    9.35
  -5   5  14   59.05    8.46
   5  -5 -14   37.13   10.32
  -5   5  13  241.28   18.16
  -5   5  13  228.59   15.74
   5  -5 -13  153.48   17.41
  -5   5  12   41.49    7.15
  -5   5  12   41.90    6.15
   5  -5 -12   30.44    7.72
   5  -5 -12   39.76    6.39
  -5   5  11  163.34   11.86
  -5   5  11  155.72   12.98
   5  -5 -11  143.49   11.35
   5  -5 -11  125.90   13.41
  -5   5  10   42.67    6.65
  -5   5  10   51.70    6.19
   5  -5 -10   31.76    7.07
   5  -5 -10   44.84    5.95
  -5   5   9  101.08    8.20
   5  -5  -9   70.89    9.79
   5  -5  -9   98.36    8.05
  -5   5   8   53.36    6.39
   5  -5  -8   53.68    7.06
  -5   5   7   65.02    6.06
  -5   5   7   76.61    6.32
   5  -5  -7   55.83    6.38
   5  -5  -7   65.80    5.66
  -5   5   6  267.55   14.53
  -5   5   6  235.31   13.03
   5  -5  -6  208.43   12.37
   5  -5  -6  226.50   12.08
  -5   5   5   85.31    5.73
   5  -5  -5   86.24    5.57
   5  -5  -5   72.86    5.55
  -5   5   4    7.81    1.65
  -5   5   4    5.92    1.43
   5  -5  -4   14.57    2.06
   5  -5  -4   14.93    1.91
  -5   5   3  456.27   20.42
  -5   5   3  400.89   18.02
  -5   5   2   41.98    2.80
  -5   5   2   39.21    2.75
   5  -5  -2   39.01    2.56
   5  -5  -2   44.84    2.85
   5  -5  -1  256.50   12.17
   5  -5  -1  279.65   13.24
  -5   5   0   75.04    5.46
  -5   5   0   85.36    5.60
   5  -5   0   73.47    4.89
   5  -5   0   74.31    5.01
  -5   5  -1    8.95    2.38
  -5   5  -1   11.99    2.74
   5  -5   1   19.23    2.82
   5  -5   1   18.41    3.03
  -5   5  -2   59.33    5.92
  -5   5  -2   72.04    6.02
   5  -5   2   71.10    5.91
   5  -5   2   77.94    6.56
  -5   5  -3  728.17   34.79
   5  -5   3  755.64   36.25
   5  -5   3  690.84   33.64
  -5   5  -4  531.08   28.74
   5  -5   4  561.83   29.25
  -5   5  -5   21.31    4.40
  -5   5  -5   22.52    5.44
   5  -5   5   43.99    5.55
   5  -5   5   34.16    5.60
  -5   5  -6 1039.17   51.85
  -5   5  -6 1003.33   47.99
   5  -5   6 1039.17   50.48
   5  -5   6 1080.07   51.32
  -5   5  -7  308.02   18.60
  -5   5  -7  305.03   21.04
   5  -5   7  309.51   19.83
   5  -5   7  308.17   18.57
  -5   5  -8   44.36    8.05
  -5   5  -8   38.52    6.42
   5  -5   8   44.31    6.94
   5  -5   8   43.87    6.49
  -5   5  -9  424.33   27.35
   5  -5   9  409.25   24.75
  -5   5 -10   35.21    6.55
  -5   5 -10   31.89    7.68
   5  -5  10   37.06    6.95
   5  -5  10   46.70    7.14
  -5   5 -11  159.60   13.68
  -5   5 -11  138.50   15.11
   5  -5  11  177.37   14.06
   5  -5  11  137.83   12.68
  -5   5 -12  229.04   16.78
   5  -5  12  266.81   18.48
  -5   5 -13  186.93   17.92
  -5   5 -13  209.78   16.02
  -5   4  16   54.12    9.54
  -5   4  16   75.83    9.87
  -5   4  15   67.40    9.82
  -5   4  15   89.28    9.86
   5  -4 -15   65.71   10.84
   5  -4 -15   78.28    9.95
  -5   4  14  144.07   14.11
  -5   4  14  140.66   11.71
   5  -4 -14  134.99   12.98
  -5   4  13  254.11   17.87
  -5   4  13  236.20   15.75
   5  -4 -13  246.66   17.24
   5  -4 -13  218.44   18.26
  -5   4  12   76.88    8.68
  -5   4  12   97.11    8.80
   5  -4 -12   75.55    8.61
   5  -4 -12   93.55   11.11
  -5   4  11   67.87    7.23
  -5   4  11   60.54    7.70
   5  -4 -11   62.93    9.69
   5  -4 -11   55.05    6.88
  -5   4  10  493.30   25.38
   5  -4 -10  531.98   27.46
  -5   4   9  174.09   11.88
   5  -4  -9  211.57   14.77
   5  -4  -9  187.68   11.93
  -5   4   8   71.91    5.87
  -5   4   8   76.04    6.38
   5  -4  -8   51.39    5.25
   5  -4  -8   56.44    6.36
  -5   4   7  415.07   19.69
  -5   4   7  396.70   19.32
  -5   4  -1  131.51    6.77
  -5   4  -1  152.29    7.84
   5  -4   1  172.15    8.46
   5  -4   1  155.87    7.73
  -5   4  -2  102.81    6.61
  -5   4  -2  111.85    7.79
   5  -4   2   93.87    6.44
   5  -4   2   87.28    5.98
  -5   4  -3  142.99   10.01
  -5   4  -3  144.22    9.27
   5  -4   3  112.65    7.98
   5  -4   3  114.85    7.94
  -5   4  -4  725.63   34.79
   5  -4   4  743.40   35.46
   5  -4   4  630.07   31.07
  -5   4  -5  407.60   23.44
   5  -4   5  378.64   20.69
  -5   4  -6  162.74   11.74
  -5   4  -6  174.24   13.45
   5  -4   6  149.09   11.28
   5  -4   6  144.61   10.84
  -5   4  -7  133.78   12.05
  -5   4  -7  120.31   10.09
   5  -4   7   99.27    9.13
   5  -4   7   90.61    8.85
  -5   4  -8   17.71    4.85
  -5   4  -8   18.98    5.76
   5  -4   8   48.82    6.90
   5  -4   8   44.25    6.69
  -5   4  -9  184.39   13.72
   5  -4   9  189.92   14.09
  -5   4 -10   55.99    9.13
  -5   4 -10   53.51    7.87
   5  -4  10   50.18    7.75
   5  -4  10   68.96    8.54
  -5   4 -11   36.06    6.66
  -5   4 -11   29.47    7.27
   5  -4  11   28.52    6.12
   5  -4  11   30.86    6.35
  -5   4 -12   55.83    9.91
  -5   4 -12   71.13    8.96
   5  -4  12   69.55    8.93
   5  -4  12   43.66    7.94
  -5   4 -13   88.42   12.46
   5  -4  13  101.80   11.70
   5  -4  13  143.99   12.73
  -5   4 -14   51.17   10.32
  -5   4 -14   67.19    8.99
  -5   4 -15   37.58    7.39
  -5   3  17   -2.72    3.80
   5  -3 -17    3.53    3.99
  -5   3  16   47.67    7.68
  -5   3  16   55.72    8.52
   5  -3 -16   73.17   10.42
   5  -3 -16   56.24    8.73
  -5   3  15  121.84   12.53
  -5   3  15  111.10   10.74
   5  -3 -15  106.66   11.68
   5  -3 -15  115.67   12.83
  -5   3  14   24.75    6.34
  -5   3  14   24.53    5.65
   5  -3 -14   30.86    6.36
  -5   3  13  114.22   10.98
  -5   3  13  107.77    9.76
   5  -3 -13   96.35   10.82
   5  -3 -13  104.42   10.86
  -5   3  12  121.28   10.93
  -5   3  12  121.88   10.15
   5  -3 -12  129.05   12.17
   5  -3 -12  128.02   11.25
  -5   3  11   83.85    8.32
  -5   3  11   71.25    7.41
   5  -3 -11   94.88    9.50
   5  -3 -11   73.56    7.98
  -5   3  10  149.91   10.33
  -5   3  10  144.58   10.72
   5  -3 -10  127.69   10.45
  -5   3   9  392.22   20.77
  -5   3   9  401.18   20.56
   5  -3  -9  432.69   23.17
   5  -3  -9  464.19   24.44
  -5   3   8   89.39    6.66
  -5   3   8   78.95    6.02
   5  -3  -8  114.56    8.41
   5  -3  -8  111.23    8.22
  -5   3   7  251.58   12.64
  -5   3   7  296.52   14.61
   5  -3  -7  224.86   12.07
   5  -3  -7  245.01   12.68
  -5   3  -1   57.84    3.67
  -5   3  -1   66.52    4.24
   5  -3   1   68.40    3.72
   5  -3   1   66.17    3.60
  -5   3  -2   16.48    2.88
  -5   3  -2   16.20    2.77
   5  -3   2   29.07    3.12
   5  -3   2   31.74    3.29
  -5   3  -3   18.33    3.46
  -5   3  -3   15.92    3.38
   5  -3   3    9.88    2.74
   5  -3   3    9.64    2.43
  -5   3  -4   98.08    7.94
   5  -3   4   62.53    6.12
   5  -3   4   70.43    6.39
  -5   3  -5  117.98    9.52
   5  -3   5  148.27   10.66
  -5   3  -6    5.65    3.51
  -5   3  -6   10.28    3.85
   5  -3   6   12.85    3.91
   5  -3   6   14.28    4.02
  -5   3  -7    2.48    2.90
  -5   3  -7   -0.38    3.04
   5  -3   7   -0.28    2.85
   5  -3   7    0.14    2.97
  -5   3  -8   98.96   10.14
  -5   3  -8   84.97    9.00
   5  -3   8  149.61   12.13
   5  -3   8  153.78   12.14
  -5   3  -9    5.15    3.44
   5  -3   9   16.01    4.64
  -5   3 -10   15.69    5.08
  -5   3 -10   15.72    5.05
   5  -3  10   10.11    4.16
   5  -3  10   20.41    5.38
  -5   3 -11   19.29    5.74
  -5   3 -11   15.99    5.12
   5  -3  11   40.18    6.88
   5  -3  11   33.80    6.32
  -5   3 -12   32.95    6.61
  -5   3 -12   31.88    7.23
   5  -3  12   41.60    7.47
   5  -3  12   44.10    7.24
  -5   3 -13   21.07    6.84
   5  -3  13   22.32    6.02
  -5   3 -14   12.41    4.44
  -5   3 -14   10.24    5.83
   5  -3  14   19.35    5.62
   5  -3  14   18.48    6.15
  -5   3 -15   13.23    4.78
   5  -3  15   18.19    5.84
  -5   2  18   49.09    8.72
  -5   2  18   35.52    7.54
  -5   2  17    6.79    4.72
   5  -2 -17   -1.03    3.84
   5  -2 -17    4.13    4.74
  -5   2  16   41.09    7.65
  -5   2  16   21.29    5.60
   5  -2 -16   39.06    7.24
   5  -2 -16   43.07    8.82
   5  -2 -15  126.96   11.98
   5  -2 -15  105.56   12.68
  -5   2  14    7.71    3.68
  -5   2  14    0.47    3.65
   5  -2 -14    1.66    3.43
  -5   2  13   18.11    4.41
  -5   2  13   17.68    4.98
   5  -2 -13   26.77    5.37
   5  -2 -13   18.66    5.75
  -5   2  12   44.55    6.87
  -5   2  12   40.73    5.96
   5  -2 -12   59.21    7.01
   5  -2 -12   56.30    8.27
  -5   2  11   54.63    6.75
  -5   2  11   39.33    5.88
   5  -2 -11   64.86    7.14
   5  -2 -11   70.50    8.44
  -5   2  10   69.55    7.02
   5  -2 -10   42.37    6.31
   5  -2 -10   49.18    6.05
  -5   2   9  394.61   20.93
   5  -2  -9  414.92   21.93
  -5   2   8  506.00   24.89
  -5   2   8  477.78   23.65
   5  -2  -8  502.26   24.92
   5  -2  -8  495.54   25.44
  -5   2   7   77.01    5.85
  -5   2   7   74.80    5.86
   5  -2  -7   46.72    4.86
   5  -2  -7   45.84    4.49
  -5   2   6  270.99   13.46
  -5   2   6  267.85   13.27
   5  -2  -6  267.10   13.58
   5  -2  -6  262.03   12.98
  -5   2   0  224.41   11.36
  -5   2   0  203.65   10.08
   5  -2   0  195.14    9.67
   5  -2   0  188.12    9.29
  -5   2  -1  545.87   26.07
  -5   2  -1  508.83   23.68
   5  -2   1  534.82   24.78
   5  -2   1  546.76   25.59
  -5   2  -2  208.58   11.76
  -5   2  -2  207.09   12.50
   5  -2   2  229.19   12.82
   5  -2   2  187.83   10.98
  -5   2  -3  284.57   15.66
  -5   2  -3  290.85   16.93
   5  -2   3  273.08   15.33
   5  -2   3  301.30   16.56
  -5   2  -4  115.85    9.75
  -5   2  -4  125.99    9.16
   5  -2   4   87.57    7.52
  -5   2  -5  163.34   12.49
  -5   2  -5  152.29   10.68
   5  -2   5  137.11   10.14
   5  -2   5  125.96    9.81
  -5   2  -6  165.58   11.74
  -5   2  -6  144.19   11.81
   5  -2   6  200.22   13.60
   5  -2   6  210.97   13.90
  -5   2  -7   26.79    5.34
  -5   2  -7   33.33    5.45
   5  -2   7   49.36    6.62
   5  -2   7   35.95    5.72
  -5   2  -8   17.53    4.99
  -5   2  -8   18.81    4.86
  -5   2  -9   39.24    6.50
  -5   2  -9   28.44    5.68
   5  -2   9   58.36    8.03
  -5   2 -10  234.26   16.62
  -5   2 -10  216.05   16.13
   5  -2  10  254.71   17.81
   5  -2  10  221.12   15.66
  -5   2 -11   54.50    8.20
  -5   2 -11   54.65    7.98
   5  -2  11   44.48    7.39
   5  -2  11   44.67    6.82
  -5   2 -12   20.11    6.12
  -5   2 -12   26.11    5.82
   5  -2  12   41.67    7.24
   5  -2  12   38.54    6.61
  -5   2 -13   17.66    5.41
  -5   2 -13   29.91    6.81
   5  -2  13   20.71    5.42
   5  -2  13   27.68    6.45
  -5   2 -14   13.89    4.56
  -5   2 -14   12.08    4.90
   5  -2  14   13.47    4.96
   5  -2  14    3.51    3.83
  -5   1  18   14.91    5.48
  -5   1  18   12.02    5.50
   5  -1 -18    5.17    5.38
   5  -1 -18   13.65    5.10
  -5   1  17   31.46    7.26
  -5   1  17   32.98    7.13
   5  -1 -17   39.07    9.18
  -5   1  16   39.63    7.07
  -5   1  16   48.49    7.99
   5  -1 -16   43.04    9.56
   5  -1 -16   44.30    7.30
  -5   1  15   30.01    6.20
  -5   1  15   22.52    6.21
   5  -1 -15   14.56    6.03
   5  -1 -15   21.98    5.45
  -5   1  14    5.36    3.99
   5  -1 -14   11.26    5.42
   5  -1 -14    8.00    4.14
  -5   1  13   17.63    4.90
   5  -1 -13   19.31    6.35
   5  -1 -13   15.59    4.63
  -5   1  12   19.90    5.19
  -5   1  12   26.37    5.24
   5  -1 -12   27.04    5.34
   5  -1 -12   18.57    5.46
  -5   1  11  132.78   11.21
  -5   1  11  137.05   10.74
   5  -1 -11  149.46   11.65
   5  -1 -11  166.92   13.69
  -5   1  10   74.67    7.91
  -5   1  10   76.74    7.73
   5  -1 -10  102.92    9.08
   5  -1 -10  101.60    9.97
  -5   1   9  309.96   18.45
  -5   1   9  274.57   16.63
   5  -1  -9  270.99   16.32
   5  -1  -9  286.81   18.25
  -5   1   8  453.30   23.31
  -5   1   8  455.83   23.89
   5  -1  -8  458.51   25.47
   5  -1  -8  445.68   24.20
  -5   1   7   64.01    5.80
   5  -1  -7   76.28    6.49
   5  -1  -7   73.85    7.28
  -5   1   6   60.84    5.62
  -5   1   6   61.57    5.51
   5  -1  -6   59.90    6.06
   5  -1  -6   67.72    5.78
  -5   1   5  112.65    7.65
  -5   1   5  117.21    7.74
   5  -1  -5  140.11    9.47
   5  -1  -5  142.29    8.70
  -5   1   4  397.45   19.71
  -5   1   4  409.55   20.32
   5  -1  -4  447.92   22.98
   5  -1  -4  393.72   19.36
  -5   1   3  533.62   25.19
  -5   1   3  601.10   28.59
   5  -1  -3  551.24   25.80
   5  -1  -3  588.26   28.05
  -5   1   2  453.15   21.83
  -5   1   2  506.74   24.81
   5  -1  -2  485.69   23.17
   5  -1  -2  464.04   22.56
  -5   1   1  645.60   30.17
  -5   1   1  643.06   31.04
   5  -1  -1  619.92   29.25
   5  -1  -1  603.19   28.55
  -5   1   0  408.05   21.29
  -5   1   0  431.65   21.41
   5  -1   0  393.27   19.87
   5  -1   0  412.98   20.87
  -5   1  -1 1300.00   58.68
  -5   1  -1 1169.95   54.38
   5  -1   1 1072.31   49.29
   5  -1   1 1140.55   52.02
  -5   1  -2  320.86   18.69
   5  -1   2  244.57   14.45
  -5   1  -3  408.05   21.62
   5  -1   3  447.77   23.37
  -5   1  -4  511.67   28.28
  -5   1  -4  545.57   27.73
   5  -1   4  550.35   28.04
   5  -1   4  496.44   26.11
  -5   1  -5  114.71    9.42
  -5   1  -5  113.86   10.75
   5  -1   5   82.15    7.94
   5  -1   5   66.08    7.34
  -5   1  -6  261.58   16.59
  -5   1  -6  278.75   18.69
   5  -1   6  293.98   18.11
   5  -1   6  279.20   17.59
  -5   1  -7  206.64   15.95
  -5   1  -7  186.48   13.52
   5  -1   7  196.04   14.21
   5  -1   7  207.68   14.61
  -5   1  -8  301.90   21.05
  -5   1  -8  268.45   17.45
   5  -1   8  232.47   16.17
  -5   1  -9  225.90   15.74
  -5   1  -9  227.69   17.63
   5  -1   9  254.86   17.23
   5  -1   9  244.42   16.83
  -5   1 -10  144.25   12.08
  -5   1 -10  152.44   14.34
   5  -1  10  124.57   11.30
   5  -1  10  130.76   12.24
  -5   1 -11   72.52    8.58
  -5   1 -11   74.88   10.46
   5  -1  11   53.91    7.97
   5  -1  11   44.46    7.36
  -5   1 -12   19.63    6.96
  -5   1 -12   24.84    5.60
   5  -1  12   37.98    6.97
  -5   1 -13   24.96    5.83
  -5   1 -13   17.11    5.77
   5  -1  13   21.34    5.55
   5  -1  13   15.95    5.12
  -5   1 -14   13.70    5.09
  -5   1 -14   12.11    5.55
   5  -1  14   19.50    6.04
   5  -1  14   19.93    5.44
  -5   0  18   23.83    6.39
  -5   0  18   20.57    6.51
   5   0 -18   29.32    6.83
   5   0 -18   13.14    6.09
  -5   0  17   42.94    8.30
  -5   0  17   53.81    8.43
   5   0 -17   61.86    8.69
   5   0 -17   41.45    8.76
  -5   0  16    4.92    3.79
   5   0 -16    4.81    4.25
  -5   0  15   16.93    5.59
  -5   0  15   15.17    4.69
   5   0 -15   15.51    5.21
   5   0 -15   21.13    7.19
  -5   0  14   32.79    6.53
  -5   0  14   37.42    6.73
   5   0 -14   37.49    6.76
   5   0 -14   35.22    7.70
  -5   0  13   34.37    6.55
   5   0 -13   56.57    8.11
   5   0 -13   47.43    8.62
  -5   0  12  202.91   14.39
   5   0 -12  225.90   15.71
  -5   0  11  233.07   16.96
  -5   0  11  239.94   15.74
   5   0 -11  203.06   16.18
   5   0 -11  233.52   15.62
  -5   0  10   85.55    9.20
  -5   0  10  101.38    8.96
   5   0 -10  143.61   12.82
   5   0 -10  127.46   10.24
  -5   0   9   53.00    6.68
  -5   0   9   54.24    7.02
   5   0  -9   62.53    6.80
   5   0  -9   46.27    6.94
  -5   0   8  121.37    9.74
  -5   0   8   98.97    8.63
   5   0  -8   95.26    8.13
   5   0  -8   86.90    9.19
  -5   0   7  127.63    9.95
  -5   0   7  125.27    9.64
   5   0  -7  129.06    9.60
   5   0  -7  126.46   10.80
  -5   0   6   32.61    5.22
  -5   0   6   39.07    5.35
   5   0  -6   53.23    6.81
   5   0  -6   56.60    5.94
  -5   0   5  290.55   16.74
   5   0  -5  374.90   21.25
  -5   0   4  401.63   21.28
  -5   0   4  412.23   22.50
   5   0  -4  425.82   23.29
  -5   0   3  189.77   11.99
  -5   0   3  183.35   12.44
   5   0  -3  215.75   14.00
  -5   0   2  338.48   18.39
  -5   0   2  299.36   17.63
   5   0  -2  289.20   17.19
  -5   0   1  184.84   11.79
   5   0  -1  181.70   12.16
  -5   0   0   49.24    5.65
   5   0   0   87.94    7.63
   5   0   0   69.22    6.78
  -5   0  -1   74.83    7.18
  -5   0  -1   59.99    7.32
   5   0   1   50.36    6.05
   5   0   1   51.81    5.97
  -5   0  -2  199.02   14.81
  -5   0  -2  188.87   12.54
   5   0   2  215.15   13.81
   5   0   2  230.53   14.71
  -5   0  -3  256.35   15.90
  -5   0  -3  262.62   17.99
   5   0   3  252.33   15.99
   5   0   3  221.87   14.33
  -5   0  -4  388.19   23.77
  -5   0  -4  398.65   22.44
   5   0   4  420.00   24.08
   5   0   4  412.68   23.05
  -5   0  -5  100.72   10.51
  -5   0  -5  111.29    9.87
   5   0   5  101.14    9.34
   5   0   5  108.75    9.89
  -5   0  -6  130.88   12.88
   5   0   6  134.02   11.33
   5   0   6  131.56   11.56
  -5   0  -7  345.65   20.84
   5   0   7  374.31   22.38
  -5   0  -8  240.24   18.78
  -5   0  -8  256.35   17.17
   5   0   8  230.53   16.23
   5   0   8  243.37   16.75
  -5   0  -9   13.69    4.53
  -5   0  -9   19.42    5.93
   5   0   9    5.38    3.95
   5   0   9    1.93    3.12
  -5   0 -10    9.07    4.23
  -5   0 -10    8.66    4.94
   5   0  10   26.28    5.70
   5   0  10   33.95    6.45
  -5   0 -11   62.16    8.41
   5   0  11   55.42    8.17
  -5   0 -12   36.68    6.82
  -5   0 -12   30.20    7.58
   5   0  12   38.21    6.91
   5   0  12   34.91    6.76
  -5   0 -13   40.72    7.33
  -5   0 -13   26.59    6.77
   5   0  13   40.48    8.54
   5   0  13   54.30    8.03
  -5  -1  17    2.58    3.90
  -5  -1  17    1.46    4.21
   5   1 -17   -4.46    3.18
   5   1 -17   -0.09    3.90
  -5  -1  16   25.20    6.01
  -5  -1  16   20.32    6.36
   5   1 -16   25.11    6.19
   5   1 -16   18.86    7.07
  -5  -1  15  109.01   12.18
  -5  -1  15   77.98    9.60
   5   1 -15   85.22   13.47
  -5  -1  14   50.61    7.64
  -5  -1  14   65.41    9.32
   5   1 -14   51.69    9.72
  -5  -1  13   61.72    8.87
  -5  -1  13   59.56    7.95
   5   1 -13   66.20   10.45
   5   1 -13   78.34    8.98
  -5  -1  12   83.84    9.77
  -5  -1  12  104.34   10.11
   5   1 -12   94.54    9.35
   5   1 -12   93.93   12.10
  -5  -1  11   52.60    7.80
   5   1 -11   49.47    6.97
   5   1 -11   28.86    6.58
  -5  -1  10  116.12   10.97
  -5  -1  10  114.58   10.23
   5   1 -10  115.25   10.12
  -5  -1   9   18.59    4.53
  -5  -1   9   15.66    4.73
   5   1  -9   41.04    6.17
   5   1  -9   41.40    7.25
  -5  -1   8    8.67    3.82
  -5  -1   8    7.81    3.53
   5   1  -8    2.67    2.93
   5   1  -8    4.49    4.11
  -5  -1   7  135.68   11.32
  -5  -1   7  145.47   11.69
   5   1  -7  102.35   10.41
   5   1  -7  128.45   10.03
  -5  -1   6   11.01    3.96
  -5  -1   6   10.60    3.78
   5   1  -6   26.71    4.75
   5   1  -6   23.53    5.27
  -5  -1   5  587.07   30.59
  -5  -1   5  633.36   33.55
   5   1  -5  596.03   32.38
   5   1  -5  577.96   29.65
  -5  -1   4  497.34   27.74
  -5  -1   4  468.67   25.44
   5   1  -4  437.92   25.43
   5   1  -4  395.36   21.89
  -5  -1   3   30.70    5.11
  -5  -1   3   25.10    5.13
   5   1  -3   27.49    4.70
   5   1  -3   14.36    4.84
  -5  -1   2  134.74   11.35
  -5  -1   2  132.65   10.29
   5   1  -2  154.83   11.47
   5   1  -2  138.23   11.49
  -5  -1   1   71.40    7.30
  -5  -1   1   87.55    9.13
   5   1  -1   71.08    7.42
   5   1  -1   76.59    8.40
  -5  -1   0   57.68    7.92
  -5  -1   0   51.14    6.45
  -5  -1  -1   18.68    4.49
  -5  -1  -1   20.29    5.44
   5   1   1    7.44    3.19
   5   1   1   11.85    3.77
   5   1   2  111.25   10.35
   5   1   2  102.98    9.51
  -5  -1  -3  126.94   12.47
  -5  -1  -3  126.26   10.50
   5   1   3  100.32    9.74
   5   1   3  100.59    9.66
  -5  -1  -4  326.53   21.80
   5   1   4  326.38   20.26
  -5  -1  -5  369.68   21.92
   5   1   5  360.42   22.02
   5   1   5  356.09   21.51
  -5  -1  -6   18.59    5.08
  -5  -1  -6   13.89    5.70
   5   1   6   20.26    5.16
   5   1   6   14.93    4.55
  -5  -1  -7   91.76    9.49
  -5  -1  -7   76.06   10.61
   5   1   7  105.29   10.55
   5   1   7  107.02   10.28
  -5  -1  -8   11.97    5.58
  -5  -1  -8   17.72    5.36
   5   1   8    5.03    3.61
   5   1   8    9.35    4.52
  -5  -1  -9   67.47   10.77
   5   1   9   78.56    9.50
  -5  -1 -10   73.44   11.05
  -5  -1 -10   65.60    8.59
   5   1  10   65.93    8.72
   5   1  10   79.13    9.42
  -5  -1 -11    0.63    3.76
  -5  -1 -11    1.84    3.80
   5   1  11   11.08    4.40
   5   1  11    0.95    3.26
  -5  -1 -12   39.00    8.21
   5   1  12   53.33    8.18
  -5  -2  16   62.99    8.82
  -5  -2  15   30.95    7.70
  -5  -2  15   50.48    7.81
   5   2 -15   41.81    7.44
   5   2 -15   31.12    7.93
  -5  -2  14  119.01   13.58
  -5  -2  14  112.53   10.96
   5   2 -14   97.15   10.18
   5   2 -14   66.68   11.57
  -5  -2  13  122.52   13.41
  -5  -2  13  121.64   11.93
   5   2 -13   89.49   14.10
  -5  -2  12  123.81   12.31
  -5  -2  12  105.68   11.08
   5   2 -12  100.38   12.82
   5   2 -12  104.48   10.17
  -5  -2  11   78.91   10.13
  -5  -2  11   68.37    8.34
   5   2 -11   72.94    8.00
   5   2 -11   80.73   10.76
  -5  -2  10  189.32   15.23
  -5  -2  10  161.69   13.19
   5   2 -10  189.17   13.70
   5   2 -10  169.61   15.62
  -5  -2   9  172.74   14.20
  -5  -2   9  182.00   13.98
   5   2  -9  166.77   12.49
   5   2  -9  193.20   16.59
  -5  -2   8   21.34    5.14
  -5  -2   8   22.44    5.41
   5   2  -8   14.78    5.35
   5   2  -8   21.44    4.55
  -5  -2   7  251.88   17.35
   5   2  -7  205.74   14.32
   5   2  -7  199.02   16.38
  -5  -2   6  277.11   18.95
  -5  -2   6  329.67   20.35
   5   2  -6  271.29   19.50
  -5  -2   5  124.31   11.34
  -5  -2   5  123.67   10.68
   5   2  -5  101.83   11.21
   5   2  -5  106.08    9.53
  -5  -2   4  343.41   21.66
  -5  -2   4  320.56   20.83
   5   2  -4  315.04   19.25
  -5  -2   3  286.67   19.05
   5   2  -3  277.11   17.65
  -5  -2   2   34.40    6.68
  -5  -2   2   47.84    6.97
   5   2  -2   75.34    8.13
  -5  -2   1   29.10    5.80
  -5  -2   1   22.63    4.93
   5   2  -1   26.98    5.46
   5   2  -1   13.82    4.99
  -5  -2   0  221.42   15.02
   5   2   0  232.32   17.02
  -5  -2  -1   20.05    4.78
   5   2   1   36.97    6.59
   5   2   1   30.50    5.84
  -5  -2  -2  195.44   14.09
  -5  -2  -2  214.70   17.98
   5   2   2  164.98   13.23
   5   2   2  151.69   12.88
  -5  -2  -3  121.07   12.59
  -5  -2  -3  130.87   11.27
   5   2   3   84.78    9.72
   5   2   3  100.66   10.10
  -5  -2  -4   48.93    6.98
  -5  -2  -4   57.92    8.94
   5   2   4   33.31    6.56
   5   2   4   25.26    5.83
  -5  -2  -5  181.55   17.17
  -5  -2  -5  219.33   15.59
   5   2   5  155.72   13.21
   5   2   5  204.70   15.56
  -5  -2  -6   31.86    7.26
  -5  -2  -6   17.53    5.35
   5   2   6   34.44    6.51
   5   2   6   30.23    6.22
  -5  -2  -7  142.89   15.60
  -5  -2  -7  155.72   13.47
   5   2   7  137.45   13.57
   5   2   7  164.68   15.02
   5   2   8   64.81    8.56
   5   2   8   47.96    7.81
  -5  -2  -9    7.91    4.80
  -5  -2  -9    4.75    4.53
   5   2   9    7.11    4.12
   5   2   9    8.91    4.32
  -5  -2 -10   46.94    9.19
  -5  -2 -10   56.36    9.08
   5   2  10   69.17    9.97
   5   2  10   48.45    8.09
  -5  -3  14   37.73    7.40
   5   3 -14   44.27    8.35
  -5  -3  13   30.71    7.32
  -5  -3  13   42.03    7.16
  -5  -3  12   32.12    7.59
  -5  -3  12   32.31    6.04
   5   3 -12   41.88    6.69
   5   3 -12   38.77    8.60
  -5  -3  11   37.85    7.50
  -5  -3  11   47.17    7.41
   5   3 -11   70.80    8.44
   5   3 -11   48.96    9.16
  -5  -3  10   52.18    8.35
  -5  -3  10   42.40    8.44
   5   3 -10   56.14    9.59
  -5  -3   9   90.49   10.15
   5   3  -9   67.23    7.91
  -5  -3   8   59.48    8.63
  -5  -3   8   61.96    8.63
   5   3  -8   73.16    8.23
   5   3  -8   95.24   11.81
  -5  -3   7   86.54    9.55
  -5  -3   7   79.73    9.75
   5   3  -7   87.78    8.70
   5   3  -7   96.99   11.73
  -5  -3   6   64.74    8.78
  -5  -3   6   53.79    7.87
   5   3  -6   52.62    6.76
   5   3  -6   69.93   10.02
  -5  -3   5   43.00    7.21
  -5  -3   5   46.61    7.26
   5   3  -5   70.62    8.05
   5   3  -5   72.52    9.98
  -5  -3   4  149.61   13.44
  -5  -3   4  128.18   11.29
   5   3  -4  146.06   12.08
   5   3  -4  167.37   14.86
  -5  -3   3   56.02    7.95
  -5  -3   3   54.38    7.28
   5   3  -3   71.59    9.66
   5   3  -3   75.67    8.54
  -5  -3   2   33.79    5.94
  -5  -3   2   43.67    7.22
   5   3  -2   72.08    8.45
   5   3  -2   66.43    9.31
  -5  -3   1   45.15    6.88
  -5  -3   1   68.02    9.62
   5   3  -1   70.10    9.63
   5   3  -1   70.28    8.41
  -5  -3   0   75.03    9.82
  -5  -3   0   79.58    8.77
   5   3   0   92.67    9.81
   5   3   0   96.48   11.03
  -5  -3  -1   28.08    6.40
  -5  -3  -1   11.95    4.58
   5   3   1   36.40    6.34
   5   3   1   34.22    7.03
  -5  -3  -2    3.88    3.35
  -5  -3  -2    0.06    2.97
   5   3   2    7.74    4.27
   5   3   2   10.71    4.34
  -5  -3  -3   41.97    8.00
   5   3   3   55.71    8.11
  -5  -3  -4   12.73    4.66
   5   3   4   20.59    5.81
  -5  -3  -5   -2.77    3.84
  -5  -3  -5    7.16    4.43
   5   3   5    7.62    4.65
   5   3   5    7.23    4.24
  -5  -3  -6   53.38    9.65
  -5  -3  -6   71.88    8.92
   5   3   6   66.10    8.67
   5   3   6   60.60    8.85
  -5  -3  -7   44.15    8.86
  -5  -3  -7   40.19    7.28
   5   3   7   34.24    7.46
   5   3   7   51.88    7.62
  -5  -3  -8    9.59    5.28
  -5  -4  10    2.28    2.88
   5   4 -10    2.23    3.25
   5   4 -10    6.54    4.35
  -5  -4   9   41.15    8.00
  -5  -4   9   57.26    8.19
   5   4  -9   39.85    8.13
   5   4  -9   35.33    5.95
  -5  -4   8   35.21    6.64
  -5  -4   8   31.55    6.95
   5   4  -8   39.00    7.93
   5   4  -8   36.39    6.11
  -5  -4   7   94.73   10.93
  -5  -4   7   69.80    9.11
   5   4  -7   85.09    9.01
   5   4  -7   91.14   11.61
  -5  -4   6   50.64    8.13
  -5  -4   6   58.45    8.48
   5   4  -6   85.36    8.95
   5   4  -6   66.49   10.12
  -5  -4   5   48.40    7.65
  -5  -4   5   70.82    9.48
   5   4  -5   62.42    9.68
   5   4  -5   61.32    7.62
  -5  -4   4   17.20    5.16
  -5  -4   4   19.80    5.55
   5   4  -4   17.50    4.67
   5   4  -4   12.26    5.22
  -5  -4   3    9.59    4.27
  -5  -4   3   14.26    4.60
   5   4  -3   13.13    4.21
   5   4  -3    8.51    4.70
  -5  -4   2  106.43   11.64
  -5  -4   2  106.10   10.70
   5   4  -2  102.26   11.97
   5   4  -2  100.99   10.34
  -5  -4   1   24.53    5.65
  -5  -4   1   32.49    6.78
   5   4  -1   43.97    7.00
   5   4  -1   40.36    8.04
  -5  -4   0   56.84    7.70
  -5  -4   0   47.37    8.32
   5   4   0   26.32    6.69
   5   4   0   33.88    6.52
  -5  -4  -1   51.99    8.73
  -5  -4  -1   77.06    9.16
   5   4   1   58.24    8.40
   5   4   1   54.91    8.37
  -5  -4  -2   67.65    9.73
  -5  -4  -2   48.67    7.46
   5   4   2   54.12    8.25
   5   4   2   68.70    9.03
  -5  -4  -3   39.54    8.21
  -5  -4  -3   52.30    7.79
   5   4   3   37.16    7.05
   5   4   3   46.82    7.41
  -5  -4  -4   15.06    5.19
   5   4   4   22.07    5.77
  -6   7   4   32.12    3.87
  -6   7   3  236.95   12.02
  -6   7   3  219.18   11.21
  -6   7   2  191.71   10.17
  -6   7   2  192.30   10.50
  -6   7   1   59.77    5.20
  -6   7   0  180.51   10.95
  -6   7   0  174.98   10.86
   6  -7   0  154.53    9.94
   6  -7   0  187.83   11.61
  -6   7  -1   96.50    7.56
   6  -7   1   76.38    7.18
   6  -7   1   82.78    7.18
  -6   7  -2  153.48   11.57
  -6   7  -2  118.24    9.08
   6  -7   2  104.44    9.89
  -6   7  -3  206.49   14.85
  -6   7  -3  195.89   13.26
   6  -7   3  149.61   12.86
  -6   7  -4  185.14   14.73
  -6   7  -4  186.78   13.73
  -6   7  -5   67.75    8.47
  -6   7  -5   75.25    9.40
  -6   6  -2  173.94   10.85
  -6   6  -2  158.71    9.36
   6  -6   2  186.18   10.71
   6  -6   2  184.39   10.62
  -6   6  -3  289.35   17.21
  -6   6  -3  259.34   14.82
   6  -6   3  269.79   15.23
   6  -6   3  288.01   16.39
  -6   6  -4  295.62   17.32
  -6   6  -4  313.99   19.07
   6  -6   4  320.11   19.01
  -6   6  -5  160.80   11.78
  -6   6  -5  132.00   11.61
   6  -6   5  131.91   11.25
   6  -6   5  141.89   10.85
  -6   6  -6   52.62    7.81
  -6   6  -6   49.84    6.79
   6  -6   6   45.51    7.06
   6  -6   6   50.09    6.74
  -6   6  -7   97.48   11.55
  -6   6  -7   96.50    9.51
   6  -6   7   99.11    9.75
   6  -6   7   91.72   10.82
  -6   6  -8   72.40   11.12
  -6   6  -8   89.02    9.96
  -6   6  -9   94.42   13.03
  -6   6  -9   94.72   10.53
   6  -6   9   70.80   10.26
  -6   6 -10    8.63    6.53
  -6   5  11   24.37    4.39
  -6   5  11   22.77    5.15
  -6   5  10    4.04    2.69
  -6   5  10    1.61    1.99
   6  -5 -10    7.65    3.08
   6  -5 -10   11.21    3.61
  -6   5  -3   46.66    5.23
  -6   5  -3   46.42    4.55
   6  -5   3   27.17    3.50
   6  -5   3   29.53    3.85
  -6   5  -4   12.59    3.94
  -6   5  -4   13.86    3.28
   6  -5   4    1.44    2.34
   6  -5   4    5.71    2.73
  -6   5  -5  233.37   16.24
   6  -5   5  283.98   17.56
   6  -5   5  241.13   15.60
  -6   5  -6  102.74   11.05
  -6   5  -6   96.85    9.42
   6  -5   6  131.91   11.20
   6  -5   6  128.35   10.42
  -6   5  -7   55.89    7.38
  -6   5  -7   43.42    8.01
   6  -5   7   68.62    8.53
   6  -5   7   69.99    8.00
  -6   5  -8   55.00    7.68
  -6   5  -8   36.16    8.34
   6  -5   8   40.51    7.38
   6  -5   8   61.56    7.85
  -6   5  -9    5.52    6.21
   6  -5   9   13.37    4.89
   6  -5   9   11.71    4.72
  -6   5 -10   18.11    7.91
  -6   5 -10   28.98    6.22
   6  -5  10   21.04    6.18
   6  -5  10   38.92    7.00
  -6   5 -11   29.28    6.43
  -6   5 -11   28.97    8.23
   6  -5  11   22.89    6.26
   6  -5  11   15.66    6.02
  -6   5 -12   11.57    6.77
  -6   4  13   50.93    7.92
  -6   4  13   51.51    6.59
  -6   4  12    3.61    2.58
   6  -4 -12    4.22    4.15
   6  -4 -12    5.12    4.04
  -6   4  11  159.75   11.71
   6  -4 -11  151.69   13.04
   6  -4 -11  161.84   12.44
  -6   4  10   97.26    7.09
  -6   4  10   80.85    6.51
   6  -4 -10   97.77    7.88
   6  -4 -10   75.01    7.31
  -6   4  -3  173.34   10.63
  -6   4  -3  185.14   11.00
   6  -4   3  192.75   11.00
   6  -4   3  186.93   10.49
  -6   4  -4  181.55   12.60
  -6   4  -4  182.45   11.87
   6  -4   4  132.66    9.60
   6  -4   4  146.04    9.83
   6  -4   5  106.05    8.95
  -6   4  -6  504.21   27.22
  -6   4  -6  567.06   31.91
   6  -4   6  527.65   28.29
   6  -4   6  520.48   27.32
  -6   4  -7  136.04   12.70
  -6   4  -7  130.29   11.83
   6  -4   7   99.54    9.63
   6  -4   7   97.56    9.38
  -6   4  -8  152.44   14.35
  -6   4  -8  160.95   13.23
   6  -4   8  170.50   13.43
   6  -4   8  170.06   13.05
  -6   4  -9  103.42   12.57
  -6   4  -9   81.72   10.28
   6  -4   9  107.46   10.60
  -6   4 -10   35.16    8.87
  -6   4 -10   34.16    6.80
   6  -4  10   44.36    7.29
   6  -4  10   40.82    7.16
  -6   4 -11   36.39    8.98
  -6   4 -11   53.05    8.31
   6  -4  11   62.02    8.57
   6  -4  11   43.70    7.57
  -6   4 -12   59.36   10.74
  -6   4 -12   67.46    9.50
  -6   4 -13   91.67   11.29
  -6   4 -13   79.61   12.55
   6  -4  13   91.88   11.23
  -6   3  14   94.97   10.68
  -6   3  14   88.22    9.74
  -6   3  13  200.22   15.18
  -6   3  13  180.66   13.40
   6  -3 -13  192.75   16.26
   6  -3 -13  165.73   13.58
  -6   3  12  154.23   12.24
  -6   3  12  150.36   11.38
   6  -3 -12  145.85   12.05
   6  -3 -12  157.07   13.49
  -6   3  11   94.02    8.34
  -6   3  11   96.03    8.33
   6  -3 -11   75.65    8.21
  -6   3  10   95.75    7.83
  -6   3  10   94.24    7.41
   6  -3 -10  102.96    8.73
   6  -3 -10  110.67    9.29
  -6   3   9   55.89    4.54
  -6   3   9   72.05    5.50
   6  -3  -9   57.27    5.17
   6  -3  -9   53.99    5.14
  -6   3  -3  319.96   17.80
  -6   3  -3  309.06   17.21
   6  -3   3  298.01   15.95
   6  -3   3  312.80   16.50
  -6   3  -4   32.34    5.07
   6  -3   4   18.92    3.70
  -6   3  -5   54.45    7.02
  -6   3  -5   62.35    8.10
   6  -3   5   34.65    5.59
   6  -3   5   30.29    5.00
  -6   3  -6  492.71   27.85
  -6   3  -6  419.55   24.25
   6  -3   6  471.06   25.84
   6  -3   6  438.66   24.08
  -6   3  -7   65.52    8.23
  -6   3  -7   59.24    8.03
   6  -3   7   73.10    8.49
   6  -3   7   52.29    6.80
  -6   3  -8   20.13    5.75
  -6   3  -8   24.52    5.94
   6  -3   8   29.97    5.78
   6  -3   8   31.80    6.54
  -6   3  -9   55.48    8.57
   6  -3   9   63.95    8.47
   6  -3   9   69.67    8.49
  -6   3 -10   45.81    8.20
  -6   3 -10   41.97    7.51
   6  -3  10   59.29    8.37
   6  -3  10   65.52    8.57
  -6   3 -11   72.38   10.59
  -6   3 -11  100.75   11.81
   6  -3  11   96.96   10.73
   6  -3  11  100.92   10.80
  -6   3 -12   47.84    8.37
   6  -3  12   54.21    8.74
  -6   3 -13   50.24    8.47
  -6   3 -13   58.99   10.03
   6  -3  13   72.53   10.50
   6  -3  13   62.87    9.00
  -6   3 -14   20.08    5.70
   6  -3  14    7.74    5.45
  -6   2  15   50.69    8.90
  -6   2  14   38.57    7.25
   6  -2 -14   39.91    6.53
   6  -2 -14   27.61    7.32
  -6   2  13   80.98    9.32
  -6   2  13   90.14    9.78
   6  -2 -13   79.70    8.71
   6  -2 -13   73.23   10.07
  -6   2  12   48.84    7.17
  -6   2  12   42.67    6.52
   6  -2 -12   60.68    7.59
   6  -2 -12   62.89    8.61
  -6   2  11   46.85    6.94
  -6   2  11   43.19    6.35
   6  -2 -11   60.30    7.03
   6  -2 -11   43.34    6.96
  -6   2  10  121.37    9.92
  -6   2  10  127.24   10.21
   6  -2 -10  129.38   10.04
  -6   2   9   78.71    7.10
  -6   2   9   81.19    7.34
   6  -2  -9   96.30    8.98
   6  -2  -9   89.79    7.21
  -6   2   8  300.55   16.07
  -6   2   8  274.42   14.78
   6  -2  -8  248.00   13.48
   6  -2  -8  242.18   14.13
  -6   2   7  426.87   19.99
  -6   2   7  427.61   20.04
   6  -2  -7  474.49   22.71
   6  -2  -7  442.70   20.75
  -6   2   0  229.49   12.21
  -6   2   0  206.19   10.63
   6  -2   0  262.18   13.04
   6  -2   0  249.79   12.49
  -6   2  -1   73.20    5.80
  -6   2  -1   82.78    6.68
   6  -2   1  111.28    7.40
   6  -2   1  107.56    7.51
  -6   2  -2   68.44    5.98
  -6   2  -2   80.46    7.36
   6  -2   2   48.67    5.20
   6  -2   2   44.34    5.01
  -6   2  -3   46.81    5.51
  -6   2  -3   64.56    7.21
   6  -2   3   39.34    5.01
  -6   2  -4   93.76    8.35
  -6   2  -4  113.13   10.37
   6  -2   4  116.07    9.29
   6  -2   4  137.39   10.79
  -6   2  -5   62.25    8.68
  -6   2  -5   49.67    6.58
   6  -2   5   83.21    8.24
   6  -2   5  102.86    9.56
  -6   2  -6    1.68    3.35
  -6   2  -6   -0.73    2.88
   6  -2   6    5.17    3.07
   6  -2   6   11.54    4.59
  -6   2  -7   25.05    5.60
  -6   2  -7   39.78    7.51
   6  -2   7   52.26    7.07
   6  -2   7   42.57    6.95
  -6   2  -8   27.76    5.85
  -6   2  -8   19.17    6.14
   6  -2   8   37.85    7.02
  -6   2  -9   20.10    5.93
  -6   2  -9   20.93    6.69
   6  -2   9   28.79    6.27
   6  -2   9   23.02    5.63
  -6   2 -10   11.13    5.30
  -6   2 -10    7.15    4.62
   6  -2  10    9.10    5.06
   6  -2  10   12.74    4.77
  -6   2 -11   29.53    7.44
   6  -2  11   15.36    5.15
   6  -2  11   15.96    5.69
  -6   2 -12    9.40    5.45
  -6   2 -12    5.97    4.43
   6  -2  12    8.07    4.42
   6  -2  12    4.16    4.79
  -6   2 -13    8.01    4.74
  -6   2 -13    5.08    4.80
   6  -2  13    4.34    3.73
   6  -2  13    4.98    4.70
  -6   1  15   22.04    6.10
  -6   1  15   20.42    6.67
   6  -1 -15   29.65    6.16
   6  -1 -15   10.44    5.88
  -6   1  14   16.10    5.83
   6  -1 -14   27.52    5.95
   6  -1 -14   23.78    7.08
  -6   1  13    3.37    4.05
   6  -1 -13   10.26    4.31
  -6   1  12   64.84    8.48
  -6   1  12   64.19    8.04
   6  -1 -12   99.63    9.89
   6  -1 -12   91.32   11.30
  -6   1  11  106.63   10.31
  -6   1  11  131.68   10.86
   6  -1 -11  108.89   11.99
   6  -1 -11  128.76   11.16
  -6   1  10  116.40   10.33
  -6   1  10  127.94   10.60
   6  -1 -10  110.49    9.40
   6  -1 -10  116.49   11.31
  -6   1   9  114.52    9.77
  -6   1   9  109.89    9.76
   6  -1  -9  139.54   12.21
   6  -1  -9  160.35   11.30
  -6   1   8   33.31    5.34
  -6   1   8   41.60    5.45
   6  -1  -8   22.07    5.06
  -6   1   7  304.14   16.78
   6  -1  -7  320.56   17.66
  -6   1   6  133.35    9.24
  -6   1   6  154.38   10.10
   6  -1  -6  117.27    9.55
   6  -1  -6  132.47    8.99
  -6   1   5   14.62    3.14
  -6   1   5   14.20    3.01
   6  -1  -5   43.03    4.55
   6  -1  -5   46.12    5.55
  -6   1   4  388.64   20.08
  -6   1   4  406.86   20.65
   6  -1  -4  454.48   23.31
   6  -1  -4  472.70   23.19
  -6   1   3  255.31   14.71
  -6   1   3  248.90   13.90
   6  -1  -3  247.40   14.19
   6  -1  -3  259.79   14.07
  -6   1   2  310.56   16.57
  -6   1   2  318.62   17.74
   6  -1  -2  342.96   17.89
   6  -1  -2  357.73   18.93
  -6   1   1  120.00    9.27
  -6   1   1  131.97    9.05
   6  -1  -1  112.65    8.26
   6  -1  -1  106.02    8.16
  -6   1   0  313.99   18.26
   6  -1   0  308.17   17.27
  -6   1  -1  114.65    8.75
   6  -1   1   88.96    7.75
  -6   1  -2   20.05    4.51
  -6   1  -2   17.81    4.71
   6  -1   2   35.37    5.42
   6  -1   2   31.94    5.04
  -6   1  -3  125.57   10.46
  -6   1  -3   98.93    9.89
   6  -1   3  115.50    9.78
   6  -1   3  109.13    9.51
  -6   1  -4  301.30   20.28
  -6   1  -4  279.80   17.36
   6  -1   4  256.50   16.48
   6  -1   4  303.84   18.53
  -6   1  -5  265.46   17.83
  -6   1  -5  216.05   16.71
   6  -1   5  279.50   17.80
   6  -1   5  312.50   19.35
  -6   1  -6   15.65    5.69
   6  -1   6   33.10    6.24
   6  -1   6   37.88    6.22
  -6   1  -7  125.82   10.95
   6  -1   7  110.13   11.13
  -6   1  -8   28.25    5.81
  -6   1  -8   28.04    7.13
   6  -1   8   35.01    6.50
   6  -1   8   36.94    6.72
  -6   1  -9   45.45    7.31
  -6   1  -9   43.45    8.57
   6  -1   9   35.45    6.99
  -6   1 -10   41.91    8.99
   6  -1  10   51.41    8.52
   6  -1  10   32.56    6.68
  -6   1 -11    3.70    4.82
  -6   1 -11    0.46    2.96
   6  -1  11   10.54    4.74
   6  -1  11    9.89    4.42
  -6   1 -12   13.11    5.18
  -6   1 -12   12.80    5.17
   6  -1  12   14.70    5.32
   6  -1  12    9.19    5.03
  -6   1 -13   16.41    6.45
  -6   0  16   -2.59    3.93
  -6   0  15   14.68    6.61
  -6   0  15   32.04    6.51
   6   0 -15   25.70    6.18
   6   0 -15   12.57    6.24
  -6   0  14   32.38    6.69
  -6   0  14   18.99    6.58
   6   0 -14   39.01    7.06
   6   0 -14   25.02    6.99
  -6   0  13   25.08    6.56
  -6   0  13   24.28    6.43
   6   0 -13   25.56    7.04
   6   0 -13   29.44    6.29
  -6   0  12   60.20    8.84
   6   0 -12   58.92    9.37
  -6   0  11   27.08    5.64
   6   0 -11   21.78    6.39
   6   0 -11   25.10    5.20
  -6   0  10   27.16    5.86
  -6   0  10   41.12    6.48
   6   0 -10   30.17    6.78
   6   0 -10   30.95    5.51
  -6   0   9  141.16   11.88
  -6   0   9  121.34   10.98
   6   0  -9  143.70   13.26
   6   0  -9  133.74   10.64
  -6   0   8   38.24    5.93
  -6   0   8   33.68    5.77
   6   0  -8   47.29    7.59
   6   0  -8   48.15    6.03
  -6   0   7   42.30    6.03
  -6   0   7   43.81    6.15
   6   0  -7   35.30    5.38
   6   0  -7   28.95    6.16
  -6   0   6   78.71    7.88
  -6   0   6   81.60    7.96
   6   0  -6   64.74    6.62
   6   0  -6   72.92    8.63
  -6   0   5   50.26    6.28
  -6   0   5   57.26    6.92
   6   0  -5   74.32    8.54
   6   0  -5   63.78    6.54
  -6   0   4  683.22   34.00
  -6   0   4  678.44   34.67
   6   0  -4  671.42   33.04
   6   0  -4  739.81   38.04
  -6   0   3  145.05   10.55
  -6   0   3  156.47   12.00
   6   0  -3  120.51   10.40
   6   0  -3  112.22    8.91
  -6   0   2  198.73   13.93
  -6   0   2  175.73   12.14
   6   0  -2  163.19   12.31
   6   0  -2  171.40   11.84
  -6   0   1  199.47   14.36
  -6   0   1  192.45   12.89
   6   0  -1  161.99   12.29
   6   0  -1  179.31   12.52
  -6   0   0   78.89    8.87
  -6   0   0   88.21    8.51
   6   0   0   71.29    8.07
   6   0   0   68.52    7.34
  -6   0  -1  300.40   19.59
  -6   0  -1  289.65   17.71
   6   0   1  254.86   16.42
   6   0   1  285.47   17.77
  -6   0  -2   20.60    5.56
  -6   0  -2   15.41    4.75
   6   0   2   18.45    4.56
   6   0   2   20.01    4.72
  -6   0  -3   74.64    8.59
  -6   0  -3   58.12    8.65
   6   0   3   75.46    8.38
   6   0   3   79.10    8.74
  -6   0  -4  254.11   19.07
   6   0   4  227.40   15.98
   6   0   4  212.31   15.33
  -6   0  -5  310.26   19.45
   6   0   5  312.65   20.57
  -6   0  -6  182.75   16.56
  -6   0  -6  208.13   15.15
   6   0   6  190.21   14.75
   6   0   6  216.05   16.41
  -6   0  -7   97.69   12.89
  -6   0  -7   99.62   10.02
   6   0   7   93.72   10.22
   6   0   7   70.92    9.08
  -6   0  -8   12.87    4.67
  -6   0  -8    3.35    4.54
   6   0   8   12.71    5.05
   6   0   8    3.86    3.48
  -6   0  -9   13.23    5.09
  -6   0  -9   22.55    7.06
   6   0   9   18.50    6.14
  -6   0 -10   82.55    9.96
  -6   0 -10   92.30   12.69
   6   0  10   82.49   10.03
   6   0  10   66.29    9.38
  -6   0 -11   13.59    5.23
  -6   0 -11   11.15    5.15
   6   0  11    4.76    4.22
   6   0  11    7.18    4.45
  -6  -1  15   20.40    6.80
  -6  -1  15   19.25    5.85
   6   1 -15   12.31    5.38
  -6  -1  14   27.92    7.25
  -6  -1  14   29.92    6.98
   6   1 -14   20.07    6.64
  -6  -1  13    3.61    4.77
  -6  -1  13   12.89    4.60
   6   1 -13    4.40    3.92
   6   1 -13    5.05    5.06
  -6  -1  12   55.17    7.91
  -6  -1  12   48.38    8.33
   6   1 -12   47.14    7.07
   6   1 -12   39.49    8.72
  -6  -1  11   32.12    6.82
  -6  -1  11   13.94    5.54
   6   1 -11   31.74    6.08
   6   1 -11   40.63    8.39
  -6  -1  10    4.61    3.75
  -6  -1  10    2.50    3.53
   6   1 -10    0.96    3.47
   6   1 -10   -0.99    2.96
  -6  -1   9   65.56    8.72
   6   1  -9   65.99    9.33
  -6  -1   8  234.86   16.63
  -6  -1   8  210.22   15.45
   6   1  -8  252.03   16.44
  -6  -1   7   23.38    5.63
   6   1  -7   45.61    8.46
   6   1  -7   49.90    6.63
  -6  -1   6  152.29   12.36
  -6  -1   6  140.87   12.42
   6   1  -6  125.91   10.19
   6   1  -6  141.72   13.23
  -6  -1   5   55.17    7.50
  -6  -1   5   59.78    7.99
   6   1  -5   37.16    5.55
   6   1  -5   54.06    8.85
  -6  -1   4   36.83    6.38
  -6  -1   4   36.09    6.02
   6   1  -4   44.81    7.43
   6   1  -4   48.94    6.36
  -6  -1   3  360.12   21.31
  -6  -1   3  378.34   23.31
   6   1  -3  386.55   22.29
   6   1  -3  336.24   21.87
  -6  -1   2  288.46   18.23
  -6  -1   2  302.94   19.90
   6   1  -2  275.02   17.62
   6   1  -2  278.90   19.26
  -6  -1   1   64.53    7.68
  -6  -1   1   67.80    8.79
   6   1  -1   81.16    9.19
   6   1  -1   90.02    9.02
  -6  -1   0   30.47    6.23
   6   1   0   26.96    5.36
  -6  -1  -1  101.59    9.75
  -6  -1  -1  107.40   11.55
   6   1   1   95.87    9.80
   6   1   1   87.99   10.53
  -6  -1  -2  148.83   12.00
   6   1   2  143.35   12.46
   6   1   2  133.21   12.08
  -6  -1  -3   83.03   10.78
  -6  -1  -3   77.28    8.84
   6   1   3   80.67    9.39
   6   1   3   88.52    9.62
  -6  -1  -4  150.06   12.36
  -6  -1  -4  144.35   15.04
   6   1   4  111.56   11.27
   6   1   4  130.72   12.34
  -6  -1  -5  425.08   28.88
  -6  -1  -5  429.41   25.05
   6   1   5  378.04   23.90
   6   1   5  361.76   22.81
  -6  -1  -6   79.77    9.40
  -6  -1  -6   50.27    9.50
   6   1   6   74.23    9.83
   6   1   6   91.21   10.32
  -6  -1  -7   41.73    7.58
  -6  -1  -7   44.55    9.06
   6   1   7   54.32    9.13
  -6  -1  -8  114.83   14.38
  -6  -1  -8  142.71   12.93
   6   1   8  142.76   13.07
   6   1   8  130.60   13.16
  -6  -1  -9    8.58    4.82
  -6  -1  -9    9.87    5.15
   6   1   9    2.49    3.35
   6   1   9    2.53    3.55
  -6  -1 -10    1.39    3.88
   6   1  10    8.86    4.50
  -6  -2  14   45.11    7.78
  -6  -2  14   23.68    6.71
   6   2 -14   16.56    5.74
   6   2 -14   24.26    6.17
  -6  -2  13   12.51    5.34
  -6  -2  13   15.92    5.62
   6   2 -13   21.13    5.64
   6   2 -13    6.96    4.69
  -6  -2  12   33.58    7.07
  -6  -2  12   21.47    6.26
  -6  -2  11   67.93   10.04
  -6  -2  11   53.68    7.67
   6   2 -11   47.03    7.89
  -6  -2  10   66.43    9.38
  -6  -2  10   74.00    9.34
   6   2 -10  100.38    9.92
   6   2 -10   86.19   11.84
  -6  -2   9   14.20    5.22
  -6  -2   9   22.35    5.99
   6   2  -9   13.87    4.68
   6   2  -9   10.67    5.53
  -6  -2   8  178.87   15.54
  -6  -2   8  130.26   12.06
   6   2  -8  157.81   12.59
   6   2  -8  143.96   14.65
  -6  -2   7   10.86    4.41
  -6  -2   7   19.68    5.81
   6   2  -7   32.32    7.29
   6   2  -7   20.16    4.76
  -6  -2   6    2.42    4.01
  -6  -2   6   -0.15    2.98
   6   2  -6    5.82    3.85
   6   2  -6    6.68    4.66
  -6  -2   5   71.68    9.47
  -6  -2   5   64.59    8.47
   6   2  -5   73.44   10.80
   6   2  -5   72.73    8.27
  -6  -2   4   96.33    9.68
  -6  -2   4  136.10   13.27
   6   2  -4  113.20   10.35
   6   2  -4  108.87   12.19
  -6  -2   3  133.66   13.12
  -6  -2   3  112.58   10.57
   6   2  -3  133.62   11.47
   6   2  -3  144.88   13.89
  -6  -2   2   18.25    5.26
  -6  -2   2   13.15    4.22
   6   2  -2   19.66    4.88
   6   2  -2   28.77    6.72
   6   2  -1   62.74    8.19
   6   2  -1   48.39    8.07
  -6  -2   0   69.13    9.76
  -6  -2   0   57.50    7.70
  -6  -2  -1   37.21    7.99
  -6  -2  -1   23.22    5.78
   6   2   1   34.40    6.54
   6   2   1   35.00    7.01
  -6  -2  -2   61.39   10.16
  -6  -2  -2   72.35    8.67
   6   2   2   65.41    8.89
   6   2   2   44.82    8.01
  -6  -2  -3   32.21    6.57
  -6  -2  -3   29.26    7.11
   6   2   3   39.66    7.48
   6   2   3   29.00    6.27
  -6  -2  -4  146.10   12.63
  -6  -2  -4  149.28   15.87
   6   2   4  120.75   13.22
  -6  -2  -5   72.61    9.03
  -6  -2  -5   54.56   10.11
   6   2   5   53.41    8.36
   6   2   5   38.82    7.41
  -6  -2  -6   29.97    6.71
  -6  -2  -6   35.07    8.31
   6   2   6   26.80    6.59
   6   2   6   21.38    6.43
  -6  -2  -7  115.65   12.47
  -6  -2  -7   79.98   11.54
   6   2   7   95.81   11.76
   6   2   7  115.18   11.85
  -6  -2  -8   11.56    5.33
  -6  -3  12   28.64    6.92
  -6  -3  10   26.10    6.13
  -6  -3  10   25.81    6.38
   6   3 -10   23.05    6.47
   6   3 -10   42.15    7.02
  -6  -3   9    2.94    3.71
  -6  -3   9   -0.51    3.48
   6   3  -9    2.65    4.05
   6   3  -9    3.72    3.20
  -6  -3   8  131.74   12.84
  -6  -3   8  114.91   12.05
   6   3  -8  113.83   13.14
   6   3  -8   82.24    9.13
  -6  -3   7   84.36   10.33
  -6  -3   7   78.70   10.01
   6   3  -7   70.79   11.15
   6   3  -7  100.12    9.88
  -6  -3   6   41.82    8.64
  -6  -3   6   26.11    5.94
   6   3  -6   36.74    8.28
   6   3  -6   31.06    5.73
  -6  -3   5   27.85    6.02
   6   3  -5   35.30    7.93
   6   3  -5   15.95    4.82
  -6  -3   4   27.14    5.88
   6   3  -4   42.85    9.03
  -6  -3   3    7.89    3.76
   6   3  -3    9.90    5.46
  -6  -3   2   10.65    4.18
   6   3  -2    0.19    4.30
   6   3  -2    1.98    3.26
  -6  -3   1   58.30    9.43
  -6  -3   1   48.84    7.25
   6   3  -1   50.90    8.76
   6   3  -1   53.88    7.88
  -6  -3   0   20.47    5.97
  -6  -3   0   16.72    5.15
   6   3   0   30.85    7.34
   6   3   0   29.10    6.09
  -6  -3  -1   -2.54    2.96
  -6  -3  -1    2.67    3.18
   6   3   1    2.48    3.58
   6   3   1   15.78    5.18
  -6  -3  -2   33.27    7.74
  -6  -3  -2   47.36    7.68
   6   3   2   37.30    7.67
   6   3   2   52.60    8.45
   6   3   3   20.81    5.86
   6   3   3   26.37    6.37
  -6  -3  -4   17.27    6.82
  -6  -3  -4   27.04    6.78
   6   3   4   35.30    7.60
   6   3   4   42.22    7.64
  -7   5  -5   52.53    6.99
  -7   5  -5   63.47    7.37
  -7   4  -4   36.13    4.88
  -7   4  -4   32.31    4.80
  -7   4  -5   25.31    5.30
   7  -4   5    9.91    3.21
  -7   4  -6   21.23    5.54
  -7   4  -6   23.20    5.53
   7  -4   6   21.26    4.59
   7  -4   6   21.01    4.78
  -7   4  -7  104.48   11.94
  -7   4  -7  107.55   11.86
  -7   3  -3  141.35   10.03
  -7   3  -3  112.52    8.51
  -7   3  -4  113.79    9.98
   7  -3   4  101.20    8.81
  -7   3  -5   69.71    7.74
  -7   3  -5   96.51   10.18
   7  -3   5   91.70    8.69
   7  -3   5   74.23    7.95
  -7   3  -6  107.05   10.43
  -7   3  -6   97.66   11.21
   7  -3   6   94.78    9.40
   7  -3   6   90.05    8.92
  -7   3  -7   97.72   11.78
  -7   3  -7   83.70    9.84
   7  -3   7   90.79    9.65
   7  -3   7   91.27    9.53
  -7   3  -8  122.91   14.21
  -7   3  -8   91.75   11.10
  -7   3  -9  106.20   12.38
  -7   3  -9   88.14   13.93
  -7   2  10  192.01   11.74
  -7   2  10  187.68   12.13
  -7   2   9   39.36    3.92
  -7   2   9   48.11    4.22
   7  -2  -9   38.24    4.55
  -7   2   0   63.89    5.30
  -7   2   0   48.45    4.31
   7  -2   0   54.78    4.42
   7  -2   0   71.44    4.93
   7  -2   1  125.40    8.58
   7  -2   1  109.77    7.91
  -7   2  -2   55.54    6.84
   7  -2   2   57.21    6.32
   7  -2   2   63.80    6.70
  -7   2  -3   26.68    4.62
   7  -2   3   17.44    4.36
   7  -2   3   17.84    4.29
  -7   2  -4  103.53   11.05
  -7   2  -4  111.13    9.44
   7  -2   4   86.22    8.65
   7  -2   4   95.27    8.92
  -7   2  -5  116.52   10.27
  -7   2  -5  102.86   11.88
   7  -2   5  115.91   10.45
   7  -2   5  121.06   10.81
  -7   2  -6   74.25   10.17
  -7   2  -6   74.82    8.95
   7  -2   6   93.15    9.95
   7  -2   6   96.90   10.12
  -7   2  -7   73.46   11.68
  -7   2  -7  110.22   11.22
   7  -2   7  120.72   11.79
  -7   2  -8   63.14   10.62
  -7   2  -8   68.13   10.39
   7  -2   8   61.42    8.88
   7  -2   8   63.90    9.42
  -7   2  -9   12.48    5.72
  -7   2  -9    7.52    5.88
   7  -2   9   -0.72    3.46
  -7   2 -10   19.39    9.16
  -7   1  11   59.81    8.03
  -7   1  11   57.18    8.01
  -7   1  10   72.98    8.36
  -7   1  10   91.82    9.19
   7  -1 -10   83.37   10.75
   7  -1 -10   95.75    9.44
  -7   1   9   47.67    6.48
   7  -1  -9   55.68    8.26
   7  -1  -9   59.90    7.12
  -7   1   8   25.77    4.69
  -7   1   8   25.34    4.54
   7  -1  -8   24.46    6.01
  -7   1   7   28.85    4.44
   7  -1  -7   28.61    4.51
  -7   1   6   85.42    7.28
   7  -1  -6   86.18    7.20
   7  -1  -6   80.74    7.89
  -7   1   5   35.16    4.68
  -7   1   5   27.68    4.26
   7  -1  -5   19.95    3.66
   7  -1  -5   21.20    4.11
  -7   1   4  130.97    9.36
  -7   1   4  131.71    9.30
   7  -1  -4  120.45    8.47
   7  -1  -4  114.77    9.17
  -7   1   3  226.20   14.07
  -7   1   3  220.53   13.75
   7  -1  -3  230.83   13.39
   7  -1  -3  248.15   14.66
  -7   1   2   37.30    5.45
   7  -1  -2   54.30    5.66
  -7   1   1   50.30    6.64
  -7   1   1   39.07    5.56
   7  -1  -1   30.25    4.88
  -7   1   0    2.81    3.32
   7  -1   0   16.02    4.10
   7  -1   0   11.18    3.52
  -7   1  -1    8.18    3.86
  -7   1  -1   11.24    4.04
   7  -1   1   19.19    4.93
   7  -1   1   17.27    4.14
  -7   1  -2   55.66    7.03
  -7   1  -2   61.41    8.37
   7  -1   2   46.06    6.45
   7  -1   2   35.28    6.36
  -7   1  -3    1.57    3.15
  -7   1  -3    4.37    4.23
   7  -1   3    4.28    3.87
   7  -1   3    4.56    3.21
  -7   1  -4   28.05    5.77
  -7   1  -4   19.35    6.58
   7  -1   4   35.15    6.41
   7  -1   4   31.32    6.03
  -7   1  -5    3.18    4.62
  -7   1  -5   12.87    5.22
   7  -1   5    8.64    4.77
  -7   1  -6   37.48    7.05
  -7   1  -6   29.73    7.75
   7  -1   6   50.21    7.69
   7  -1   6   58.08    8.89
  -7   1  -7   37.49    6.96
  -7   1  -7   33.07    8.11
   7  -1   7   45.15    7.70
   7  -1   7   34.07    6.74
  -7   1  -8    1.44    4.96
  -7   1  -8   -4.68    4.06
   7  -1   8    6.99    4.58
  -7   1  -9    4.96    4.73
  -7   1  -9    4.26    4.47
  -7   0  11   26.50    7.24
  -7   0  11   13.10    5.55
  -7   0  10   66.72    8.55
  -7   0   9   34.16    6.87
  -7   0   9   25.29    5.70
   7   0  -9   31.86    5.62
   7   0  -9   37.52    7.60
  -7   0   8    7.73    4.69
  -7   0   8    0.67    3.06
   7   0  -8    7.15    4.39
   7   0  -8   14.63    4.19
  -7   0   7  178.87   13.49
  -7   0   7  154.68   12.22
   7   0  -7  195.74   13.25
   7   0  -7  193.80   15.80
  -7   0   6  136.27   11.51
  -7   0   6  140.13   11.31
   7   0  -6  121.95    9.87
   7   0  -6  124.42   12.13
  -7   0   5   82.01    9.09
  -7   0   5   66.56    7.59
   7   0  -5   88.14    9.88
   7   0  -5   65.29    6.95
  -7   0   4   24.65    5.56
  -7   0   4   25.53    5.23
   7   0  -4   22.01    5.42
   7   0  -4   35.49    5.22
  -7   0   3  126.21   11.64
  -7   0   3  140.40   11.33
   7   0  -3  118.51   10.78
   7   0  -3  135.77   10.47
  -7   0   2  195.29   15.09
  -7   0   2  210.07   14.67
   7   0  -2  226.20   15.01
   7   0  -2  190.36   14.50
  -7   0   1   86.25    9.81
  -7   0   1   90.51    8.94
   7   0  -1   63.65    8.22
   7   0  -1   76.88    7.96
  -7   0   0  163.49   14.17
  -7   0   0  205.00   14.63
   7   0   0  203.50   14.74
   7   0   0  198.28   14.59
  -7   0  -1   19.78    5.68
  -7   0  -1   26.44    6.41
   7   0   1   12.00    4.77
   7   0   1   19.14    4.71
  -7   0  -2   18.93    6.16
   7   0   2   27.44    5.61
  -7   0  -3  109.68   10.91
   7   0   3  102.83   10.90
   7   0   3  108.75   10.93
  -7   0  -4   29.19    6.78
  -7   0  -4   22.63    6.82
   7   0   4   38.34    6.92
   7   0   4   36.16    6.85
  -7   0  -5   55.15    8.43
  -7   0  -5   44.42    9.10
   7   0   5   41.70    7.48
   7   0   5   32.40    7.38
  -7   0  -6  130.97   12.32
  -7   0  -6  108.96   14.28
   7   0   6  105.90   12.53
   7   0   6  115.24   11.77
  -7   0  -7   30.43    7.32
  -7   0  -7   30.34    7.02
  -7   0  -8   18.66    6.58
  -7   0  -8   36.58    7.75
   7   0   8   47.97    8.53
   7   0   8   36.00    8.78
  -7  -1  10   23.05    7.17
  -7  -1  10   24.89    7.17
  -7  -1   9   18.57    5.09
  -7  -1   9   14.59    5.43
   7   1  -9   16.57    6.42
   7   1  -9   16.18    4.64
  -7  -1   8   18.56    5.74
  -7  -1   8   13.89    5.57
   7   1  -8   32.88    6.23
   7   1  -8   19.96    6.40
  -7  -1   7  207.09   16.23
  -7  -1   7  199.47   15.62
   7   1  -7  210.82   14.91
   7   1  -7  217.39   18.05
  -7  -1   6   17.92    6.30
  -7  -1   6    9.30    4.78
   7   1  -6   18.44    5.74
   7   1  -6    5.39    3.12
  -7  -1   5   52.17    7.69
   7   1  -5   93.84   11.17
   7   1  -5   71.29    8.16
  -7  -1   4  103.14   10.47
   7   1  -4  112.31   12.06
   7   1  -4  130.68   10.85
  -7  -1   3  151.99   12.83
   7   1  -3  166.02   12.92
   7   1  -3  127.32   12.42
  -7  -1   2  183.49   14.18
  -7  -1   2  185.29   16.36
   7   1  -2  146.14   13.04
   7   1  -2  177.67   13.73
  -7  -1   1   37.67    6.90
  -7  -1   1   48.45    8.27
   7   1  -1   46.09    7.16
   7   1  -1   26.44    6.44
  -7  -1  -1   58.09    9.43
  -7  -1  -1   57.75    8.36
   7   1   1   59.87    8.91
   7   1   1   61.05    8.54
  -7  -1  -2   21.63    6.87
  -7  -1  -2   15.02    5.54
   7   1   2   20.11    5.22
   7   1   2   15.47    5.53
  -7  -1  -3   63.02   10.45
  -7  -1  -3   79.34    9.77
   7   1   3   64.10    8.82
   7   1   3   73.20   10.27
  -7  -1  -4   36.34    8.08
   7   1   4   71.20    9.70
  -7  -1  -5   63.74    9.41
   7   1   5   76.50    9.86
   7   1   5   66.28    9.50
  -7  -1  -6   81.73   10.81
  -7  -1  -6   48.58    9.08
   7   1   6   49.63    8.47
   7   1   6   42.57    8.14
   7   1   7   59.26    9.22
  -7  -2   9   23.10    7.15
  -7  -2   8    7.84    4.93
  -7  -2   8    6.01    4.15
  -7  -2   7    6.91    4.45
  -7  -2   7   10.76    4.99
   7   2  -7   13.84    4.77
  -7  -2   6   75.58   10.04
   7   2  -6   84.49    9.28
  -7  -2   5   49.03    8.28
   7   2  -5   38.48    8.10
   7   2  -5   38.83    6.52
  -7  -2   4    8.62    4.49
   7   2  -4    7.34    4.01
   7   2  -4    7.83    5.52
  -7  -2   3   18.07    5.81
   7   2  -3   19.41    6.55
   7   2  -3   25.47    5.73
  -7  -2   2   29.49    7.00
   7   2  -2   35.28    6.60
  -7  -2   1   10.58    4.68
  -7  -2   1    8.33    4.75
  -7  -2   0   23.25    5.93
   7   2   0   14.79    5.87
   7   2   0   14.38    5.23
  -7  -2  -1   31.92    7.42
  -7  -2  -1   30.91    6.73
   7   2   1   31.20    6.70
   7   2   1   33.95    7.40
  -7  -2  -2   26.49    6.06
  -7  -2  -2   18.90    5.87
   7   2   2   34.59    6.96
   7   2   2   42.66    7.73
  -7  -2  -3   29.70    6.92
  -7  -2  -3    7.97    5.29
   7   2   3   15.53    5.43
   7   2   3   22.95    5.91
  -7  -2  -4   37.39    8.06
  -7  -2  -4   69.17   10.59
   7   2   4   49.29    9.07
   7   2   4   60.74    8.99
  -7  -2  -5   18.11    6.78
  -7  -3   4    8.80    4.37
  -7  -3   3   11.88    4.78
  -7  -3   2   15.83    5.02
   7   3  -2    8.20    4.80
  -7  -3   1   11.54    4.38
   0   0   0    0.00    0.00

_computing_structure_solution     'SHELXT 2018/2 (Sheldrick, 2018)'
;
_shelx_hkl_checksum              20009
_olex2_submission_special_instructions 'No special instructions were received'
_publcif_info_exptl_table_max_cols 5
_publcif_info_exptl_table_use_headnotes n
loop_
_space_group_symop_operation_xyz
'x, y, z'
loop_
_atom_site_label
_atom_site_type_symbol
_atom_site_fract_x
_atom_site_fract_y
_atom_site_fract_z
_atom_site_U_iso_or_equiv
_atom_site_adp_type
_atom_site_occupancy
_atom_site_site_symmetry_order
_atom_site_calc_flag
_atom_site_refinement_flags_posn
_atom_site_refinement_flags_adp
_atom_site_refinement_flags_occupancy
_atom_site_disorder_assembly
_atom_site_disorder_group
Cu1 Cu 0.71337(6) 0.79100(6) 0.50246(5) 0.0234(3) Uani 1 1 d . . . . .
O1 O 0.3780(11) 1.1063(10) 0.5126(4) 0.0304(16) Uani 1 1 d . . . . .
O2 O 0.9811(12) 1.0550(12) 0.5051(7) 0.071(3) Uani 1 1 d . U . . .
H2A H 1.104073 1.074290 0.497562 0.106 Uiso 1 1 d R U . . .
H2B H 0.963625 1.160322 0.487158 0.106 Uiso 1 1 d R U . . .
O3 O 1.0106(10) 0.4404(9) 0.4921(4) 0.0306(16) Uani 1 1 d . . . . .
O4 O 0.5429(11) 0.9293(10) 0.4651(4) 0.0283(15) Uani 1 1 d . . . . .
O5 O 0.2836(12) 0.0242(11) 0.0668(4) 0.0391(18) Uani 1 1 d . . . . .
O6 O -0.0122(11) 0.6492(11) 0.8142(4) 0.0362(17) Uani 1 1 d . . . . .
O7 O 0.3907(11) -0.1032(10) 0.1855(4) 0.0333(16) Uani 1 1 d . . . . .
O8 O 0.1781(12) 0.5892(11) 0.9314(4) 0.0365(17) Uani 1 1 d . . . . .
O9 O 0.8674(11) 0.6337(9) 0.5397(4) 0.0273(14) Uani 1 1 d . . . . .
N1 N 0.6595(10) 0.6313(10) 0.3894(4) 0.0220(14) Uani 1 1 d . . . . .
H1 H 0.665087 0.720644 0.342532 0.026 Uiso 1 1 calc R U . . .
N2 N 0.6137(10) 0.7985(9) 0.6136(4) 0.0218(14) Uani 1 1 d . . . . .
H2 H 0.727302 0.825565 0.661377 0.026 Uiso 1 1 calc R U . . .
C1 C 0.1475(14) 0.6120(13) 0.7896(5) 0.0287(19) Uani 1 1 d . U . . .
C2 C 0.974(2) 1.0962(16) 0.8755(8) 0.065(4) Uani 1 1 d . U . . .
H2C H 1.100823 1.092218 0.897410 0.078 Uiso 1 1 calc R U . . .
C3 C 0.8035(14) 0.8651(16) 0.1417(6) 0.039(2) Uani 1 1 d . U . . .
H3 H 0.787875 0.982766 0.123944 0.047 Uiso 1 1 calc R U . . .
C4 C 0.2611(14) 0.5772(11) 0.8598(5) 0.029(2) Uani 1 1 d . U . . .
C5 C 0.4785(14) 1.0024(12) 0.5241(6) 0.025(2) Uani 1 1 d . . . . .
C6 C 0.5395(13) 0.9636(12) 0.6150(5) 0.0239(18) Uani 1 1 d . . . . .
H6 H 0.417944 0.921580 0.644362 0.029 Uiso 1 1 calc R U . . .
C7 C 0.7716(18) 0.5265(19) 0.1121(7) 0.046(3) Uani 1 1 d . U . . .
H7 H 0.732562 0.411427 0.073262 0.056 Uiso 1 1 calc R U . . .
C8 C 0.3864(12) 0.3462(12) 0.2959(5) 0.0247(17) Uani 1 1 d . U . . .
C9 C 0.9905(13) 0.6875(14) 0.3446(5) 0.0304(19) Uani 1 1 d . . . . .
H9A H 1.048965 0.825478 0.372898 0.036 Uiso 1 1 calc R U . . .
H9B H 1.099112 0.635799 0.348471 0.036 Uiso 1 1 calc R U . . .
C10 C 0.3060(13) 0.1479(13) 0.1375(5) 0.0295(19) Uani 1 1 d . U . . .
C11 C 0.4282(14) 0.5370(12) 0.8537(5) 0.031(2) Uani 1 1 d . U . . .
H11 H 0.503173 0.509187 0.901430 0.038 Uiso 1 1 calc R U . . .
C12 C 0.3184(13) 0.4208(12) 0.2245(6) 0.0288(18) Uani 1 1 d . U . . .
H12 H 0.299690 0.542711 0.230976 0.035 Uiso 1 1 calc R U . . .
C13 C -0.0078(15) 0.6086(14) 0.9010(6) 0.035(2) Uani 1 1 d . . . . .
H13A H -0.124102 0.482968 0.906788 0.043 Uiso 1 1 calc R U . . .
H13B H -0.018558 0.719489 0.934827 0.043 Uiso 1 1 calc R U . . .
C14 C 0.7471(15) 1.1270(11) 0.7573(5) 0.034(2) Uani 1 1 d . U . . .
C15 C 0.8524(17) 0.5235(19) 0.1948(7) 0.045(3) Uani 1 1 d . U . . .
H15 H 0.867914 0.405804 0.212603 0.055 Uiso 1 1 calc R U . . .
C16 C 0.1962(13) 0.6115(11) 0.7100(5) 0.0248(17) Uani 1 1 d . U . . .
H16 H 0.115905 0.633114 0.662447 0.030 Uiso 1 1 calc R U . . .
C17 C 0.8180(13) 0.5526(12) 0.3893(5) 0.0233(18) Uani 1 1 d . . . . .
H17 H 0.756751 0.415301 0.358635 0.028 Uiso 1 1 calc R U . . .
C18 C 0.4510(13) 0.4697(12) 0.3820(5) 0.0257(17) Uani 1 1 d . . . . .
H18A H 0.353296 0.531366 0.389581 0.031 Uiso 1 1 calc R U . . .
H18B H 0.447971 0.379615 0.427581 0.031 Uiso 1 1 calc R U . . .
C19 C 0.4826(14) 0.5394(12) 0.7722(5) 0.0279(18) Uani 1 1 d . U . . .
H19 H 0.598997 0.514190 0.764966 0.033 Uiso 1 1 calc R U . . .
C20 C 0.3714(12) 0.5772(11) 0.7024(5) 0.0224(17) Uani 1 1 d . U . . .
C21 C 0.596(2) 1.0998(14) 0.8082(7) 0.042(3) Uani 1 1 d . U . . .
H21 H 0.467947 1.099634 0.785492 0.051 Uiso 1 1 calc R U . . .
C22 C 0.2770(14) 0.3229(13) 0.1442(5) 0.033(2) Uani 1 1 d . U . . .
H22 H 0.230592 0.375297 0.095873 0.039 Uiso 1 1 calc R U . . .
C23 C 0.7467(15) 0.6984(17) 0.0851(6) 0.043(2) Uani 1 1 d . U . . .
H23 H 0.691146 0.700362 0.028095 0.051 Uiso 1 1 calc R U . . .
C24 C 0.7048(14) 1.1556(12) 0.6629(5) 0.0279(18) Uani 1 1 d . . . . .
H24A H 0.660719 1.268448 0.656748 0.034 Uiso 1 1 calc R U . . .
H24B H 0.830898 1.189732 0.638146 0.034 Uiso 1 1 calc R U . . .
C25 C 0.643(2) 1.0726(16) 0.8947(8) 0.057(4) Uani 1 1 d . U . . .
H25 H 0.543341 1.052609 0.930565 0.068 Uiso 1 1 calc R U . . .
C26 C 0.9116(14) 0.6917(15) 0.2525(6) 0.035(2) Uani 1 1 d . U . . .
C27 C 0.3023(15) -0.1524(14) 0.0979(6) 0.035(2) Uani 1 1 d . . . . .
H27A H 0.389831 -0.193363 0.065760 0.042 Uiso 1 1 calc R U . . .
H27B H 0.167335 -0.264534 0.091680 0.042 Uiso 1 1 calc R U . . .
C28 C 0.3705(13) 0.0705(13) 0.2091(5) 0.0279(18) Uani 1 1 d . U . . .
C29 C 0.4492(12) 0.5967(11) 0.6182(5) 0.0220(16) Uani 1 1 d . . . . .
H29A H 0.501752 0.491451 0.609365 0.026 Uiso 1 1 calc R U . . .
H29B H 0.335187 0.574017 0.572020 0.026 Uiso 1 1 calc R U . . .
C30 C 0.9072(14) 0.5375(13) 0.4809(6) 0.027(2) Uani 1 1 d . . . . .
C31 C 0.9305(17) 1.1235(13) 0.7909(7) 0.043(2) Uani 1 1 d . U . . .
H31 H 1.029713 1.140212 0.755267 0.051 Uiso 1 1 calc R U . . .
C32 C 0.8837(13) 0.8595(15) 0.2250(6) 0.036(2) Uani 1 1 d . U . . .
H32 H 0.920219 0.973783 0.264029 0.043 Uiso 1 1 calc R U . . .
C33 C 0.830(2) 1.0748(15) 0.9277(7) 0.066(4) Uani 1 1 d . U . . .
H33 H 0.859599 1.061574 0.986272 0.079 Uiso 1 1 calc R U . . .
C34 C 0.4104(12) 0.1636(12) 0.2887(5) 0.0251(17) Uani 1 1 d . U . . .
H34 H 0.452370 0.107556 0.336817 0.030 Uiso 1 1 calc R U . . .
loop_
_atom_site_aniso_label
_atom_site_aniso_U_11
_atom_site_aniso_U_22
_atom_site_aniso_U_33
_atom_site_aniso_U_23
_atom_site_aniso_U_13
_atom_site_aniso_U_12
Cu1 0.0239(5) 0.0216(4) 0.0277(4) 0.0028(3) 0.0033(3) 0.0124(3)
O1 0.032(4) 0.026(3) 0.042(4) 0.009(3) 0.010(3) 0.020(3)
O2 0.028(4) 0.037(4) 0.158(8) 0.029(5) 0.021(5) 0.020(3)
O3 0.032(4) 0.025(3) 0.042(4) -0.001(3) -0.004(3) 0.023(3)
O4 0.030(4) 0.030(3) 0.028(4) 0.007(3) 0.004(3) 0.017(3)
O5 0.051(5) 0.037(4) 0.029(4) -0.004(3) 0.000(3) 0.020(3)
O6 0.033(4) 0.042(4) 0.037(4) 0.006(3) 0.009(3) 0.017(3)
O7 0.040(4) 0.030(3) 0.036(4) 0.000(3) 0.003(3) 0.022(3)
O8 0.037(4) 0.047(4) 0.029(4) 0.003(3) 0.010(3) 0.018(3)
O9 0.031(4) 0.029(3) 0.028(4) -0.002(3) 0.000(3) 0.019(3)
N1 0.018(4) 0.022(3) 0.029(3) 0.000(2) 0.007(3) 0.010(3)
N2 0.025(4) 0.016(3) 0.025(3) 0.002(2) 0.002(3) 0.009(3)
C1 0.024(5) 0.028(4) 0.035(5) 0.003(3) 0.004(3) 0.011(4)
C2 0.088(10) 0.029(5) 0.059(7) 0.002(5) -0.027(7) 0.016(6)
C3 0.028(5) 0.044(5) 0.038(5) 0.009(4) 0.008(4) 0.006(4)
C4 0.034(5) 0.021(4) 0.029(4) 0.000(3) 0.009(3) 0.007(4)
C5 0.027(5) 0.019(4) 0.028(5) 0.004(3) 0.004(4) 0.007(4)
C6 0.022(4) 0.017(4) 0.032(4) 0.001(3) 0.006(3) 0.007(3)
C7 0.045(7) 0.048(6) 0.041(6) -0.002(5) 0.017(5) 0.010(5)
C8 0.015(4) 0.022(4) 0.034(4) -0.001(3) 0.004(3) 0.004(3)
C9 0.019(4) 0.037(4) 0.035(5) 0.002(4) 0.004(3) 0.011(4)
C10 0.027(5) 0.028(4) 0.029(4) 0.003(3) -0.001(3) 0.008(4)
C11 0.031(5) 0.026(4) 0.034(4) 0.004(3) 0.000(4) 0.009(4)
C12 0.028(5) 0.021(4) 0.040(5) 0.003(3) 0.004(3) 0.012(3)
C13 0.035(5) 0.034(5) 0.040(5) 0.005(4) 0.016(4) 0.014(4)
C14 0.050(6) 0.015(4) 0.034(5) -0.001(3) 0.000(4) 0.012(4)
C15 0.045(6) 0.059(7) 0.038(6) 0.007(5) 0.008(5) 0.026(6)
C16 0.020(4) 0.019(4) 0.035(4) 0.002(3) 0.004(3) 0.008(3)
C17 0.025(5) 0.024(4) 0.025(4) 0.003(3) 0.006(3) 0.014(4)
C18 0.020(4) 0.023(4) 0.034(4) 0.006(3) 0.011(3) 0.006(3)
C19 0.028(5) 0.022(4) 0.031(4) 0.002(3) 0.001(3) 0.008(3)
C20 0.015(4) 0.015(3) 0.034(4) 0.003(3) 0.005(3) 0.003(3)
C21 0.058(7) 0.030(5) 0.034(5) 0.002(4) 0.013(5) 0.011(5)
C22 0.033(5) 0.035(5) 0.030(4) 0.007(3) 0.003(4) 0.015(4)
C23 0.035(5) 0.059(6) 0.032(5) 0.007(4) 0.008(4) 0.015(5)
C24 0.034(5) 0.017(4) 0.029(4) -0.001(3) 0.003(3) 0.006(3)
C25 0.089(10) 0.023(5) 0.042(7) -0.007(4) 0.013(6) 0.003(6)
C26 0.025(5) 0.044(5) 0.036(5) 0.008(4) 0.014(4) 0.012(4)
C27 0.033(5) 0.032(5) 0.038(5) -0.006(4) 0.000(4) 0.013(4)
C28 0.024(5) 0.026(4) 0.035(4) 0.003(3) 0.003(3) 0.012(4)
C29 0.023(4) 0.014(3) 0.026(4) 0.003(3) 0.003(3) 0.004(3)
C30 0.025(5) 0.019(4) 0.029(5) 0.002(3) -0.002(3) 0.002(4)
C31 0.050(6) 0.022(4) 0.052(6) 0.000(4) -0.006(5) 0.016(4)
C32 0.020(4) 0.051(5) 0.035(5) 0.005(4) 0.010(3) 0.011(4)
C33 0.107(11) 0.026(5) 0.036(6) 0.004(4) -0.018(7) 0.004(6)
C34 0.020(4) 0.026(4) 0.034(4) 0.004(3) 0.002(3) 0.013(3)
loop_
_atom_type_symbol
_atom_type_description
_atom_type_scat_dispersion_real
_atom_type_scat_dispersion_imag
_atom_type_scat_source
C C 0.0048 0.0021 'International Tables Vol C Tables 4.2.6.8 and 6.1.1.4'
H H 0.0000 0.0000 'International Tables Vol C Tables 4.2.6.8 and 6.1.1.4'
Cu Cu 0.2832 1.5891 'International Tables Vol C Tables 4.2.6.8 and 6.1.1.4'
N N 0.0087 0.0042 'International Tables Vol C Tables 4.2.6.8 and 6.1.1.4'
O O 0.0151 0.0080 'International Tables Vol C Tables 4.2.6.8 and 6.1.1.4'
loop_
_geom_angle_atom_site_label_1
_geom_angle_atom_site_label_2
_geom_angle_atom_site_label_3
_geom_angle
_geom_angle_site_symmetry_1
_geom_angle_site_symmetry_3
_geom_angle_publ_flag
O4 Cu1 O2 92.0(3) . . ?
O4 Cu1 O9 175.8(3) . . ?
O4 Cu1 N1 94.3(3) . . ?
O4 Cu1 N2 84.5(3) . . ?
O9 Cu1 O2 92.2(3) . . ?
O9 Cu1 N1 84.3(3) . . ?
O9 Cu1 N2 94.4(3) . . ?
N1 Cu1 O2 107.8(4) . . ?
N2 Cu1 O2 107.4(4) . . ?
N2 Cu1 N1 144.8(3) . . ?
Cu1 O2 H2A 132.7 . . ?
Cu1 O2 H2B 116.0 . . ?
H2A O2 H2B 104.6 . . ?
C5 O4 Cu1 115.7(6) . . ?
C10 O5 C27 105.6(7) . . ?
C1 O6 C13 104.7(7) . . ?
C28 O7 C27 105.6(7) . . ?
C4 O8 C13 104.9(7) . . ?
C30 O9 Cu1 115.8(6) . . ?
Cu1 N1 H1 109.9 . . ?
C17 N1 Cu1 107.4(5) . . ?
C17 N1 H1 109.9 . . ?
C17 N1 C18 113.1(6) . . ?
C18 N1 Cu1 106.6(5) . . ?
C18 N1 H1 109.9 . . ?
Cu1 N2 H2 109.8 . . ?
C6 N2 Cu1 107.6(5) . . ?
C6 N2 H2 109.8 . . ?
C6 N2 C29 112.5(6) . . ?
C29 N2 Cu1 107.2(5) . . ?
C29 N2 H2 109.8 . . ?
O6 C1 C4 109.7(8) . . ?
C16 C1 O6 127.5(8) . . ?
C16 C1 C4 122.7(9) . . ?
C31 C2 H2C 120.5 . . ?
C31 C2 C33 119.1(13) . . ?
C33 C2 H2C 120.5 . . ?
C23 C3 H3 120.3 . . ?
C23 C3 C32 119.5(10) . . ?
C32 C3 H3 120.3 . . ?
O8 C4 C1 110.0(9) . . ?
C11 C4 O8 127.9(8) . . ?
C11 C4 C1 122.1(8) . . ?
O1 C5 O4 124.9(9) . . ?
O1 C5 C6 118.0(8) . . ?
O4 C5 C6 117.0(8) . . ?
N2 C6 C5 109.2(7) . . ?
N2 C6 H6 109.0 . . ?
N2 C6 C24 110.4(7) . . ?
C5 C6 H6 109.0 . . ?
C5 C6 C24 110.3(7) . . ?
C24 C6 H6 109.0 . . ?
C15 C7 H7 119.9 . . ?
C15 C7 C23 120.3(11) . . ?
C23 C7 H7 119.9 . . ?
C12 C8 C18 120.4(7) . . ?
C12 C8 C34 120.2(8) . . ?
C34 C8 C18 119.3(7) . . ?
H9A C9 H9B 108.1 . . ?
C17 C9 H9A 109.6 . . ?
C17 C9 H9B 109.6 . . ?
C26 C9 H9A 109.6 . . ?
C26 C9 H9B 109.6 . . ?
C26 C9 C17 110.3(7) . . ?
O5 C10 C28 109.4(8) . . ?
C22 C10 O5 129.8(8) . . ?
C22 C10 C28 120.8(8) . . ?
C4 C11 H11 122.1 . . ?
C4 C11 C19 115.8(8) . . ?
C19 C11 H11 122.1 . . ?
C8 C12 H12 118.9 . . ?
C22 C12 C8 122.2(8) . . ?
C22 C12 H12 118.9 . . ?
O6 C13 O8 109.3(7) . . ?
O6 C13 H13A 109.8 . . ?
O6 C13 H13B 109.8 . . ?
O8 C13 H13A 109.8 . . ?
O8 C13 H13B 109.8 . . ?
H13A C13 H13B 108.3 . . ?
C21 C14 C24 119.7(9) . . ?
C31 C14 C21 120.5(10) . . ?
C31 C14 C24 119.7(9) . . ?
C7 C15 H15 119.7 . . ?
C7 C15 C26 120.6(12) . . ?
C26 C15 H15 119.7 . . ?
C1 C16 H16 121.8 . . ?
C1 C16 C20 116.3(8) . . ?
C20 C16 H16 121.8 . . ?
N1 C17 C9 111.2(7) . . ?
N1 C17 H17 108.7 . . ?
N1 C17 C30 110.5(7) . . ?
C9 C17 H17 108.7 . . ?
C9 C17 C30 108.9(7) . . ?
C30 C17 H17 108.7 . . ?
N1 C18 C8 111.6(6) . . ?
N1 C18 H18A 109.3 . . ?
N1 C18 H18B 109.3 . . ?
C8 C18 H18A 109.3 . . ?
C8 C18 H18B 109.3 . . ?
H18A C18 H18B 108.0 . . ?
C11 C19 H19 119.0 . . ?
C20 C19 C11 122.1(9) . . ?
C20 C19 H19 119.0 . . ?
C16 C20 C29 119.7(7) . . ?
C19 C20 C16 120.8(8) . . ?
C19 C20 C29 119.3(8) . . ?
C14 C21 H21 121.3 . . ?
C14 C21 C25 117.4(12) . . ?
C25 C21 H21 121.3 . . ?
C10 C22 C12 117.2(8) . . ?
C10 C22 H22 121.4 . . ?
C12 C22 H22 121.4 . . ?
C3 C23 C7 119.6(9) . . ?
C3 C23 H23 120.2 . . ?
C7 C23 H23 120.2 . . ?
C6 C24 C14 110.8(7) . . ?
C6 C24 H24A 109.5 . . ?
C6 C24 H24B 109.5 . . ?
C14 C24 H24A 109.5 . . ?
C14 C24 H24B 109.5 . . ?
H24A C24 H24B 108.1 . . ?
C21 C25 H25 119.4 . . ?
C33 C25 C21 121.2(13) . . ?
C33 C25 H25 119.4 . . ?
C15 C26 C9 121.3(9) . . ?
C32 C26 C9 120.2(9) . . ?
C32 C26 C15 118.3(9) . . ?
O5 C27 O7 107.2(7) . . ?
O5 C27 H27A 110.3 . . ?
O5 C27 H27B 110.3 . . ?
O7 C27 H27A 110.3 . . ?
O7 C27 H27B 110.3 . . ?
H27A C27 H27B 108.5 . . ?
O7 C28 C10 109.6(8) . . ?
C34 C28 O7 127.5(8) . . ?
C34 C28 C10 122.9(8) . . ?
N2 C29 C20 112.5(6) . . ?
N2 C29 H29A 109.1 . . ?
N2 C29 H29B 109.1 . . ?
C20 C29 H29A 109.1 . . ?
C20 C29 H29B 109.1 . . ?
H29A C29 H29B 107.8 . . ?
O3 C30 O9 125.0(9) . . ?
O3 C30 C17 118.7(8) . . ?
O9 C30 C17 116.3(9) . . ?
C2 C31 H31 119.2 . . ?
C14 C31 C2 121.6(12) . . ?
C14 C31 H31 119.2 . . ?
C3 C32 H32 119.2 . . ?
C26 C32 C3 121.7(9) . . ?
C26 C32 H32 119.2 . . ?
C2 C33 H33 119.9 . . ?
C25 C33 C2 120.2(11) . . ?
C25 C33 H33 119.9 . . ?
C8 C34 H34 121.7 . . ?
C28 C34 C8 116.7(7) . . ?
C28 C34 H34 121.7 . . ?
loop_
_geom_bond_atom_site_label_1
_geom_bond_atom_site_label_2
_geom_bond_distance
_geom_bond_site_symmetry_2
_geom_bond_publ_flag
Cu1 O2 2.127(8) . ?
Cu1 O4 1.920(7) . ?
Cu1 O9 1.937(7) . ?
Cu1 N1 2.027(6) . ?
Cu1 N2 2.014(7) . ?
O1 C5 1.236(13) . ?
O2 H2A 0.8723 . ?
O2 H2B 0.8720 . ?
O3 C30 1.212(13) . ?
O4 C5 1.292(12) . ?
O5 C10 1.375(11) . ?
O5 C27 1.435(12) . ?
O6 C1 1.388(13) . ?
O6 C13 1.428(12) . ?
O7 C27 1.436(11) . ?
O7 C28 1.371(11) . ?
O8 C4 1.379(11) . ?
O8 C13 1.430(13) . ?
O9 C30 1.283(12) . ?
N1 H1 1.0000 . ?
N1 C17 1.467(12) . ?
N1 C18 1.497(10) . ?
N2 H2 1.0000 . ?
N2 C6 1.491(10) . ?
N2 C29 1.499(9) . ?
C1 C4 1.391(12) . ?
C1 C16 1.367(12) . ?
C2 H2C 0.9500 . ?
C2 C31 1.387(16) . ?
C2 C33 1.39(2) . ?
C3 H3 0.9500 . ?
C3 C23 1.380(15) . ?
C3 C32 1.390(14) . ?
C4 C11 1.365(14) . ?
C5 C6 1.531(12) . ?
C6 H6 1.0000 . ?
C6 C24 1.537(11) . ?
C7 H7 0.9500 . ?
C7 C15 1.379(17) . ?
C7 C23 1.399(17) . ?
C8 C12 1.391(12) . ?
C8 C18 1.534(11) . ?
C8 C34 1.404(12) . ?
C9 H9A 0.9900 . ?
C9 H9B 0.9900 . ?
C9 C17 1.538(12) . ?
C9 C26 1.514(13) . ?
C10 C22 1.368(13) . ?
C10 C28 1.395(12) . ?
C11 H11 0.9500 . ?
C11 C19 1.412(13) . ?
C12 H12 0.9500 . ?
C12 C22 1.389(13) . ?
C13 H13A 0.9900 . ?
C13 H13B 0.9900 . ?
C14 C21 1.407(16) . ?
C14 C24 1.539(12) . ?
C14 C31 1.375(15) . ?
C15 H15 0.9500 . ?
C15 C26 1.396(16) . ?
C16 H16 0.9500 . ?
C16 C20 1.404(13) . ?
C17 H17 1.0000 . ?
C17 C30 1.547(12) . ?
C18 H18A 0.9900 . ?
C18 H18B 0.9900 . ?
C19 H19 0.9500 . ?
C19 C20 1.387(12) . ?
C20 C29 1.519(11) . ?
C21 H21 0.9500 . ?
C21 C25 1.420(17) . ?
C22 H22 0.9500 . ?
C23 H23 0.9500 . ?
C24 H24A 0.9900 . ?
C24 H24B 0.9900 . ?
C25 H25 0.9500 . ?
C25 C33 1.38(2) . ?
C26 C32 1.383(15) . ?
C27 H27A 0.9900 . ?
C27 H27B 0.9900 . ?
C28 C34 1.366(12) . ?
C29 H29A 0.9900 . ?
C29 H29B 0.9900 . ?
C31 H31 0.9500 . ?
C32 H32 0.9500 . ?
C33 H33 0.9500 . ?
C34 H34 0.9500 . ?
loop_
_geom_hbond_atom_site_label_D
_geom_hbond_atom_site_label_H
_geom_hbond_atom_site_label_A
_geom_hbond_distance_DH
_geom_hbond_distance_HA
_geom_hbond_distance_DA
_geom_hbond_angle_DHA
_geom_hbond_site_symmetry_A
_geom_hbond_publ_flag
O2 H2A O1 0.87 1.89 2.738(11) 164.5 1_655 yes
O2 H2B O3 0.87 1.92 2.736(10) 154.6 1_565 yes
loop_
_geom_torsion_atom_site_label_1
_geom_torsion_atom_site_label_2
_geom_torsion_atom_site_label_3
_geom_torsion_atom_site_label_4
_geom_torsion
_geom_torsion_site_symmetry_1
_geom_torsion_site_symmetry_2
_geom_torsion_site_symmetry_3
_geom_torsion_site_symmetry_4
_geom_torsion_publ_flag
Cu1 O4 C5 O1 175.4(7) . . . . ?
Cu1 O4 C5 C6 -2.1(10) . . . . ?
Cu1 O9 C30 O3 175.9(7) . . . . ?
Cu1 O9 C30 C17 -2.8(10) . . . . ?
Cu1 N1 C17 C9 -97.0(7) . . . . ?
Cu1 N1 C17 C30 24.0(7) . . . . ?
Cu1 N1 C18 C8 176.2(5) . . . . ?
Cu1 N2 C6 C5 24.6(7) . . . . ?
Cu1 N2 C6 C24 -96.8(6) . . . . ?
Cu1 N2 C29 C20 175.7(6) . . . . ?
O1 C5 C6 N2 166.4(7) . . . . ?
O1 C5 C6 C24 -72.1(10) . . . . ?
O4 C5 C6 N2 -16.0(10) . . . . ?
O4 C5 C6 C24 105.5(9) . . . . ?
O5 C10 C22 C12 -177.8(9) . . . . ?
O5 C10 C28 O7 0.1(10) . . . . ?
O5 C10 C28 C34 178.5(8) . . . . ?
O6 C1 C4 O8 0.5(9) . . . . ?
O6 C1 C4 C11 -179.8(8) . . . . ?
O6 C1 C16 C20 177.5(8) . . . . ?
O7 C28 C34 C8 177.2(8) . . . . ?
O8 C4 C11 C19 -178.4(8) . . . . ?
N1 C17 C30 O3 165.9(7) . . . . ?
N1 C17 C30 O9 -15.2(10) . . . . ?
N2 C6 C24 C14 -66.8(9) . . . . ?
C1 O6 C13 O8 12.1(10) . . . . ?
C1 C4 C11 C19 2.0(11) . . . . ?
C1 C16 C20 C19 2.2(11) . . . . ?
C1 C16 C20 C29 -173.4(7) . . . . ?
C4 O8 C13 O6 -11.8(10) . . . . ?
C4 C1 C16 C20 -1.1(12) . . . . ?
C4 C11 C19 C20 -0.9(11) . . . . ?
C5 C6 C24 C14 172.4(8) . . . . ?
C6 N2 C29 C20 -66.2(8) . . . . ?
C7 C15 C26 C9 176.8(9) . . . . ?
C7 C15 C26 C32 1.1(14) . . . . ?
C8 C12 C22 C10 0.0(12) . . . . ?
C9 C17 C30 O3 -71.6(10) . . . . ?
C9 C17 C30 O9 107.2(9) . . . . ?
C9 C26 C32 C3 -177.3(8) . . . . ?
C10 O5 C27 O7 -15.8(11) . . . . ?
C10 C28 C34 C8 -0.9(13) . . . . ?
C11 C19 C20 C16 -1.2(12) . . . . ?
C11 C19 C20 C29 174.4(7) . . . . ?
C12 C8 C18 N1 -78.7(9) . . . . ?
C12 C8 C34 C28 2.1(11) . . . . ?
C13 O6 C1 C4 -7.7(9) . . . . ?
C13 O6 C1 C16 173.6(9) . . . . ?
C13 O8 C4 C1 6.9(9) . . . . ?
C13 O8 C4 C11 -172.7(8) . . . . ?
C14 C21 C25 C33 0.6(14) . . . . ?
C15 C7 C23 C3 0.0(15) . . . . ?
C15 C26 C32 C3 -1.5(14) . . . . ?
C16 C1 C4 O8 179.3(8) . . . . ?
C16 C1 C4 C11 -1.0(12) . . . . ?
C16 C20 C29 N2 96.5(8) . . . . ?
C17 N1 C18 C8 -65.9(8) . . . . ?
C17 C9 C26 C15 -70.1(11) . . . . ?
C17 C9 C26 C32 105.5(10) . . . . ?
C18 N1 C17 C9 145.6(7) . . . . ?
C18 N1 C17 C30 -93.4(8) . . . . ?
C18 C8 C12 C22 173.7(8) . . . . ?
C18 C8 C34 C28 -173.3(7) . . . . ?
C19 C20 C29 N2 -79.1(9) . . . . ?
C21 C14 C24 C6 -66.3(10) . . . . ?
C21 C14 C31 C2 -0.9(13) . . . . ?
C21 C25 C33 C2 -2.5(16) . . . . ?
C22 C10 C28 O7 -179.2(8) . . . . ?
C22 C10 C28 C34 -0.8(14) . . . . ?
C23 C3 C32 C26 1.1(14) . . . . ?
C23 C7 C15 C26 -0.4(15) . . . . ?
C24 C14 C21 C25 179.6(8) . . . . ?
C24 C14 C31 C2 -179.4(8) . . . . ?
C26 C9 C17 N1 -62.7(10) . . . . ?
C26 C9 C17 C30 175.3(8) . . . . ?
C27 O5 C10 C22 -171.0(9) . . . . ?
C27 O5 C10 C28 9.8(10) . . . . ?
C27 O7 C28 C10 -9.9(10) . . . . ?
C27 O7 C28 C34 171.8(9) . . . . ?
C28 O7 C27 O5 15.8(10) . . . . ?
C28 C10 C22 C12 1.3(13) . . . . ?
C29 N2 C6 C5 -93.3(7) . . . . ?
C29 N2 C6 C24 145.3(7) . . . . ?
C31 C2 C33 C25 2.6(15) . . . . ?
C31 C14 C21 C25 1.1(12) . . . . ?
C31 C14 C24 C6 112.2(9) . . . . ?
C32 C3 C23 C7 -0.3(15) . . . . ?
C33 C2 C31 C14 -0.9(14) . . . . ?
C34 C8 C12 C22 -1.7(12) . . . . ?
C34 C8 C18 N1 96.7(8) . . . . ?
loop_
_publcif_info_cif.paper_type
CB
loop_
_publcif_info_tables.block_id
_publcif_info_tables.reference_item
{9fab5d5e-c9a8-4ca6-846e-d0f89e5e36cf} '_publcif_info_datablock.publ_exptl'
{9fab5d5e-c9a8-4ca6-846e-d0f89e5e36cf} '_geom_hbond_atom_site_label_D'
{f38d5590-d825-4d4e-896d-cae005477b7f} '_geom_hbond_atom_site_label_D'
{4ff6c69e-c9e6-4a9c-8ee5-eb70ec225d5b} '_geom_hbond_atom_site_label_D'
loop_
_publcif_info_datablock.id
_publcif_info_datablock.publ_exptl
_publcif_info_datablock.publ_geom
_publcif_info_datablock.structure
{f38d5590-d825-4d4e-896d-cae005477b7f} y y y
{caa61a4b-dfaf-40a2-a10f-b1024da14b1e} y y y
{4ff6c69e-c9e6-4a9c-8ee5-eb70ec225d5b} y y y
{9fab5d5e-c9a8-4ca6-846e-d0f89e5e36cf} y y y
loop_
_publcif_info_exptl_table_extra_item
Specimen_density
Crystal_shape
Specimen_colour
sin_theta_over_lambda_max
loop_
_publcif_info_exptl_table_header_item
Datablock_name

_cod_database_fobs_code 2108987
