#------------------------------------------------------------------------------
#$Date: 2021-09-22 04:47:00 +0300 (Wed, 22 Sep 2021) $
#$Revision: 269240 $
#$URL: file:///home/coder/svn-repositories/cod/cif/2/10/88/2108884.cif $
#------------------------------------------------------------------------------
#
# This file is available in the Crystallography Open Database (COD),
# http://www.crystallography.net/. The original data for this entry
# were provided by IUCr Journals, http://journals.iucr.org/.
#
# The file may be used within the scientific community so long as
# proper attribution is given to the journal article from which the
# data were obtained.
#
data_2108884
loop_
_publ_author_name
'Novelli, Giulia'
'McMonagle, Charles J.'
'Kleemiss, Florian'
'Probert, Michael'
'Puschmann, Horst'
'Grabowsky, Simon'
'Maynard-Casely, Helen E.'
'McIntyre, Garry J.'
'Parsons, Simon'
_publ_section_title
;
 Accurate H-atom parameters for the two polymorphs of
 <small>L</small>-histidine at 5, 105 and 295K
;
_journal_issue                   5
_journal_name_full               'Acta Crystallographica Section B'
_journal_page_first
;
;
_journal_paper_doi               10.1107/S205252062100740X
_journal_volume                  77
_journal_year                    2021
_chemical_absolute_configuration syn
_chemical_formula_moiety         'C6 H9 N3 O2'
_chemical_formula_sum            'C6 H9 N3 O2'
_chemical_formula_weight         155.157
_space_group_crystal_system      monoclinic
_space_group_IT_number           4
_space_group_name_Hall           'P 2yb'
_space_group_name_H-M_alt        'P 1 21 1'
_symmetry_Int_Tables_number      4
_audit_creation_date             2021-02-15
_audit_creation_method
;
Olex2 1.3
(compiled 2020.11.12 svn.r5f609507 for OlexSys, GUI svn.r6257)
;
_cell_angle_alpha                90
_cell_angle_beta                 98.182(10)
_cell_angle_gamma                90
_cell_formula_units_Z            2
_cell_length_a                   5.1854(8)
_cell_length_b                   7.3998(10)
_cell_length_c                   9.4976(12)
_cell_measurement_reflns_used    2412
_cell_measurement_temperature    295
_cell_measurement_theta_max      30.23
_cell_measurement_theta_min      3.50
_cell_volume                     360.72(9)
_computing_cell_refinement       'SAINT V8.38A (?, 2016)'
_computing_data_reduction        'SAINT V8.38A (?, 2016)'
_computing_molecular_graphics    'Olex2 (Dolomanov et al., 2009)'
_computing_publication_material  'Olex2 (Dolomanov et al., 2009)'
_computing_structure_refinement  'ShelXL (Sheldrick, 2015)'
_computing_structure_solution    'ShelXT (Sheldrick, 2015)'
_diffrn_ambient_temperature      295
_diffrn_measured_fraction_theta_full 0.8701
_diffrn_measured_fraction_theta_max 0.7976
_diffrn_measurement_device       'XIPHOS four-circle diffractometer'
_diffrn_measurement_device_type  'Bruker APEX-II CCD'
_diffrn_measurement_method       '\f scans'
_diffrn_radiation_collimation    focused
_diffrn_radiation_monochromator  'multilayer optics'
_diffrn_radiation_probe          x-ray
_diffrn_radiation_type           'Mo K\a'
_diffrn_radiation_wavelength     0.71073
_diffrn_reflns_av_R_equivalents  0.0240
_diffrn_reflns_av_unetI/netI     0.0175
_diffrn_reflns_Laue_measured_fraction_full 0.8701
_diffrn_reflns_Laue_measured_fraction_max 0.7976
_diffrn_reflns_limit_h_max       5
_diffrn_reflns_limit_h_min       -6
_diffrn_reflns_limit_k_max       10
_diffrn_reflns_limit_k_min       -10
_diffrn_reflns_limit_l_max       13
_diffrn_reflns_limit_l_min       -13
_diffrn_reflns_number            11356
_diffrn_reflns_point_group_measured_fraction_full 0.8888
_diffrn_reflns_point_group_measured_fraction_max 0.8124
_diffrn_reflns_theta_full        25.2417
_diffrn_reflns_theta_max         30.56
_diffrn_reflns_theta_min         3.50
_diffrn_source                   'rotating anode'
_diffrn_source_target            Mo
_diffrn_source_type              'Bruker TXS with Helios Optics'
_exptl_absorpt_coefficient_mu    0.110
_exptl_absorpt_correction_T_max  0.7461
_exptl_absorpt_correction_T_min  0.6893
_exptl_absorpt_correction_type   multi-scan
_exptl_absorpt_process_details
;
 SADABS 2016/2: Krause, L., Herbst-Irmer, R., Sheldrick G.M. & Stalke D.,
 J. Appl. Cryst. 48 (2015) 3-10
;
_exptl_crystal_colour            colourless
_exptl_crystal_density_diffrn    1.428
_exptl_crystal_description       plate
_exptl_crystal_F_000             164.037
_exptl_crystal_size_max          0.2
_exptl_crystal_size_mid          0.2
_exptl_crystal_size_min          0.1
_refine_diff_density_max         0.1043
_refine_diff_density_min         -0.0977
_refine_diff_density_rms         0.0265
_refine_ls_abs_structure_details
'Flack, H. D. (1983). Acta Cryst. A39, 876-881.'
_refine_ls_abs_structure_Flack   1.0(15)
_refine_ls_d_res_high            0.6990
_refine_ls_d_res_low             5.8146
_refine_ls_goodness_of_fit_ref   1.3485
_refine_ls_hydrogen_treatment    constr
_refine_ls_matrix_type           full
_refine_ls_number_constraints    0
_refine_ls_number_parameters     181
_refine_ls_number_reflns         1806
_refine_ls_number_restraints     1
_refine_ls_restrained_S_all      1.3485
_refine_ls_R_factor_all          0.0286
_refine_ls_R_factor_gt           0.0247
_refine_ls_shift/su_max          0.0006
_refine_ls_shift/su_mean         0.0000
_refine_ls_structure_factor_coef Fsqd
_refine_ls_weighting_details
'w=1/[\s^2^(Fo^2^)+(0.0158P)^2^+0.0067P] where P=(Fo^2^+2Fc^2^)/3'
_refine_ls_weighting_scheme      calc
_refine_ls_wR_factor_gt          0.0475
_refine_ls_wR_factor_ref         0.0486
_reflns_Friedel_coverage         0.829
_reflns_limit_h_max              6
_reflns_limit_h_min              -5
_reflns_limit_k_max              10
_reflns_limit_k_min              -10
_reflns_limit_l_max              13
_reflns_limit_l_min              -13
_reflns_number_gt                1683
_reflns_number_total             1806
_reflns_threshold_expression     I>=2u(I)
_iucr_refine_instructions_details
;
TITL mono_295k_final_a.res in P2(1)
REM Old TITL mono_295K_final in P2(1)
REM SHELXT solution in P2(1)
REM R1 0.105, Rweak 0.033, Alpha 0.005, Orientation as input
REM Flack x = -0.155 ( 0.560 ) from Parsons' quotients
REM Formula found by SHELXT: C7 N2 O2
CELL 0.71073 5.1854 7.3998 9.4976 90 98.182 90
ZERR 2 0.0008 0.001 0.0012 0 0.01 0
LATT -1
SYMM -X,0.5+Y,-Z
SFAC C H N O
DISP C 0.0021 0.0016 11.5003
DISP H 0 0 0.624
DISP N 0.0041 0.0033 19.5955
DISP O 0.0079 0.0061 32.4922
UNIT 12 18 6 4
EQIV $1 1+X,+Y,+Z
EQIV $2 1-X,0.5+Y,2-Z
EQIV $3 +X,+Y,-1+Z

L.S. 99 0 0
PLAN  1
TEMP 12.84
CONF
HTAB N1 O2_$1
HTAB N1 O2_$2
HTAB N1 N2
HTAB N3 O1_$3
BOND $H
MORE -1
fmap 2 53
acta 
LIST -6
OMIT 0 0 1
OMIT 0 6 0
OMIT -1 0 2
OMIT 0 0 6
OMIT -1 0 1
OMIT 1 0 3
WGHT 0.015803 0.006674
FVAR 1.407815
REM <olex2.extras>
REM <HklSrc "%.\\HMTX20.hkl">
REM </olex2.extras>

O2    4     0.31397  0.44525  1.01027  11.00000  0.02640  0.04491  0.04056 =
 0.01728  0.01205  0.00050 
O1    4     0.73608  0.44348  1.09800  11.00000  0.03118  0.06757  0.01933 =
 0.01011  0.00465  0.00190 
N1    3     0.86872  0.63339  0.87608  11.00000  0.02842  0.02582  0.02084 =
 -0.00109  0.00455 -0.00346 
H1A   2     0.93366  0.64249  0.78015  11.00000  0.03955  0.05286  0.03423 =
 0.01093  0.01628 -0.00649 
H1B   2     0.99712  0.56788  0.94444  11.00000  0.03131  0.04484  0.05960 =
 0.01368 -0.01656 -0.00704 
H1C   2     0.83707  0.75464  0.91372  11.00000  0.05429  0.03055  0.04775 =
 -0.00877  0.01723  0.02063 
N3    3     0.72208  0.44672  0.38771  11.00000  0.04146  0.03739  0.01794 =
 0.00035  0.00607  0.00169 
H3    2     0.69022  0.42876  0.28126  11.00000  0.09380  0.04577  0.01693 =
 0.01305  0.00818  0.01530 
N2    3     0.91889  0.51988  0.60207  11.00000  0.03399  0.03971  0.02220 =
 -0.00161  0.00627 -0.00902 
C1    1     0.55018  0.47060  1.00185  11.00000  0.02570  0.02713  0.01924 =
 0.00272  0.00690  0.00268 
C4    1     0.70114  0.41693  0.61567  11.00000  0.03478  0.02532  0.01777 =
 -0.00149  0.00670 -0.00354 
C6    1     0.57748  0.37123  0.48334  11.00000  0.03988  0.03370  0.02052 =
 -0.00435  0.00402 -0.00486 
H6    2     0.40604  0.29246  0.44807  11.00000  0.07308  0.07963  0.03726 =
 -0.00752 -0.01140 -0.03231 
C2    1     0.61720  0.53295  0.85629  11.00000  0.02335  0.02464  0.01693 =
 0.00262  0.00427 -0.00009 
H2    2     0.46509  0.62704  0.80925  11.00000  0.02447  0.02764  0.04270 =
 0.02433 -0.00151  0.00556 
C5    1     0.92316  0.53403  0.46361  11.00000  0.03876  0.04159  0.02352 =
 0.00229  0.01285 -0.00419 
H5    2     1.07081  0.60838  0.41370  11.00000  0.07817  0.08991  0.03610 =
 -0.00611  0.02795 -0.00827 
C3    1     0.63408  0.36806  0.75968  11.00000  0.04633  0.02426  0.02002 =
 -0.00138  0.00883 -0.00844 
H3A   2     0.77444  0.27466  0.81644  11.00000  0.12699  0.04119  0.04103 =
 0.01512  0.01954  0.02562 
H3B   2     0.44703  0.29825  0.74433  11.00000  0.07993  0.09842  0.04773 =
 -0.01133  0.01526 -0.06624 
HKLF 4

END
Q1 1 0.65 0.444444 0.694444 11 0.05 0.1

  REM The information below was added by Olex2.
  REM
  REM R1 = 0.0247 for 1683 Fo > 4sig(Fo) and 0.0286 for all 1806 data
  REM 181 parameters refined using 1 restraints
  REM Highest difference peak 0.1043, deepest hole -0.0977
  REM Mean Shift 0.0000, Max Shift 0.0006.

  REM +++ Tabular Listing of Refinement Information +++
  REM R1_all = 0.0286
  REM R1_gt = 0.0247
  REM wR_ref = 0.0486
  REM GOOF = 1.3485
  REM Shift_max = 0.0006
  REM Shift_mean = 0.0000
  REM Reflections_all = 1806
  REM Reflections_gt = 1683
  REM Parameters = 181
  REM Hole = -0.0977
  REM Peak = 0.1043
  REM Flack = 1.0(15)

  
;
_cod_data_source_file            um5050sup1.cif
_cod_data_source_block           HMTX20
_cod_original_sg_symbol_Hall     ' P 2yb'
_cod_database_code               2108884
_shelx_shelxl_version_number     2017/1
_olex2_refinement_description
;
1. Fixed Uiso
 At 1.2 times of:
  All C(H) groups, All C(H,H) groups, All N(H) groups, All N(H,H,H) groups
;
_olex2_submission_special_instructions 'No special instructions were received'
loop_
_space_group_symop_id
_space_group_symop_operation_xyz
1 x,y,z
2 -x,y+1/2,-z
loop_
_atom_site_label
_atom_site_type_symbol
_atom_site_fract_x
_atom_site_fract_y
_atom_site_fract_z
_atom_site_U_iso_or_equiv
_atom_site_adp_type
_atom_site_occupancy
_atom_site_refinement_flags_posn
O2 O 0.31397(17) 0.44525(12) 1.01027(8) 0.0366(2) Uani 1.000000 .
O1 O 0.73608(15) 0.44348(13) 1.09800(7) 0.0393(2) Uani 1.000000 .
N1 N 0.8687(2) 0.63339(13) 0.87608(10) 0.0249(2) Uani 1.000000 .
H1A H 0.934(3) 0.642(2) 0.7802(17) 0.041(4) Uani 1.000000 .
H1B H 0.997(3) 0.568(2) 0.9444(18) 0.047(5) Uani 1.000000 .
H1C H 0.837(3) 0.755(2) 0.9137(17) 0.043(5) Uani 1.000000 .
N3 N 0.72208(19) 0.44672(15) 0.38771(8) 0.0321(2) Uani 1.000000 .
H3 H 0.690(3) 0.429(3) 0.2813(15) 0.052(5) Uani 1.000000 .
N2 N 0.9189(2) 0.51988(13) 0.60207(8) 0.0317(2) Uani 1.000000 .
C1 C 0.5502(2) 0.47060(14) 1.00185(9) 0.0237(2) Uani 1.000000 .
C4 C 0.7011(2) 0.41693(13) 0.61567(9) 0.0257(3) Uani 1.000000 .
C6 C 0.5775(3) 0.37123(15) 0.48334(10) 0.0314(3) Uani 1.000000 .
H6 H 0.406(3) 0.292(3) 0.4481(15) 0.065(5) Uani 1.000000 .
C2 C 0.6172(2) 0.53295(14) 0.85629(9) 0.0215(2) Uani 1.000000 .
H2 H 0.465(2) 0.6270(19) 0.8093(12) 0.032(4) Uani 1.000000 .
C5 C 0.9232(3) 0.53403(17) 0.46361(10) 0.0338(3) Uani 1.000000 .
H5 H 1.071(4) 0.608(3) 0.4137(14) 0.066(5) Uani 1.000000 .
C3 C 0.6341(3) 0.36806(14) 0.75968(10) 0.0298(3) Uani 1.000000 .
H3A H 0.774(4) 0.275(2) 0.8164(17) 0.069(6) Uani 1.000000 .
H3B H 0.447(4) 0.298(3) 0.7443(17) 0.075(6) Uani 1.000000 .
loop_
_atom_site_aniso_label
_atom_site_aniso_U_11
_atom_site_aniso_U_22
_atom_site_aniso_U_33
_atom_site_aniso_U_12
_atom_site_aniso_U_13
_atom_site_aniso_U_23
O2 0.0264(5) 0.0449(5) 0.0406(4) 0.0005(4) 0.0121(3) 0.0173(4)
O1 0.0312(5) 0.0676(5) 0.0193(3) 0.0019(5) 0.0046(3) 0.0101(4)
N1 0.0284(6) 0.0258(5) 0.0208(4) -0.0035(4) 0.0045(4) -0.0011(4)
H1A 0.040(13) 0.053(12) 0.034(9) -0.006(9) 0.016(8) 0.011(9)
H1B 0.031(12) 0.045(11) 0.060(11) -0.007(9) -0.017(9) 0.014(9)
H1C 0.054(13) 0.031(10) 0.048(11) 0.021(9) 0.017(9) -0.009(8)
N3 0.0415(6) 0.0374(5) 0.0179(3) 0.0017(5) 0.0061(3) 0.0004(4)
H3 0.094(14) 0.046(11) 0.017(7) 0.015(12) 0.008(8) 0.013(8)
N2 0.0340(6) 0.0397(5) 0.0222(4) -0.0090(4) 0.0063(4) -0.0016(4)
C1 0.0257(7) 0.0271(5) 0.0192(4) 0.0027(4) 0.0069(4) 0.0027(3)
C4 0.0348(7) 0.0253(5) 0.0178(4) -0.0035(4) 0.0067(4) -0.0015(3)
C6 0.0399(9) 0.0337(6) 0.0205(4) -0.0049(5) 0.0040(5) -0.0044(4)
H6 0.073(13) 0.080(13) 0.037(10) -0.032(11) -0.011(8) -0.008(9)
C2 0.0233(6) 0.0246(4) 0.0169(4) -0.0001(4) 0.0043(4) 0.0026(3)
H2 0.024(8) 0.028(8) 0.043(8) 0.006(6) -0.002(6) 0.024(7)
C5 0.0388(9) 0.0416(6) 0.0235(5) -0.0042(6) 0.0129(5) 0.0023(4)
H5 0.078(14) 0.090(16) 0.036(9) -0.008(12) 0.028(8) -0.006(10)
C3 0.0463(9) 0.0243(5) 0.0200(4) -0.0084(5) 0.0088(4) -0.0014(4)
H3A 0.127(19) 0.041(11) 0.041(10) 0.026(12) 0.020(11) 0.015(8)
H3B 0.080(16) 0.098(15) 0.048(11) -0.066(13) 0.015(9) -0.011(11)
loop_
_atom_type_symbol
_atom_type_scat_dispersion_real
_atom_type_scat_dispersion_imag
_atom_type_scat_source
_atom_type_scat_dispersion_source
H 0.00000 0.00000 'NoSpherA2: Chem.Sci. 2021, DOI:10.1039/D0SC05526C' custom
C 0.00211 0.00161 'NoSpherA2: Chem.Sci. 2021, DOI:10.1039/D0SC05526C' custom
O 0.00792 0.00611 'NoSpherA2: Chem.Sci. 2021, DOI:10.1039/D0SC05526C' custom
N 0.00411 0.00331 'NoSpherA2: Chem.Sci. 2021, DOI:10.1039/D0SC05526C' custom
loop_
_diffrn_refln_index_h
_diffrn_refln_index_k
_diffrn_refln_index_l
_diffrn_refln_intensity_net
_diffrn_refln_intensity_u
1 0 0 574.14 12.6
1 0 0 551.34 11.6
-1 0 0 554.74 12.9
-1 0 0 541.05 11.6
-2 0 0 298.47 6.3
-2 0 0 307.27 10
-2 0 0 310.37 6.9
2 0 0 295.27 6.9
2 0 0 307.17 8.8
2 0 0 293.07 6.2
2 0 0 300.67 7.5
3 0 0 384.06 8.9
3 0 0 366.36 11.2
3 0 0 384.86 9.8
-3 0 0 379.16 13.4
-3 0 0 379.76 8.9
-3 0 0 378.96 8.1
3 0 0 368.26 7.9
0 -1 0 0.2 0.3
0 -1 0 0 0.4
0 1 0 0 0.3
0 1 0 0.1 0.4
1 -1 0 5524.25 112.39
-1 -1 0 5795.72 123.59
1 -1 0 5537.35 114.19
-1 -1 0 5440.96 127.89
-1 1 0 5656.13 112.59
1 1 0 5698.43 125.99
-1 1 0 5703.83 112.59
1 1 0 5552.04 110.59
-1 1 0 5591.84 111.89
-2 -1 0 597.64 12.7
-2 -1 0 573.84 14.9
2 -1 0 594.24 13.1
2 -1 0 590.54 15.8
2 -1 0 602.74 14.2
2 1 0 579.84 14.1
-2 1 0 628.54 17
-2 1 0 610.74 12.8
-2 1 0 608.04 12.4
2 1 0 598.64 13
3 -1 0 347.37 11.6
-3 -1 0 342.67 7.1
3 -1 0 336.27 9.6
3 -1 0 343.87 8.5
-3 -1 0 338.87 7.8
-3 -1 0 331.27 11.5
3 -1 0 337.47 7.3
3 1 0 340.07 7.7
3 1 0 333.47 7
3 1 0 348.97 8.6
3 1 0 314.27 9.4
-3 1 0 324.37 13
-3 1 0 334.87 8.3
4 -1 0 8.3 1.4
4 -1 0 7.2 0.8
-4 1 0 7.5 1.4
0 -2 0 9678.63 191.48
0 -2 0 9489.65 190.38
0 -2 0 9458.05 192.68
0 2 0 9999 191.88
0 2 0 9463.75 191.08
0 2 0 9762.42 190.48
1 -2 0 2238.18 46.4
1 -2 0 2340.87 47.7
-1 -2 0 2287.47 46.1
1 -2 0 2222.18 48.8
-1 -2 0 2305.87 46.3
1 2 0 2364.16 46.5
-1 2 0 2210.08 46.6
1 2 0 2290.87 46.5
-1 2 0 2322.17 49.4
-1 2 0 2259.47 47.7
-2 -2 0 714.83 15.5
2 -2 0 713.23 15.7
2 -2 0 721.03 17.3
-2 -2 0 701.03 15
2 -2 0 708.83 19.3
-2 2 0 709.23 15.3
2 2 0 692.63 17.2
-2 2 0 697.23 20.2
2 2 0 716.83 15.3
3 -2 0 599.64 18.1
3 -2 0 600.84 14
3 -2 0 584.64 15.6
-3 2 0 602.34 20
-3 2 0 590.64 13.6
4 -2 0 77.59 2.6
4 -2 0 75.79 3.6
-4 2 0 72.09 3.5
0 -3 0 0.5 0.4
0 -3 0 0.6 0.5
0 -3 0 0.7 0.9
0 3 0 0.6 0.8
0 3 0 -1 0.9
0 3 0 -0.5 0.4
-1 -3 0 207.88 6.9
1 -3 0 213.78 5.9
-1 -3 0 212.38 5.1
-1 -3 0 207.38 6.6
1 -3 0 218.48 8.6
-1 -3 0 208.28 4.8
1 -3 0 209.98 5.1
1 3 0 213.18 5.5
1 3 0 217.48 7.3
-1 3 0 213.88 5.5
1 3 0 209.98 7
1 3 0 213.08 4.9
-1 3 0 207.98 8.9
-1 3 0 224.18 7.9
-2 -3 0 332.47 8.5
2 -3 0 312.77 12
2 -3 0 324.97 8.6
-2 -3 0 321.17 8.6
-2 -3 0 326.97 7.1
-2 -3 0 324.77 6.9
-2 3 0 315.97 10.9
-2 3 0 326.17 8.2
2 3 0 335.77 8.9
2 3 0 318.67 9.8
2 3 0 335.07 7.9
2 3 0 320.27 6.9
-2 3 0 324.47 13.1
3 -3 0 175.58 5.9
-3 3 0 175.18 5.6
4 -3 0 20 1.4
4 -3 0 18.7 2.4
-4 3 0 18.5 2.2
5 -3 0 118.79 4.1
5 -3 0 119.39 5.2
-5 3 0 106.99 5.2
0 -4 0 456.25 10.2
0 -4 0 471.95 14.6
0 -4 0 464.05 11
0 4 0 479.15 13.9
0 4 0 507.35 15.4
0 4 0 464.15 11.5
0 4 0 462.65 10.6
1 -4 0 182.48 8.6
-1 -4 0 183.28 4.5
1 -4 0 183.18 5.7
-1 -4 0 174.88 7.2
-1 -4 0 183.08 5
1 -4 0 188.28 4.8
-1 4 0 186.48 7.9
-1 4 0 180.98 5.3
-1 4 0 183.28 9.2
1 4 0 189.48 7.7
1 4 0 186.38 5.4
1 4 0 180.28 7.1
1 4 0 187.08 4.7
-2 -4 0 524.35 11.4
-2 -4 0 521.55 10.9
2 -4 0 524.45 13
-2 -4 0 527.65 16
2 4 0 531.35 16.2
2 4 0 526.35 12.1
-2 4 0 516.95 12.5
2 4 0 521.65 11.1
3 -4 0 40.1 2.8
-3 4 0 39.6 2.7
4 -4 0 103.89 4.9
-4 4 0 112.89 4.9
5 -4 0 47.6 2.4
5 -4 0 41.6 3.4
-5 4 0 40.2 3.9
0 -5 0 5.3 2.1
0 5 0 3.3 1.8
0 5 0 2 2.3
-1 -5 0 20.6 1.2
1 -5 0 20.6 2.1
-1 -5 0 18.9 3
-1 -5 0 21 1.6
1 5 0 17.2 3.2
-1 5 0 18.5 1.8
1 5 0 17.3 2.9
1 5 0 19.4 1.5
1 5 0 18.5 2
2 -5 0 70.09 3.7
-2 5 0 68.79 3.3
3 -5 0 154.08 6
-3 5 0 147.99 5.7
4 -5 0 9.5 1.9
-4 5 0 13.5 2.2
5 -5 0 15.6 1.8
5 -5 0 19.2 3
-5 5 0 15.5 2.7
0 6 0 70.49 3.9
1 -6 0 11 1.9
-1 -6 0 11 1.6
-1 -6 0 8.8 1.1
1 6 0 7 1.6
-1 6 0 8 1.9
1 6 0 8 1.2
-1 6 0 9.2 1.6
2 -6 0 161.18 6.3
-2 6 0 172.98 6.1
3 -6 0 39.5 3.3
-3 6 0 39.9 3.1
4 -6 0 74.19 4.6
-4 6 0 72.79 4.6
5 -6 0 37.2 2.5
5 -6 0 32.5 3.8
-5 6 0 35.6 4.4
-5 6 0 33 4.4
-6 6 0 12.4 3.2
-1 -7 0 24.9 2.5
1 -7 0 23 2.6
1 7 0 24.8 3
-1 7 0 21.9 2.5
-1 7 0 19.3 2.8
1 7 0 23.2 2.2
2 -7 0 8 1.9
-2 7 0 10.8 1.9
-2 7 0 7.6 2.1
3 -7 0 115.39 5.8
-3 7 0 123.29 5.7
-3 7 0 104.09 6.2
4 -7 0 14.6 2.7
-4 7 0 15.2 3.2
-4 7 0 17.5 3.1
5 -7 0 9 1.9
5 -7 0 7.8 2.2
-5 7 0 10.5 3.6
-5 7 0 4.1 2.3
0 -8 0 16.1 2.3
0 8 0 15.2 2.6
0 8 0 13.6 2
1 -8 0 23 3.1
-1 8 0 22.6 2.8
-1 8 0 23.2 3.4
2 -8 0 41.8 4.2
-2 8 0 39.8 4.8
-2 8 0 38.4 3.8
3 -8 0 13.3 2.7
-3 8 0 10.5 2.7
-3 8 0 7.2 2.2
4 -8 0 31.9 3.9
-4 8 0 28.5 4.4
-4 8 0 32.2 4.3
0 -9 0 -0.8 1.1
0 9 0 2 1.3
0 9 0 -0.5 1.4
1 -9 0 14.8 2.7
-1 9 0 11.2 2.4
-1 9 0 8.8 2.5
2 -9 0 18.2 3
-2 9 0 13 2.9
-2 9 0 19.3 3.4
3 -9 0 8.6 2.4
-3 9 0 3.4 2.8
-3 9 0 3.8 2.1
1 -10 0 23.3 3.5
-1 10 0 13 3.1
-1 10 0 21.2 4
2 -10 0 6.3 2.4
-2 10 0 7.3 2.7
-2 10 0 6.5 2.8
3 0 -1 399.56 9.7
3 0 -1 389.66 8.1
3 0 -1 395.26 10.9
-3 0 1 409.36 12.5
3 0 -1 389.36 8.8
-3 0 1 387.66 10.3
-3 0 1 390.86 8.7
-2 0 1 293.77 8.4
2 0 -1 308.17 8
-2 0 1 289.37 7.6
-1 0 1 46.9 1.9
1 0 -1 46.5 1.8
-1 0 1 43.9 1.9
1 0 -1 44 1.9
0 0 1 31.9 2.1
1 0 1 1780.82 38.5
-1 0 -1 1777.42 38.9
1 0 1 1737.33 35.6
-1 0 -1 1716.03 35.5
-2 0 -1 268.47 7.4
2 0 1 282.87 7.6
-2 0 -1 276.27 6
-2 0 -1 279.77 10.9
2 0 1 272.67 5.9
-2 0 -1 276.37 6.8
2 0 1 285.77 7.3
2 0 1 265.47 9.7
3 0 1 429.86 10.5
3 0 1 418.96 13.8
3 0 1 435.36 11.5
-3 0 -1 435.76 11.3
3 0 1 422.86 9.1
-3 0 -1 432.46 10.4
-3 0 -1 434.26 9.3
-3 0 -1 412.96 16
4 -1 -1 24.6 1.2
4 -1 -1 23.8 1.8
-4 1 1 24.2 1.8
3 -1 -1 93.79 4.1
-3 -1 1 82.59 2.9
-3 -1 1 80.39 4.2
3 -1 -1 81.49 4.8
3 -1 -1 91.39 3.2
3 1 -1 89.49 3.1
-3 1 1 92.29 4.5
-3 1 1 103.39 6.1
-3 1 1 82.89 2.9
3 1 -1 86.89 2.7
2 -1 -1 260.27 5.7
2 -1 -1 264.17 8.4
2 -1 -1 259.27 6.3
-2 1 1 256.27 7.8
-2 1 1 258.27 8.7
-2 1 1 265.17 6
1 -1 -1 494.95 10.5
1 -1 -1 512.15 12.4
-1 -1 1 496.55 10.1
1 -1 -1 485.85 10.2
1 -1 -1 503.25 11.9
-1 -1 1 496.25 10.3
-1 1 1 492.75 12.4
1 1 -1 499.55 10.7
-1 1 1 497.35 10.3
-1 1 1 492.25 12.1
-1 1 1 507.95 10.8
0 -1 1 594.04 14.5
0 -1 1 605.84 13
0 -1 -1 605.24 13.7
0 -1 -1 608.44 13.9
0 1 1 589.94 13.7
0 1 1 615.94 14.1
0 1 -1 613.04 13
0 1 -1 625.44 14.9
1 -1 1 1305.67 27.6
-1 -1 -1 1350.06 29.1
1 -1 1 1332.27 30.1
-1 -1 -1 1293.47 27.3
1 -1 1 1260.77 27.2
-1 1 -1 1314.07 26.5
-1 1 -1 1332.17 28
-1 1 -1 1353.66 30.9
1 1 1 1276.77 27.4
1 1 1 1373.36 30.1
-1 1 -1 1261.57 27.6
-2 -1 -1 219.38 6.1
2 -1 1 220.18 5
2 -1 1 224.88 6.9
2 -1 1 233.98 9.1
-2 -1 -1 219.68 4.9
-2 -1 -1 226.58 5.5
-2 -1 -1 220.18 8.8
2 -1 1 225.98 6.2
-2 1 -1 223.88 5.2
-2 1 -1 210.88 6.8
-2 1 -1 211.28 9.8
-2 1 -1 234.08 5.9
2 1 1 223.08 6.5
2 1 1 216.88 4.8
2 1 1 221.68 6.3
2 1 1 235.68 8.9
3 -1 1 12.7 1.7
3 -1 1 5.9 2
-3 -1 -1 10.2 1.4
-3 -1 -1 8.9 2.8
3 -1 1 9.3 1.7
3 -1 1 10.9 0.8
-3 -1 -1 10.1 1.3
-3 -1 -1 10.3 0.7
3 1 1 10.4 0.7
3 1 1 11.3 1.6
3 1 1 9.8 1.6
-3 1 -1 5.4 2.5
3 1 1 7.1 2.1
-3 1 -1 10.6 1.5
-3 1 -1 8.8 0.9
4 -1 1 748.03 15.8
4 -1 1 753.52 17.6
-4 1 -1 775.72 16.2
-4 1 -1 747.73 17.7
4 -2 -1 49.4 2.8
-4 2 1 47.1 2.6
3 -2 -1 252.47 9.9
3 -2 -1 246.58 6.8
3 -2 -1 251.07 8.4
-3 2 1 244.68 6.5
-3 2 1 231.78 8.9
-3 2 1 248.68 10.9
2 -2 -1 388.46 9.2
2 -2 -1 386.66 12.2
2 -2 -1 381.16 8.4
-2 2 1 395.96 8.9
-2 2 1 372.96 11.3
-2 2 1 400.76 12.8
-1 -2 1 1875.51 39
1 -2 -1 1960.8 40.8
1 -2 -1 1862.71 39.7
1 -2 -1 1944.01 41.6
-1 -2 1 1903.91 38.3
1 -2 -1 1909.61 38.4
-1 2 1 1890.51 40.9
-1 2 1 1948.41 41.8
-1 2 1 1893.21 39.3
1 2 -1 1886.31 38.6
-1 2 1 1990.6 38.9
1 2 -1 1885.41 39.5
0 -2 1 116.59 5
0 -2 -1 115.09 4.7
0 -2 1 119.49 3.4
0 -2 -1 108.69 4.6
0 -2 1 117.29 4
0 -2 -1 112.29 2.9
0 -2 -1 119.49 3.3
0 2 1 118.39 3.6
0 2 1 116.09 3
0 2 -1 119.69 5.4
0 2 1 115.99 4.8
0 2 -1 118.59 2.9
0 2 -1 119.49 3.1
0 2 1 119.39 4.8
-1 -2 -1 1087.29 24.3
-1 -2 -1 1117.59 22.1
-1 -2 -1 1089.19 21.9
1 -2 1 1105.79 24.3
1 -2 1 1100.89 23.1
-1 -2 -1 1101.79 24.1
1 -2 1 1091.59 26.5
1 2 1 1108.69 25.2
1 2 1 1128.89 22.8
-1 2 -1 1063.29 22.1
-1 2 -1 1082.89 22.6
1 2 1 1071.59 21.8
-1 2 -1 1087.69 27.4
1 2 1 1099.79 24.1
-2 -2 -1 108.99 2.9
-2 -2 -1 108.49 4.8
-2 -2 -1 106.69 2.8
2 -2 1 107.79 6.3
2 -2 1 115.29 4.9
2 -2 1 113.49 4.1
-2 -2 -1 101.09 3.9
2 2 1 118.09 6.5
-2 2 -1 118.69 7.5
2 2 1 108.69 4.3
-2 2 -1 108.59 3.1
-2 2 -1 102.99 3.6
2 2 1 105.39 4.1
2 2 1 105.89 2.7
3 -2 1 81.69 3.7
3 -2 1 76.89 4.3
3 -2 1 78.29 2.5
3 -2 1 78.99 5.9
-3 2 -1 78.49 3.5
3 2 1 63.19 4.2
-3 2 -1 79.39 8.2
-3 2 -1 80.09 2.7
4 -2 1 15.5 2.1
4 -2 1 14.2 1.1
-4 2 -1 16 2.2
4 -3 -1 135.59 5.2
-4 3 1 140.49 5.1
3 -3 -1 2.4 1
-3 3 1 2.2 0.9
2 -3 -1 963.1 20.9
-2 -3 1 968.1 19.8
2 -3 -1 948.91 19.8
-2 -3 1 955.9 20.4
2 -3 -1 943.11 25.1
-2 3 1 956 24.2
2 3 -1 964.4 20.8
-2 3 1 941.61 20.3
2 3 -1 929.31 21
-2 3 1 1011.3 26.3
1 -3 -1 335.77 10.5
1 -3 -1 322.97 8.1
-1 -3 1 321.77 9.4
1 -3 -1 304.47 10.9
-1 -3 1 326.67 7.4
1 -3 -1 328.17 7.4
1 3 -1 326.27 8.9
1 3 -1 328.37 7.2
-1 3 1 337.37 10.7
-1 3 1 314.97 8.5
1 3 -1 331.87 10
-1 3 1 335.47 11.6
-1 3 1 332.47 7.7
0 -3 -1 487.75 13
0 -3 1 469.05 10.8
0 -3 -1 476.35 10.7
0 -3 1 466.35 13.6
0 -3 -1 465.35 13.4
0 -3 -1 476.15 10.2
0 3 1 470.35 13.3
0 3 -1 480.85 10.4
0 3 1 471.45 11.1
0 3 -1 454.05 14.2
0 3 1 480.55 13.7
-1 -3 -1 435.46 12.2
-1 -3 -1 439.26 9.8
1 -3 1 467.75 12.2
-1 -3 -1 428.16 12
-1 -3 -1 435.06 9.4
1 -3 1 432.86 10.7
1 -3 1 442.76 14.2
1 3 1 441.96 9.5
-1 3 -1 435.26 10.2
1 3 1 442.56 10.4
1 3 1 452.75 12.9
1 3 1 438.86 12.3
-1 3 -1 437.76 15
-1 3 -1 442.56 9.7
2 -3 1 432.26 15.1
2 -3 1 465.15 13
-2 -3 -1 445.06 9.6
2 -3 1 440.86 11.2
-2 -3 -1 433.16 11.6
-2 -3 -1 440.36 9.4
-2 -3 -1 456.65 12.1
2 3 1 434.16 11.8
-2 3 -1 427.56 10.6
2 3 1 445.76 10.9
-2 3 -1 407.96 16.3
2 3 1 432.46 9.3
-2 3 -1 449.95 10
2 3 1 427.46 14
3 -3 1 22.6 1.4
3 -3 1 25 2.7
-3 3 -1 25.4 2.4
4 -3 1 192.68 6.9
4 -3 1 182.48 5.1
-4 3 -1 192.88 6.8
5 -3 1 56.09 3.8
5 -3 1 55.59 2.4
-5 3 -1 42.6 4
5 -4 -1 70.39 4.2
-5 4 1 77.29 4.9
-5 4 1 82.69 4.5
4 -4 -1 0.7 1
-4 4 1 1.8 1.1
3 -4 -1 13.3 1.9
-3 4 1 15.6 1.8
2 -4 -1 32.4 1.7
2 -4 -1 35.2 2.4
-2 4 1 33.8 2.7
-2 4 1 35.8 2.2
-1 -4 1 1052.99 21.6
1 -4 -1 999.3 26.9
-1 -4 1 1024.9 24.9
1 -4 -1 1046.4 22.5
1 -4 -1 1034 21.4
1 4 -1 1017.2 24.1
1 4 -1 1065.09 25.9
-1 4 1 1011.8 26.3
-1 4 1 1053.39 23.1
-1 4 1 1037.3 21.9
-1 4 1 1010.3 27.6
1 4 -1 1017.7 21.3
1 4 -1 1045.9 22
0 -4 -1 290.77 7.7
0 -4 -1 293.37 7
0 -4 1 306.17 7.8
0 -4 1 296.67 10.9
0 -4 -1 309.07 10.9
0 -4 -1 304.17 10.2
0 4 -1 310.77 11.9
0 4 1 311.57 11.3
0 4 -1 294.47 7.4
0 4 -1 291.07 9.8
0 4 1 303.87 7.3
0 4 1 298.87 8.2
0 4 1 305.27 10.7
-1 -4 -1 369.96 8.4
-1 -4 -1 370.46 11.8
1 -4 1 357.46 13.5
-1 -4 -1 370.96 8.8
-1 -4 -1 379.76 11.4
1 -4 1 384.76 11.6
1 -4 1 369.66 9.7
1 4 1 365.06 8.5
-1 4 -1 389.86 14.9
1 4 1 376.16 12.1
1 4 1 392.66 9.6
1 4 1 360.56 12
-1 4 -1 374.66 9.3
-2 -4 -1 2.5 0.5
2 -4 1 3.6 1.3
-2 -4 -1 2.9 0.7
-2 -4 -1 4.8 1.5
-2 -4 -1 3.3 1.2
-2 4 -1 1.3 0.8
2 4 1 1.2 1
2 4 1 2.5 1.1
2 4 1 3.6 1.6
2 4 1 2.2 0.6
3 -4 1 10.5 1.9
-3 4 -1 8.6 1.7
4 -4 1 8.8 1.9
4 -4 1 9.4 1.2
-4 4 -1 9.1 2
5 -4 1 7.9 2
5 -4 1 8.1 1.2
-5 4 -1 6.9 2
5 -5 -1 43.3 4.2
-5 5 1 36.2 4.3
-5 5 1 39.7 3.9
4 -5 -1 47.7 3.4
-4 5 1 45.2 4.4
-4 5 1 45.5 3.3
3 -5 -1 271.67 8.5
-3 5 1 258.27 9.1
-3 5 1 272.27 8.1
2 -5 -1 277.97 8.4
2 -5 -1 282.67 7.2
-2 5 1 266.07 8.9
-2 5 1 283.27 7.9
-1 -5 1 66.69 4.7
1 -5 -1 64.49 3.2
1 -5 -1 61.49 2.5
-1 -5 1 63.39 2.8
-1 5 1 58.49 3.5
-1 5 1 65.69 3
1 5 -1 64.39 3.1
1 5 -1 58.69 4.2
1 5 -1 63.09 2.6
1 5 -1 62.59 6.1
0 -5 -1 109.39 3.4
0 -5 1 112.39 4.2
0 -5 1 100.09 7.6
0 -5 -1 102.89 4
0 5 1 106.29 3.7
0 5 -1 103.89 3.8
0 5 -1 95.19 6.7
0 5 -1 87.99 9.2
0 5 1 122.29 4.8
-1 -5 -1 52.49 2.5
1 -5 1 49.2 3
-1 -5 -1 50.79 4.8
-1 -5 -1 47.9 2
-1 -5 -1 41.8 4.1
1 5 1 52.19 3.1
-1 5 -1 50.59 2.8
1 5 1 48.9 2.2
1 5 1 47.8 5.2
1 5 1 44.4 4.9
2 -5 1 327.87 9.7
-2 5 -1 326.47 9.2
3 -5 1 9.5 1.9
-3 5 -1 11.2 2
4 -5 1 41.6 2.3
4 -5 1 39.7 3.9
-4 5 -1 42.5 4
5 -5 1 9.3 2.2
5 -5 1 11.2 1.6
-5 5 -1 12.9 2.7
5 -6 -1 16.6 2.8
-5 6 1 17.6 3.3
-5 6 1 22 3.4
4 -6 -1 3.4 1.6
-4 6 1 10.7 2.3
-4 6 1 4.7 2
3 -6 -1 5.3 1.5
-3 6 1 9.2 2.3
-3 6 1 3.9 1.4
2 -6 -1 138.39 5.7
-2 6 1 145.59 5.4
-2 6 1 149.49 6.5
1 -6 -1 30.1 2.5
1 -6 -1 34.4 2
-1 -6 1 34.4 2.3
-1 6 1 32.1 2.3
1 6 -1 31.9 2.6
-1 6 1 29.4 3.2
1 6 -1 32.9 2.1
0 -6 -1 268.47 8
0 -6 -1 270.37 7
0 -6 1 269.37 8
0 6 -1 269.67 8.5
0 6 1 265.87 7.4
0 6 -1 271.07 7.6
0 6 1 273.57 8.7
-1 -6 -1 94.79 3.8
-1 -6 -1 90.29 3.1
1 -6 1 86.69 4.3
-1 6 -1 95.09 4.1
1 6 1 88.89 4.4
1 6 1 87.69 3.4
2 -6 1 18.2 2.4
-2 6 -1 21.6 2.5
3 -6 1 17.5 2.7
-3 6 -1 15.3 2.5
4 -6 1 1.4 0.8
4 -6 1 2 1.3
-4 6 -1 0.2 1.3
5 -6 1 10.5 1.7
5 -6 1 8.8 2.3
-5 6 -1 8.9 3
5 -7 -1 24.8 3.5
-5 7 1 21.5 3.9
-5 7 1 25.4 4.2
4 -7 -1 26.2 3.3
-4 7 1 20.5 3.5
-4 7 1 25.8 3.5
3 -7 -1 97.09 5.2
-3 7 1 92.59 4.9
-3 7 1 89.79 5.7
2 -7 -1 3.2 1.4
-2 7 1 6.2 2
-2 7 1 4.2 1.5
1 -7 -1 20.2 1.9
-1 -7 1 17.6 2.5
1 -7 -1 18.1 2.4
-1 7 1 14.3 2.6
1 7 -1 17.2 2
-1 7 1 16.6 2.2
1 7 -1 17.2 3
0 -7 1 92.69 4.4
0 -7 -1 95.09 3.5
0 -7 -1 93.59 4.4
0 7 -1 91.29 4.2
0 7 -1 95.29 4.9
0 7 1 89.59 4
0 7 1 89.09 5
-1 -7 -1 50.99 2.4
1 -7 1 49.8 3.5
-1 -7 -1 51.79 3
-1 7 -1 54.19 3.4
1 7 1 51.59 2.8
-1 7 -1 49.6 3.9
1 7 1 54.69 3.8
2 -7 1 33.7 3.4
-2 7 -1 43.2 3.3
3 -7 1 5.3 1.7
-3 7 -1 5.5 1.9
4 -7 1 -0.9 1
4 -7 1 0.5 0.9
-4 7 -1 -0.3 1.9
5 -7 1 19.5 2.4
5 -7 1 17.7 3.3
-5 7 -1 19.3 4.2
-5 7 -1 18.4 3.7
4 -8 -1 1.3 1.5
-4 8 1 -0.1 1.6
-4 8 1 -0.7 2.2
3 -8 -1 0.9 1.3
-3 8 1 -0.3 1.6
-3 8 1 1.5 1.5
2 -8 -1 9.3 2.1
-2 8 1 4.6 1.9
-2 8 1 9.1 1.9
1 -8 -1 47.1 3.6
-1 8 1 52.29 3.5
-1 8 1 54.19 4.4
0 -8 -1 22.6 2.8
0 -8 -1 25 2
0 -8 1 19.5 2.6
0 8 1 24.5 3.3
0 8 1 24.4 2.7
0 8 -1 28.2 3.5
0 8 -1 25.7 2.9
1 -8 1 17.8 2.7
-1 8 -1 16.7 2.6
-1 8 -1 19.1 3.1
2 -8 1 2 1.5
-2 8 -1 4.2 1.7
-2 8 -1 6.7 2.3
3 -8 1 6.1 2.2
-3 8 -1 7.3 2.3
-3 8 -1 4.9 2.3
4 -8 1 9.4 2.6
4 -8 1 7.5 1.8
-4 8 -1 6.8 2.4
-4 8 -1 7.2 3.4
3 -9 -1 2.4 1.8
-3 9 1 2.9 1.9
-3 9 1 2.3 2.7
2 -9 -1 1.4 1.6
-2 9 1 3.5 2
-2 9 1 -1.3 1.6
1 -9 -1 2.3 1.7
-1 9 1 5.1 1.6
-1 9 1 5.1 2.1
0 -9 -1 25.7 3.3
0 -9 1 25.3 3.2
0 9 1 21.8 2.7
0 9 -1 16.7 2.5
0 9 1 15.7 3
0 9 -1 21 3.4
1 -9 1 6.4 2.1
-1 9 -1 6.8 2.4
-1 9 -1 4.6 1.7
2 -9 1 2.1 1.7
-2 9 -1 1.4 1.7
-2 9 -1 3.3 2.3
3 -9 1 1.9 1.8
-3 9 -1 1.5 2.5
-3 9 -1 1.4 1.7
2 -10 -1 0.4 1.8
-2 10 1 -0.5 2.3
-2 10 1 -1.4 1.5
1 -10 -1 2.9 1.8
-1 10 1 -0.7 1.6
-1 10 1 1.8 2
1 -10 1 4.8 2
-1 10 -1 5.1 2.2
-1 10 -1 3.8 2.5
2 -10 1 6.1 2.4
-2 10 -1 2.2 2.9
-2 10 -1 2.6 2.1
-3 0 2 220.08 5
3 0 -2 215.18 6.9
3 0 -2 212.18 5.1
-3 0 2 200.98 6.8
-3 0 2 211.68 7.5
-3 0 2 217.18 5.5
-2 0 2 1 0.7
2 0 -2 0.3 0.6
-2 0 2 0.2 0.6
-2 0 2 0.2 0.5
2 0 -2 0.6 0.6
1 0 -2 14.4 1.7
1 0 -2 14 1.5
-1 0 2 15.1 1.5
-1 0 2 12.7 1.8
0 0 -2 3307.07 66.79
0 0 -2 3156.78 63.89
0 0 2 3199.98 64.09
0 0 2 3220.88 67.19
0 0 2 2954.6 64.69
0 0 -2 3245.78 65.49
0 0 2 3343.77 66.29
0 0 -2 2942.01 65.59
1 0 2 97.09 3.9
-1 0 -2 96.09 3.7
1 0 2 94.69 6.1
-1 0 -2 90.19 3.2
1 0 2 91.39 2.4
-1 0 -2 96.49 2.5
1 0 2 97.69 4
-1 0 -2 99.89 6.4
-2 0 -2 11.1 1.6
-2 0 -2 16.7 1.8
-2 0 -2 13.2 0.9
2 0 2 11.6 2.9
2 0 2 13.1 0.8
2 0 2 11.7 1.8
-2 0 -2 10.4 3.2
2 0 2 13.2 1.8
-3 0 -2 54.79 3
-3 0 -2 58.19 3.4
3 0 2 50.69 5.9
-3 0 -2 55.09 2
-3 0 -2 61.29 7.6
3 0 2 63.39 3.5
3 0 2 58.19 3.6
3 0 2 57.99 1.9
-4 0 -2 91.29 2.9
4 0 2 85.79 4.1
4 0 2 82.59 2.9
-4 0 -2 85.79 4.2
-3 -1 2 244.78 6.9
3 -1 -2 246.88 6.2
-3 -1 2 217.08 7.2
3 -1 -2 244.08 8.7
3 -1 -2 237.48 5.5
-3 1 2 253.77 9.4
-3 1 2 247.78 6.7
-3 1 2 245.68 8.5
-3 1 2 250.17 6
2 -1 -2 38.6 2.7
2 -1 -2 36.4 1.4
-2 -1 2 38.4 2.3
2 -1 -2 39.1 2.9
-2 -1 2 36.1 1.6
2 -1 -2 39.6 1.8
-2 1 2 40.4 1.5
-2 1 2 42.9 3.1
-2 1 2 39.5 2.9
-2 1 2 37.5 2
2 1 -2 37.9 1.5
2 1 -2 38.3 1.5
1 -1 -2 27.4 1.2
1 -1 -2 31.2 2.4
-1 -1 2 29.6 2.9
1 -1 -2 29.7 1.4
-1 -1 2 29.8 1.6
1 -1 -2 30 2.3
-1 1 2 29.5 2.3
1 1 -2 29 2.7
-1 1 2 33.1 1.2
1 1 -2 28.8 1.4
-1 1 2 33.9 3
-1 1 2 31.3 1.7
0 -1 -2 476.95 12.9
0 -1 -2 485.55 10.2
0 -1 2 483.25 11.3
0 -1 2 486.45 11.2
0 -1 2 453.85 9.7
0 -1 -2 466.55 10.1
0 -1 2 497.05 14.2
0 -1 -2 469.85 12
0 1 -2 509.65 14.7
0 1 -2 483.05 10.5
0 1 2 477.05 12.2
0 1 2 472.15 9.9
0 1 -2 465.65 9.8
0 1 2 493.95 13.5
0 1 -2 476.95 11.1
0 1 2 488.35 11
-1 -1 -2 305.47 10.5
1 -1 2 279.57 7.7
-1 -1 -2 278.87 6.3
-1 -1 -2 276.97 6.6
1 -1 2 282.97 6.1
1 -1 2 271.87 10.8
-1 -1 -2 284.97 8.1
1 -1 2 291.77 8
-1 1 -2 281.17 7.9
-1 1 -2 270.87 6.2
1 1 2 280.87 11
1 1 2 297.67 7.9
1 1 2 274.07 6.1
-1 1 -2 286.17 11.6
-1 1 -2 275.17 7
1 1 2 276.47 8.1
-2 -1 -2 425.66 9.1
-2 -1 -2 426.46 9.9
2 -1 2 405.96 11.4
2 -1 2 421.56 10.9
-2 -1 -2 419.06 14.9
2 -1 2 405.66 14.6
-2 -1 -2 423.16 11
2 -1 2 421.76 9
-2 1 -2 427.86 10.4
-2 1 -2 420.56 16.3
-2 1 -2 423.26 9.2
2 1 2 431.96 15.3
2 1 2 431.86 11.3
2 1 2 418.76 11.6
-2 1 -2 414.96 11.4
2 1 2 417.46 9
3 -1 2 46.8 1.8
3 -1 2 50.79 3.1
-3 -1 -2 51.89 2.6
-3 -1 -2 58.19 7
3 -1 2 52.39 3.5
-3 -1 -2 54.39 3.1
3 -1 2 49.1 5.6
-3 -1 -2 49.99 1.8
-3 1 -2 48.9 2
3 1 2 51.99 6.1
3 1 2 57.19 3.4
-3 1 -2 44.5 2.8
3 1 2 47.3 1.7
-3 1 -2 35.7 6.3
3 1 2 49.2 3.4
-3 1 -2 47 3.3
4 -1 2 195.18 6.8
4 -1 2 198.78 5
-4 1 -2 185.08 6.7
-4 1 -2 195.58 5.3
4 -2 -2 8.6 1.4
-4 2 2 8.1 1.6
-4 2 2 6.2 1.2
3 -2 -2 44 2.4
3 -2 -2 49.2 4.7
3 -2 -2 43.2 1.8
-3 2 2 44.6 2.7
-3 2 2 44.7 4.4
-3 2 2 44.9 5
-3 2 2 46.3 2.2
2 -2 -2 284.07 9.4
2 -2 -2 283.77 7.1
2 -2 -2 277.97 9.8
2 -2 -2 285.67 6.5
-2 2 2 278.77 9.7
-2 2 2 272.97 10.1
-2 2 2 286.27 7.6
-2 2 2 274.07 6.7
-1 -2 2 1168.88 25.8
-1 -2 2 1152.68 24.1
1 -2 -2 1162.58 23.5
1 -2 -2 1169.28 27.1
1 -2 -2 1189.98 24
1 -2 -2 1197.58 26.8
-1 2 2 1152.68 23.5
1 2 -2 1126.19 26.9
-1 2 2 1190.88 27.4
1 2 -2 1137.29 24.1
-1 2 2 1158.28 24.5
-1 2 2 1115.49 27
0 -2 2 1851.91 42
0 -2 -2 1929.51 38.9
0 -2 2 1834.62 39.4
0 -2 2 1885.91 39.2
0 -2 -2 1897.71 41
0 -2 2 1901.91 38.5
0 -2 -2 1879.41 39.5
0 -2 -2 1888.31 40.8
0 2 -2 1933.11 38
0 2 2 1872.01 40.7
0 2 2 1878.41 41.5
0 2 -2 1833.32 39.1
0 2 2 1927.71 38.6
0 2 -2 1935.51 43.4
0 2 2 1900.61 39.2
0 2 -2 1888.31 39.2
-1 -2 -2 13.5 1.1
1 -2 2 12.5 1.7
-1 -2 -2 14.3 1
1 -2 2 12.8 2.7
-1 -2 -2 11.4 2.1
1 -2 2 14.9 1.9
1 -2 2 11.8 0.8
-1 -2 -2 10.2 1.7
-1 2 -2 11.7 0.9
-1 2 -2 14.2 1.9
-1 2 -2 9.3 1.2
1 2 2 14.6 2.1
1 2 2 13.2 0.9
-1 2 -2 12 3.1
1 2 2 13.8 1.8
1 2 2 13.3 2.7
-2 -2 -2 179.88 7.8
-2 -2 -2 179.68 4.7
-2 -2 -2 184.68 4.5
2 -2 2 172.68 9
2 -2 2 178.08 6.7
2 -2 2 179.08 6
2 -2 2 183.58 4.5
-2 -2 -2 172.88 6.2
2 2 2 177.08 4.3
-2 2 -2 176.58 10.3
-2 2 -2 176.28 4.6
2 2 2 169.78 9.4
-2 2 -2 171.38 5.6
-2 2 -2 176.78 6.8
2 2 2 194.18 6.5
2 2 2 190.48 6.8
-3 -2 -2 2.3 0.5
-3 -2 -2 1.4 0.7
3 -2 2 0.9 1.1
3 -2 2 1.4 0.5
-3 2 -2 2.4 1.2
3 2 2 2.1 0.5
3 2 2 2.5 1.4
-3 2 -2 1.5 0.6
4 -2 2 47 3.3
4 -2 2 44.5 2
-4 2 -2 43.6 3.3
-4 2 -2 42.8 2.2
4 -3 -2 93.89 4.1
-4 3 2 100.89 4.1
-4 3 2 105.29 4.9
3 -3 -2 11.2 1.6
3 -3 -2 9.2 1
-3 3 2 12.1 1.5
-3 3 2 10.3 1.8
-2 -3 2 90.99 3.3
2 -3 -2 84.19 3.4
-2 -3 2 90.19 2.8
2 -3 -2 92.89 5.3
2 -3 -2 90.89 5.8
2 -3 -2 89.39 2.9
2 3 -2 85.49 3
-2 3 2 93.39 6.2
-2 3 2 86.99 5.4
-2 3 2 81.59 3.1
-2 3 2 87.59 3.9
2 3 -2 74.99 4.1
1 -3 -2 386.86 12.4
-1 -3 2 381.46 9.5
1 -3 -2 365.36 8.5
-1 -3 2 378.56 8.6
-1 -3 2 379.56 7.8
1 -3 -2 357.56 9
1 -3 -2 385.06 11.8
-1 -3 2 358.46 10.8
-1 3 2 369.66 12.2
-1 3 2 371.06 9.6
1 3 -2 363.46 7.9
-1 3 2 365.36 8.6
1 3 -2 362.96 12
1 3 -2 375.26 8.4
-1 3 2 386.86 12.6
0 -3 -2 593.54 16.8
0 -3 2 636.04 15.3
0 -3 -2 618.84 13.3
0 -3 -2 630.54 13.8
0 -3 2 628.94 17.7
0 -3 -2 623.94 16.9
0 -3 2 636.34 14.2
0 -3 2 629.64 12.9
0 3 -2 632.54 19
0 3 2 618.44 17.2
0 3 -2 628.94 13.8
0 3 2 639.74 17.5
0 3 -2 628.44 13.1
0 3 2 622.24 13.4
0 3 2 637.44 14.5
1 -3 2 102.79 4.8
1 -3 2 93.39 2.8
1 -3 2 102.89 4
-1 -3 -2 97.09 5
-1 -3 -2 97.59 3
1 -3 2 100.39 6.5
-1 -3 -2 98.99 3.2
-1 -3 -2 100.79 5.3
-1 3 -2 98.19 3.6
1 3 2 100.59 4
-1 3 -2 95.79 7.2
-1 3 -2 99.89 3
1 3 2 97.19 2.9
1 3 2 106.39 5.2
1 3 2 95.59 5.8
-2 -3 -2 42.2 1.8
-2 -3 -2 41.1 1.9
-2 -3 -2 39.7 3.1
2 -3 2 40.2 2.7
-2 -3 -2 46.5 4.2
2 -3 2 38.3 1.7
2 3 2 39.8 3.7
2 3 2 40.3 1.6
2 3 2 47.3 5.7
-2 3 -2 37.3 2.5
2 3 2 41.2 3
-2 3 -2 40.2 1.9
3 -3 2 120.69 3.6
3 -3 2 117.39 5.1
-3 3 -2 111.59 3.8
-3 3 -2 113.69 4.9
4 -3 2 46.1 2.1
4 -3 2 53.49 3.7
-4 3 -2 49 2.5
-4 3 -2 51.89 3.7
5 -3 2 68.99 2.8
5 -3 2 65.09 4.3
-5 3 -2 61.69 4.5
5 -4 -2 10.4 2
-5 4 2 14.6 2.3
-5 4 2 13 2.6
4 -4 -2 3.4 1.2
-4 4 2 5 1.6
-4 4 2 4.8 1.3
3 -4 -2 51.99 2.4
3 -4 -2 57.59 3.2
-3 4 2 52.59 3.6
-3 4 2 52.39 2.8
2 -4 -2 129.59 4.7
2 -4 -2 132.09 4
-2 4 2 132.59 4.4
-2 4 2 128.29 5.2
-1 -4 2 347.67 9.7
1 -4 -2 344.37 8.3
-1 -4 2 357.26 11.4
1 -4 -2 356.66 9.1
-1 -4 2 352.56 8.5
1 -4 -2 353.66 13.2
-1 4 2 348.27 12.8
-1 4 2 338.27 13.5
1 4 -2 345.87 10.3
1 4 -2 347.27 8.3
1 4 -2 370.76 13
-1 4 2 341.37 9.7
0 -4 -2 332.87 11.2
0 -4 -2 323.07 8.2
0 -4 2 324.57 8.5
0 -4 2 318.87 9.8
0 -4 2 303.77 11.7
0 -4 -2 325.17 7.7
0 -4 -2 321.97 11.6
0 4 2 298.07 11.5
0 4 2 321.27 11.8
0 4 2 334.37 9
0 4 2 318.07 7.7
0 4 -2 318.57 8.1
0 4 -2 310.67 13
-1 -4 -2 64.19 4.6
-1 -4 -2 70.69 2.9
1 -4 2 67.49 3.5
-1 -4 -2 72.99 2.5
-1 -4 -2 70.09 4.6
1 4 2 65.99 2.5
-1 4 -2 67.79 2.6
-1 4 -2 71.29 3.2
1 4 2 68.89 5.2
1 4 2 66.19 3.4
1 4 2 68.39 4.7
-2 -4 -2 380.46 12.3
2 -4 2 399.16 9
-2 -4 -2 383.86 8.8
2 -4 2 382.56 10.8
-2 -4 -2 386.76 9.2
-2 -4 -2 394.16 12.1
-2 4 -2 390.46 10.4
2 4 2 374.66 10.7
-2 4 -2 387.36 9.3
2 4 2 380.56 14.9
2 4 2 376.66 8.7
2 4 2 396.26 12.4
3 -4 2 51.99 2.3
3 -4 2 52.99 3.6
-3 4 -2 51.79 2.6
-3 4 -2 53.89 3.5
4 -4 2 10.4 1.3
4 -4 2 12.3 2.4
-4 4 -2 5.1 1.8
5 -4 2 5.2 1.1
5 -4 2 5.8 1.9
-5 4 -2 5.3 2.1
5 -5 -2 13.4 2.4
-5 5 2 9.2 2.5
-5 5 2 13.6 2.3
4 -5 -2 12.9 2.2
-4 5 2 15 2.2
-4 5 2 11.8 2.5
3 -5 -2 28.5 2.9
3 -5 -2 22.4 1.7
-3 5 2 17.4 2.6
-3 5 2 20.5 2.3
2 -5 -2 61.19 3.3
-2 5 2 61.39 3.9
-2 5 2 53.79 2.9
-1 -5 2 196.38 8.7
-1 -5 2 205.98 7.4
1 -5 -2 198.88 5.5
-1 -5 2 209.98 5.9
1 -5 -2 200.88 6.4
1 5 -2 200.48 7.9
-1 5 2 196.98 5.9
1 5 -2 202.48 5.7
1 5 -2 207.88 10.3
-1 5 2 190.98 7
0 -5 -2 2.6 0.7
0 -5 2 3.7 1.1
0 -5 -2 3.5 1
0 5 2 4.2 1.4
0 5 2 3.7 0.9
0 5 -2 1.6 0.8
-1 -5 -2 53.39 2.7
-1 -5 -2 53.29 2.3
1 -5 2 58.09 3.4
1 5 2 54.09 2.4
-1 5 -2 52.79 3
1 5 2 51.59 3.3
2 -5 2 20.4 2.5
-2 -5 -2 20.4 1.4
-2 -5 -2 23.7 1.8
2 5 2 24.9 1.6
-2 5 -2 22.8 2.5
2 5 2 28.4 3.1
3 -5 2 88.09 3.3
3 -5 2 84.69 4.8
-3 5 -2 97.89 4.9
4 -5 2 33.1 2.1
4 -5 2 35.8 4
-4 5 -2 30 3.6
5 -5 2 10.7 1.5
5 -5 2 10.2 2.4
-5 5 -2 5.5 2.3
5 -6 -2 -0.1 1.2
-5 6 2 2 1.8
-5 6 2 1.4 1.7
4 -6 -2 7.3 1.8
-4 6 2 5.8 2.3
-4 6 2 7.5 1.8
3 -6 -2 36.4 3
-3 6 2 40.2 3
-3 6 2 27.9 3.4
2 -6 -2 11.1 2
2 -6 -2 12.1 1.5
-2 6 2 11.5 1.8
-2 6 2 11.5 2.2
1 -6 -2 55.99 2.6
1 -6 -2 55.69 3.3
-1 -6 2 53.39 2.9
-1 6 2 49.8 2.8
1 6 -2 54.79 2.8
-1 6 2 46.5 3.6
1 6 -2 60.89 3.3
0 -6 2 34.2 2.6
0 -6 -2 33 2.5
0 -6 -2 32.3 2
0 6 -2 36.3 2.5
0 6 2 33.8 2.2
0 6 2 26.7 3.1
-1 -6 -2 115.69 3.8
1 -6 2 109.09 5
-1 -6 -2 111.09 4.5
1 6 2 113.79 5.3
-1 6 -2 112.39 4.8
2 -6 2 173.58 6.9
-2 6 -2 182.18 6.8
3 -6 2 19 1.9
3 -6 2 15.7 2.6
-3 6 -2 19.8 2.9
4 -6 2 4 1
4 -6 2 2.5 1.5
-4 6 -2 4.7 1.8
5 -6 2 3.6 1.7
5 -6 2 6.7 1.5
-5 6 -2 5.7 3.1
5 -7 -2 23.1 3.5
-5 7 2 17 3.5
-5 7 2 19 3.7
4 -7 -2 30.7 3.8
-4 7 2 24.3 3.8
-4 7 2 26 3.4
3 -7 -2 6.5 1.8
-3 7 2 8.4 2.5
-3 7 2 8 1.8
2 -7 -2 6 1.2
2 -7 -2 6.6 1.7
-2 7 2 5.5 1.5
-2 7 2 6.6 2.1
1 -7 -2 30.2 2.1
1 -7 -2 27.6 3
-1 7 2 28.5 2.8
-1 7 2 34.8 4
0 -7 -2 23.2 2.1
0 -7 -2 31.4 3.1
0 -7 2 25.6 2.8
0 7 2 21.4 2.2
0 7 -2 21.1 2.4
0 7 2 25.6 3.3
-1 -7 -2 9.2 1.7
-1 -7 -2 10.6 1.4
1 -7 2 10.2 2
-1 7 -2 10.3 1.9
1 7 2 11.1 2.3
1 7 2 9 1.5
2 -7 2 32.4 3.6
-2 7 -2 25.1 3
3 -7 2 2.5 1
3 -7 2 0.9 1.3
-3 7 -2 0.8 1.4
4 -7 2 10.8 1.8
4 -7 2 5.9 2
-4 7 -2 11.3 3.3
5 -7 2 9.9 1.9
5 -7 2 8.3 2.4
-5 7 -2 8.6 3.9
4 -8 -2 10 2.5
-4 8 2 12.5 3
-4 8 2 10.4 2.9
3 -8 -2 20.2 2.9
-3 8 2 20.5 3.6
-3 8 2 24.5 3.3
2 -8 -2 21.1 3
-2 8 2 21.6 3.5
-2 8 2 16.4 2.5
1 -8 -2 21.5 2.2
1 -8 -2 14.5 2.4
-1 8 2 15.1 2.8
-1 8 2 14.5 2.2
0 -8 -2 13 1.7
0 -8 2 11.1 2.1
0 -8 -2 8.9 1.9
0 8 2 8.9 1.7
0 8 2 9.4 2.5
0 8 -2 11.4 2.3
0 8 -2 10.1 2
1 -8 2 32.4 3.7
-1 8 -2 31 3.3
2 -8 2 2.7 1.1
2 -8 2 7.3 2.1
-2 8 -2 4.2 1.7
3 -8 2 10.9 1.7
3 -8 2 16.1 3
-3 8 -2 14.7 3.3
4 -8 2 6.8 1.7
4 -8 2 4 1.9
-4 8 -2 3.5 3.1
3 -9 -2 -0.6 1.4
-3 9 2 -1 1.6
-3 9 2 3.3 2.4
2 -9 -2 2.8 1.7
-2 9 2 -0.1 1.4
-2 9 2 3.1 1.9
1 -9 -2 1.7 1.6
-1 9 2 2.5 1.4
-1 9 2 -0.1 1.5
0 -9 2 2.6 1.4
0 -9 -2 2 1.1
0 -9 -2 2.7 1.6
0 9 -2 4.6 1.8
0 9 -2 -0.5 1.6
0 9 2 1.1 1.2
0 9 2 -0.2 1.5
1 -9 2 1.7 1.1
1 -9 2 3.2 1.7
-1 9 -2 1.9 1.7
-1 9 -2 2.5 1.7
2 -9 2 13.9 2.9
2 -9 2 6.7 1.7
-2 9 -2 4.7 2.5
-2 9 -2 9.5 2.8
3 -9 2 8.1 2.6
3 -9 2 10.6 2.1
-3 9 -2 3.9 2.3
-3 9 -2 11.5 3.8
2 -10 -2 2 1.9
-2 10 2 1.8 2
-2 10 2 3 2.6
1 -10 -2 17.9 3.1
-1 10 2 9.5 2.7
-1 10 2 11.7 3.1
0 -10 -2 1.4 2.1
0 10 2 2 3.2
0 10 2 0.7 1.7
1 -10 2 14.2 3
1 -10 2 17.3 2.3
-1 10 -2 11.9 3
-1 10 -2 18.4 3.7
2 -10 2 6.7 2.5
-3 0 3 636.64 17
3 0 -3 682.93 16.5
3 0 -3 674.13 14.1
-3 0 3 651.43 16.9
3 0 -3 657.53 13.6
-3 0 3 666.63 14.7
-3 0 3 689.43 13.9
2 0 -3 5.6 1.3
2 0 -3 4.4 0.6
-2 0 3 5 1.2
2 0 -3 4.4 0.7
-2 0 3 4.9 0.6
-2 0 3 3.8 1.4
-2 0 3 2.5 0.8
2 0 -3 4.4 1.2
-1 0 3 358.86 9
1 0 -3 356.26 7.9
-1 0 3 353.66 7.6
-1 0 3 371.06 10
-1 0 3 355.76 12
1 0 -3 346.17 7.8
1 0 -3 357.66 9.7
1 0 -3 361.26 10.9
0 0 -3 20.5 1.5
0 0 -3 16.6 3
0 0 3 13.9 1.9
0 0 3 22.1 3.9
0 0 3 16.2 0.9
0 0 3 14.9 1.9
0 0 -3 17.3 1.1
0 0 -3 17.1 2
-1 0 -3 1.7 0.9
-1 0 -3 1.6 0.8
1 0 3 3.6 1.5
-1 0 -3 2.1 0.5
-1 0 -3 1 2.2
1 0 3 1.2 1.9
1 0 3 3.2 1.1
1 0 3 1.9 0.4
2 0 3 666.33 22.2
2 0 3 675.43 16.9
-2 0 -3 672.63 15.7
-2 0 -3 649.04 23.2
-2 0 -3 683.43 16.8
2 0 3 675.33 14.1
-2 0 -3 675.43 14.2
2 0 3 682.13 17.5
-3 0 -3 29.3 1.5
-3 0 -3 33.6 6.1
3 0 3 28.1 3.4
-3 0 -3 40.1 2.8
3 0 3 25.4 1.4
3 0 3 29.4 5.1
-3 0 -3 25.5 2.8
3 0 3 29.7 3.2
-4 0 -3 73.89 2.8
4 0 3 73.29 4.4
4 0 3 75.89 2.7
-4 0 -3 69.39 4
3 -1 -3 -0.6 0.7
3 -1 -3 0.9 0.6
3 -1 -3 -0.4 0.3
-3 1 3 -0.4 0.9
-3 1 3 0.5 0.7
-3 1 3 0.4 1.1
-3 1 3 -0.4 0.4
-2 -1 3 140.39 6.5
2 -1 -3 153.48 4
2 -1 -3 163.68 6.3
2 -1 -3 155.98 4.3
2 -1 -3 158.08 6.4
-2 -1 3 153.38 4.9
2 1 -3 154.38 5.1
-2 1 3 155.28 6.5
-2 1 3 145.39 6.6
-2 1 3 158.38 4
-2 1 3 159.98 4.9
2 1 -3 153.88 4.7
1 -1 -3 1174.58 23.7
-1 -1 3 1133.69 25.2
-1 -1 3 1163.38 28.9
-1 -1 3 1156.28 23
1 -1 -3 1119.39 26.8
1 -1 -3 1144.29 26.5
-1 -1 3 1196.48 24.9
1 -1 -3 1175.18 23.5
1 1 -3 1128.89 24.6
1 1 -3 1168.48 23.6
-1 1 3 1172.38 24.6
-1 1 3 1141.39 23.3
1 1 -3 1165.18 23.5
1 1 -3 1144.69 28
-1 1 3 1183.58 26.6
-1 1 3 1121.59 27.7
0 -1 -3 1012.9 25.1
0 -1 3 976.3 20.1
0 -1 -3 1008.9 20.8
0 -1 3 993.3 27
0 -1 -3 980.9 20.7
0 -1 -3 1006.7 23.3
0 -1 3 997 22.5
0 -1 3 1043.9 22.5
0 1 3 979.3 26.4
0 1 -3 967.2 20.3
0 1 3 1035.9 23.6
0 1 3 1052.19 22.3
0 1 -3 995.3 22.2
0 1 -3 1029.3 27.7
0 1 3 995.2 20.4
0 1 -3 1030 21.3
1 -1 3 40.7 2.8
1 -1 3 40 1.5
-1 -1 -3 41 1.7
-1 -1 -3 41.6 2.9
-1 -1 -3 44.8 5.3
1 -1 3 34.7 5.2
1 -1 3 38.6 3.1
-1 -1 -3 42.1 2.1
-1 1 -3 40.1 2.7
1 1 3 41.3 1.6
-1 1 -3 33.5 5.3
1 1 3 35.4 5.2
1 1 3 37.9 3.1
1 1 3 38.2 3.5
-1 1 -3 41.2 1.6
-1 1 -3 38.7 2.3
-2 -1 -3 458.15 11.3
2 -1 3 449.86 17.4
2 -1 3 469.45 10.3
-2 -1 -3 455.25 17.3
-2 -1 -3 489.75 13
-2 -1 -3 471.75 10.4
2 -1 3 494.15 13.5
2 1 3 475.95 10.3
2 1 3 492.15 13.8
2 1 3 465.85 18.2
-2 1 -3 476.15 19.3
-2 1 -3 479.35 12
2 1 3 492.45 13.4
-2 1 -3 495.15 13.2
-2 1 -3 478.65 10.5
-3 -1 -3 118.59 5.4
-3 -1 -3 115.39 3.4
-3 -1 -3 116.39 9
3 -1 3 117.49 3.4
3 -1 3 114.99 5.3
-3 -1 -3 116.79 4.5
3 1 3 112.79 3.4
-3 1 -3 115.89 3.6
3 1 3 135.69 9.2
-3 1 -3 119.09 5
3 1 3 121.59 5.7
3 1 3 124.99 6.2
4 -1 3 122.89 5.6
4 -1 3 119.89 3.7
-4 1 -3 123.89 4
-4 1 -3 119.49 5.5
4 -2 -3 35.7 2.3
-4 2 3 40.8 2.8
-4 2 3 39.7 2.3
3 -2 -3 154.78 4.2
3 -2 -3 153.08 4.8
3 -2 -3 160.68 7.6
-3 2 3 160.38 8.1
-3 2 3 157.58 4.6
-3 2 3 161.18 5.5
-3 2 3 149.09 7.5
2 -2 -3 97.89 5.5
-2 -2 3 101.19 4.3
-2 -2 3 95.29 3.4
2 -2 -3 96.49 5.2
2 -2 -3 92.99 3.4
2 -2 -3 92.69 2.9
-2 2 3 99.69 4
-2 2 3 94.89 3.1
-2 2 3 101.29 5.7
2 2 -3 98.09 4.3
2 2 -3 98.89 3
-2 2 3 86.09 5.4
-1 -2 3 569.54 16.3
1 -2 -3 569.34 12.6
1 -2 -3 580.04 15.8
-1 -2 3 559.24 11.5
1 -2 -3 555.34 12.2
1 -2 -3 582.54 15.9
-1 -2 3 568.94 12.9
-1 -2 3 565.94 13.4
-1 2 3 576.44 15.8
-1 2 3 557.44 12.2
-1 2 3 580.94 13.4
-1 2 3 550.54 16.4
1 2 -3 560.34 17.3
1 2 -3 560.14 11.6
1 2 -3 556.74 13.1
1 2 -3 557.74 12.5
0 -2 -3 791.62 20.7
0 -2 -3 823.82 17.5
0 -2 -3 855.51 21.7
0 -2 3 858.31 23.5
0 -2 3 888.11 19
0 -2 3 842.62 16.9
0 -2 3 821.62 19.3
0 -2 -3 803.92 17.7
0 2 -3 862.51 24.7
0 2 -3 842.12 17.1
0 2 3 851.31 21
0 2 3 818.32 17.3
0 2 -3 840.42 18.2
0 2 3 845.22 22.7
0 2 -3 800.32 19.1
0 2 3 841.62 18.8
-1 -2 -3 541.55 12
1 -2 3 564.54 18.5
1 -2 3 524.15 11.4
1 -2 3 575.14 14.4
-1 -2 -3 547.05 14.8
-1 -2 -3 538.65 12
-1 -2 -3 548.95 16.4
1 2 3 538.95 13.7
-1 2 -3 526.95 14
-1 2 -3 533.05 12.8
1 2 3 530.95 11.5
-1 2 -3 521.65 19.4
-1 2 -3 537.15 11.6
1 2 3 529.25 15.1
1 2 3 544.95 18.4
2 -2 3 78.79 2.5
2 -2 3 76.89 4.1
-2 -2 -3 78.79 3
-2 -2 -3 78.09 2.7
-2 -2 -3 80.59 4.3
2 -2 3 71.19 7.3
-2 -2 -3 70.19 5.6
2 -2 3 88.89 4.7
2 2 3 79.99 4.6
2 2 3 77.49 2.5
-2 2 -3 77.59 2.7
-2 2 -3 69.19 4.2
2 2 3 69.39 7.9
-2 2 -3 80.79 3.8
2 2 3 69.89 4.4
-2 2 -3 66.29 8
3 -2 3 88.99 4.6
-3 -2 -3 103.29 11.2
-3 -2 -3 74.69 5.6
-3 -2 -3 88.79 2.9
-3 -2 -3 85.79 3.4
3 -2 3 89.69 2.9
3 2 3 58.19 11.5
-3 2 -3 86.39 3.1
3 2 3 102.49 6.4
3 2 3 86.09 5
-3 2 -3 91.19 4.4
3 2 3 83.99 2.8
4 -2 3 9.4 2.1
4 -2 3 14 1.4
-4 2 -3 9.5 2.1
-4 2 -3 11.8 1.4
5 -2 3 41 4.1
-5 2 -3 39.2 2.8
4 -3 -3 7.2 1
4 -3 -3 7.7 1.5
-4 3 3 8.2 1.4
-4 3 3 6.1 1.7
3 -3 -3 32 1.8
3 -3 -3 32.2 2.3
-3 3 3 37.5 2.8
-3 3 3 35.2 2.1
2 -3 -3 38.9 4.5
2 -3 -3 60.39 2.4
-2 -3 3 55.29 2.6
2 -3 -3 56.79 2.8
-2 -3 3 59.19 1.6
-2 -3 3 56.19 2.3
-2 -3 3 59.29 3.1
2 -3 -3 56.29 4.3
-2 3 3 58.89 3.3
2 3 -3 56.59 1.7
2 3 -3 53.19 2.3
2 3 -3 57.59 4.3
-2 3 3 56.79 5.5
-2 3 3 62.59 5.9
-2 3 3 55.29 2.4
1 -3 -3 47 4.6
1 -3 -3 55.39 5.2
-1 -3 3 49 4.6
-1 -3 3 49.9 2.4
1 -3 -3 48 2.1
-1 -3 3 45.6 1.5
1 -3 -3 44.3 2.3
-1 -3 3 45.3 2.6
1 3 -3 49 2.3
-1 3 3 46.2 4.8
-1 3 3 47.2 2.9
-1 3 3 52.29 5.2
1 3 -3 41.1 2.5
-1 3 3 45.9 2.1
1 3 -3 46.9 1.6
1 3 -3 42.3 5.2
0 -3 3 406.26 11.4
0 -3 3 394.66 8.7
0 -3 -3 408.06 9.8
0 -3 -3 405.46 13.1
0 -3 -3 397.66 9.3
0 -3 3 419.56 10.5
0 -3 -3 418.16 13.3
0 -3 3 418.76 14.3
0 3 3 407.96 9.3
0 3 -3 413.56 10
0 3 3 411.06 10.7
0 3 -3 400.06 9
0 3 3 410.96 13
0 3 -3 402.66 11.2
0 3 3 411.96 14.1
0 3 -3 394.06 15.6
-1 -3 -3 37.1 1.9
-1 -3 -3 40.4 4.2
-1 -3 -3 42.2 2.1
1 -3 3 46 3
1 -3 3 37.1 5
1 -3 3 40.5 1.6
1 -3 3 42.6 3.2
-1 -3 -3 45.6 4.3
1 3 3 42.1 5.4
-1 3 -3 39.2 1.8
1 3 3 42.5 3
1 3 3 40.2 4.1
-1 3 -3 42.5 2.7
1 3 3 37.3 1.7
-1 3 -3 44.6 3.2
2 -3 3 303.77 9.4
-2 -3 -3 311.97 10.5
-2 -3 -3 314.57 7.7
-2 -3 -3 310.17 11.7
-2 -3 -3 317.67 7.7
2 -3 3 321.27 7.4
2 3 3 307.77 9.9
2 3 3 309.77 7.3
2 3 3 294.67 14.3
2 3 3 309.07 10.9
-2 3 -3 312.57 7.6
-2 3 -3 318.87 9.1
3 -3 3 61.09 2.4
-3 -3 -3 55.29 3.2
3 -3 3 68.99 4.1
3 3 3 66.19 4.8
-3 3 -3 64.49 2.8
-3 3 -3 65.29 3.9
4 -3 3 83.99 4.8
4 -3 3 94.69 3.3
-4 3 -3 90.69 3.6
-4 3 -3 92.09 5.2
5 -3 3 27.2 1.9
5 -3 3 26 3.5
-5 3 -3 27.8 3.7
-5 3 -3 26.8 2.1
5 -4 -3 50.19 3.4
-5 4 3 49.1 4.6
-5 4 3 43.1 3.2
4 -4 -3 0 0.9
4 -4 -3 1.6 0.7
-4 4 3 2.2 1.4
-4 4 3 0.1 0.9
3 -4 -3 122.09 4
3 -4 -3 128.49 5
-3 4 3 123.29 4.5
-3 4 3 121.89 5.5
2 -4 -3 16.3 1.9
2 -4 -3 18.3 1.6
-2 4 3 13.9 1.6
-2 4 3 14.2 2.2
-1 -4 3 326.17 7.3
-1 -4 3 323.77 11.4
-1 -4 3 339.87 9.8
-1 -4 3 335.47 8.4
1 -4 -3 330.27 8.1
1 -4 -3 331.07 8.8
1 4 -3 335.77 8.4
1 4 -3 316.47 13.5
-1 4 3 332.77 9.7
1 4 -3 335.47 7.5
-1 4 3 331.67 8.3
0 -4 3 669.53 16.9
0 -4 -3 660.43 19.3
0 -4 3 641.74 19.8
0 -4 -3 656.03 14.9
0 -4 -3 657.13 14.2
0 -4 3 619.24 15.2
0 -4 -3 640.14 19.5
0 -4 3 645.84 13.6
0 4 -3 646.64 13.9
0 4 -3 629.74 14.9
0 4 3 652.03 20.4
0 4 3 661.53 16
0 4 3 637.94 14.3
0 4 3 626.64 19.7
0 4 -3 650.63 22.3
1 -4 3 26.1 1.4
-1 -4 -3 25.9 3.5
-1 -4 -3 26.3 1.9
-1 -4 -3 30.4 4
1 -4 3 31.7 3
-1 -4 -3 25.2 1.6
1 4 3 25.2 1.6
1 4 3 26.4 2.9
1 4 3 26.3 3.7
-1 4 -3 30.9 2.8
-1 4 -3 27.8 1.6
1 4 3 24.1 4.1
-2 -4 -3 148.09 4.4
-2 -4 -3 144.49 4.6
2 -4 3 153.28 6.1
2 -4 3 150.38 4.3
-2 -4 -3 151.78 7.7
-2 -4 -3 141.29 7
2 4 3 142.99 7.2
2 4 3 146.39 4.2
2 4 3 147.99 6.4
2 4 3 135.49 9.6
-2 4 -3 137.79 5.6
-2 4 -3 151.38 4.6
3 -4 3 119.89 5.6
3 -4 3 125.09 3.9
-3 4 -3 115.49 4.2
-3 4 -3 117.19 5.5
4 -4 3 2.7 1.6
4 -4 3 1.6 0.7
-4 4 -3 4.7 1.1
-4 4 -3 1.6 1.6
5 -4 3 1.6 1.5
5 -4 3 1.5 0.8
-5 4 -3 1.8 1.8
5 -5 -3 7.1 1.9
-5 5 3 6.1 2.2
-5 5 3 10.8 2.1
4 -5 -3 5.1 1.5
-4 5 3 5.6 1.5
-4 5 3 7.5 2.1
3 -5 -3 75.59 4
-3 5 3 82.89 4.8
-3 5 3 73.59 3.7
2 -5 -3 171.88 6
2 -5 -3 169.18 5.1
-2 5 3 164.48 6.7
-2 5 3 158.18 5.4
1 -5 -3 0.8 0.6
1 -5 -3 1.4 0.9
-1 -5 3 1.5 1.5
-1 -5 3 1 0.8
-1 -5 3 1.8 0.5
-1 -5 3 1.4 1
1 5 -3 0.4 0.8
1 5 -3 -2.2 1.6
-1 5 3 1.8 0.8
-1 5 3 3.5 1.4
0 -5 -3 15.6 1.8
0 -5 3 14.8 2
0 -5 -3 15.7 1.6
0 -5 3 15.5 1.1
0 5 -3 13.6 1.8
0 5 3 14.3 2.3
0 5 3 12.7 1.5
-1 -5 -3 2.8 0.8
-1 -5 -3 3.2 1
1 -5 3 2.1 0.6
1 -5 3 3.3 1.4
1 5 3 3.2 0.9
-1 5 -3 2.9 1.2
-1 5 -3 2.4 0.8
1 5 3 1.9 1.3
-2 -5 -3 14.2 1.7
2 -5 3 14.7 2.4
2 -5 3 14.3 1.4
-2 -5 -3 16.8 1.6
2 5 3 14.6 2.6
-2 5 -3 12.9 1.5
-2 5 -3 15.5 2.4
2 5 3 15.1 1.5
3 -5 3 39.5 4
3 -5 3 40.2 2.2
-3 5 -3 38.9 4
4 -5 3 88.29 5.4
4 -5 3 88.69 3.5
-4 5 -3 83.09 5.2
5 -5 3 26 3.8
5 -5 3 23.7 2.2
-5 5 -3 24.4 4.1
5 -6 -3 11.6 2.4
-5 6 3 14 2.7
-5 6 3 8.3 2.5
4 -6 -3 3.3 1.4
-4 6 3 3.2 1.7
-4 6 3 2.2 1.3
3 -6 -3 119.49 4.3
3 -6 -3 112.19 5.3
-3 6 3 110.09 6
-3 6 3 117.39 5
2 -6 -3 56.49 3.5
-2 6 3 58.49 4.2
-2 6 3 63.29 3.3
1 -6 -3 125.59 4.4
-1 -6 3 120.19 4.7
-1 -6 3 126.09 3.6
1 -6 -3 126.79 5.2
1 6 -3 119.09 4.7
-1 6 3 114.29 5.8
-1 6 3 129.59 4.7
0 -6 -3 178.88 6.3
0 -6 3 183.38 6.5
0 -6 3 188.28 5.1
0 -6 -3 189.48 5.6
0 6 3 179.48 5.7
0 6 3 169.88 7.1
0 6 -3 188.28 6.4
1 -6 3 81.79 4.5
-1 -6 -3 91.89 3.5
-1 -6 -3 84.19 4
1 -6 3 91.39 3.3
1 6 3 84.69 5
1 6 3 94.79 3.6
-1 6 -3 90.29 4.5
2 -6 3 5.1 1.6
2 -6 3 7.5 1.2
-2 6 -3 6.3 1.8
3 -6 3 21.2 3
3 -6 3 23.9 1.8
-3 6 -3 24.6 3.2
4 -6 3 1.7 0.9
4 -6 3 1.4 1.5
-4 6 -3 3.5 2
5 -6 3 17.1 2.2
5 -6 3 23.6 3.8
-5 6 -3 13 4
5 -7 -3 4.1 1.9
-5 7 3 7.5 2.8
-5 7 3 8.1 2.7
4 -7 -3 2.6 1.5
-4 7 3 4.1 2.2
-4 7 3 2.8 1.8
3 -7 -3 69.99 3.5
3 -7 -3 74.09 4.5
-3 7 3 65.19 5.1
-3 7 3 66.59 4.1
2 -7 -3 59.19 3.1
2 -7 -3 56.89 3.8
-2 7 3 59.09 3.6
-2 7 3 56.59 4.5
1 -7 -3 51.89 3.6
1 -7 -3 53.79 2.9
-1 7 3 55.39 3.3
-1 7 3 50.59 4.2
0 -7 -3 20 2
0 -7 3 21.9 2.7
0 -7 -3 22.5 2.7
0 -7 3 15.5 1.5
0 7 -3 18.9 2.5
0 7 3 26.6 3.5
0 7 3 16.7 2.1
-1 -7 -3 8.5 1.4
1 -7 3 9.6 2.2
1 -7 3 10.2 1.4
-1 -7 -3 7.7 1.6
1 7 3 12.6 2.7
-1 7 -3 6.4 1.7
1 7 3 9 1.5
2 -7 3 1.8 1.5
2 -7 3 -0.3 0.6
-2 7 -3 -0.5 1.2
3 -7 3 24.4 3.6
3 -7 3 34.4 2.3
-3 7 -3 25.1 3.6
4 -7 3 29.9 2.7
4 -7 3 23.3 3.5
-4 7 -3 28.7 4.7
5 -7 3 15.5 3.4
5 -7 3 12.7 2.1
-5 7 -3 5.6 4
4 -8 -3 8.6 2.2
-4 8 3 11.7 3.3
-4 8 3 9.2 3
3 -8 -3 6 2.1
-3 8 3 9.6 2.5
-3 8 3 2.7 2
2 -8 -3 71.29 3.6
2 -8 -3 67.69 4.5
-2 8 3 60.19 4
-2 8 3 62.49 5.1
1 -8 -3 52.29 3.9
1 -8 -3 57.19 3.1
-1 8 3 53.19 5.5
-1 8 3 61.59 3.6
0 -8 -3 70.59 3.4
0 -8 -3 67.39 4.2
0 -8 3 73.79 4.4
0 -8 3 65.69 2.9
0 8 -3 67.79 4.4
0 8 3 62.79 4.9
0 8 3 67.69 3.7
1 -8 3 4.9 1.1
-1 -8 -3 3.4 1.3
1 -8 3 4.8 1.8
-1 -8 -3 5.2 1.2
1 8 3 4.1 2
-1 8 -3 6.6 2.1
1 8 3 4.3 1.4
2 -8 3 13.6 1.8
2 -8 3 11.3 2.4
-2 8 -3 11.9 2.8
3 -8 3 -0.2 1.1
3 -8 3 0.2 1.5
-3 8 -3 1.6 2.6
4 -8 3 0.2 1.4
4 -8 3 1 1.6
-4 8 -3 0.6 3.2
3 -9 -3 24 3.5
-3 9 3 15.4 3.3
-3 9 3 32.5 4.9
2 -9 -3 2.7 1.7
-2 9 3 0.8 1.8
-2 9 3 6.4 2.4
1 -9 -3 3.2 1.5
1 -9 -3 1.9 1.6
-1 9 3 3.5 2.1
-1 9 3 1.3 1.5
0 -9 -3 56.79 3.3
0 -9 -3 56.29 4.1
0 9 3 59.39 3.8
0 9 3 50.69 5.6
1 -9 3 11.1 1.8
1 -9 3 13.1 2.6
-1 9 -3 9.5 2.7
-1 9 -3 8.2 2.4
2 -9 3 9 1.9
2 -9 3 6.3 2.3
-2 9 -3 11.2 3.4
3 -9 3 3.1 2.2
3 -9 3 1.3 1.5
-3 9 -3 2.3 3.3
1 -10 -3 11.3 2.6
-1 10 3 12.1 2.8
-1 10 3 13 3.2
0 -10 -3 2.9 1.6
0 -10 -3 4.6 1.9
0 10 3 2.5 2.3
0 10 3 3.1 2
1 -10 3 10.3 1.9
1 -10 3 14.1 2.9
-1 10 -3 9.5 2.7
-1 10 -3 8.9 3.5
-3 0 4 18.7 1.1
3 0 -4 19.6 2.3
-3 0 4 17.6 3
3 0 -4 18.6 1.1
-3 0 4 18.9 1.9
3 0 -4 16.5 2.3
-3 0 4 18.2 2.6
3 0 -4 20.1 1.3
2 0 -4 672.13 14.2
-2 0 4 672.53 14
-2 0 4 666.13 17
2 0 -4 671.63 14.1
-2 0 4 667.73 15.6
-2 0 4 654.63 19.5
2 0 -4 669.03 16.8
2 0 -4 683.93 17.4
1 0 -4 1441.46 29.8
-1 0 4 1478.85 32.8
1 0 -4 1452.65 32.5
-1 0 4 1497.55 31.7
1 0 -4 1486.85 34.9
-1 0 4 1451.15 29.3
1 0 -4 1468.65 29.7
-1 0 4 1438.66 37
0 0 -4 239.88 5.9
0 0 4 227.68 11.8
0 0 -4 242.88 8
0 0 4 233.98 5.6
0 0 -4 241.88 11.2
0 0 -4 236.18 6.4
0 0 4 234.28 8.3
0 0 4 249.97 8.2
-1 0 -4 277.07 8.9
1 0 4 269.47 6.4
-1 0 -4 273.07 7.6
1 0 4 272.77 9.3
-1 0 -4 251.17 13.1
1 0 4 286.27 14
-1 0 -4 268.87 6.5
1 0 4 290.97 9.6
2 0 4 267.57 9.4
2 0 4 275.87 14.2
-2 0 -4 250.97 8.8
2 0 4 268.87 6.4
-2 0 -4 268.57 6.6
-2 0 -4 263.77 14.7
2 0 4 273.37 9.8
-2 0 -4 269.87 8
3 0 4 2.7 0.7
-3 0 -4 2.6 0.7
-3 0 -4 2.5 1.1
3 0 4 2.4 1.7
4 0 4 1.3 0.6
-4 0 -4 -0.1 1.1
4 0 4 1.6 1.5
-4 0 -4 0.6 0.6
3 -1 -4 708.13 18.8
3 -1 -4 659.63 14.4
3 -1 -4 696.43 18
3 -1 -4 674.83 15
-3 1 4 686.13 14.7
-3 1 4 665.13 19.6
-3 1 4 700.13 16.1
-3 1 4 677.93 18.9
2 -1 -4 81.69 4.8
2 -1 -4 75.89 2.8
2 -1 -4 77.49 2.6
-2 -1 4 78.69 2.2
-2 -1 4 73.49 3.9
2 -1 -4 75.59 4.6
-2 -1 4 76.99 3.6
-2 -1 4 71.49 5.7
-2 1 4 72.19 2.5
2 1 -4 80.89 4.4
-2 1 4 79.09 5.4
-2 1 4 77.89 3.6
2 1 -4 78.59 2.3
2 1 -4 76.89 2.4
2 1 -4 74.79 3.5
-2 1 4 72.39 4.5
-1 -1 4 2213.58 46
1 -1 -4 2245.58 44.9
-1 -1 4 2278.47 46.8
-1 -1 4 2124.39 52.29
1 -1 -4 2217.38 49.5
1 -1 -4 2204.78 48.3
1 -1 -4 2184.58 44.6
-1 -1 4 2277.77 47.4
1 1 -4 2287.77 51.49
1 1 -4 2297.77 45
-1 1 4 2188.18 48.5
1 1 -4 2263.37 45.2
1 1 -4 2242.28 46.5
-1 1 4 2255.87 46.4
-1 1 4 2221.18 51.69
-1 1 4 2187.88 45.9
0 -1 4 166.28 4.1
0 -1 4 162.68 6.4
0 -1 4 162.48 9.7
0 -1 -4 164.48 4.8
0 -1 -4 154.08 8.1
0 -1 -4 170.78 7
0 -1 -4 168.58 4.7
0 -1 4 175.88 6.6
0 1 -4 166.48 6.1
0 1 4 163.28 9.6
0 1 4 169.98 7
0 1 -4 164.08 5.2
0 1 4 178.48 6.5
0 1 -4 163.28 4.3
0 1 4 171.78 4.3
0 1 -4 162.48 10
1 -1 4 883.51 18.1
1 -1 4 892.41 27.6
-1 -1 -4 879.41 26.2
1 -1 4 895.91 21.3
-1 -1 -4 869.11 18.5
-1 -1 -4 871.31 19.2
-1 -1 -4 887.61 21.8
1 -1 4 901.11 21.7
-1 1 -4 858.41 19.8
1 1 4 839.62 21.4
1 1 4 865.01 28.2
-1 1 -4 869.21 21.1
1 1 4 877.21 18.2
-1 1 -4 871.81 28.6
-1 1 -4 862.91 18.2
1 1 4 893.51 22.2
-2 -1 -4 102.39 9.7
2 -1 4 94.49 9
2 -1 4 86.09 4.8
-2 -1 -4 78.79 4.6
-2 -1 -4 93.39 3.9
-2 -1 -4 91.69 3
2 -1 4 87.99 2.8
2 1 4 91.99 2.9
-2 1 -4 88.19 3
2 1 4 83.49 5.2
-2 1 -4 85.29 4.2
2 1 4 91.19 5.4
-2 1 -4 128.39 14.7
2 1 4 75.59 8.6
-3 -1 -4 174.98 4.8
3 -1 4 173.88 7.2
-3 -1 -4 176.98 6.1
3 -1 4 172.38 4.7
-3 1 -4 175.28 4.9
-3 1 -4 157.78 6.4
3 1 4 170.48 4.7
3 1 4 157.68 7.4
4 -1 4 182.58 7.7
4 -1 4 195.38 5.3
4 1 4 151.48 9.4
-4 1 -4 187.38 7.4
-4 1 -4 190.98 5.5
4 -2 -4 231.88 5.9
4 -2 -4 235.08 6.8
-4 2 4 226.18 7.6
-4 2 4 233.98 6.5
3 -2 -4 35.5 3.9
3 -2 -4 30.5 2
3 -2 -4 35.6 4.3
3 -2 -4 30.8 1.6
-3 2 4 26.6 3.9
-3 2 4 28.5 2.8
-3 2 4 34.9 4.5
-3 2 4 33.2 1.9
2 -2 -4 270.07 7.3
2 -2 -4 283.77 10.6
-2 -2 4 276.47 6
-2 -2 4 285.27 10.6
2 -2 -4 292.17 10.4
-2 -2 4 269.47 7.4
2 -2 -4 276.17 6.8
-2 -2 4 278.87 8.1
-2 2 4 265.67 10.5
-2 2 4 268.07 6.8
2 2 -4 270.67 6.5
-2 2 4 266.97 8.1
2 2 -4 269.67 9.8
-2 2 4 278.07 11.3
2 2 -4 280.57 6
2 2 -4 280.07 7.5
-1 -2 4 220.58 7.2
1 -2 -4 214.48 8.9
1 -2 -4 189.28 8.3
-1 -2 4 212.78 4.9
-1 -2 4 205.08 9.9
1 -2 -4 212.18 5.9
-1 -2 4 227.18 6.9
1 -2 -4 208.38 5.5
1 2 -4 200.08 6.6
-1 2 4 226.08 10
1 2 -4 209.68 5.9
1 2 -4 216.48 10.8
-1 2 4 199.78 6.7
-1 2 4 206.28 5.4
-1 2 4 218.08 8.7
1 2 -4 212.68 5
0 -2 -4 624.44 17.2
0 -2 4 633.84 15.4
0 -2 -4 588.24 13.4
0 -2 4 610.94 12.7
0 -2 -4 612.64 18.3
0 -2 4 612.44 15.7
0 -2 -4 615.24 13.7
0 -2 4 604.94 20.5
0 2 4 603.04 15.3
0 2 -4 596.74 21.4
0 2 -4 598.14 12.9
0 2 -4 584.54 15.3
0 2 4 597.34 20
0 2 4 592.74 17.2
0 2 4 608.04 13.1
0 2 -4 622.44 14.3
-1 -2 -4 20 1.5
1 -2 4 19.4 1.2
-1 -2 -4 16.1 1.5
1 -2 4 20.1 2.7
1 -2 4 20 4.5
-1 -2 -4 16.1 3.2
-1 -2 -4 23.8 3.1
1 -2 4 13.2 2.2
-1 2 -4 18.9 1.3
-1 2 -4 19.3 2.3
1 2 4 18.2 2.8
-1 2 -4 17.4 4.8
-1 2 -4 21.9 2.7
1 2 4 19 1.3
1 2 4 29.3 3.5
1 2 4 14.2 3.8
-2 -2 -4 193.08 5.4
2 -2 4 199.88 5.1
-2 -2 -4 210.18 10.7
-2 -2 -4 187.88 5.7
-2 -2 -4 190.78 7.9
2 2 4 176.58 12
2 2 4 205.98 8.6
2 2 4 181.78 7.9
-2 2 -4 194.08 6.8
-2 2 -4 194.88 5.3
2 2 4 192.88 5.1
3 -2 4 63.89 4.3
-3 -2 -4 62.99 3.2
3 -2 4 62.69 2.5
-3 -2 -4 58.39 2.5
3 2 4 57.99 4.8
-3 2 -4 57.69 3.9
3 2 4 61.39 2.4
-3 2 -4 62.99 2.7
4 -2 4 88.39 3.2
4 -2 4 92.49 5.3
-4 2 -4 83.89 3.4
-4 2 -4 89.19 5.1
5 -2 4 10.4 1.4
5 -2 4 10.7 2.6
-5 2 -4 13.7 2.8
-5 2 -4 13.9 1.8
4 -3 -4 171.78 5.9
4 -3 -4 173.78 5.1
-4 3 4 182.88 5.7
-4 3 4 176.78 6.8
3 -3 -4 550.04 13.3
3 -3 -4 553.94 12.4
-3 3 4 549.95 12.8
-3 3 4 540.15 14.4
2 -3 -4 189.28 5.2
2 -3 -4 195.28 5.9
-2 -3 4 187.88 4.4
2 3 -4 174.68 6.6
-2 3 4 187.68 5.4
-2 3 4 196.58 6.8
2 3 -4 185.38 4.7
1 -3 -4 440.46 15.4
-1 -3 4 477.35 12.8
1 -3 -4 473.75 15.4
-1 -3 4 500.55 16.2
-1 -3 4 470.95 10.1
1 -3 -4 480.35 11.5
1 -3 -4 474.15 10.9
-1 -3 4 479.75 11.9
-1 3 4 466.55 16.7
-1 3 4 477.75 10.9
1 3 -4 477.05 17.9
1 3 -4 482.55 11.5
1 3 -4 477.05 12.5
1 3 -4 489.85 10.3
-1 3 4 462.95 12.5
-1 3 4 487.85 15.6
0 -3 4 62.59 3.9
0 -3 4 63.79 2.1
0 -3 4 60.99 3.6
0 -3 -4 59.29 2.8
0 -3 -4 63.99 2.7
0 -3 4 54.79 6.3
0 -3 -4 64.69 4.8
0 -3 -4 66.49 5.1
0 3 -4 63.09 3.3
0 3 4 66.59 3.8
0 3 4 66.89 4.9
0 3 -4 58.59 7.3
0 3 4 66.39 7
0 3 4 63.79 2.5
0 3 -4 60.49 2.3
0 3 -4 65.79 3.8
-1 -3 -4 312.67 8.1
-1 -3 -4 324.07 8
1 -3 4 314.77 7.3
-1 -3 -4 314.57 12.4
-1 -3 -4 320.47 11.4
1 -3 4 310.17 9.7
-1 3 -4 322.37 7.7
1 3 4 316.87 10.1
1 3 4 334.47 11.8
-1 3 -4 311.37 9.1
1 3 4 312.67 7.6
1 3 4 305.27 14.5
2 -3 4 212.68 7.8
-2 -3 -4 200.78 10.5
-2 -3 -4 214.98 6
-2 -3 -4 220.78 12.1
2 -3 4 215.98 5.5
-2 -3 -4 202.88 5.9
2 3 4 212.48 8.5
2 3 4 207.38 5.6
2 3 4 181.58 17.6
-2 3 -4 218.98 5.8
-2 3 -4 211.98 7.4
-3 -3 -4 186.88 5.4
3 -3 4 193.78 5.3
3 -3 4 189.68 7.6
-3 -3 -4 192.28 5.8
-3 3 -4 188.38 7.4
3 3 4 188.68 5.2
-3 3 -4 191.48 5.6
3 3 4 180.68 8.4
4 -3 4 159.78 4.8
4 -3 4 151.68 7
-4 3 -4 146.89 7
-4 3 -4 147.49 5.1
5 -3 4 1.4 1.6
5 -3 4 0.4 0.7
-5 3 -4 0.9 1.7
-5 3 -4 -0.2 0.8
4 -4 -4 59.99 2.8
4 -4 -4 54.79 3.5
-4 4 4 67.79 3.4
-4 4 4 61.69 4.2
3 -4 -4 89.99 4.1
3 -4 -4 87.39 3.4
-3 4 4 84.49 3.6
-3 4 4 85.59 4.8
2 -4 -4 62.19 3.2
2 -4 -4 63.39 2.8
-2 4 4 56.99 3.8
-2 4 4 57.09 2.8
-1 -4 4 82.69 2.5
-1 -4 4 83.09 3.7
1 -4 -4 81.39 3.1
-1 -4 4 84.59 6
-1 -4 4 84.19 4.4
1 -4 -4 88.29 3.8
1 4 -4 83.39 8.9
-1 4 4 81.09 4.4
1 4 -4 84.09 3.7
1 4 -4 82.79 2.7
-1 4 4 78.79 3.2
0 -4 4 35.8 2.8
0 -4 -4 34.9 2.3
0 -4 4 32.5 1.5
0 -4 -4 34.3 2
0 4 -4 36.8 1.8
0 4 -4 37.3 2.6
0 4 4 41.5 3.2
0 4 4 33.9 2
1 -4 4 44.9 2
1 -4 4 46.5 3.5
-1 -4 -4 44.7 2.6
-1 -4 -4 46.1 2.3
-1 4 -4 39.3 2
1 4 4 48.4 2.2
1 4 4 49.6 3.8
-1 4 -4 49.3 3.2
-2 -4 -4 128.19 4.3
-2 -4 -4 128.09 4.5
2 -4 4 125.09 5.9
2 -4 4 132.09 4
2 4 4 128.69 6.6
2 4 4 135.59 4.1
-2 4 -4 134.19 5.7
-2 4 -4 125.39 4.3
3 -4 4 21.6 3.2
3 -4 4 16.4 1.6
-3 4 -4 17.9 1.8
-3 4 -4 21 2.9
4 -4 4 12.2 2.7
4 -4 4 14.2 1.6
-4 4 -4 18.2 3.1
-4 4 -4 16.4 2
5 -4 4 30.9 4.2
5 -4 4 32.7 2.3
-5 4 -4 27.3 2.7
-5 4 -4 28.4 4.3
5 -5 -4 1.2 1.3
-5 5 4 0.3 1.2
-5 5 4 2.2 1.8
4 -5 -4 30.8 2.1
4 -5 -4 28.5 3.2
-4 5 4 30.9 4
-4 5 4 26.1 2.7
3 -5 -4 61.59 2.9
3 -5 -4 58.39 3.6
-3 5 4 64.09 4.4
-3 5 4 63.39 3.4
2 -5 -4 15.6 1.8
2 -5 -4 15.4 2.1
-2 5 4 13.1 1.7
-2 5 4 12.1 2.4
1 -5 -4 265.77 8.1
-1 -5 4 268.47 7.8
-1 -5 4 275.57 6.4
1 5 -4 270.87 6.6
-1 5 4 269.67 7.5
-1 5 4 259.57 9.1
1 5 -4 258.07 7.8
0 -5 -4 22 2.3
0 -5 4 20.6 1.3
0 -5 -4 24.4 2.1
0 -5 4 25.3 2.8
0 5 4 22 1.7
0 5 4 21.1 3
0 5 -4 23 1.6
0 5 -4 20.3 2.4
-1 -5 -4 276.37 8.1
1 -5 4 281.77 7
1 -5 4 276.37 9.1
-1 -5 -4 289.47 7.5
1 5 4 285.97 9.8
-1 5 -4 279.47 8.9
1 5 4 280.07 7.5
-1 5 -4 286.87 7.5
-2 -5 -4 10.1 1.6
-2 -5 -4 9.6 1.4
2 -5 4 8.1 2
2 -5 4 8.5 1.2
-2 5 -4 10.4 2.3
2 5 4 7.5 2.3
-2 5 -4 9.1 1.4
2 5 4 10 1.4
3 -5 4 41.8 4.3
3 -5 4 46.5 2.4
-3 5 -4 40.6 4.2
-3 5 -4 39.7 2.6
4 -5 4 56.99 4.6
4 -5 4 63.09 3
-4 5 -4 57.29 5.4
-4 5 -4 63.19 3.4
5 -5 4 4.3 1.3
5 -5 4 7 2.4
-5 5 -4 1.5 2.8
5 -6 -4 3.9 1.7
-5 6 4 2.1 1.8
-5 6 4 2.6 1.9
4 -6 -4 13.4 2.4
4 -6 -4 13.1 1.7
-4 6 4 16.3 2.5
-4 6 4 20.4 3.4
3 -6 -4 0.8 1.1
3 -6 -4 0.6 0.8
-3 6 4 0.8 1.1
-3 6 4 4.2 1.8
2 -6 -4 15.8 1.9
2 -6 -4 14.5 2.3
-2 6 4 18.3 2.2
-2 6 4 15.6 2.8
-1 -6 4 23.5 2.6
1 -6 -4 16.7 2.2
1 -6 -4 15.1 1.7
-1 -6 4 18.3 1.2
-1 6 4 16 2.7
-1 6 4 17.7 2
1 6 -4 20.1 2.4
0 -6 4 37.1 1.9
0 -6 -4 41.5 2.4
0 -6 -4 36.5 2.8
0 -6 4 42.3 3.2
0 6 -4 38.1 3.4
0 6 4 41.9 4.3
0 6 4 41.6 2.5
1 -6 4 39.2 2.1
1 -6 4 32.2 3.3
-1 -6 -4 33.7 2.7
-1 -6 -4 38.1 2.3
-1 6 -4 35.6 3.7
1 6 4 37.9 4.3
1 6 4 39.9 2.4
-2 -6 -4 39.4 3
-2 -6 -4 37.1 3.9
2 -6 4 37.5 2.2
2 -6 4 33.1 3.6
2 6 4 32.6 4.3
2 6 4 35.5 4.2
-2 6 -4 29.3 3.5
3 -6 4 12.3 2.4
3 -6 4 16.3 1.8
-3 6 -4 10.5 2.6
4 -6 4 7.4 2.4
4 -6 4 6.8 1.4
-4 6 -4 4.2 2.7
5 -6 4 4.4 1.5
5 -6 4 3.8 1.9
-5 6 -4 7.8 3.8
5 -7 -4 2.6 1.6
-5 7 4 0.5 2.3
-5 7 4 1 2
4 -7 -4 1.6 1.4
-4 7 4 4.4 2.1
-4 7 4 3.1 2
3 -7 -4 17 2
3 -7 -4 11.9 2.3
-3 7 4 11.2 2.2
-3 7 4 14.5 3.1
2 -7 -4 83.99 4.7
2 -7 -4 94.69 4
-2 7 4 73.69 5.3
-2 7 4 89.59 4.4
1 -7 -4 69.09 4.2
1 -7 -4 63.99 3.2
-1 7 4 60.59 4.8
-1 7 4 69.69 3.6
0 -7 -4 0.1 0.7
0 -7 4 0.2 0.5
0 -7 -4 0.7 1
0 -7 4 1.5 1.3
0 7 4 -0.4 1.4
0 7 -4 0.5 1.2
0 7 4 -0.2 0.8
1 -7 4 37.5 2.2
-1 -7 -4 39.5 2.5
-1 -7 -4 41.3 3.2
1 -7 4 39.3 4
1 7 4 37.7 4.4
1 7 4 44.7 2.8
-1 7 -4 37.6 4
2 -7 4 109.49 6.1
2 -7 4 122.39 4.4
-2 7 -4 123.79 6.5
3 -7 4 15.1 1.8
3 -7 4 15.4 3
-3 7 -4 13.4 3.1
4 -7 4 12.5 2.8
4 -7 4 15.3 2.2
-4 7 -4 12.9 4
4 -8 -4 4.7 1.8
-4 8 4 4.3 2.4
-4 8 4 6.2 2.7
3 -8 -4 4.7 1.8
3 -8 -4 5.3 1.7
-3 8 4 3.6 2
-3 8 4 6.2 2.5
2 -8 -4 5.9 1.4
2 -8 -4 9.6 2.3
-2 8 4 3.1 1.5
-2 8 4 6.1 2.4
1 -8 -4 37.7 2.7
1 -8 -4 45.9 4.4
-1 8 4 41.9 5.1
-1 8 4 44 3.2
0 -8 -4 72.89 4.4
0 -8 -4 74.39 3.6
0 -8 4 72.89 3.1
0 -8 4 64.89 4.3
0 8 4 73.89 3.9
0 8 -4 71.19 4.6
0 8 4 73.09 5.5
-1 -8 -4 69.39 3.5
-1 -8 -4 70.59 4.2
1 -8 4 72.39 3.2
1 -8 4 66.49 4.7
-1 8 -4 64.29 4.8
1 8 4 64.29 3.6
1 8 4 65.69 5.4
2 -8 4 8 2.4
2 -8 4 4.5 1.3
-2 8 -4 1.7 2.1
3 -8 4 12.6 3
3 -8 4 9 1.8
-3 8 -4 7.1 3.2
3 -9 -4 24.7 3.7
-3 9 4 10 3
-3 9 4 20.3 3.7
2 -9 -4 27.1 3.5
2 -9 -4 26.8 3
-2 9 4 24.3 4.2
-2 9 4 21.4 3.4
1 -9 -4 86.99 4.4
1 -9 -4 79.29 5.1
-1 9 4 76.39 4.8
-1 9 4 75.59 6
0 -9 -4 -0.6 1.2
0 -9 -4 0 1.2
0 9 4 -0.3 1.2
0 9 4 2.5 1.9
1 -9 4 44.7 4.7
1 -9 4 37.9 2.8
-1 9 -4 36.1 4.7
2 -9 4 34.8 4.4
2 -9 4 30.5 2.9
-2 9 -4 27.5 4.6
1 -10 -4 2.6 1.9
1 -10 -4 2.3 1.8
-1 10 4 4.8 2.5
-1 10 4 7.8 3.2
0 -10 -4 72.99 4.2
0 -10 -4 65.79 4.9
0 10 4 70.89 4.9
0 10 4 59.69 6.6
-3 0 5 2.2 1.3
-3 0 5 0.3 0.4
3 0 -5 0.4 0.4
3 0 -5 1.5 0.6
-2 0 5 102.89 7.6
2 0 -5 102.89 5.3
2 0 -5 104.39 3.4
-2 0 5 103.39 4.8
2 0 -5 121.09 6.3
-2 0 5 102.99 5.5
-2 0 5 110.59 3.2
2 0 -5 100.19 3.3
-1 0 5 174.78 10.7
1 0 -5 182.28 5.2
-1 0 5 179.08 7.5
1 0 -5 182.18 7.2
-1 0 5 178.18 6.9
1 0 -5 179.18 4.9
1 0 -5 170.08 8.9
-1 0 5 177.88 4.6
0 0 5 264.17 9.6
0 0 5 264.17 9.3
0 0 -5 259.87 7.2
0 0 5 251.67 6.2
0 0 -5 254.97 6.5
0 0 -5 253.67 9.1
0 0 -5 258.47 12.7
0 0 5 247.48 13.8
1 0 5 0.6 0.6
-1 0 -5 0.8 1
1 0 5 -0.5 2.3
1 0 5 0.4 1.2
-1 0 -5 0.5 1.1
1 0 5 0.3 1.6
-1 0 -5 -0.4 0.6
-1 0 -5 1.1 2.4
2 0 5 36.7 4.5
2 0 5 26.6 1.5
-2 0 -5 24.4 2.7
-2 0 -5 27.6 1.7
3 0 5 242.28 9.7
-3 0 -5 241.98 6.5
3 0 5 244.38 6.4
-3 0 -5 241.88 8.3
-4 0 -5 2 1.4
4 0 5 0.7 0.7
4 0 5 2.5 1.9
-4 0 -5 1.7 0.8
3 -1 -5 33.1 1.7
3 -1 -5 31.7 3.8
3 -1 -5 36.6 2.1
3 -1 -5 39.7 4.1
-3 1 5 37.1 5.2
-3 1 5 34.6 4.2
-3 1 5 33.9 3.1
-3 1 5 34.5 1.8
2 -1 -5 56.79 5.1
2 -1 -5 55.69 4.4
2 -1 -5 56.29 2.3
-2 -1 5 63.09 4
2 -1 -5 57.09 2.6
-2 -1 5 55.79 6.8
-2 -1 5 55.49 2
-2 -1 5 56.59 3.8
-2 1 5 58.89 3.6
2 1 -5 56.49 3.4
2 1 -5 57.59 4.5
-2 1 5 49.7 5.9
-2 1 5 57.99 4.4
2 1 -5 55.09 2.3
2 1 -5 58.69 2.1
-2 1 5 58.89 2.3
1 -1 -5 15.3 1.5
1 -1 -5 17.3 3.2
-1 -1 5 11.8 2.2
-1 -1 5 11.6 3.7
1 -1 -5 15 2.6
-1 -1 5 20 2.9
1 -1 -5 13.7 1.4
-1 -1 5 13.3 1
1 1 -5 20 3.9
1 1 -5 18.2 1.8
-1 1 5 11.3 2.2
-1 1 5 12.9 1.2
1 1 -5 13.3 2
1 1 -5 14.2 1.1
-1 1 5 16.7 3
-1 1 5 9.2 3.1
0 -1 5 439.66 12.7
0 -1 5 387.56 17.4
0 -1 -5 416.76 10.2
0 -1 -5 427.66 15.9
0 -1 -5 418.76 10
0 -1 5 411.46 12.8
0 -1 -5 434.86 13.3
0 -1 5 409.46 9.3
0 1 -5 415.26 9.5
0 1 5 403.26 9.5
0 1 5 435.16 18.3
0 1 5 419.46 12.5
0 1 -5 435.56 10.8
0 1 -5 413.76 17.7
0 1 5 430.76 13.6
0 1 -5 400.06 12
-1 -1 -5 69.99 3.3
-1 -1 -5 69.69 2.8
-1 -1 -5 70.49 4.7
-1 -1 -5 78.69 8.4
1 -1 5 71.79 4.9
1 -1 5 66.99 2.5
-1 1 -5 70.99 2.6
1 1 5 71.69 5
1 1 5 64.59 8.6
1 1 5 65.09 4.9
1 1 5 69.29 2.6
-1 1 -5 51.99 9.1
-1 1 -5 73.39 3.9
2 -1 5 22.8 3.4
-2 -1 -5 17.2 1.4
-2 -1 -5 18.2 2.2
2 -1 5 16.5 1.3
-2 1 -5 19.6 1.4
2 1 5 17.6 1.4
2 1 5 20.2 3.5
-2 1 -5 18.5 2.4
3 -1 5 5.4 2.1
-3 -1 -5 7.2 1.1
-3 -1 -5 6.1 1.6
3 -1 5 4.7 0.9
-3 1 -5 8.1 1.3
-3 1 -5 5.1 1.9
3 1 5 6.6 2.4
3 1 5 6.8 1.1
-4 -1 -5 35.3 3.4
4 -1 5 31.6 2
4 -1 5 29.7 4.1
-4 -1 -5 35.7 2.1
-4 1 -5 26.5 3.5
-4 1 -5 30.8 2.1
4 1 5 30.9 2
4 1 5 26.9 3.9
4 -2 -5 3.8 0.8
4 -2 -5 4.3 1.2
-4 2 5 4 1.6
-4 2 5 3.3 1
3 -2 -5 117.99 4.4
3 -2 -5 123.09 3.9
-3 2 5 119.19 4
-3 2 5 128.19 5.4
-2 -2 5 67.89 7.1
-2 -2 5 58.79 2
-2 -2 5 58.09 3.7
2 -2 -5 56.69 2.8
2 -2 -5 55.09 2.4
-2 -2 5 55.79 3.4
2 2 -5 57.79 1.9
-2 2 5 56.39 2.4
2 2 -5 64.29 3.2
-2 2 5 56.89 3.6
2 2 -5 53.79 5.6
2 2 -5 58.49 2.5
-1 -2 5 140.79 5.8
-1 -2 5 131.69 3.6
1 -2 -5 125.29 6.8
-1 -2 5 138.89 6.1
1 -2 -5 136.79 4.3
1 -2 -5 139.59 4.6
-1 -2 5 136.59 9.1
1 2 -5 140.19 3.7
1 2 -5 135.49 5.5
-1 2 5 141.99 7.2
1 2 -5 142.79 9.5
-1 2 5 135.69 5.8
-1 2 5 134.99 4.1
-1 2 5 130.59 8.8
1 2 -5 133.59 4.7
0 -2 5 435.06 13.3
0 -2 5 428.86 18.1
0 -2 -5 447.76 16
0 -2 -5 450.75 14.4
0 -2 5 425.86 12.7
0 -2 5 438.16 9.8
0 -2 -5 460.35 10.8
0 -2 -5 433.76 10.6
0 2 5 457.85 18.6
0 2 5 441.96 13
0 2 -5 445.56 11.6
0 2 -5 444.06 9.9
0 2 -5 448.66 19.4
0 2 5 445.46 14.8
0 2 -5 453.15 12.8
0 2 5 436.06 10.2
1 -2 5 50.29 2
-1 -2 -5 51.59 2.5
-1 -2 -5 49.1 2.7
1 -2 5 52.09 4.1
-1 2 -5 50.09 2.2
-1 2 -5 58.29 3.5
1 2 5 36.8 4.1
1 2 5 51.49 2.2
2 -2 5 42 4.2
2 -2 5 46.2 2.1
-2 -2 -5 48 2.8
-2 -2 -5 49.7 2.4
2 2 5 50.79 2.2
-2 2 -5 49.6 2.3
2 2 5 41.1 4.8
-2 2 -5 50.89 3.7
3 -2 5 55.99 4.5
-3 -2 -5 50.09 3
3 -2 5 53.49 2.4
-3 -2 -5 51.99 2.5
3 2 5 52.39 5.6
3 2 5 51.59 2.4
-3 2 -5 50.79 2.6
-3 2 -5 55.29 4.1
4 -2 5 10.6 1.4
4 -2 5 15.5 3.1
-4 2 -5 12.2 1.6
-4 2 -5 13.8 2.9
5 -2 5 19 3.5
5 -2 5 11.1 1.6
-5 2 -5 12.8 2.9
-5 2 -5 16 1.9
4 -3 -5 82.79 3.2
4 -3 -5 82.79 4
-4 3 5 91.59 5
-4 3 5 84.89 3.6
3 -3 -5 293.47 7.7
3 -3 -5 304.37 8.6
-3 3 5 297.97 9.7
-3 3 5 305.77 8
2 -3 -5 45.7 2.7
2 -3 -5 41.5 2.2
-2 3 5 45 3.4
-2 3 5 40.1 2.2
-1 -3 5 17.2 2.5
-1 -3 5 17.2 1.1
-1 -3 5 21.9 2.6
-1 -3 5 22.6 4.5
1 -3 -5 14.9 1.8
1 -3 -5 15 1.5
1 3 -5 19.5 4.6
-1 3 5 14 2.2
1 3 -5 15.9 2.2
1 3 -5 15.6 1.1
-1 3 5 14.9 1.5
1 3 -5 16.9 2.1
0 -3 5 105.39 3.1
0 -3 -5 100.09 4
0 -3 5 99.99 5
0 -3 -5 98.69 3.7
0 3 -5 107.59 4.7
0 3 -5 103.09 3.3
0 3 5 103.29 5.4
0 3 5 105.29 3.6
-1 -3 -5 35.2 2.2
-1 -3 -5 34.1 2.2
1 -3 5 35.7 1.8
1 -3 5 41 4.1
1 3 5 37.1 1.9
-1 3 -5 34.4 1.9
-1 3 -5 39.8 3.7
1 3 5 36.7 4.2
-2 -3 -5 18.5 1.8
2 -3 5 11.7 2.4
2 -3 5 17.7 1.4
-2 -3 -5 16.4 1.8
2 3 5 17.5 1.6
-2 3 -5 12.4 2.4
2 3 5 13.7 3
-2 3 -5 16.8 1.7
3 -3 5 6.5 2
-3 -3 -5 6 1.3
3 -3 5 6 1.1
-3 -3 -5 5.9 1.1
-3 3 -5 6.7 1.2
3 3 5 7.1 2.6
3 3 5 6 1
-3 3 -5 4.5 2
4 -3 5 16.6 1.7
4 -3 5 17.1 3.3
-4 3 -5 18.4 2.1
-4 3 -5 21.4 3.4
5 -3 5 1.8 1.5
5 -3 5 -0.3 0.7
-5 3 -5 0.3 2
-5 3 -5 0.6 0.9
4 -4 -5 18 1.8
4 -4 -5 18.8 2.3
-4 4 5 21.1 2.3
-4 4 5 20 3
3 -4 -5 165.68 6
3 -4 -5 167.48 5.2
-3 4 5 155.58 6.9
-3 4 5 168.98 5.5
2 -4 -5 117.39 4.1
2 -4 -5 103.99 4.6
-2 4 5 116.39 4.2
-2 4 5 113.89 5.6
-1 -4 5 25.4 4.5
-1 -4 5 31.7 3.5
-1 -4 5 25.6 1.4
-1 -4 5 26.4 2.7
1 -4 -5 28.3 1.9
1 -4 -5 25.1 2.4
-1 4 5 32.4 3.6
1 4 -5 26.4 5.9
1 4 -5 26.4 1.5
1 4 -5 26.8 3
-1 4 5 24.4 1.9
1 4 -5 28.8 2.8
0 -4 -5 217.38 6.8
0 -4 5 212.78 5.5
0 -4 -5 212.68 6.2
0 -4 5 215.58 7.6
0 4 -5 212.88 7.3
0 4 5 213.88 8.2
0 4 -5 210.58 5.7
0 4 5 209.18 6
-1 -4 -5 109.79 4.3
1 -4 5 103.59 5.4
-1 -4 -5 105.59 4
1 -4 5 102.49 3.4
-1 4 -5 106.89 3.7
1 4 5 105.09 6
-1 4 -5 102.69 5
1 4 5 111.89 3.8
2 -4 5 0.8 0.6
-2 -4 -5 0.4 0.8
2 -4 5 2.3 1.6
-2 -4 -5 1.8 0.9
-2 4 -5 0.8 1.3
2 4 5 1.1 1.7
2 4 5 0.8 0.7
-2 4 -5 1.2 0.7
3 -4 5 5.7 2
3 -4 5 3.8 0.9
-3 4 -5 6.4 1.3
-3 4 -5 5.2 2.1
4 -4 5 0.5 1.4
4 -4 5 1.7 0.8
-4 4 -5 1.2 0.9
-4 4 -5 -0.2 1.5
5 -4 5 8 1.5
5 -4 5 7.4 2.4
-5 4 -5 8.5 1.7
-5 4 -5 6 3.2
5 -5 -5 28.5 3.2
-5 5 5 25 3.7
-5 5 5 21.1 2.8
4 -5 -5 49.6 3.5
4 -5 -5 44.5 2.6
-4 5 5 43.3 4.6
-4 5 5 41.2 3
3 -5 -5 74.49 3.4
3 -5 -5 69.89 4
-3 5 5 82.09 3.8
-3 5 5 75.79 5
2 -5 -5 78.59 4.1
2 -5 -5 89.89 3.7
-2 5 5 88.09 3.9
-2 5 5 94.49 5.4
1 -5 -5 6.6 1.5
1 -5 -5 10.7 1.6
-1 -5 5 7.5 1.6
-1 -5 5 7.2 0.9
1 5 -5 7.7 1.7
-1 5 5 6.9 2.1
1 5 -5 7.4 1
-1 5 5 11.4 1.6
0 -5 -5 3.8 1.3
0 -5 5 2.7 0.7
0 -5 5 7.3 1.8
0 -5 -5 5.7 1.2
0 5 -5 5.3 1.7
0 5 -5 3.9 0.9
0 5 5 5 1.8
0 5 5 3.2 1
-1 -5 -5 14.3 2
-1 -5 -5 17.9 1.9
1 -5 5 18.7 1.5
1 -5 5 13.6 2.5
1 5 5 18.7 3.3
1 5 5 17.6 1.9
-1 5 -5 17.4 1.8
-1 5 -5 14.7 2.4
2 -5 5 6.4 2
-2 -5 -5 5.1 1.2
-2 -5 -5 5.8 1.4
2 -5 5 5.3 1
2 5 5 3.7 2.2
-2 5 -5 5 1.2
-2 5 -5 4.4 2
2 5 5 6.4 1.2
3 -5 5 14.2 1.6
3 -5 5 16.8 3.1
-3 5 -5 13.1 2.8
-3 5 -5 10 1.6
4 -5 5 7.3 1.4
4 -5 5 10.6 2.5
-4 5 -5 5.6 2.5
-4 5 -5 9.5 1.7
5 -5 5 24.3 4
5 -5 5 20.8 2.4
-5 5 -5 18.7 4.7
5 -6 -5 15 2.7
-5 6 5 12.6 2.6
-5 6 5 9.3 2.7
4 -6 -5 14.2 2.4
4 -6 -5 18.7 2.2
-4 6 5 17 2.4
-4 6 5 17.3 3.4
3 -6 -5 42.9 2.7
3 -6 -5 41.6 3.4
-3 6 5 50.09 3.3
-3 6 5 32.9 4.1
2 -6 -5 6.7 1.8
2 -6 -5 9.2 1.6
-2 6 5 5.3 2.1
-2 6 5 11.4 1.8
1 -6 -5 44 2.7
1 -6 -5 47.3 3.3
-1 6 5 49.7 2.9
-1 6 5 36.7 4.1
0 -6 -5 34.6 2.8
0 -6 -5 28.1 2.2
0 -6 5 29.4 1.8
0 -6 5 28.5 3.2
0 6 -5 29.7 2
0 6 5 32.4 2.4
0 6 5 26.5 3.6
0 6 -5 30.5 3.3
1 -6 5 102.09 5.5
-1 -6 -5 100.69 4.1
1 -6 5 102.19 3.7
-1 -6 -5 96.09 4.6
1 6 5 105.99 4.2
-1 6 -5 100.09 4
1 6 5 106.79 6.5
-1 6 -5 106.49 5.6
2 -6 5 50.99 2.6
-2 -6 -5 50.49 3.2
2 -6 5 50.69 4.2
-2 -6 -5 49.4 2.8
2 6 5 49.9 2.8
-2 6 -5 47.2 2.9
2 6 5 49.6 5.6
-2 6 -5 55.89 5.3
3 -6 5 1.8 0.9
3 -6 5 0.7 1.5
-3 6 -5 0.6 0.9
-3 6 -5 -0.2 1.6
4 -6 5 1.9 1.2
4 -6 5 0.6 1.5
-4 6 -5 -0.6 2.5
5 -6 5 -1.1 1.4
5 -6 5 0.6 1.3
-5 6 -5 3.2 3.8
5 -7 -5 5 2
-5 7 5 2.8 2.3
-5 7 5 4.2 2.7
4 -7 -5 13.6 2.6
4 -7 -5 15.2 2.2
-4 7 5 10.1 2.5
-4 7 5 11.2 3.1
3 -7 -5 12.2 2.5
3 -7 -5 12.4 1.9
-3 7 5 13.9 2.4
-3 7 5 8.9 2.6
2 -7 -5 16.6 2.1
2 -7 -5 17.3 2.7
-2 7 5 13.7 3.1
-2 7 5 19.8 2.4
1 -7 -5 2 1.1
1 -7 -5 2.7 1.4
-1 7 5 1 1
-1 7 5 2.5 1.8
0 -7 5 14.2 1.5
0 -7 5 14.1 2.5
0 -7 -5 15.6 2.1
0 -7 -5 13.4 2.2
0 7 5 11.4 1.8
0 7 -5 11.4 2.4
0 7 5 17.3 3.3
-1 -7 -5 10.6 1.7
-1 -7 -5 10.3 2.1
1 -7 5 10.7 1.4
1 -7 5 13 2.5
-1 7 -5 11.4 2.5
1 7 5 15.7 2.1
1 7 5 8.7 2.7
2 -7 5 7.5 1.3
2 -7 5 6.2 2.1
-2 7 -5 7.1 2.4
3 -7 5 14.2 3
3 -7 5 11.7 1.8
-3 7 -5 8.4 3
4 -7 5 10 3
4 -7 5 15.1 2.3
-4 7 -5 15.3 4.6
4 -8 -5 6.9 2
4 -8 -5 6.5 2.1
-4 8 5 3.5 2.3
-4 8 5 6.1 2.6
3 -8 -5 0.1 1.3
3 -8 -5 -0.4 1.2
-3 8 5 0.9 1.7
-3 8 5 0.9 1.7
2 -8 -5 1.5 1.3
2 -8 -5 0.3 1.3
-2 8 5 -1.6 1.5
-2 8 5 -0.9 1.3
1 -8 -5 9.4 1.8
1 -8 -5 12 2.6
-1 8 5 9.6 2.9
-1 8 5 11.8 2.2
0 -8 5 15.6 2.7
0 -8 -5 21.8 2.5
0 -8 5 20.1 1.9
0 -8 -5 17.2 2.7
0 8 5 21.8 2.6
0 8 5 22 3.9
0 8 -5 11.9 2.7
1 -8 5 58.19 3
1 -8 5 67.09 4.9
-1 -8 -5 58.69 3.3
-1 -8 -5 48.5 3.8
1 8 5 56.09 3.4
1 8 5 52.49 5.9
-1 8 -5 64.49 5.8
2 -8 5 31.9 2.9
2 -8 5 27 4.1
-2 8 -5 25.5 4.3
3 -8 5 5.6 1.7
3 -8 5 7.6 2.7
-3 8 -5 1.1 3.4
3 -9 -5 -0.9 1.4
3 -9 -5 -0.2 1.6
-3 9 5 2.6 2.2
-3 9 5 0.5 2.3
2 -9 -5 2.6 1.8
2 -9 -5 1.8 1.6
-2 9 5 3.9 2.3
-2 9 5 -0.2 1.8
1 -9 -5 1.2 1.6
1 -9 -5 2.5 1.6
-1 9 5 1.6 2.2
-1 9 5 0.1 1.7
0 -9 -5 41.9 3.6
0 -9 -5 36.4 4.2
0 9 5 37.7 5.4
0 9 5 32.3 3.6
1 -9 5 -0.5 1.6
1 -9 5 -0.1 1.1
-1 9 -5 -0.6 2.3
2 -9 5 -0.7 1.3
2 -9 5 1.3 1.9
-2 9 -5 -1.9 2.9
3 0 -6 1.4 0.6
-3 0 6 3.3 1.6
-3 0 6 0.6 0.6
3 0 -6 1.9 0.8
-2 0 6 77.79 8.7
2 0 -6 76.39 5.7
-2 0 6 85.39 5
-2 0 6 79.99 5.4
2 0 -6 80.29 4.9
2 0 -6 82.79 3.1
-2 0 6 82.59 2.9
2 0 -6 84.19 3.1
-1 0 6 76.59 5.2
-1 0 6 69.39 2.6
-1 0 6 63.69 8.6
1 0 -6 69.69 7.2
1 0 -6 71.79 3.2
1 0 -6 69.49 4.6
1 0 -6 67.89 2.8
-1 0 6 76.09 5
0 0 6 29.9 1.7
0 0 -6 32 1.9
-1 0 -6 315.27 9.2
1 0 6 305.97 11.6
1 0 6 315.57 7.7
-1 0 -6 307.57 7.9
-2 0 -6 117.89 4
-2 0 -6 119.19 5.4
2 0 6 117.49 3.9
2 0 6 124.59 7.2
3 0 6 9.3 2.6
-3 0 -6 6.3 1.1
-3 0 -6 8.5 2.1
3 0 6 6.9 1.2
4 0 6 71.49 6.8
4 0 6 70.89 3.2
-4 0 -6 70.69 3.2
-4 0 -6 62.89 4.5
3 -1 -6 148.99 4.9
3 -1 -6 141.09 4.4
-3 1 6 147.39 6.4
-3 1 6 156.88 4.5
-2 -1 6 84.59 5.1
2 -1 -6 86.49 3.4
-2 -1 6 83.29 2.8
-2 -1 6 75.89 9.1
-2 -1 6 78.79 5.2
2 -1 -6 85.99 3.3
2 1 -6 90.19 3.3
-2 1 6 92.19 5.1
2 1 -6 87.09 2.9
-2 1 6 88.39 3.1
2 1 -6 84.69 6.2
2 1 -6 91.29 4.7
1 -1 -6 579.34 13.6
-1 -1 6 623.84 23.6
1 -1 -6 602.84 13.6
-1 -1 6 596.14 17.2
-1 -1 6 585.14 12.8
-1 -1 6 566.34 16.4
-1 1 6 580.54 13.1
1 1 -6 595.44 13
1 1 -6 599.44 14
-1 1 6 575.74 16.3
1 1 -6 597.24 16.2
1 1 -6 569.64 20.9
0 -1 -6 124.09 4.6
0 -1 6 133.19 3.9
0 -1 -6 132.29 4.4
0 -1 6 131.19 6.8
0 1 -6 131.99 4
0 1 -6 129.29 5.1
0 1 6 134.99 6.9
0 1 6 128.79 4
1 -1 6 151.48 7.6
-1 -1 -6 154.38 5.5
-1 -1 -6 154.08 4.8
1 -1 6 154.68 4.4
1 1 6 137.89 7.6
-1 1 -6 158.28 6.1
1 1 6 153.38 4.6
-1 1 -6 155.68 4.6
2 -1 6 6.8 1.1
2 -1 6 10.5 2.9
-2 -1 -6 7.6 1.7
-2 -1 -6 12.2 1.5
2 1 6 9.9 2.9
-2 1 -6 10 2.1
2 1 6 8.6 1.2
-2 1 -6 9.6 1.3
-3 -1 -6 109.99 5.2
-3 -1 -6 112.39 4
3 -1 6 114.49 6.8
3 -1 6 117.79 4
3 1 6 108.69 7
-3 1 -6 110.79 4.1
3 1 6 117.79 4.1
-3 1 -6 111.59 5.8
4 -1 6 85.29 3.5
4 -1 6 76.99 5.9
-4 -1 -6 84.69 3.6
-4 -1 -6 91.19 4.9
4 1 6 85.29 3.6
4 1 6 89.19 6.3
-4 1 -6 86.59 3.7
-4 1 -6 80.79 5.2
3 -2 -6 12.3 1.4
3 -2 -6 11.9 1.8
-3 2 6 11 2.3
-3 2 6 13.6 1.5
2 -2 -6 205.18 6.3
-2 -2 6 196.48 7.5
2 -2 -6 202.58 5.8
-2 -2 6 208.08 5.2
2 2 -6 203.08 5.9
-2 2 6 204.18 5.7
2 2 -6 202.48 5.1
-2 2 6 200.18 7.9
-1 -2 6 173.38 4.7
-1 -2 6 157.98 7.6
-1 -2 6 165.28 11.2
1 -2 -6 179.78 5.6
1 -2 -6 180.88 5.4
-1 -2 6 183.28 7.4
1 2 -6 163.88 6.8
1 2 -6 172.38 11.2
1 2 -6 172.58 5.9
-1 2 6 167.78 5
-1 2 6 177.08 7.5
1 2 -6 171.58 4.7
0 -2 6 7.5 2.2
0 -2 -6 9.7 1.5
0 -2 6 7.8 1
0 -2 -6 6.1 1.2
0 2 -6 8.1 1.7
0 2 6 8.3 2.4
0 2 6 7.9 1.2
0 2 -6 8.8 1.1
-1 -2 -6 300.47 8.4
-1 -2 -6 292.47 8
1 -2 6 296.37 10.8
1 -2 6 293.37 7.3
1 2 6 299.27 7.6
-1 2 -6 292.37 7.5
1 2 6 288.57 11.2
-1 2 -6 297.77 9.5
-2 -2 -6 88.29 3.6
-2 -2 -6 87.59 4.1
2 -2 6 89.89 5.7
2 -2 6 88.69 3.3
2 2 6 85.09 3.3
-2 2 -6 87.09 5
2 2 6 77.59 6.2
-2 2 -6 86.89 3.4
-3 -2 -6 27 2.8
3 -2 6 25.8 3.7
3 -2 6 26.6 1.8
-3 -2 -6 29.1 2
-3 2 -6 20.4 3.2
3 2 6 25.6 1.9
3 2 6 25 4.4
-3 2 -6 28.7 2
4 -2 6 53.09 5.7
4 -2 6 54.99 2.8
-4 2 -6 53.89 5.4
-4 2 -6 46.1 2.8
5 -2 6 5.5 2.3
5 -2 6 6.5 1.3
-5 2 -6 7.9 2.7
-5 2 -6 4.6 1.3
4 -3 -6 39.5 2.3
4 -3 -6 34.6 2.7
-4 3 6 42.7 4.5
-4 3 6 39.6 2.6
3 -3 -6 174.68 6
3 -3 -6 170.68 5.3
-3 3 6 162.28 5.3
-3 3 6 167.18 7.2
2 -3 -6 153.08 5.5
2 -3 -6 151.58 4.9
-2 3 6 159.18 6.9
-2 3 6 151.58 4.9
-1 -3 6 437.16 9.7
-1 -3 6 443.96 12.6
1 -3 -6 446.36 11.3
1 -3 -6 415.66 10.6
-1 3 6 418.36 10.4
-1 3 6 416.66 13.1
1 3 -6 438.86 9.8
1 3 -6 426.86 11.5
0 -3 6 27.8 1.6
0 -3 6 28.8 3.5
0 -3 -6 22.6 2.1
0 -3 -6 26.6 2.2
0 3 6 29.6 3.9
0 3 -6 24.6 1.6
0 3 6 28.8 1.9
0 3 -6 29.3 3.1
1 -3 6 345.17 11.7
-1 -3 -6 367.26 9.5
-1 -3 -6 355.76 9.5
1 -3 6 359.96 8.5
1 3 6 355.26 8.9
-1 3 -6 333.07 10.7
-1 3 -6 338.37 8.7
1 3 6 358.26 12.7
2 -3 6 15.5 3
-2 -3 -6 14.6 1.8
-2 -3 -6 12.5 1.7
2 -3 6 15.8 1.6
2 3 6 13.9 1.6
-2 3 -6 10.3 2.5
2 3 6 10.3 3.2
-2 3 -6 14.1 1.6
3 -3 6 38.5 4.8
3 -3 6 43.2 2.3
-3 -3 -6 45.9 2.6
-3 -3 -6 40.1 2.9
-3 3 -6 37.9 4.2
-3 3 -6 44 2.6
3 3 6 37.7 5.5
3 3 6 42.7 2.4
4 -3 6 63.79 3.1
4 -3 6 53.59 5.5
-4 3 -6 62.29 5.9
-4 3 -6 68.09 3.4
5 -3 6 22.9 2.3
5 -3 6 18.6 3.7
-5 3 -6 17.3 3.9
-5 3 -6 24.5 2.5
4 -4 -6 5.9 1.2
4 -4 -6 5.4 1.5
-4 4 6 4.2 1.3
-4 4 6 6.8 2.2
3 -4 -6 47 3.2
3 -4 -6 47.3 2.6
-3 4 6 44.1 4.4
-3 4 6 42.6 2.7
2 -4 -6 138.69 4.8
2 -4 -6 139.89 5.5
-2 4 6 141.99 6.8
-2 4 6 139.49 4.9
1 -4 -6 18.4 2.3
-1 -4 6 16.4 1.2
1 -4 -6 21.1 2.1
-1 -4 6 18.9 2.7
1 4 -6 17.3 1.3
-1 4 6 15.3 1.7
1 4 -6 17.3 2.4
-1 4 6 16.3 3
0 -4 -6 8.7 1.4
0 -4 6 9.4 2.2
0 -4 6 8.5 1.1
0 -4 -6 8.3 1.6
0 4 6 9 1.3
0 4 -6 8.9 2
0 4 -6 10.3 1.3
0 4 6 6.5 2.3
-1 -4 -6 54.29 3.1
1 -4 6 56.19 4.4
1 -4 6 54.49 2.5
-1 -4 -6 48.6 2.8
1 4 6 49.8 2.6
1 4 6 54.19 5.7
-1 4 -6 48.4 4.4
-1 4 -6 49.6 2.5
2 -4 6 256.87 6.9
2 -4 6 249.88 9.8
-2 -4 -6 251.67 7.5
-2 -4 -6 252.67 7.6
-2 4 -6 257.17 7.2
-2 4 -6 246.18 9.4
2 4 6 248.08 11
2 4 6 256.27 7.1
-3 -4 -6 1.8 0.9
3 -4 6 2.5 1.8
-3 -4 -6 3.6 2
3 -4 6 0.8 0.8
3 4 6 0.8 1.4
3 4 6 2.5 2.5
-3 4 -6 0.8 0.8
-3 4 -6 1.6 1.9
4 -4 6 12.2 1.7
4 -4 6 13.5 2.9
-4 4 -6 13.7 2
-4 4 -6 15.1 3.4
5 -4 6 -0.1 1
5 -4 6 1.5 1.9
-5 4 -6 3.8 3.4
-5 4 -6 2.3 1.3
5 -5 -6 18.4 3.6
5 -5 -6 19.4 2.2
-5 5 6 18.2 3.6
-5 5 6 14.3 2.6
4 -5 -6 35.2 3.7
4 -5 -6 36.9 2.5
-4 5 6 40.8 4.8
-4 5 6 33.4 3.1
3 -5 -6 20.7 2.8
3 -5 -6 18.5 2
-3 5 6 19.8 3.4
-3 5 6 22.2 2.4
2 -5 -6 90.79 3.9
2 -5 -6 96.89 4.7
-2 5 6 94.09 4.1
-2 5 6 91.89 5.7
-1 -5 6 24.8 2.9
1 -5 -6 25 2.8
-1 -5 6 20.2 1.4
1 -5 -6 17.7 1.9
-1 5 6 23.6 3.6
1 5 -6 19.2 1.5
1 5 -6 19.8 2.6
-1 5 6 20.5 2.1
0 -5 -6 64.29 3.2
0 -5 -6 53.79 3.5
0 -5 6 65.19 2.6
0 -5 6 61.79 4.3
0 5 6 66.49 3.2
0 5 -6 66.89 2.8
0 5 6 70.89 5.2
0 5 -6 62.49 4.2
1 -5 6 214.88 6.1
-1 -5 -6 227.38 6.9
-1 -5 -6 212.68 7.2
1 -5 6 198.78 8.4
1 5 6 228.48 6.7
1 5 6 216.38 9.8
-1 5 -6 221.48 8.6
-1 5 -6 222.28 6.4
-2 -5 -6 12.9 1.8
2 -5 6 6.7 2.1
2 -5 6 11.3 1.5
-2 -5 -6 10.4 1.8
-2 5 -6 12.8 2.7
2 5 6 5.9 2.7
2 5 6 9 1.5
-2 5 -6 10.1 1.5
3 -5 6 40.7 2.5
3 -5 6 35 4.3
-3 5 -6 41.9 5
-3 5 -6 38.1 2.7
4 -5 6 -0.7 1.3
4 -5 6 0.5 1
-4 5 -6 1.3 1.1
-4 5 -6 0.5 2.8
5 -5 6 9.2 2.9
5 -5 6 6 1.7
-5 5 -6 8.5 1.8
-5 5 -6 6.4 4.3
5 -6 -6 16.5 2.8
5 -6 -6 17.2 2.3
-5 6 6 16 3.5
-5 6 6 11.3 2.6
4 -6 -6 10.2 1.8
4 -6 -6 7.9 2
-4 6 6 7.1 2.5
-4 6 6 7.1 2
3 -6 -6 17.2 2.7
3 -6 -6 20.2 2.3
-3 6 6 21.3 3.6
-3 6 6 16.4 2.2
2 -6 -6 16 2
2 -6 -6 17.3 2.6
-2 6 6 19.6 3.5
-2 6 6 20.2 2.4
1 -6 -6 39.9 3.2
1 -6 -6 38.8 2.6
-1 6 6 33.2 4.4
-1 6 6 39.9 2.7
0 -6 6 9.1 1.2
0 -6 -6 12.2 2.2
0 -6 6 13 2.3
0 -6 -6 10.7 1.7
0 6 6 20.6 3.5
0 6 6 12.7 1.8
0 6 -6 8.6 1.3
1 -6 6 4.8 1
-1 -6 -6 6.3 1.6
-1 -6 -6 8 1.6
1 -6 6 3.3 1.7
1 6 6 7.8 2.7
1 6 6 6 1.4
-1 6 -6 6.7 1.3
-1 6 -6 2.3 1.8
-2 -6 -6 52.09 3
-2 -6 -6 47.7 3.3
2 -6 6 49.5 2.7
2 -6 6 45.4 4.8
-2 6 -6 51.89 3.1
2 6 6 58.09 6.8
2 6 6 50.39 2.9
-2 6 -6 49.2 5.2
3 -6 6 12 2.9
3 -6 6 11.4 1.7
-3 6 -6 9.4 3
-3 6 -6 11.8 1.9
4 -6 6 -0.5 1.2
4 -6 6 -0.8 1.4
-4 6 -6 -1.5 3
-4 6 -6 0.1 1
4 -7 -6 2.6 1.6
4 -7 -6 2.3 1.6
-4 7 6 1.8 2
-4 7 6 3 2.2
3 -7 -6 21.2 2.6
3 -7 -6 24.8 3.4
-3 7 6 21.8 3.1
-3 7 6 19 3.6
2 -7 -6 21.4 2.4
2 -7 -6 15.7 2.6
-2 7 6 15 3.2
-2 7 6 17.8 2.4
1 -7 -6 14.1 2.4
1 -7 -6 21.7 2.5
-1 7 6 23.8 2.7
-1 7 6 16.2 3.3
0 -7 6 32.8 3.7
0 -7 6 40.8 2.3
0 -7 -6 48.5 3.7
0 -7 -6 36.5 2.8
0 7 6 40.7 2.9
0 7 6 36.1 4.8
0 7 -6 41.3 4.5
-1 -7 -6 19.6 2.8
1 -7 6 19.6 3.1
1 -7 6 16.8 1.8
-1 -7 -6 19.6 2.3
1 7 6 15.8 3.6
-1 7 -6 25.8 3.9
-1 7 -6 23.3 2.4
1 7 6 21.7 2.5
2 -7 6 0.9 1.5
2 -7 6 1.9 1.1
-2 7 -6 2.8 1.1
-2 7 -6 3.4 2.5
3 -7 6 1.5 1.4
3 -7 6 0.8 1.5
-3 7 -6 -0.6 3
3 -8 -6 4 1.8
3 -8 -6 3.7 1.9
-3 8 6 2.9 2.3
-3 8 6 6 2.5
2 -8 -6 7.6 2.1
2 -8 -6 9.5 2
-2 8 6 8.1 2.2
-2 8 6 9 3
1 -8 -6 2.6 1.5
1 -8 -6 1.7 1.4
-1 8 6 1 1.9
-1 8 6 2.4 1.6
0 -8 -6 4.7 1.5
0 -8 6 3.2 1.1
0 -8 -6 2.8 1.5
0 8 -6 4.7 2.7
0 8 6 5.5 2.5
0 8 6 3.1 1.4
1 -8 6 0.3 1
-1 -8 -6 0.8 1.3
-1 -8 -6 -1.5 1
1 -8 6 -0.4 1.3
-1 8 -6 0.5 2.1
1 8 6 -0.2 2.1
1 8 6 0.3 1
2 -8 6 11 2.8
2 -8 6 17 2.4
-2 8 -6 21 4.6
3 -8 6 5.1 1.8
3 -8 6 14 3.4
-3 8 -6 5.9 4.1
2 -9 -6 0.5 1.7
2 -9 -6 1.1 1.6
-2 9 6 0.9 2
-2 9 6 -1.8 1.9
1 -9 -6 8.1 2.3
1 -9 -6 11 2.4
-1 9 6 11.7 3.4
-1 9 6 16.2 3
0 -9 -6 2.9 1.8
0 -9 -6 8.3 2.2
0 9 6 7 3
0 9 6 5.4 2.1
1 -9 6 0.1 1.2
1 -9 6 -0.8 1.7
-1 9 -6 -1.6 2.9
-3 0 7 470.65 10.7
-3 0 7 451.25 16.4
3 0 -7 463.15 10.9
3 0 -7 439.96 11.2
2 0 -7 27.5 1.9
-2 0 7 23.6 1.6
2 0 -7 22.7 1.8
-2 0 7 32 4.2
1 0 -7 10.7 1.4
-1 0 7 13.5 1.4
1 0 -7 12.2 1.7
-1 0 7 14.2 3.2
0 0 7 77.59 3.1
0 0 7 97.39 6.5
0 0 -7 83.59 3.3
0 0 -7 81.89 4
1 0 7 0.6 0.6
1 0 7 -0.7 1.6
-1 0 -7 -0.5 0.6
-1 0 -7 0.4 1
-2 0 -7 84.39 3.4
2 0 7 79.89 6.4
2 0 7 87.49 3.4
-2 0 -7 77.69 4.6
-3 0 -7 181.98 7.5
-3 0 -7 171.78 5.6
3 0 7 184.58 5.7
3 0 7 172.78 9.3
4 0 7 12 3.3
-4 0 -7 15 2.8
4 0 7 11.8 1.8
-4 0 -7 10.8 1.6
3 -1 -7 134.49 4.7
3 -1 -7 133.59 4.3
-3 1 7 126.79 4.3
-3 1 7 130.19 6.6
-2 -1 7 268.07 6.7
-2 -1 7 257.87 9.9
2 -1 -7 257.27 7.3
2 -1 -7 261.27 7.2
2 1 -7 261.97 6.7
2 1 -7 252.87 7.2
-2 1 7 268.57 6.9
-2 1 7 244.78 9.8
-1 -1 7 299.87 7.4
-1 -1 7 284.77 11
1 -1 -7 300.87 8.1
1 -1 -7 302.87 8.2
-1 1 7 294.47 7.7
1 1 -7 291.27 7.5
-1 1 7 309.47 11.3
1 1 -7 299.17 8.5
0 -1 7 129.39 4.1
0 -1 -7 125.19 4.8
0 -1 -7 130.59 4.6
0 -1 7 112.79 7
0 1 7 129.59 7.3
0 1 -7 131.49 4.2
0 1 -7 125.49 5.3
0 1 7 131.89 4.3
-1 -1 -7 66.59 3.1
1 -1 7 72.69 5.8
-1 -1 -7 65.39 3.6
1 -1 7 67.69 2.9
-1 1 -7 68.59 4.2
1 1 7 68.89 2.9
1 1 7 61.89 6.5
-1 1 -7 67.09 2.9
2 -1 7 39 5.1
-2 -1 -7 37.2 2.3
-2 -1 -7 40.1 3.7
2 -1 7 38.3 2.2
-2 1 -7 34.1 2.2
2 1 7 38.2 5.5
2 1 7 36.3 2.2
-2 1 -7 31.8 3.6
-3 -1 -7 60.39 3
3 -1 7 62.29 3
-3 -1 -7 62.29 4.1
3 -1 7 59.59 6.3
3 1 7 48.7 5.9
3 1 7 61.69 3
-3 1 -7 56.09 4.4
-3 1 -7 64.89 3.1
-4 -1 -7 8.2 1.5
4 -1 7 8.9 1.6
-4 -1 -7 8.7 2.2
4 -1 7 5.9 2.4
-4 1 -7 12.4 2.9
4 1 7 5.5 2.8
4 1 7 6.9 1.4
-4 1 -7 7 1.4
5 -1 7 2 2.5
3 -2 -7 104.79 3.8
3 -2 -7 98.89 4.3
-3 2 7 101.89 3.9
-3 2 7 99.59 5.9
2 -2 -7 170.38 5.4
2 -2 -7 164.68 5.7
-2 -2 7 173.28 7.5
-2 -2 7 166.38 4.7
-2 2 7 156.38 7.5
2 2 -7 164.98 4.6
-2 2 7 161.08 5.1
2 2 -7 165.38 5.5
-1 -2 7 29.4 1.7
1 -2 -7 32.3 2.3
-1 -2 7 29.4 3.9
1 -2 -7 30.6 2.2
-1 2 7 29.6 1.9
1 2 -7 27 2.7
1 2 -7 32.4 1.8
-1 2 7 37.7 4.7
0 -2 -7 169.98 5.7
0 -2 -7 164.88 5.7
0 -2 7 177.38 5
0 -2 7 186.78 8.5
0 2 7 175.58 5.3
0 2 -7 167.28 5
0 2 -7 185.58 6.8
0 2 7 169.88 8.5
1 -2 7 124.49 7.1
-1 -2 -7 115.39 4.8
-1 -2 -7 121.49 4.6
1 -2 7 116.79 3.9
-1 2 -7 122.89 5.9
1 2 7 119.19 4.2
1 2 7 117.79 7.6
-1 2 -7 121.29 4.1
2 -2 7 129.09 7.5
-2 -2 -7 153.38 5.8
2 -2 7 143.59 4.7
-2 -2 -7 142.99 5
2 2 7 132.19 8.5
-2 2 -7 151.38 4.9
-2 2 -7 147.49 6.9
2 2 7 146.99 4.9
-3 -2 -7 101.49 4.9
3 -2 7 82.69 6.2
-3 -2 -7 86.39 3.8
3 -2 7 100.29 3.9
-3 2 -7 93.59 3.9
3 2 7 102.49 3.9
3 2 7 72.39 7.5
-3 2 -7 97.69 5.9
4 -2 7 6.6 1.4
4 -2 7 2 2
-4 2 -7 2.5 2.1
-4 2 -7 4.2 1.3
5 -2 7 6.5 2.7
5 -2 7 6.2 1.6
-5 2 -7 4.5 2.9
-5 2 -7 4.6 1.3
4 -3 -7 57.19 2.9
4 -3 -7 58.09 3.5
-4 3 7 60.69 4.7
-4 3 7 57.99 3.2
3 -3 -7 86.49 4.2
3 -3 -7 87.19 3.7
-3 3 7 93.49 3.8
-3 3 7 77.79 5.3
2 -3 -7 54.19 3.3
2 -3 -7 59.59 3
-2 3 7 55.19 2.8
-2 3 7 40.7 4.5
1 -3 -7 444.96 11.7
1 -3 -7 461.85 11.4
-1 -3 7 435.66 10.3
-1 -3 7 447.46 13.7
1 3 -7 442.26 12.1
-1 3 7 448.56 14.6
1 3 -7 443.06 10.4
-1 3 7 442.16 11
0 -3 -7 30.3 2.4
0 -3 7 28.9 1.8
0 -3 7 29.4 3.9
0 -3 -7 34 2.9
0 3 7 38.4 5
0 3 -7 31.6 1.9
0 3 -7 30.5 3.4
0 3 7 31 2.1
-1 -3 -7 35.2 2.5
1 -3 7 26.6 3.8
-1 -3 -7 35.1 2.6
1 -3 7 33.9 2.1
-1 3 -7 35.2 2.1
-1 3 -7 37.6 4.1
1 3 7 39.1 2.4
1 3 7 48.2 5.7
-2 -3 -7 135.19 5.1
-2 -3 -7 133.39 5.4
2 -3 7 149.99 7.7
2 -3 7 133.69 4.6
-2 3 -7 144.49 4.9
2 3 7 145.59 8.9
2 3 7 134.29 4.8
-2 3 -7 147.59 7.1
3 -3 7 33.8 2.3
-3 -3 -7 39.4 3.5
3 -3 7 33.3 4.6
-3 -3 -7 34.8 2.4
-3 3 -7 32.3 2.4
-3 3 -7 32.3 4.3
3 3 7 32.6 2.3
3 3 7 35.7 5.7
4 -3 7 12.6 1.8
4 -3 7 11.2 3.2
-4 3 -7 4.8 2.7
-4 3 -7 11.5 1.8
5 -3 7 10.6 2
5 -3 7 10.7 3.2
-5 3 -7 12.5 4.1
-5 3 -7 11.2 1.9
4 -4 -7 33.7 2.4
4 -4 -7 33.7 3.4
-4 4 7 36.4 4.6
-4 4 7 28.2 2.7
3 -4 -7 4.6 1.5
3 -4 -7 4.1 1.2
-3 4 7 6 2.3
-3 4 7 3.7 1.3
2 -4 -7 28.4 2.9
2 -4 -7 33.2 2.4
-2 4 7 33.2 2.4
-2 4 7 39.8 4.7
-1 -4 7 37.3 3.9
1 -4 -7 39.5 2.9
1 -4 -7 39.6 2.5
-1 -4 7 35.9 1.9
1 4 -7 41 3.8
1 4 -7 33.6 1.9
-1 4 7 40.9 4.9
-1 4 7 39.1 2.5
0 -4 7 62.49 2.7
0 -4 -7 58.29 3.4
0 -4 -7 59.19 3.2
0 -4 7 58.29 4.5
0 4 7 60.69 6.1
0 4 7 55.29 3
0 4 -7 54.09 4.1
0 4 -7 61.99 2.8
-1 -4 -7 272.27 8.4
-1 -4 -7 266.67 8
1 -4 7 258.27 10.3
1 -4 7 271.57 7.2
1 4 7 253.57 11.4
1 4 7 273.47 7.6
-1 4 -7 263.87 7.4
-1 4 -7 256.27 9.7
2 -4 7 80.99 3.3
2 -4 7 67.59 5.2
-2 -4 -7 77.59 3.9
-2 -4 -7 71.69 3.7
2 4 7 67.19 7.2
-2 4 -7 79.29 3.5
-2 4 -7 78.99 5.3
2 4 7 72.99 3.4
-3 -4 -7 15.9 2.1
3 -4 7 11.8 1.6
3 -4 7 12.3 3
-3 -4 -7 11.6 2
-3 4 -7 12.2 3
-3 4 -7 10.2 1.7
3 4 7 12.2 1.7
3 4 7 7.2 3.3
4 -4 7 7.9 1.6
4 -4 7 8.2 2.6
-4 4 -7 3.7 1.4
-4 4 -7 3.8 3
5 -4 7 16.7 3.4
5 -4 7 25.8 2.9
-5 4 -7 25.1 5.4
-5 4 -7 23.3 2.7
4 -5 -7 45.2 2.9
4 -5 -7 50.59 3.8
-4 5 7 43.7 3.2
-4 5 7 38.2 4.9
3 -5 -7 9.4 1.6
3 -5 -7 6.9 1.8
-3 5 7 12.5 2
-3 5 7 9.6 2.9
2 -5 -7 20.2 2.2
2 -5 -7 19.8 2.7
-2 5 7 22.2 3.8
-2 5 7 16.7 2.1
1 -5 -7 84.29 4.5
1 -5 -7 79.89 3.8
-1 -5 7 83.19 4.9
-1 -5 7 83.59 3.1
1 5 -7 79.09 4.7
-1 5 7 85.29 3.9
-1 5 7 72.99 5.7
1 5 -7 80.29 3.2
0 -5 7 67.99 2.9
0 -5 -7 67.39 4
0 -5 7 68.99 4.8
0 -5 -7 74.39 3.6
0 5 -7 73.49 4.8
0 5 7 72.99 5.9
0 5 -7 72.09 3.2
0 5 7 75.59 3.6
-1 -5 -7 6 1.4
1 -5 7 6.8 1.2
1 -5 7 9.6 2.6
-1 -5 -7 8.5 1.7
-1 5 -7 8.3 2.5
1 5 7 7 1.4
-1 5 -7 6.3 1.2
2 -5 7 54.99 2.8
-2 -5 -7 48.5 3.2
-2 -5 -7 48.9 3.1
2 -5 7 39.7 4.7
-2 5 -7 50.19 2.9
2 5 7 48.5 6.5
2 5 7 46.2 2.9
-2 5 -7 52.69 5.3
3 -5 7 36.2 4.9
3 -5 7 34.2 2.5
-3 5 -7 34 4.6
-3 5 -7 31.6 2.6
4 -5 7 8.6 2.8
4 -5 7 6.5 1.7
-4 5 -7 4.3 1.4
-4 5 -7 5.5 3.6
5 -6 -7 3 1.8
5 -6 -7 3 1.5
-5 6 7 6 2.7
-5 6 7 0.6 2
4 -6 -7 15.8 2.2
4 -6 -7 13.3 2.7
-4 6 7 15.4 2.7
-4 6 7 21.7 4.1
3 -6 -7 9 1.7
3 -6 -7 14.4 2.7
-3 6 7 10.3 2.9
-3 6 7 12.6 2.2
2 -6 -7 12.6 1.9
2 -6 -7 10.2 2.2
-2 6 7 10.9 3.1
-2 6 7 10 1.8
1 -6 -7 32 3.5
1 -6 -7 34.7 2.7
-1 6 7 37.1 2.8
-1 6 7 34.2 4.9
0 -6 -7 27.6 2.7
0 -6 7 37.4 4.2
0 -6 -7 27 3.2
0 -6 7 23.8 1.8
0 6 -7 31.8 2.2
0 6 7 27.9 4.5
0 6 -7 29.9 3.8
0 6 7 32.7 3
1 -6 7 79.79 5.4
-1 -6 -7 82.49 4.5
-1 -6 -7 83.39 4
1 -6 7 81.59 3.5
1 6 7 84.99 4
-1 6 -7 75.29 5.5
1 6 7 82.39 6.8
-1 6 -7 84.69 3.8
2 -6 7 32 2.4
-2 -6 -7 35.2 3.1
2 -6 7 28.1 4.1
-2 -6 -7 30.8 3.3
-2 6 -7 33.3 2.6
2 6 7 28.1 2.7
-2 6 -7 33.4 4.7
2 6 7 26.6 5.1
3 -6 7 10 2
3 -6 7 8.5 2.6
-3 6 -7 4.8 3.3
-3 6 -7 6.5 1.6
4 -6 7 5.5 2.3
4 -6 7 5.1 1.8
-4 6 -7 5.1 4.1
-4 6 -7 9.8 2
4 -7 -7 7.1 2
4 -7 -7 10.4 2.6
-4 7 7 11.6 2.8
-4 7 7 8.4 2.9
3 -7 -7 2.3 1.6
3 -7 -7 2 1.6
-3 7 7 3.6 1.9
-3 7 7 3.8 2.3
2 -7 -7 2.8 1.5
2 -7 -7 2.9 1.6
-2 7 7 3.1 2.3
-2 7 7 1.9 1.6
1 -7 -7 16.8 2.3
1 -7 -7 19.6 3.1
-1 7 7 16.1 3.7
-1 7 7 12 2
0 -7 -7 73.49 4.7
0 -7 7 75.29 3.3
0 -7 -7 80.69 4.1
0 -7 7 85.29 5.4
0 7 -7 76.09 3.6
0 7 -7 76.99 5.5
0 7 7 79.09 4.2
0 7 7 73.79 7.7
-1 -7 -7 4.3 1.7
1 -7 7 7.6 2.5
1 -7 7 7 1.4
-1 -7 -7 6.5 1.6
-1 7 -7 5.9 1.4
1 7 7 4.7 1.5
-1 7 -7 2.4 2.1
1 7 7 6.9 3
2 -7 7 0.8 1.2
2 -7 7 -0.3 1.4
-2 7 -7 4.4 3.2
-2 7 -7 1.9 1.1
3 -7 7 4.5 1.8
3 -7 7 2.9 2.1
-3 7 -7 1.6 1.2
-3 7 -7 5.1 3.8
3 -8 -7 11 2.7
3 -8 -7 8.6 2.1
-3 8 7 8.8 3.3
-3 8 7 10.4 2.7
2 -8 -7 1.2 1.5
2 -8 -7 6.8 2
-2 8 7 4.8 2.1
-2 8 7 7.5 2.9
1 -8 -7 13.9 2.5
1 -8 -7 15.7 2.9
-1 8 7 11.2 3.5
-1 8 7 17.5 2.8
0 -8 -7 1.8 1.6
0 -8 -7 2.4 1.5
0 8 7 0.1 2
0 8 7 4.8 1.8
-1 -8 -7 72.19 4.7
-1 -8 -7 68.39 4.2
1 -8 7 65.99 3.6
1 -8 7 46.4 5
-1 8 -7 58.29 6.5
1 8 7 64.39 4.1
1 8 7 62.59 8
2 -8 7 0.8 1.7
2 -8 7 3.7 1.6
-2 8 -7 5 3.6
1 -9 -7 21.4 3.5
1 -9 -7 24.1 3.1
-1 9 7 18.4 3.2
-1 9 7 27.9 5
0 -9 -7 14.9 2.7
0 -9 -7 13.7 3
0 9 7 8.7 3.6
0 9 7 10 2.6
2 0 -8 30.1 2.6
-2 0 8 32.6 4.5
-2 0 8 33.2 2.1
2 0 -8 28.7 2
-1 0 8 0.5 1.8
-1 0 8 2.9 0.8
1 0 -8 3.3 1
1 0 -8 2.8 1.1
0 0 8 798.42 23.4
0 0 -8 790.32 17.8
0 0 -8 784.32 19
0 0 8 786.22 17.6
1 0 8 328.17 13.5
-1 0 -8 324.77 8.8
1 0 8 335.07 8.6
-1 0 -8 323.07 10.2
-2 0 -8 16.2 2.6
2 0 8 12 1.6
2 0 8 10.5 3.3
-2 0 -8 15.8 1.9
3 0 8 1.1 0.9
-3 0 -8 0.6 1.5
3 0 8 0 2.1
-3 0 -8 1.2 0.8
-4 0 -8 26.1 3.8
4 0 8 34 2.6
4 0 8 26.2 4.7
-4 0 -8 33.6 2.6
3 -1 -8 25.7 2.5
3 -1 -8 23.3 2.2
-3 1 8 24.7 1.9
-3 1 8 23.1 4
2 -1 -8 88.69 3.8
2 -1 -8 92.19 3.9
-2 -1 8 90.59 3.4
-2 -1 8 78.49 6
2 1 -8 89.79 3.4
2 1 -8 93.79 3.9
-2 1 8 89.49 3.6
-2 1 8 86.49 6.1
-1 -1 8 66.19 5.6
1 -1 -8 78.59 3.7
-1 -1 8 69.59 3
1 -1 -8 70.09 3.4
-1 1 8 70.99 3.1
1 1 -8 67.89 3
1 1 -8 71.39 3.8
-1 1 8 73.69 6
0 -1 -8 131.79 4.9
0 -1 -8 144.09 5.5
0 -1 8 132.69 8.1
0 -1 8 140.29 4.6
0 1 -8 138.09 5.9
0 1 8 141.29 4.7
0 1 -8 142.09 4.7
0 1 8 135.49 8.3
1 -1 8 168.98 9.3
1 -1 8 191.28 5.8
-1 -1 -8 183.78 6.9
-1 -1 -8 186.78 6
-1 1 -8 189.88 5.8
-1 1 -8 192.48 7.5
1 1 8 179.38 10
1 1 8 190.18 5.8
2 -1 8 45.3 2.7
2 -1 8 34.8 5
-2 -1 -8 43.2 2.7
-2 -1 -8 43.8 4
-2 1 -8 43.5 4.4
-2 1 -8 46.5 2.6
2 1 8 38.9 5.8
2 1 8 44.1 2.7
3 -1 8 28.5 4.7
-3 -1 -8 21.4 3.1
3 -1 8 22 2.2
-3 -1 -8 22.2 2.3
-3 1 -8 20.8 3.2
3 1 8 22.7 4.6
-3 1 -8 20 2.1
3 1 8 19.3 2.1
4 -1 8 8.6 1.7
4 -1 8 6.3 2.9
-4 -1 -8 10 2.4
-4 -1 -8 9.3 1.6
-4 1 -8 8.2 2.7
4 1 8 3.2 2.6
-4 1 -8 10.2 1.8
4 1 8 10.3 1.8
5 -1 8 3.8 2.6
-5 1 -8 4.9 1.6
3 -2 -8 97.89 4.3
3 -2 -8 90.39 3.8
-3 2 8 88.49 6.1
-3 2 8 95.79 3.9
2 -2 -8 24.7 2.6
2 -2 -8 27.1 2.4
-2 -2 8 29.6 1.8
-2 -2 8 32.6 4.2
2 2 -8 26.2 1.7
2 2 -8 31.8 2.8
-2 2 8 27.1 2.1
-2 2 8 24.9 3.9
-1 -2 8 83.29 3.2
-1 -2 8 85.59 5.9
1 -2 -8 77.09 3.8
1 -2 -8 88.09 3.9
-1 2 8 83.89 3.5
1 2 -8 78.39 4.2
-1 2 8 73.59 6
1 2 -8 79.99 3.1
0 -2 8 268.87 7.2
0 -2 -8 269.47 8.1
0 -2 -8 264.57 7.9
0 -2 8 247.48 10.8
0 2 -8 261.17 7.1
0 2 -8 258.77 8.9
0 2 8 232.18 11.1
-1 -2 -8 287.87 8.8
-1 -2 -8 284.37 8.4
1 -2 8 262.27 11.5
1 -2 8 296.17 7.7
-1 2 -8 288.87 7.8
-1 2 -8 284.77 9.9
1 2 8 263.37 12.4
1 2 8 288.27 7.9
-2 -2 -8 11.2 2.1
2 -2 8 9 1.4
-2 -2 -8 9.6 1.6
2 -2 8 11.9 3.1
2 2 8 5.1 3
2 2 8 8.4 1.5
-2 2 -8 10.7 2.5
-2 2 -8 7.7 1.5
-3 -2 -8 67.19 4.3
3 -2 8 68.29 3.3
-3 -2 -8 70.69 3.5
3 2 8 61.59 3.3
-3 2 -8 69.09 3.5
3 2 8 59.69 7.4
-3 2 -8 69.59 5.3
4 -2 8 18.6 2.2
4 -2 8 10.8 3.3
-4 2 -8 19.9 2.3
-4 2 -8 21.2 4
4 2 8 27.6 5.7
5 -2 8 11.3 2.2
5 -2 8 12.3 3.5
-5 2 -8 12.6 4
-5 2 -8 9.6 1.8
4 -3 -8 32.1 2.3
4 -3 -8 29.7 3.2
-4 3 8 30.3 2.7
-4 3 8 30.9 4.6
3 -3 -8 9.2 1.5
3 -3 -8 9.2 1.8
-3 3 8 11.5 1.8
-3 3 8 14.5 3.4
2 -3 -8 23.6 2.7
2 -3 -8 18.5 2.1
-2 3 8 19.4 2.2
-2 3 8 16.3 3.3
-1 -3 8 64.09 2.8
-1 -3 8 63.79 5
1 -3 -8 63.49 3.4
1 -3 -8 66.59 3.7
-1 3 8 60.09 3.1
1 3 -8 64.79 2.8
1 3 -8 64.39 4
-1 3 8 68.89 6.9
0 -3 8 44.1 2.3
0 -3 -8 41.3 2.8
0 -3 -8 39.7 2.9
0 -3 8 40.9 4.9
0 3 -8 43.2 2.3
0 3 8 43.4 2.6
0 3 8 41.2 5.7
0 3 -8 46.9 4.4
-1 -3 -8 14.4 2
1 -3 8 13.6 1.6
1 -3 8 16.2 3.4
-1 -3 -8 15.5 2.1
-1 3 -8 13.9 2.7
1 3 8 13.5 1.8
1 3 8 17 4
-1 3 -8 10.6 1.5
2 -3 8 49.1 2.7
-2 -3 -8 45.6 2.9
-2 -3 -8 39.1 3.1
2 -3 8 42.9 5.2
2 3 8 40.5 2.7
-2 3 -8 38.4 4.5
-2 3 -8 41.4 2.6
2 3 8 41.7 6.3
-3 -3 -8 6 1.7
3 -3 8 3.4 2.1
3 -3 8 6.7 1.4
-3 -3 -8 9.2 1.7
3 3 8 9.8 3.9
-3 3 -8 7 2.4
-3 3 -8 9.3 1.6
3 3 8 6 1.4
4 -3 8 11 3.2
4 -3 8 10.7 1.9
-4 3 -8 12.7 3.9
-4 3 -8 11.8 1.9
4 -4 -8 103.79 4.4
4 -4 -8 99.59 5.1
-4 4 8 98.59 4.5
-4 4 8 94.89 6.7
3 -4 -8 34.4 3.5
3 -4 -8 34.4 2.6
-3 4 8 35.4 2.7
-3 4 8 36.5 4.9
2 -4 -8 77.79 3.7
2 -4 -8 74.99 4.3
-2 4 8 74.49 3.7
-2 4 8 69.19 5.8
1 -4 -8 7.7 1.6
1 -4 -8 6.8 1.6
-1 -4 8 7.9 1.2
-1 -4 8 8.1 2.3
1 4 -8 7.2 1.1
-1 4 8 7.5 1.5
-1 4 8 6.5 2.7
1 4 -8 8.3 2.1
0 -4 -8 82.79 4.1
0 -4 -8 90.09 4.5
0 -4 8 85.39 5.8
0 -4 8 82.79 3.4
0 4 -8 89.09 3.6
0 4 8 78.39 6.6
0 4 -8 90.49 5.3
0 4 8 86.89 3.9
-1 -4 -8 18 2.3
1 -4 8 20.9 3.8
1 -4 8 26.8 2
-1 -4 -8 19.2 2.4
-1 4 -8 18.5 3.2
1 4 8 26 4.7
1 4 8 21.9 2.3
-1 4 -8 21.8 2.1
2 -4 8 4.8 2.3
-2 -4 -8 5.5 1.5
-2 -4 -8 6.6 1.7
2 -4 8 3.8 1.1
-2 4 -8 6 1.4
2 4 8 4.2 2.9
2 4 8 4.8 1.3
-2 4 -8 3.9 2.2
-3 -4 -8 48 3.4
-3 -4 -8 45.9 3
3 -4 8 43.7 2.9
3 -4 8 38.9 5.2
3 4 8 32.2 5.9
-3 4 -8 43.2 2.9
-3 4 -8 38.7 5.1
3 4 8 39.1 2.8
4 -4 8 1.6 2
4 -4 8 6.6 1.9
-4 4 -8 3.4 3.8
-4 4 -8 7 1.7
4 -5 -8 29 2.8
4 -5 -8 23.8 3.3
-4 5 8 22.4 4.1
-4 5 8 24.5 2.9
3 -5 -8 2 1.4
3 -5 -8 0.7 1.1
-3 5 8 1.8 2
-3 5 8 1.7 1.1
2 -5 -8 95.79 4.4
2 -5 -8 86.99 4.9
-2 5 8 92.19 4.4
-2 5 8 85.89 6.6
1 -5 -8 40.6 2.9
1 -5 -8 41.2 3.3
-1 -5 8 35.8 2.1
-1 5 8 40.3 2.8
-1 5 8 40.3 5.6
1 5 -8 31.5 4.1
0 -5 8 33.1 2.1
0 -5 8 27.1 3.9
0 -5 -8 31.1 3.2
0 -5 -8 34.2 3.1
0 5 -8 32.2 4.1
0 5 -8 33.7 2.2
0 5 8 32.9 2.6
0 5 8 29.8 4.7
1 -5 8 1.1 1.7
-1 -5 -8 2 1.2
1 -5 8 1.8 0.9
-1 -5 -8 3.1 1.4
1 5 8 4.2 1.3
-1 5 -8 1.6 0.9
1 5 8 5.1 2.8
-1 5 -8 0.8 1.7
2 -5 8 6.9 1.5
2 -5 8 8.3 2.8
-2 -5 -8 7 1.7
-2 -5 -8 7.2 1.8
2 5 8 5.3 3
-2 5 -8 6.7 1.4
-2 5 -8 5.4 2.5
2 5 8 6.6 1.6
3 -5 8 6.5 2.5
3 -5 8 6.5 1.5
-3 5 -8 7.4 3.3
-3 5 -8 8.3 1.8
4 -5 8 13.6 2.5
4 -5 8 9.7 3.1
-4 5 -8 9.9 1.9
-4 5 -8 12.9 4.9
4 -6 -8 9 2.4
4 -6 -8 12.7 2.3
-4 6 8 14.5 2.7
-4 6 8 11.2 3.3
3 -6 -8 69.39 4.8
3 -6 -8 72.79 4.1
-3 6 8 58.99 6.4
-3 6 8 80.19 4.6
2 -6 -8 46.9 3.8
2 -6 -8 43.1 3.2
-2 6 8 40.6 5.6
-2 6 8 35.9 3.4
1 -6 -8 1.2 1.1
1 -6 -8 3.6 1.6
-1 6 8 1.7 1.2
-1 6 8 2.1 2.3
0 -6 -8 9.1 2.1
0 -6 8 12.3 2.8
0 -6 8 8.6 1.4
0 -6 -8 10.9 2
0 6 -8 8.9 1.5
0 6 8 9.6 1.9
0 6 -8 9.2 2.6
0 6 8 2.5 2.5
-1 -6 -8 17.7 2.4
-1 -6 -8 18.5 2.9
1 -6 8 12 1.8
1 -6 8 10.7 2.7
-1 6 -8 16.4 3.5
1 6 8 15.9 4.2
-1 6 -8 14.4 2
1 6 8 14.8 2.2
2 -6 8 3.7 1.3
-2 -6 -8 5.3 1.7
2 -6 8 8.4 2.7
-2 -6 -8 3.4 1.5
-2 6 -8 5 3.1
2 6 8 6.9 1.6
-2 6 -8 3.6 1.2
2 6 8 4.9 3.3
3 -6 8 16.8 3.5
3 -6 8 28.1 3
-3 6 -8 20.8 5.1
-3 6 -8 23.2 2.7
-4 7 8 16.2 4.3
3 -7 -8 26.9 3.6
3 -7 -8 26.4 3.2
-3 7 8 27.8 5
-3 7 8 21.3 3.4
2 -7 -8 23.1 3.5
2 -7 -8 20.6 2.8
-2 7 8 23 4.6
-2 7 8 17 2.8
1 -7 -8 1.6 1.5
1 -7 -8 2.3 1.6
-1 7 8 2.1 1.7
-1 7 8 1.8 2.3
0 -7 -8 47.7 3.7
0 -7 8 41 4.5
0 -7 8 47.6 2.7
0 -7 -8 47 4
0 7 8 39.7 5.9
0 7 -8 43.5 5.2
0 7 -8 47.4 3
0 7 8 47.6 3.6
1 -7 8 5.9 2.3
1 -7 8 6.2 1.6
-1 -7 -8 8.6 2
-1 -7 -8 5.5 1.8
1 7 8 7.4 2
-1 7 -8 6 1.6
1 7 8 1.6 2.7
-1 7 -8 4 2.8
2 -7 8 4.5 2.1
2 -7 8 4.4 1.7
-2 7 -8 3.7 3.6
-2 7 -8 4 1.5
2 -8 -8 12.4 2.5
2 -8 -8 11.1 2.7
-2 8 8 9.7 3.4
-2 8 8 12.9 2.9
1 -8 -8 13.5 2.9
1 -8 -8 22.7 3.1
-1 8 8 13.7 3.8
-1 8 8 16.8 3
0 -8 -8 1.4 1.5
0 -8 -8 2.2 2
0 8 8 0.8 1.9
0 8 8 2.8 2.8
1 -8 8 4.6 1.7
-1 -8 -8 3.9 1.9
-1 -8 -8 2.4 1.9
1 -8 8 1.5 1.8
-1 8 -8 0.7 3.1
1 8 8 3.1 3.2
1 8 8 4.3 2
-2 0 9 37.6 5.4
2 0 -9 39.7 2.8
2 0 -9 41.6 2.6
-2 0 9 42.5 2.5
1 0 -9 47.4 2.7
1 0 -9 47.5 3.2
-1 0 9 45.1 5.8
-1 0 9 47.2 2.6
0 0 9 9.7 1.5
0 0 -9 3.9 1.5
0 0 9 9.3 3.3
0 0 -9 8.3 1.5
-1 0 -9 66.99 3.4
1 0 9 70.39 3.4
-1 0 -9 69.89 4.4
1 0 9 57.59 6.8
-2 0 -9 41.2 2.7
2 0 9 42.4 6.3
2 0 9 47.8 2.8
-2 0 -9 45.5 4.5
-3 0 -9 1.2 1.6
-3 0 -9 -0.3 0.8
3 0 9 -0.9 0.8
3 0 9 -2.6 1.9
4 0 9 4.1 1.5
-4 0 -9 0.6 1
4 0 9 1.4 2.4
-4 0 -9 2.7 2.6
3 -1 -9 8.6 1.5
3 -1 -9 12.4 1.9
-3 1 9 10.7 1.6
-3 1 9 8 3
2 -1 -9 87.49 4
2 -1 -9 84.99 4
-2 -1 9 75.59 6.4
-2 -1 9 87.69 3.6
2 1 -9 93.69 4.2
2 1 -9 92.79 3.6
-2 1 9 90.29 3.8
-2 1 9 78.99 6.6
1 -1 -9 16.5 2.1
1 -1 -9 16.9 2.2
-1 -1 9 12.4 1.6
-1 -1 9 19.4 4.1
-1 1 9 15.7 1.8
1 1 -9 18.5 2
-1 1 9 12.1 3.5
1 1 -9 15.8 2.4
0 -1 9 3.8 1
0 -1 9 1 2.3
0 -1 -9 4.8 1.3
0 -1 -9 4.9 1.4
0 1 9 7 3.1
0 1 -9 4.3 1.1
0 1 -9 3.6 1.6
0 1 9 3.5 1
-1 -1 -9 61.89 3.3
1 -1 9 60.19 6.8
-1 -1 -9 66.49 4.1
1 -1 9 56.09 3
-1 1 -9 62.39 3.1
1 1 9 60.29 3.2
-1 1 -9 52.09 4.1
1 1 9 44 6.2
-2 -1 -9 6.5 1.9
2 -1 9 6.4 1.4
2 -1 9 6.3 2.9
-2 -1 -9 7.6 1.5
-2 1 -9 12.1 1.7
-2 1 -9 9.2 2.3
2 1 9 13 4
2 1 9 7.8 1.5
3 -1 9 14.7 2.1
3 -1 9 13.7 3.9
-3 -1 -9 15.1 2
-3 -1 -9 14.7 2.7
-3 1 -9 14.4 1.9
-3 1 -9 14.9 3.2
3 1 9 8.4 3.5
3 1 9 12.5 1.9
-4 -1 -9 28 4.1
4 -1 9 36 3.3
-4 -1 -9 34.5 2.7
4 -1 9 33.7 5.7
-4 1 -9 32.2 2.7
-4 1 -9 27.7 4.7
4 1 9 35.3 3.2
4 1 9 34.6 5.8
3 -2 -9 42 2.7
3 -2 -9 47.5 3.1
-3 2 9 41.6 5.5
-3 2 9 43.5 2.8
-2 -2 9 23.2 4.9
-2 -2 9 30 2
2 -2 -9 30.7 2.8
2 -2 -9 26.6 2.7
-2 2 9 34.3 5.3
2 2 -9 27.4 1.9
-2 2 9 26 2.4
2 2 -9 30.5 2.9
-1 -2 9 1 1.9
1 -2 -9 0.5 1
1 -2 -9 0.5 0.9
-1 -2 9 0 0.6
-1 2 9 -0.4 0.6
-1 2 9 -2.6 1.6
1 2 -9 -0.7 1
1 2 -9 0.8 0.7
0 -2 9 6 1.2
0 -2 -9 5 1.3
0 -2 -9 10.8 1.9
0 -2 9 5.7 2.7
0 2 -9 6.3 1.2
0 2 9 3.5 2.7
0 2 9 7.8 1.5
0 2 -9 3.5 1.7
1 -2 9 64.99 3.2
-1 -2 -9 58.89 3.4
1 -2 9 51.29 6.1
-1 -2 -9 57.89 3.8
-1 2 -9 57.19 3
1 2 9 60.79 7.5
-1 2 -9 60.29 4.6
1 2 9 62.89 3.3
-2 -2 -9 58.09 3.3
2 -2 9 44.2 5.6
2 -2 9 65.59 3.4
-2 -2 -9 58.29 4
2 2 9 53.69 7.6
-2 2 -9 55.99 3.1
2 2 9 62.79 3.4
-2 2 -9 53.19 5.3
-3 -2 -9 19.9 2.3
3 -2 9 15.8 2.1
3 -2 9 14.7 3.7
-3 -2 -9 18.6 2.8
-3 2 -9 13 3.2
3 2 9 18.6 2.2
3 2 9 19.3 4.8
-3 2 -9 18.1 2.3
4 -2 9 13.4 2.3
4 -2 9 21.5 4.6
-4 -2 -9 10.3 2.1
-4 2 -9 9 3.6
-4 2 -9 9 1.7
4 2 9 17.4 4.6
3 -3 -9 7.1 1.5
3 -3 -9 7.5 1.7
-3 3 9 11.1 3.1
-3 3 9 7.7 1.5
2 -3 -9 14.6 2
2 -3 -9 11.9 2.1
-2 3 9 16.5 2.1
-2 3 9 12.9 3.5
-1 -3 9 54.19 5.7
-1 -3 9 70.19 3.1
1 -3 -9 61.79 3.8
1 -3 -9 68.89 3.7
1 3 -9 66.59 3
-1 3 9 65.29 7.5
1 3 -9 65.19 4.3
-1 3 9 71.99 3.6
0 -3 9 17.1 3.6
0 -3 -9 13.4 2
0 -3 -9 15.7 2.2
0 -3 9 17.7 2
0 3 -9 22.4 3.2
0 3 9 15.3 2
0 3 -9 14.3 1.8
0 3 9 27.8 4.9
1 -3 9 55.99 6.2
-1 -3 -9 61.99 3.8
1 -3 9 70.39 3.3
-1 -3 -9 65.09 3.7
1 3 9 60.99 7.7
-1 3 -9 61.39 4.8
-1 3 -9 63.29 3.2
1 3 9 65.19 3.4
2 -3 9 8 1.4
2 -3 9 7.8 2.7
-2 -3 -9 9.5 2.1
-2 -3 -9 7.7 1.6
2 3 9 11.8 1.9
2 3 9 6.5 3.6
-2 3 -9 12.2 1.8
-2 3 -9 6.3 2.3
3 -3 9 5.7 2.7
3 -3 9 7.9 1.6
-3 -3 -9 7.7 2.1
-3 -3 -9 10.9 1.9
-3 3 -9 6.9 2.8
3 3 9 8.3 1.7
-3 3 -9 9.9 1.8
3 3 9 5.1 3.4
4 -3 9 5.7 2.8
4 -3 9 5.5 1.9
-4 3 -9 4.5 4
-4 3 -9 4.9 1.5
4 -4 -9 6.6 2
4 -4 -9 6.6 1.5
-4 4 9 6.3 3.1
-4 4 9 7.2 1.8
3 -4 -9 19.8 2.4
3 -4 -9 24 3.1
-3 4 9 16.2 2.2
-3 4 9 16.8 3.9
2 -4 -9 54.29 3.8
2 -4 -9 58.49 3.4
-2 4 9 56.59 3.4
-2 4 9 51.79 6.5
1 -4 -9 54.49 3.3
1 -4 -9 47.5 3.5
-1 -4 9 48.9 2.6
-1 -4 9 51.39 5.3
1 4 -9 43.4 4.2
-1 4 9 48.5 3.1
1 4 -9 49.4 2.6
-1 4 9 43.2 5.8
0 -4 9 4.2 2.2
0 -4 -9 4.3 1.3
0 -4 -9 5.4 1.6
0 -4 9 4 1.1
0 4 9 5.5 3.1
0 4 -9 2.3 0.9
0 4 9 5.3 1.3
0 4 -9 3.5 2
1 -4 9 29 4.7
1 -4 9 27.4 2.5
-1 -4 -9 23.5 2.8
-1 -4 -9 27 3
1 4 9 20.6 2.4
-1 4 -9 18.8 3.3
-1 4 -9 22.5 2.2
1 4 9 20.6 4.8
2 -4 9 24.7 2.5
-2 -4 -9 30.8 3.3
2 -4 9 17 3.7
-2 -4 -9 24.2 2.8
2 4 9 28 2.9
-2 4 -9 28.3 2.7
2 4 9 22 5.3
-2 4 -9 23.3 4
-3 -4 -9 1.7 1.6
3 -4 9 0.1 1.4
-3 -4 -9 2.1 1.1
3 -4 9 -0.5 1.8
3 4 9 1 1.2
3 4 9 7.5 4
-3 4 -9 2.9 3.3
-3 4 -9 -0.5 0.8
4 -4 9 21.4 4
4 -4 9 28.4 3.2
-4 4 -9 26.1 2.9
-4 4 -9 26.9 5.5
4 -5 -9 61.79 3.8
4 -5 -9 53.79 4.2
-4 5 9 47.7 6.2
3 -5 -9 94.39 5.4
3 -5 -9 91.99 4.5
-3 5 9 91.39 7.3
2 -5 -9 28.2 2.9
2 -5 -9 26.9 3.3
-2 5 9 31.1 3.2
-2 5 9 25.2 4.7
1 -5 -9 70.69 3.9
1 -5 -9 58.59 4.1
-1 5 9 55.39 7
-1 5 9 70.19 3.8
0 -5 9 13.8 3.2
0 -5 9 13.4 1.8
0 -5 -9 10.5 2
0 -5 -9 12.9 2.3
0 5 9 17.2 2.3
0 5 -9 11.5 1.7
0 5 9 13.2 4
0 5 -9 14.4 2.9
1 -5 9 8.2 2.7
-1 -5 -9 12.9 2.2
1 -5 9 14.3 1.9
-1 -5 -9 9.5 2
1 5 9 14.1 2.1
1 5 9 9.4 3.7
-1 5 -9 15 2.1
-1 5 -9 7.9 2.6
2 -5 9 14.9 2.2
-2 -5 -9 14.5 2.6
-2 -5 -9 14.1 2.3
2 -5 9 9.2 2.8
2 5 9 9.9 4
2 5 9 17 2.4
-2 5 -9 14.9 2.1
-2 5 -9 6.1 3.1
3 -5 9 5.9 2.6
3 -5 9 7.2 2.1
-3 5 -9 5.1 1.5
-3 5 -9 4.4 3.9
4 -6 -9 0.9 1.7
4 -6 -9 0.7 1.5
-4 6 9 -0.4 1.9
-4 6 9 1.9 2.6
3 -6 -9 6 2.1
3 -6 -9 9.4 2.2
-3 6 9 4.9 2.1
2 -6 -9 56.99 3.9
2 -6 -9 53.89 4.3
-2 6 9 55.59 7
-2 6 9 57.49 4.1
1 -6 -9 3.2 1.7
1 -6 -9 4 1.8
-1 6 9 5.9 1.9
-1 6 9 0 2.3
0 -6 9 28.2 4.2
0 -6 -9 26.9 3.1
0 -6 9 25.8 2.4
0 -6 -9 24 3.4
0 6 -9 27.7 2.6
0 6 9 25.4 5.4
0 6 9 28.5 3.1
0 6 -9 31.1 4.3
1 -6 9 4.3 2.4
1 -6 9 5.2 1.5
-1 -6 -9 5.1 1.9
-1 -6 -9 6.3 1.9
1 6 9 2.9 3.1
1 6 9 4.7 1.7
-1 6 -9 5.3 2.8
-1 6 -9 5.1 1.4
2 -6 9 6.8 2.8
-2 -6 -9 8.7 2.2
-2 -6 -9 7.6 1.9
2 -6 9 6.8 1.8
2 6 9 7.4 2
-2 6 -9 0.5 3.4
2 6 9 3.5 3.1
-2 6 -9 3.7 1.4
3 -7 -9 28.5 3.7
3 -7 -9 29.4 3.5
-3 7 9 26.9 3.7
-3 7 9 33.4 6
2 -7 -9 5.5 2.1
2 -7 -9 5.1 2.1
-2 7 9 4.2 2.2
-2 7 9 5.1 3
1 -7 -9 19.8 2.8
1 -7 -9 14.8 2.9
-1 7 9 26 5.4
-1 7 9 20.5 3
0 -7 -9 2.6 1.7
0 -7 -9 0.2 1.8
0 7 9 0.8 1.8
0 7 9 0.8 2.7
-1 -7 -9 44.7 4.2
1 -7 9 32.4 4.5
-1 -7 -9 40.1 4.4
1 -7 9 40 3.4
-1 7 -9 55.39 6.9
1 7 9 39.4 7.1
-1 7 -9 41.6 3.1
1 7 9 41.7 4
-2 0 10 41.7 2.6
2 0 -10 39.7 2.9
-2 0 10 33.9 5.4
2 0 -10 41.4 2.7
1 0 -10 51.39 3.5
1 0 -10 51.89 3
-1 0 10 52.19 2.9
-1 0 10 39.5 5.8
0 0 10 100.09 8.4
0 0 10 117.09 4.6
0 0 -10 116.59 5.6
0 0 -10 125.79 4.8
-1 0 -10 59.29 3.3
1 0 10 57.89 3.3
-1 0 -10 59.09 4.3
1 0 10 43.5 6.6
2 0 10 12.8 3.8
-2 0 -10 6.1 2.2
-2 0 -10 11.3 1.8
2 0 10 13.3 2
3 0 10 23.9 2.8
-3 0 -10 24.8 2.7
-3 0 -10 16 3.3
3 0 10 21.3 4.9
4 0 10 36.5 6.1
-4 0 -10 32 4.9
4 0 10 32.9 3.4
-4 0 -10 31.7 3.1
3 -1 -10 12.4 1.9
3 -1 -10 8.4 1.6
-3 1 10 6 3.1
-3 1 10 11.8 1.7
2 -1 -10 3.4 1.3
2 -1 -10 4.9 1.4
-2 -1 10 5.9 2.8
-2 -1 10 4.1 1.2
2 1 -10 4.8 1.2
-2 1 10 4.7 2.9
-2 1 10 5 1.3
2 1 -10 4.7 1.5
1 -1 -10 47.6 3.3
1 -1 -10 46.2 3.1
-1 -1 10 40.6 5.9
-1 -1 10 43.7 2.7
-1 1 10 50.09 2.9
1 1 -10 49 2.8
-1 1 10 40.7 6.3
1 1 -10 46.5 3.5
0 -1 10 32.7 2.4
0 -1 10 31.9 5.2
0 -1 -10 32.8 3.4
0 -1 -10 31.3 3
0 1 10 32.4 2.5
0 1 -10 43.4 4.2
0 1 10 17.6 4.6
0 1 -10 35.6 2.5
-1 -1 -10 27.1 2.7
1 -1 10 29 2.6
-1 -1 -10 24.9 3
1 -1 10 25.7 5.2
1 1 10 30.7 2.4
-1 1 -10 24.7 2.4
1 1 10 18.2 4.5
-1 1 -10 33.9 4.1
2 -1 10 5.2 3.3
2 -1 10 10.4 1.8
-2 -1 -10 9 1.7
-2 -1 -10 5 1.8
2 1 10 7.3 3.5
-2 1 -10 5.8 2.2
-2 1 -10 7.6 1.6
2 1 10 8.1 1.6
-3 -1 -10 15.5 2.2
3 -1 10 13.8 2.3
3 -1 10 15.8 4.4
-3 -1 -10 11.5 3
3 1 10 16.8 5.1
3 1 10 13.4 2.2
-3 1 -10 13.6 2
-3 1 -10 12.3 3.4
4 -1 10 8.4 2.2
-4 -1 -10 3.6 1.3
4 -1 10 4.2 3.1
-4 -1 -10 4.1 2.8
4 1 10 3.5 1.8
-4 1 -10 3.6 1.4
4 1 10 0.7 2.7
-4 1 -10 10.9 3.9
3 -2 -10 2.1 1.2
3 -2 -10 2 1.1
-3 2 10 1.9 1.1
-3 2 10 3.5 2.7
2 -2 -10 123.49 5.1
2 -2 -10 122.29 5.2
-2 2 10 102.99 8
-2 2 10 115.09 4.7
-1 -2 10 12.1 3.5
1 -2 -10 12.4 2.1
1 -2 -10 10.8 1.8
-1 -2 10 11.2 1.7
1 2 -10 13 1.7
1 2 -10 12 2.2
-1 2 10 8.2 3.5
-1 2 10 11.9 1.8
0 -2 -10 123.99 5.4
0 -2 10 114.29 4.5
0 -2 10 97.49 7.8
0 -2 -10 116.59 5.1
0 2 10 112.29 4.7
0 2 -10 118.39 4.5
0 2 -10 114.09 6
0 2 10 106.39 8.8
-1 -2 -10 12.7 2.3
-1 -2 -10 17.5 2.4
1 -2 10 18.5 2.2
1 -2 10 8.7 3.2
1 2 10 10.2 1.7
1 2 10 17 4.9
-1 2 -10 9.9 2.5
-1 2 -10 16.9 2.1
2 -2 10 11 2
2 -2 10 14 4
-2 -2 -10 6.2 2.1
-2 -2 -10 7.8 1.7
-2 2 -10 6 1.4
2 2 10 7.7 1.7
2 2 10 5.3 3.6
-2 2 -10 7 2.7
3 -2 10 2.5 1.5
-3 -2 -10 3.5 2.2
-3 -2 -10 3.9 1.4
3 -2 10 -0.9 1.9
3 2 10 0.3 1.4
-3 2 -10 1.9 2.7
-3 2 -10 3.9 1.3
3 2 10 3.5 3.1
3 -3 -10 6 1.9
3 -3 -10 6.5 1.6
-3 3 10 3.4 2.7
-3 3 10 6.7 1.6
2 -3 -10 12.3 2
2 -3 -10 8.8 2
-2 3 10 12.2 1.9
-2 3 10 9.1 3.4
-1 -3 10 59.99 3.1
-1 -3 10 58.49 6.6
1 -3 -10 62.09 3.9
1 -3 -10 63.19 3.8
1 3 -10 55.59 4.1
-1 3 10 65.89 3.6
1 3 -10 62.09 3.1
-1 3 10 56.69 7.4
0 -3 10 19.8 4.2
0 -3 -10 16.8 2.4
0 -3 -10 26.2 3
0 -3 10 20.6 2.2
0 3 -10 23 3.4
0 3 -10 19.5 2.1
0 3 10 15.5 4.3
0 3 10 27 2.8
1 -3 10 23.3 2.4
-1 -3 -10 20.9 2.7
-1 -3 -10 25.8 3.1
1 -3 10 15 3.7
1 3 10 13 4.3
1 3 10 20.7 2.5
-1 3 -10 19.8 2.2
-1 3 -10 19.5 3.5
-2 -3 -10 5.1 2
2 -3 10 1.6 2.1
-2 -3 -10 3.9 1.4
2 -3 10 3.9 1.5
-2 3 -10 4.2 1.4
2 3 10 3.6 1.5
2 3 10 1.7 3.3
-2 3 -10 4.3 2.5
3 -3 10 3.1 2.5
3 -3 10 3.3 1.8
-3 -3 -10 2.3 1.3
-3 -3 -10 4.7 2.3
3 3 10 4.1 1.8
3 3 10 4.7 3.4
-3 3 -10 3.2 1.4
-3 3 -10 2.2 3.5
4 -4 -10 25.5 2.8
4 -4 -10 24.4 3.3
-4 4 10 25.1 5.3
-4 4 10 24.8 3.1
3 -4 -10 21.1 3
3 -4 -10 22.7 2.8
-3 4 10 20.5 4.5
-3 4 10 21.2 2.8
2 -4 -10 22.6 2.7
2 -4 -10 18.2 2.8
-2 4 10 8.2 3.4
-2 4 10 16.1 2.3
1 -4 -10 19.4 2.9
1 -4 -10 19.8 2.6
-1 -4 10 16.1 1.9
-1 -4 10 22 3.9
-1 4 10 20.6 4.8
-1 4 10 19.5 2.5
1 4 -10 20.4 3.1
1 4 -10 20.6 2.1
0 -4 10 100.89 7.3
0 -4 10 109.19 4.6
0 -4 -10 115.89 5.4
0 -4 -10 115.49 5.5
0 4 -10 121.49 6.7
0 4 10 118.59 5.1
0 4 -10 116.89 4.6
0 4 10 103.99 10.3
-1 -4 -10 18.7 2.7
-1 -4 -10 18.5 2.8
1 -4 10 22.9 2.4
1 -4 10 22.1 4.3
-1 4 -10 19.2 2.3
1 4 10 22.2 2.6
-1 4 -10 21 3.9
1 4 10 12.5 4.3
2 -4 10 22.9 4.6
-2 -4 -10 15.9 2.4
-2 -4 -10 24.6 3.4
2 -4 10 19.8 2.6
-2 4 -10 20.4 2.5
2 4 10 10.2 4.2
2 4 10 21.3 2.8
-2 4 -10 23.6 4.8
3 -4 10 25.3 3
-3 -4 -10 26 3.7
-3 -4 -10 20.1 2.6
3 -4 10 22.1 4.6
-3 4 -10 26 5.7
3 4 10 23.4 3
-3 4 -10 23.8 2.7
3 4 10 22.5 5.7
4 -5 -10 5.8 2.1
4 -5 -10 5.2 2.1
-4 5 10 2.9 2
-4 5 10 4.2 2.8
3 -5 -10 14.2 2.8
3 -5 -10 15.5 2.5
-3 5 10 7.2 3.5
-3 5 10 12.6 2.6
2 -5 -10 8 2
2 -5 -10 9.5 2.2
-2 5 10 7 2.1
-2 5 10 7.4 3.3
1 -5 -10 4.4 1.8
1 -5 -10 7 2.2
-1 5 10 5.2 1.9
-1 5 10 3.3 3.1
0 -5 -10 13 2.5
0 -5 10 12 3.3
0 -5 -10 12.1 2.5
0 -5 10 14.7 2
0 5 10 9.6 3.7
0 5 -10 10.1 1.6
0 5 10 14 2.4
0 5 -10 11.2 2.8
1 -5 10 80.89 7.7
1 -5 10 72.49 3.9
-1 -5 -10 64.99 4.6
-1 -5 -10 64.69 4.3
1 5 10 60.69 8.3
1 5 10 73.69 4.4
-1 5 -10 55.69 6
-1 5 -10 66.69 3.7
-2 -5 -10 24.4 3.1
2 -5 10 21 4.3
-2 -5 -10 25 3.5
2 -5 10 22.5 2.8
2 5 10 25.6 6.4
-2 5 -10 22.1 2.6
2 5 10 19.5 2.9
-2 5 -10 23.4 5.2
3 -6 -10 8.1 2.4
3 -6 -10 7.5 2.3
-3 6 10 5.5 3.3
-3 6 10 10.2 2.6
2 -6 -10 13.1 2.6
2 -6 -10 12.8 2.6
-2 6 10 17.4 4.7
-2 6 10 16.2 2.9
1 -6 -10 18.9 2.9
1 -6 -10 17.5 3
-1 6 10 17.2 4.7
-1 6 10 20.4 3.1
0 -6 10 65.39 6.6
0 -6 -10 59.79 4.4
0 -6 -10 57.39 4.5
0 -6 10 59.09 3.5
0 6 10 51.79 7.6
0 6 -10 61.99 6.3
0 6 10 57.39 4.2
0 6 -10 60.09 3.4
-1 -6 -10 17.4 2.9
1 -6 10 20.1 4.1
1 -6 10 20.3 2.7
-1 -6 -10 20.2 3
1 6 10 13.4 4.6
-1 6 -10 18.7 4.5
1 6 10 20.4 3
-1 6 -10 22.3 2.6
1 -7 -10 2.3 2.1
1 -7 -10 3.8 2
-1 7 10 6.2 3.5
-1 7 10 5.3 2.4
0 -7 -10 14.8 2.9
0 -7 -10 12.9 2.8
0 7 10 12.1 4.4
0 7 10 12.8 2.9
-2 0 11 24.2 2.5
2 0 -11 28.5 2.7
-2 0 11 23.8 5.2
2 0 -11 25.8 2.9
1 0 -11 11.6 2.3
-1 0 11 7.6 1.6
-1 0 11 5.5 3.2
1 0 -11 10.7 1.7
0 0 -11 0.2 1.3
0 0 11 1.2 2.7
0 0 11 0.7 1
0 0 -11 0.1 0.9
-1 0 -11 1.9 1.2
-1 0 -11 4 1.9
1 0 11 1.1 2.9
1 0 11 2.6 1.3
2 0 11 53.49 3.8
-2 0 -11 54.69 3.5
-2 0 -11 61.09 5.9
2 0 11 42.3 6.8
3 0 11 0.1 1.6
3 0 11 4.9 3.3
-3 0 -11 0.1 1
-3 0 -11 -1.6 2.5
-2 -1 11 6 1.5
2 -1 -11 8.5 1.8
2 -1 -11 7.4 1.8
-2 -1 11 4.6 3
-2 1 11 8.5 3.7
2 1 -11 10.8 1.8
-2 1 11 8.8 1.7
2 1 -11 8.1 1.9
1 -1 -11 48.1 3.2
1 -1 -11 52.89 3.7
-1 -1 11 37.8 6
-1 -1 11 50.19 3.1
1 1 -11 56.69 4
-1 1 11 52.89 3.3
1 1 -11 49.9 3.1
-1 1 11 41.8 6.5
0 -1 11 56.69 7.5
0 -1 11 51.59 3.2
0 -1 -11 52.39 3.3
0 -1 -11 49.1 3.7
0 1 11 61.49 3.5
0 1 11 35.9 6.3
0 1 -11 57.29 3.3
0 1 -11 53.69 4.9
-1 -1 -11 19.5 2.4
-1 -1 -11 23.3 3.4
1 -1 11 21.1 2.5
1 -1 11 20.2 5.2
-1 1 -11 20.8 2.4
1 1 11 20.1 2.5
-1 1 -11 13.3 2.8
1 1 11 14.7 4.5
-2 -1 -11 6.5 2.6
-2 -1 -11 10.1 1.9
2 -1 11 9 3.7
2 -1 11 8.2 1.9
2 1 11 10.6 4.1
-2 1 -11 5.9 2.7
2 1 11 7.5 2.1
-2 1 -11 9.1 1.7
3 -1 11 28.5 3.4
-3 -1 -11 26.9 3
-3 -1 -11 16.4 3.7
3 -1 11 24.8 5.2
-3 1 -11 21.2 4.5
3 1 11 24 3.1
3 1 11 23.2 5.7
-3 1 -11 31.3 3.2
3 -2 -11 18.1 2.5
3 -2 -11 14.1 2.2
-3 2 11 16.8 4.6
-3 2 11 14 2.2
2 -2 -11 4.7 1.6
2 -2 -11 4.9 1.5
-2 2 11 4.1 1.4
-2 2 11 5.1 3.2
1 -2 -11 17.6 2.5
-1 -2 11 9.8 3.5
-1 -2 11 18.8 2.2
1 -2 -11 16.4 2.5
1 2 -11 17.2 2.8
-1 2 11 18.1 2.3
1 2 -11 17.6 2.1
-1 2 11 14.3 4.3
0 -2 -11 22.3 2.7
0 -2 11 23.1 2.5
0 -2 -11 14.4 2.4
0 -2 11 29.1 5.5
0 2 -11 23.3 2.4
0 2 -11 21 3.3
0 2 11 28.3 2.9
0 2 11 24.6 5.8
1 -2 11 14.7 2.2
-1 -2 -11 15.6 2.9
-1 -2 -11 12.4 2.1
1 -2 11 13.2 3.8
-1 2 -11 12.3 1.9
1 2 11 14 4.5
-1 2 -11 14.8 3.3
1 2 11 16.4 2.5
2 -2 11 2 2.3
2 -2 11 6.6 2.1
-2 -2 -11 5.5 2.3
-2 -2 -11 6.8 1.7
-2 2 -11 8.3 1.8
-2 2 -11 9 3.5
2 2 11 6.4 1.9
2 2 11 6 3.9
3 -2 11 0.4 2.4
-3 -2 -11 6.2 1.6
3 -2 11 5.2 2.1
-3 -2 -11 6.5 3
-3 2 -11 10.6 4
3 2 11 5.9 3.4
-3 2 -11 5.5 1.7
3 2 11 6.4 2.2
3 -3 -11 3.7 1.6
3 -3 -11 5.1 1.9
-3 3 11 6.7 1.8
-3 3 11 4.1 3.3
2 -3 -11 13.7 2.3
2 -3 -11 10.4 2.3
-2 3 11 15.6 2.5
-2 3 11 11.2 4.1
-1 -3 11 12.2 3.6
-1 -3 11 12.3 1.9
1 -3 -11 11.2 2.2
1 -3 -11 9.9 2
1 3 -11 8.9 2.3
1 3 -11 8.5 1.5
-1 3 11 8.8 2
-1 3 11 4.7 3.3
0 -3 11 28.7 2.8
0 -3 -11 21.6 2.9
0 -3 11 31.6 5.5
0 -3 -11 22.9 2.9
0 3 -11 26.6 3.8
0 3 11 18.5 5.4
0 3 -11 26.4 2.6
0 3 11 21.3 2.6
1 -3 11 5.4 2.8
1 -3 11 10.2 2.1
-1 -3 -11 10.7 2.2
-1 -3 -11 7.2 2.2
-1 3 -11 8.3 3.1
-1 3 -11 11.7 1.9
1 3 11 6.6 1.8
1 3 11 11.2 4.6
-2 -3 -11 11.3 2.9
2 -3 11 9.5 2.2
2 -3 11 4.8 3
-2 -3 -11 7.3 1.8
-2 3 -11 11.4 3.9
-2 3 -11 8.7 1.8
2 3 11 9.2 2.3
2 3 11 15.4 5.3
3 -4 -11 21.9 3.3
3 -4 -11 16.9 2.7
-3 4 11 20.1 3
-3 4 11 10.4 3.9
2 -4 -11 10 2.3
2 -4 -11 13.3 2.5
-2 4 11 5.3 2
-2 4 11 10.1 4.1
1 -4 -11 21.6 3.1
1 -4 -11 17.7 2.8
-1 4 11 11.6 4.6
-1 4 11 20 2.9
0 -4 11 41.3 3.1
0 -4 -11 42.2 4.1
0 -4 11 43.9 5.9
0 -4 -11 44.2 3.7
0 4 -11 44.2 2.9
0 4 -11 49.2 5.4
0 4 11 35.5 6.7
0 4 11 42.9 3.8
1 -4 11 11.2 3.5
-1 -4 -11 15.4 2.6
-1 -4 -11 19.4 3.3
1 -4 11 18.9 2.6
-1 4 -11 15.5 3.8
-1 4 -11 17.2 2.3
1 4 11 17.7 2.8
1 4 11 7.8 4.2
2 -4 11 8.7 3.3
2 -4 11 8 2.2
-2 -4 -11 8.9 2
-2 -4 -11 14.7 3.2
2 4 11 8.4 4.4
-2 4 -11 9.6 1.9
-2 4 -11 9.7 4
2 4 11 11.5 2.6
3 -5 -11 12.9 2.5
3 -5 -11 13.7 2.9
-3 5 11 4.8 3.3
-3 5 11 11.2 2.8
2 -5 -11 73.19 4.8
2 -5 -11 81.69 5.2
-2 5 11 75.19 9.6
-2 5 11 80.89 5.1
1 -5 -11 9.6 2.3
1 -5 -11 8.4 2.4
-1 5 11 9.7 2.4
-1 5 11 10.1 4.2
0 -5 11 5.7 2.8
0 -5 -11 4.3 1.8
0 -5 -11 6 2.4
0 -5 11 5.8 1.8
0 5 11 4.7 2.1
0 5 11 3.6 3.6
0 5 -11 6.7 2.9
0 5 -11 6.6 1.5
-1 -5 -11 1.4 1.4
-1 -5 -11 2.5 2.2
1 -5 11 -0.3 1.5
1 -5 11 4.9 2.8
-1 5 -11 1 1.1
-1 5 -11 -1.7 3
1 5 11 -0.8 1.7
1 5 11 6.4 4.1
1 -6 -11 10.4 2.6
1 -6 -11 13.7 2.9
-1 6 11 5.2 3.7
-1 6 11 10.1 2.5
0 -6 -11 28.6 3.9
0 -6 -11 30.7 3.7
0 -6 11 29 3.2
0 6 -11 19.3 4.1
0 6 11 27.3 6.6
0 6 11 23.4 3.5
2 0 -12 13.4 2.3
-2 0 12 10 4.1
-2 0 12 11.8 2.1
2 0 -12 15.2 2.2
1 0 -12 99.99 5.5
-1 0 12 112.59 5.1
-1 0 12 94.89 10
1 0 -12 100.39 4.7
0 0 12 2.8 3.3
0 0 -12 1.2 1.9
0 0 -12 1.3 1.1
0 0 12 2.1 1.5
-1 0 -12 4.5 2.7
1 0 12 4.5 3.5
-1 0 -12 5.5 1.6
1 0 12 4.1 1.9
2 0 12 1.7 1.8
-2 0 -12 1.3 1.2
-2 0 -12 3.6 2.9
2 0 12 2.3 3.3
2 -1 -12 28 3
2 -1 -12 23.4 3
-2 -1 12 36.9 3.5
-2 1 12 25.2 5.8
2 1 -12 34.3 4
-2 1 12 28.6 3.1
1 -1 -12 20.7 2.6
1 -1 -12 23.1 3.2
-1 -1 12 20.3 2.6
-1 -1 12 14.5 4.4
-1 1 12 23.1 2.9
1 1 -12 23.4 3.4
1 1 -12 22.5 2.5
-1 1 12 14.6 4.9
0 -1 -12 38.9 4.2
0 -1 12 44.9 3.4
0 -1 -12 42.1 3.2
0 -1 12 35.3 6.4
0 1 -12 37.3 2.9
0 1 -12 47.7 4.8
0 1 12 46.1 4
0 1 12 25.5 5.8
-1 -1 -12 3.1 2.2
1 -1 12 7.2 3.8
-1 -1 -12 4.7 1.6
1 -1 12 5.4 2
-1 1 -12 6.4 3.1
1 1 12 3.9 3.6
1 1 12 5.6 2
-1 1 -12 4.8 1.4
-2 -1 -12 5 1.6
-2 -1 -12 7.1 3
2 -1 12 2.4 2.7
2 -1 12 5.7 2.3
-2 1 -12 5.2 3.3
-2 1 -12 5.6 1.6
2 1 12 5.4 2.2
2 1 12 4.4 3.6
3 -2 -12 30.2 3.3
3 -2 -12 23.8 3
-3 2 12 28.7 3.3
-3 2 12 23.3 5.6
2 -2 -12 4.3 1.8
2 -2 -12 5.8 1.7
-2 2 12 5.1 2
-2 2 12 3.6 3.1
1 -2 -12 32.4 3.7
1 -2 -12 20.2 2.7
-1 -2 12 17 4.4
-1 -2 12 27.7 3
-1 2 12 24.1 3
1 2 -12 29.2 3.7
1 2 -12 25.4 2.7
-1 2 12 42.2 7.4
0 -2 -12 28.1 3.5
0 -2 -12 31.2 3.5
0 -2 12 26.6 3
0 -2 12 26.2 5.6
0 2 -12 27.7 2.8
0 2 -12 28.4 3.9
0 2 12 32.9 6.9
0 2 12 27.9 3.3
-1 -2 -12 -0.4 1
1 -2 12 1.5 2.8
1 -2 12 -0.8 1.6
-1 -2 -12 -1.8 1.9
-1 2 -12 0.3 2.8
1 2 12 0 3.1
1 2 12 0.6 1.7
-1 2 -12 0.1 1
2 -2 12 4.5 3.1
2 -2 12 5.7 2.2
-2 -2 -12 5.2 2.8
-2 -2 -12 5.3 1.8
-2 2 -12 2.6 3
-2 2 -12 6.8 1.7
2 2 12 6 2.3
2 2 12 8.5 4.6
3 -3 -12 45.3 3.7
3 -3 -12 48.6 4.2
-3 3 12 34.2 6.3
-3 3 12 54.49 4.2
2 -3 -12 9.2 2.3
2 -3 -12 8.7 2
-2 3 12 14.7 2.7
-2 3 12 7.8 3.9
1 -3 -12 3.3 1.6
-1 -3 12 7.3 1.8
1 -3 -12 3.8 2.2
-1 -3 12 8.8 3.3
-1 3 12 4.7 3.5
-1 3 12 4.6 1.9
1 3 -12 2.9 2.1
1 3 -12 3.8 1.2
0 -3 -12 21.1 2.9
0 -3 12 19.6 4.9
0 -3 -12 21.1 3.2
0 -3 12 28.1 3.1
0 3 12 18.5 2.8
0 3 -12 21.9 2.4
0 3 12 28.8 6.3
0 3 -12 19.5 3.7
1 -3 12 -0.4 1.7
-1 -3 -12 0.3 1.2
-1 -3 -12 0.1 2.2
1 -3 12 -0.8 2.2
-1 3 -12 0.7 3
1 3 12 4.2 3.7
1 3 12 0.5 1.9
-1 3 -12 0.5 1
2 -4 -12 2.4 1.6
2 -4 -12 2.5 2
-2 4 12 1 2
-2 4 12 1.7 3.4
1 -4 -12 -1.1 1.1
1 -4 -12 -1.3 1.8
-1 4 12 -0.5 1.7
-1 4 12 -0.4 3
0 -4 12 3.2 2.6
0 -4 -12 0.1 2.1
0 -4 12 1.1 1.8
0 -4 -12 2 1.5
0 4 -12 4 2.9
0 4 -12 1.4 1
0 4 12 1.1 1.9
0 4 12 0.2 3.1
1 -4 12 5.1 2.2
1 -4 12 -0.5 2.6
-1 -4 -12 2 1.6
-1 -4 -12 1.1 2.3
-1 4 -12 4.2 3.5
1 4 12 2.4 3.9
-1 4 -12 2.7 1.4
1 4 12 2.1 2.1
2 0 -13 1.4 1.8
-2 0 13 0.4 1.6
-2 0 13 6.6 3.6
2 0 -13 1.9 1.2
-1 0 13 52.09 4.4
1 0 -13 56.49 5.1
-1 0 13 38 6.6
1 0 -13 50.99 3.5
0 0 -13 87.19 6.2
0 0 13 97.29 5.3
0 0 13 88.39 10.3
0 0 -13 102.29 4.9
1 0 13 -1.1 3.4
-1 0 -13 -2.5 2.3
-1 0 -13 0.9 1.3
1 0 13 -0.4 1.8
2 -1 -13 58.19 4.5
2 -1 -13 32.8 3.3
-2 1 13 38.6 3.8
-2 1 13 41.6 7.4
1 -1 -13 8.9 1.9
-1 -1 13 6 2
-1 -1 13 4.8 3.4
1 -1 -13 10.5 2.7
1 1 -13 9.3 2.9
-1 1 13 7.9 2.3
1 1 -13 7.8 1.7
-1 1 13 2.2 3.4
0 -1 -13 22.1 3.6
0 -1 13 24 5.8
0 -1 13 25.2 3.2
0 -1 -13 24.8 2.9
0 1 -13 24.5 4
0 1 13 26.8 6.4
0 1 13 27.2 3.5
0 1 -13 28.8 2.9
2 -2 -13 23.4 2.9
2 -2 -13 23.2 3.4
-2 2 13 27.1 6.5
-2 2 13 23.1 3.4
-1 -2 13 10.3 4
-1 -2 13 12.3 2.5
1 -2 -13 7.1 2.6
1 -2 -13 10.2 2.1
-1 2 13 9.9 2.5
1 2 -13 12.5 2
-1 2 13 4 4
1 2 -13 9.7 2.9
0 -2 -13 91.79 6
0 -2 13 79.89 9.3
0 -2 13 92.39 5.2
0 -2 -13 87.69 4.9
0 2 -13 89.19 6.6
0 2 13 71.09 10.1
0 2 13 88.19 5.3
0 2 -13 91.89 4.6
-1 3 13 10 5.1
1 0 0 574.14 12.6
1 0 0 551.34 11.6
-1 0 0 554.74 12.9
-1 0 0 541.05 11.6
-2 0 0 298.47 6.3
-2 0 0 307.27 10
-2 0 0 310.37 6.9
2 0 0 295.27 6.9
2 0 0 307.17 8.8
2 0 0 293.07 6.2
2 0 0 300.67 7.5
3 0 0 384.06 8.9
3 0 0 366.36 11.2
3 0 0 384.86 9.8
-3 0 0 379.16 13.4
-3 0 0 379.76 8.9
-3 0 0 378.96 8.1
3 0 0 368.26 7.9
0 -1 0 0.2 0.3
0 -1 0 0 0.4
0 1 0 0 0.3
0 1 0 0.1 0.4
1 -1 0 5524.25 112.39
-1 -1 0 5795.72 123.59
1 -1 0 5537.35 114.19
-1 -1 0 5440.96 127.89
-1 1 0 5656.13 112.59
1 1 0 5698.43 125.99
-1 1 0 5703.83 112.59
1 1 0 5552.04 110.59
-1 1 0 5591.84 111.89
-2 -1 0 597.64 12.7
-2 -1 0 573.84 14.9
2 -1 0 594.24 13.1
2 -1 0 590.54 15.8
2 -1 0 602.74 14.2
2 1 0 579.84 14.1
-2 1 0 628.54 17
-2 1 0 610.74 12.8
-2 1 0 608.04 12.4
2 1 0 598.64 13
3 -1 0 347.37 11.6
-3 -1 0 342.67 7.1
3 -1 0 336.27 9.6
3 -1 0 343.87 8.5
-3 -1 0 338.87 7.8
-3 -1 0 331.27 11.5
3 -1 0 337.47 7.3
3 1 0 340.07 7.7
3 1 0 333.47 7
3 1 0 348.97 8.6
3 1 0 314.27 9.4
-3 1 0 324.37 13
-3 1 0 334.87 8.3
4 -1 0 8.3 1.4
4 -1 0 7.2 0.8
-4 1 0 7.5 1.4
0 -2 0 9678.63 191.48
0 -2 0 9489.65 190.38
0 -2 0 9458.05 192.68
0 2 0 9999 191.88
0 2 0 9463.75 191.08
0 2 0 9762.42 190.48
1 -2 0 2238.18 46.4
1 -2 0 2340.87 47.7
-1 -2 0 2287.47 46.1
1 -2 0 2222.18 48.8
-1 -2 0 2305.87 46.3
1 2 0 2364.16 46.5
-1 2 0 2210.08 46.6
1 2 0 2290.87 46.5
-1 2 0 2322.17 49.4
-1 2 0 2259.47 47.7
-2 -2 0 714.83 15.5
2 -2 0 713.23 15.7
2 -2 0 721.03 17.3
-2 -2 0 701.03 15
2 -2 0 708.83 19.3
-2 2 0 709.23 15.3
2 2 0 692.63 17.2
-2 2 0 697.23 20.2
2 2 0 716.83 15.3
3 -2 0 599.64 18.1
3 -2 0 600.84 14
3 -2 0 584.64 15.6
-3 2 0 602.34 20
-3 2 0 590.64 13.6
4 -2 0 77.59 2.6
4 -2 0 75.79 3.6
-4 2 0 72.09 3.5
0 -3 0 0.5 0.4
0 -3 0 0.6 0.5
0 -3 0 0.7 0.9
0 3 0 0.6 0.8
0 3 0 -1 0.9
0 3 0 -0.5 0.4
-1 -3 0 207.88 6.9
1 -3 0 213.78 5.9
-1 -3 0 212.38 5.1
-1 -3 0 207.38 6.6
1 -3 0 218.48 8.6
-1 -3 0 208.28 4.8
1 -3 0 209.98 5.1
1 3 0 213.18 5.5
1 3 0 217.48 7.3
-1 3 0 213.88 5.5
1 3 0 209.98 7
1 3 0 213.08 4.9
-1 3 0 207.98 8.9
-1 3 0 224.18 7.9
-2 -3 0 332.47 8.5
2 -3 0 312.77 12
2 -3 0 324.97 8.6
-2 -3 0 321.17 8.6
-2 -3 0 326.97 7.1
-2 -3 0 324.77 6.9
-2 3 0 315.97 10.9
-2 3 0 326.17 8.2
2 3 0 335.77 8.9
2 3 0 318.67 9.8
2 3 0 335.07 7.9
2 3 0 320.27 6.9
-2 3 0 324.47 13.1
3 -3 0 175.58 5.9
-3 3 0 175.18 5.6
4 -3 0 20 1.4
4 -3 0 18.7 2.4
-4 3 0 18.5 2.2
5 -3 0 118.79 4.1
5 -3 0 119.39 5.2
-5 3 0 106.99 5.2
0 -4 0 456.25 10.2
0 -4 0 471.95 14.6
0 -4 0 464.05 11
0 4 0 479.15 13.9
0 4 0 507.35 15.4
0 4 0 464.15 11.5
0 4 0 462.65 10.6
1 -4 0 182.48 8.6
-1 -4 0 183.28 4.5
1 -4 0 183.18 5.7
-1 -4 0 174.88 7.2
-1 -4 0 183.08 5
1 -4 0 188.28 4.8
-1 4 0 186.48 7.9
-1 4 0 180.98 5.3
-1 4 0 183.28 9.2
1 4 0 189.48 7.7
1 4 0 186.38 5.4
1 4 0 180.28 7.1
1 4 0 187.08 4.7
-2 -4 0 524.35 11.4
-2 -4 0 521.55 10.9
2 -4 0 524.45 13
-2 -4 0 527.65 16
2 4 0 531.35 16.2
2 4 0 526.35 12.1
-2 4 0 516.95 12.5
2 4 0 521.65 11.1
3 -4 0 40.1 2.8
-3 4 0 39.6 2.7
4 -4 0 103.89 4.9
-4 4 0 112.89 4.9
5 -4 0 47.6 2.4
5 -4 0 41.6 3.4
-5 4 0 40.2 3.9
0 -5 0 5.3 2.1
0 5 0 3.3 1.8
0 5 0 2 2.3
-1 -5 0 20.6 1.2
1 -5 0 20.6 2.1
-1 -5 0 18.9 3
-1 -5 0 21 1.6
1 5 0 17.2 3.2
-1 5 0 18.5 1.8
1 5 0 17.3 2.9
1 5 0 19.4 1.5
1 5 0 18.5 2
2 -5 0 70.09 3.7
-2 5 0 68.79 3.3
3 -5 0 154.08 6
-3 5 0 147.99 5.7
4 -5 0 9.5 1.9
-4 5 0 13.5 2.2
5 -5 0 15.6 1.8
5 -5 0 19.2 3
-5 5 0 15.5 2.7
0 6 0 70.49 3.9
1 -6 0 11 1.9
-1 -6 0 11 1.6
-1 -6 0 8.8 1.1
1 6 0 7 1.6
-1 6 0 8 1.9
1 6 0 8 1.2
-1 6 0 9.2 1.6
2 -6 0 161.18 6.3
-2 6 0 172.98 6.1
3 -6 0 39.5 3.3
-3 6 0 39.9 3.1
4 -6 0 74.19 4.6
-4 6 0 72.79 4.6
5 -6 0 37.2 2.5
5 -6 0 32.5 3.8
-5 6 0 35.6 4.4
-5 6 0 33 4.4
-6 6 0 12.4 3.2
-1 -7 0 24.9 2.5
1 -7 0 23 2.6
1 7 0 24.8 3
-1 7 0 21.9 2.5
-1 7 0 19.3 2.8
1 7 0 23.2 2.2
2 -7 0 8 1.9
-2 7 0 10.8 1.9
-2 7 0 7.6 2.1
3 -7 0 115.39 5.8
-3 7 0 123.29 5.7
-3 7 0 104.09 6.2
4 -7 0 14.6 2.7
-4 7 0 15.2 3.2
-4 7 0 17.5 3.1
5 -7 0 9 1.9
5 -7 0 7.8 2.2
-5 7 0 10.5 3.6
-5 7 0 4.1 2.3
0 -8 0 16.1 2.3
0 8 0 15.2 2.6
0 8 0 13.6 2
1 -8 0 23 3.1
-1 8 0 22.6 2.8
-1 8 0 23.2 3.4
2 -8 0 41.8 4.2
-2 8 0 39.8 4.8
-2 8 0 38.4 3.8
3 -8 0 13.3 2.7
-3 8 0 10.5 2.7
-3 8 0 7.2 2.2
4 -8 0 31.9 3.9
-4 8 0 28.5 4.4
-4 8 0 32.2 4.3
0 -9 0 -0.8 1.1
0 9 0 2 1.3
0 9 0 -0.5 1.4
1 -9 0 14.8 2.7
-1 9 0 11.2 2.4
-1 9 0 8.8 2.5
2 -9 0 18.2 3
-2 9 0 13 2.9
-2 9 0 19.3 3.4
3 -9 0 8.6 2.4
-3 9 0 3.4 2.8
-3 9 0 3.8 2.1
1 -10 0 23.3 3.5
-1 10 0 13 3.1
-1 10 0 21.2 4
2 -10 0 6.3 2.4
-2 10 0 7.3 2.7
-2 10 0 6.5 2.8
3 0 -1 399.56 9.7
3 0 -1 389.66 8.1
3 0 -1 395.26 10.9
-3 0 1 409.36 12.5
3 0 -1 389.36 8.8
-3 0 1 387.66 10.3
-3 0 1 390.86 8.7
-2 0 1 293.77 8.4
2 0 -1 308.17 8
-2 0 1 289.37 7.6
-1 0 1 46.9 1.9
1 0 -1 46.5 1.8
-1 0 1 43.9 1.9
1 0 -1 44 1.9
0 0 1 31.9 2.1
1 0 1 1780.82 38.5
-1 0 -1 1777.42 38.9
1 0 1 1737.33 35.6
-1 0 -1 1716.03 35.5
-2 0 -1 268.47 7.4
2 0 1 282.87 7.6
-2 0 -1 276.27 6
-2 0 -1 279.77 10.9
2 0 1 272.67 5.9
-2 0 -1 276.37 6.8
2 0 1 285.77 7.3
2 0 1 265.47 9.7
3 0 1 429.86 10.5
3 0 1 418.96 13.8
3 0 1 435.36 11.5
-3 0 -1 435.76 11.3
3 0 1 422.86 9.1
-3 0 -1 432.46 10.4
-3 0 -1 434.26 9.3
-3 0 -1 412.96 16
4 -1 -1 24.6 1.2
4 -1 -1 23.8 1.8
-4 1 1 24.2 1.8
3 -1 -1 93.79 4.1
-3 -1 1 82.59 2.9
-3 -1 1 80.39 4.2
3 -1 -1 81.49 4.8
3 -1 -1 91.39 3.2
3 1 -1 89.49 3.1
-3 1 1 92.29 4.5
-3 1 1 103.39 6.1
-3 1 1 82.89 2.9
3 1 -1 86.89 2.7
2 -1 -1 260.27 5.7
2 -1 -1 264.17 8.4
2 -1 -1 259.27 6.3
-2 1 1 256.27 7.8
-2 1 1 258.27 8.7
-2 1 1 265.17 6
1 -1 -1 494.95 10.5
1 -1 -1 512.15 12.4
-1 -1 1 496.55 10.1
1 -1 -1 485.85 10.2
1 -1 -1 503.25 11.9
-1 -1 1 496.25 10.3
-1 1 1 492.75 12.4
1 1 -1 499.55 10.7
-1 1 1 497.35 10.3
-1 1 1 492.25 12.1
-1 1 1 507.95 10.8
0 -1 1 594.04 14.5
0 -1 1 605.84 13
0 -1 -1 605.24 13.7
0 -1 -1 608.44 13.9
0 1 1 589.94 13.7
0 1 1 615.94 14.1
0 1 -1 613.04 13
0 1 -1 625.44 14.9
1 -1 1 1305.67 27.6
-1 -1 -1 1350.06 29.1
1 -1 1 1332.27 30.1
-1 -1 -1 1293.47 27.3
1 -1 1 1260.77 27.2
-1 1 -1 1314.07 26.5
-1 1 -1 1332.17 28
-1 1 -1 1353.66 30.9
1 1 1 1276.77 27.4
1 1 1 1373.36 30.1
-1 1 -1 1261.57 27.6
-2 -1 -1 219.38 6.1
2 -1 1 220.18 5
2 -1 1 224.88 6.9
2 -1 1 233.98 9.1
-2 -1 -1 219.68 4.9
-2 -1 -1 226.58 5.5
-2 -1 -1 220.18 8.8
2 -1 1 225.98 6.2
-2 1 -1 223.88 5.2
-2 1 -1 210.88 6.8
-2 1 -1 211.28 9.8
-2 1 -1 234.08 5.9
2 1 1 223.08 6.5
2 1 1 216.88 4.8
2 1 1 221.68 6.3
2 1 1 235.68 8.9
3 -1 1 12.7 1.7
3 -1 1 5.9 2
-3 -1 -1 10.2 1.4
-3 -1 -1 8.9 2.8
3 -1 1 9.3 1.7
3 -1 1 10.9 0.8
-3 -1 -1 10.1 1.3
-3 -1 -1 10.3 0.7
3 1 1 10.4 0.7
3 1 1 11.3 1.6
3 1 1 9.8 1.6
-3 1 -1 5.4 2.5
3 1 1 7.1 2.1
-3 1 -1 10.6 1.5
-3 1 -1 8.8 0.9
4 -1 1 748.03 15.8
4 -1 1 753.52 17.6
-4 1 -1 775.72 16.2
-4 1 -1 747.73 17.7
4 -2 -1 49.4 2.8
-4 2 1 47.1 2.6
3 -2 -1 252.47 9.9
3 -2 -1 246.58 6.8
3 -2 -1 251.07 8.4
-3 2 1 244.68 6.5
-3 2 1 231.78 8.9
-3 2 1 248.68 10.9
2 -2 -1 388.46 9.2
2 -2 -1 386.66 12.2
2 -2 -1 381.16 8.4
-2 2 1 395.96 8.9
-2 2 1 372.96 11.3
-2 2 1 400.76 12.8
-1 -2 1 1875.51 39
1 -2 -1 1960.8 40.8
1 -2 -1 1862.71 39.7
1 -2 -1 1944.01 41.6
-1 -2 1 1903.91 38.3
1 -2 -1 1909.61 38.4
-1 2 1 1890.51 40.9
-1 2 1 1948.41 41.8
-1 2 1 1893.21 39.3
1 2 -1 1886.31 38.6
-1 2 1 1990.6 38.9
1 2 -1 1885.41 39.5
0 -2 1 116.59 5
0 -2 -1 115.09 4.7
0 -2 1 119.49 3.4
0 -2 -1 108.69 4.6
0 -2 1 117.29 4
0 -2 -1 112.29 2.9
0 -2 -1 119.49 3.3
0 2 1 118.39 3.6
0 2 1 116.09 3
0 2 -1 119.69 5.4
0 2 1 115.99 4.8
0 2 -1 118.59 2.9
0 2 -1 119.49 3.1
0 2 1 119.39 4.8
-1 -2 -1 1087.29 24.3
-1 -2 -1 1117.59 22.1
-1 -2 -1 1089.19 21.9
1 -2 1 1105.79 24.3
1 -2 1 1100.89 23.1
-1 -2 -1 1101.79 24.1
1 -2 1 1091.59 26.5
1 2 1 1108.69 25.2
1 2 1 1128.89 22.8
-1 2 -1 1063.29 22.1
-1 2 -1 1082.89 22.6
1 2 1 1071.59 21.8
-1 2 -1 1087.69 27.4
1 2 1 1099.79 24.1
-2 -2 -1 108.99 2.9
-2 -2 -1 108.49 4.8
-2 -2 -1 106.69 2.8
2 -2 1 107.79 6.3
2 -2 1 115.29 4.9
2 -2 1 113.49 4.1
-2 -2 -1 101.09 3.9
2 2 1 118.09 6.5
-2 2 -1 118.69 7.5
2 2 1 108.69 4.3
-2 2 -1 108.59 3.1
-2 2 -1 102.99 3.6
2 2 1 105.39 4.1
2 2 1 105.89 2.7
3 -2 1 81.69 3.7
3 -2 1 76.89 4.3
3 -2 1 78.29 2.5
3 -2 1 78.99 5.9
-3 2 -1 78.49 3.5
3 2 1 63.19 4.2
-3 2 -1 79.39 8.2
-3 2 -1 80.09 2.7
4 -2 1 15.5 2.1
4 -2 1 14.2 1.1
-4 2 -1 16 2.2
4 -3 -1 135.59 5.2
-4 3 1 140.49 5.1
3 -3 -1 2.4 1
-3 3 1 2.2 0.9
2 -3 -1 963.1 20.9
-2 -3 1 968.1 19.8
2 -3 -1 948.91 19.8
-2 -3 1 955.9 20.4
2 -3 -1 943.11 25.1
-2 3 1 956 24.2
2 3 -1 964.4 20.8
-2 3 1 941.61 20.3
2 3 -1 929.31 21
-2 3 1 1011.3 26.3
1 -3 -1 335.77 10.5
1 -3 -1 322.97 8.1
-1 -3 1 321.77 9.4
1 -3 -1 304.47 10.9
-1 -3 1 326.67 7.4
1 -3 -1 328.17 7.4
1 3 -1 326.27 8.9
1 3 -1 328.37 7.2
-1 3 1 337.37 10.7
-1 3 1 314.97 8.5
1 3 -1 331.87 10
-1 3 1 335.47 11.6
-1 3 1 332.47 7.7
0 -3 -1 487.75 13
0 -3 1 469.05 10.8
0 -3 -1 476.35 10.7
0 -3 1 466.35 13.6
0 -3 -1 465.35 13.4
0 -3 -1 476.15 10.2
0 3 1 470.35 13.3
0 3 -1 480.85 10.4
0 3 1 471.45 11.1
0 3 -1 454.05 14.2
0 3 1 480.55 13.7
-1 -3 -1 435.46 12.2
-1 -3 -1 439.26 9.8
1 -3 1 467.75 12.2
-1 -3 -1 428.16 12
-1 -3 -1 435.06 9.4
1 -3 1 432.86 10.7
1 -3 1 442.76 14.2
1 3 1 441.96 9.5
-1 3 -1 435.26 10.2
1 3 1 442.56 10.4
1 3 1 452.75 12.9
1 3 1 438.86 12.3
-1 3 -1 437.76 15
-1 3 -1 442.56 9.7
2 -3 1 432.26 15.1
2 -3 1 465.15 13
-2 -3 -1 445.06 9.6
2 -3 1 440.86 11.2
-2 -3 -1 433.16 11.6
-2 -3 -1 440.36 9.4
-2 -3 -1 456.65 12.1
2 3 1 434.16 11.8
-2 3 -1 427.56 10.6
2 3 1 445.76 10.9
-2 3 -1 407.96 16.3
2 3 1 432.46 9.3
-2 3 -1 449.95 10
2 3 1 427.46 14
3 -3 1 22.6 1.4
3 -3 1 25 2.7
-3 3 -1 25.4 2.4
4 -3 1 192.68 6.9
4 -3 1 182.48 5.1
-4 3 -1 192.88 6.8
5 -3 1 56.09 3.8
5 -3 1 55.59 2.4
-5 3 -1 42.6 4
5 -4 -1 70.39 4.2
-5 4 1 77.29 4.9
-5 4 1 82.69 4.5
4 -4 -1 0.7 1
-4 4 1 1.8 1.1
3 -4 -1 13.3 1.9
-3 4 1 15.6 1.8
2 -4 -1 32.4 1.7
2 -4 -1 35.2 2.4
-2 4 1 33.8 2.7
-2 4 1 35.8 2.2
-1 -4 1 1052.99 21.6
1 -4 -1 999.3 26.9
-1 -4 1 1024.9 24.9
1 -4 -1 1046.4 22.5
1 -4 -1 1034 21.4
1 4 -1 1017.2 24.1
1 4 -1 1065.09 25.9
-1 4 1 1011.8 26.3
-1 4 1 1053.39 23.1
-1 4 1 1037.3 21.9
-1 4 1 1010.3 27.6
1 4 -1 1017.7 21.3
1 4 -1 1045.9 22
0 -4 -1 290.77 7.7
0 -4 -1 293.37 7
0 -4 1 306.17 7.8
0 -4 1 296.67 10.9
0 -4 -1 309.07 10.9
0 -4 -1 304.17 10.2
0 4 -1 310.77 11.9
0 4 1 311.57 11.3
0 4 -1 294.47 7.4
0 4 -1 291.07 9.8
0 4 1 303.87 7.3
0 4 1 298.87 8.2
0 4 1 305.27 10.7
-1 -4 -1 369.96 8.4
-1 -4 -1 370.46 11.8
1 -4 1 357.46 13.5
-1 -4 -1 370.96 8.8
-1 -4 -1 379.76 11.4
1 -4 1 384.76 11.6
1 -4 1 369.66 9.7
1 4 1 365.06 8.5
-1 4 -1 389.86 14.9
1 4 1 376.16 12.1
1 4 1 392.66 9.6
1 4 1 360.56 12
-1 4 -1 374.66 9.3
-2 -4 -1 2.5 0.5
2 -4 1 3.6 1.3
-2 -4 -1 2.9 0.7
-2 -4 -1 4.8 1.5
-2 -4 -1 3.3 1.2
-2 4 -1 1.3 0.8
2 4 1 1.2 1
2 4 1 2.5 1.1
2 4 1 3.6 1.6
2 4 1 2.2 0.6
3 -4 1 10.5 1.9
-3 4 -1 8.6 1.7
4 -4 1 8.8 1.9
4 -4 1 9.4 1.2
-4 4 -1 9.1 2
5 -4 1 7.9 2
5 -4 1 8.1 1.2
-5 4 -1 6.9 2
5 -5 -1 43.3 4.2
-5 5 1 36.2 4.3
-5 5 1 39.7 3.9
4 -5 -1 47.7 3.4
-4 5 1 45.2 4.4
-4 5 1 45.5 3.3
3 -5 -1 271.67 8.5
-3 5 1 258.27 9.1
-3 5 1 272.27 8.1
2 -5 -1 277.97 8.4
2 -5 -1 282.67 7.2
-2 5 1 266.07 8.9
-2 5 1 283.27 7.9
-1 -5 1 66.69 4.7
1 -5 -1 64.49 3.2
1 -5 -1 61.49 2.5
-1 -5 1 63.39 2.8
-1 5 1 58.49 3.5
-1 5 1 65.69 3
1 5 -1 64.39 3.1
1 5 -1 58.69 4.2
1 5 -1 63.09 2.6
1 5 -1 62.59 6.1
0 -5 -1 109.39 3.4
0 -5 1 112.39 4.2
0 -5 1 100.09 7.6
0 -5 -1 102.89 4
0 5 1 106.29 3.7
0 5 -1 103.89 3.8
0 5 -1 95.19 6.7
0 5 -1 87.99 9.2
0 5 1 122.29 4.8
-1 -5 -1 52.49 2.5
1 -5 1 49.2 3
-1 -5 -1 50.79 4.8
-1 -5 -1 47.9 2
-1 -5 -1 41.8 4.1
1 5 1 52.19 3.1
-1 5 -1 50.59 2.8
1 5 1 48.9 2.2
1 5 1 47.8 5.2
1 5 1 44.4 4.9
2 -5 1 327.87 9.7
-2 5 -1 326.47 9.2
3 -5 1 9.5 1.9
-3 5 -1 11.2 2
4 -5 1 41.6 2.3
4 -5 1 39.7 3.9
-4 5 -1 42.5 4
5 -5 1 9.3 2.2
5 -5 1 11.2 1.6
-5 5 -1 12.9 2.7
5 -6 -1 16.6 2.8
-5 6 1 17.6 3.3
-5 6 1 22 3.4
4 -6 -1 3.4 1.6
-4 6 1 10.7 2.3
-4 6 1 4.7 2
3 -6 -1 5.3 1.5
-3 6 1 9.2 2.3
-3 6 1 3.9 1.4
2 -6 -1 138.39 5.7
-2 6 1 145.59 5.4
-2 6 1 149.49 6.5
1 -6 -1 30.1 2.5
1 -6 -1 34.4 2
-1 -6 1 34.4 2.3
-1 6 1 32.1 2.3
1 6 -1 31.9 2.6
-1 6 1 29.4 3.2
1 6 -1 32.9 2.1
0 -6 -1 268.47 8
0 -6 -1 270.37 7
0 -6 1 269.37 8
0 6 -1 269.67 8.5
0 6 1 265.87 7.4
0 6 -1 271.07 7.6
0 6 1 273.57 8.7
-1 -6 -1 94.79 3.8
-1 -6 -1 90.29 3.1
1 -6 1 86.69 4.3
-1 6 -1 95.09 4.1
1 6 1 88.89 4.4
1 6 1 87.69 3.4
2 -6 1 18.2 2.4
-2 6 -1 21.6 2.5
3 -6 1 17.5 2.7
-3 6 -1 15.3 2.5
4 -6 1 1.4 0.8
4 -6 1 2 1.3
-4 6 -1 0.2 1.3
5 -6 1 10.5 1.7
5 -6 1 8.8 2.3
-5 6 -1 8.9 3
5 -7 -1 24.8 3.5
-5 7 1 21.5 3.9
-5 7 1 25.4 4.2
4 -7 -1 26.2 3.3
-4 7 1 20.5 3.5
-4 7 1 25.8 3.5
3 -7 -1 97.09 5.2
-3 7 1 92.59 4.9
-3 7 1 89.79 5.7
2 -7 -1 3.2 1.4
-2 7 1 6.2 2
-2 7 1 4.2 1.5
1 -7 -1 20.2 1.9
-1 -7 1 17.6 2.5
1 -7 -1 18.1 2.4
-1 7 1 14.3 2.6
1 7 -1 17.2 2
-1 7 1 16.6 2.2
1 7 -1 17.2 3
0 -7 1 92.69 4.4
0 -7 -1 95.09 3.5
0 -7 -1 93.59 4.4
0 7 -1 91.29 4.2
0 7 -1 95.29 4.9
0 7 1 89.59 4
0 7 1 89.09 5
-1 -7 -1 50.99 2.4
1 -7 1 49.8 3.5
-1 -7 -1 51.79 3
-1 7 -1 54.19 3.4
1 7 1 51.59 2.8
-1 7 -1 49.6 3.9
1 7 1 54.69 3.8
2 -7 1 33.7 3.4
-2 7 -1 43.2 3.3
3 -7 1 5.3 1.7
-3 7 -1 5.5 1.9
4 -7 1 -0.9 1
4 -7 1 0.5 0.9
-4 7 -1 -0.3 1.9
5 -7 1 19.5 2.4
5 -7 1 17.7 3.3
-5 7 -1 19.3 4.2
-5 7 -1 18.4 3.7
4 -8 -1 1.3 1.5
-4 8 1 -0.1 1.6
-4 8 1 -0.7 2.2
3 -8 -1 0.9 1.3
-3 8 1 -0.3 1.6
-3 8 1 1.5 1.5
2 -8 -1 9.3 2.1
-2 8 1 4.6 1.9
-2 8 1 9.1 1.9
1 -8 -1 47.1 3.6
-1 8 1 52.29 3.5
-1 8 1 54.19 4.4
0 -8 -1 22.6 2.8
0 -8 -1 25 2
0 -8 1 19.5 2.6
0 8 1 24.5 3.3
0 8 1 24.4 2.7
0 8 -1 28.2 3.5
0 8 -1 25.7 2.9
1 -8 1 17.8 2.7
-1 8 -1 16.7 2.6
-1 8 -1 19.1 3.1
2 -8 1 2 1.5
-2 8 -1 4.2 1.7
-2 8 -1 6.7 2.3
3 -8 1 6.1 2.2
-3 8 -1 7.3 2.3
-3 8 -1 4.9 2.3
4 -8 1 9.4 2.6
4 -8 1 7.5 1.8
-4 8 -1 6.8 2.4
-4 8 -1 7.2 3.4
3 -9 -1 2.4 1.8
-3 9 1 2.9 1.9
-3 9 1 2.3 2.7
2 -9 -1 1.4 1.6
-2 9 1 3.5 2
-2 9 1 -1.3 1.6
1 -9 -1 2.3 1.7
-1 9 1 5.1 1.6
-1 9 1 5.1 2.1
0 -9 -1 25.7 3.3
0 -9 1 25.3 3.2
0 9 1 21.8 2.7
0 9 -1 16.7 2.5
0 9 1 15.7 3
0 9 -1 21 3.4
1 -9 1 6.4 2.1
-1 9 -1 6.8 2.4
-1 9 -1 4.6 1.7
2 -9 1 2.1 1.7
-2 9 -1 1.4 1.7
-2 9 -1 3.3 2.3
3 -9 1 1.9 1.8
-3 9 -1 1.5 2.5
-3 9 -1 1.4 1.7
2 -10 -1 0.4 1.8
-2 10 1 -0.5 2.3
-2 10 1 -1.4 1.5
1 -10 -1 2.9 1.8
-1 10 1 -0.7 1.6
-1 10 1 1.8 2
1 -10 1 4.8 2
-1 10 -1 5.1 2.2
-1 10 -1 3.8 2.5
2 -10 1 6.1 2.4
-2 10 -1 2.2 2.9
-2 10 -1 2.6 2.1
-3 0 2 220.08 5
3 0 -2 215.18 6.9
3 0 -2 212.18 5.1
-3 0 2 200.98 6.8
-3 0 2 211.68 7.5
-3 0 2 217.18 5.5
-2 0 2 1 0.7
2 0 -2 0.3 0.6
-2 0 2 0.2 0.6
-2 0 2 0.2 0.5
2 0 -2 0.6 0.6
1 0 -2 14.4 1.7
1 0 -2 14 1.5
-1 0 2 15.1 1.5
-1 0 2 12.7 1.8
0 0 -2 3307.07 66.79
0 0 -2 3156.78 63.89
0 0 2 3199.98 64.09
0 0 2 3220.88 67.19
0 0 2 2954.6 64.69
0 0 -2 3245.78 65.49
0 0 2 3343.77 66.29
0 0 -2 2942.01 65.59
1 0 2 97.09 3.9
-1 0 -2 96.09 3.7
1 0 2 94.69 6.1
-1 0 -2 90.19 3.2
1 0 2 91.39 2.4
-1 0 -2 96.49 2.5
1 0 2 97.69 4
-1 0 -2 99.89 6.4
-2 0 -2 11.1 1.6
-2 0 -2 16.7 1.8
-2 0 -2 13.2 0.9
2 0 2 11.6 2.9
2 0 2 13.1 0.8
2 0 2 11.7 1.8
-2 0 -2 10.4 3.2
2 0 2 13.2 1.8
-3 0 -2 54.79 3
-3 0 -2 58.19 3.4
3 0 2 50.69 5.9
-3 0 -2 55.09 2
-3 0 -2 61.29 7.6
3 0 2 63.39 3.5
3 0 2 58.19 3.6
3 0 2 57.99 1.9
-4 0 -2 91.29 2.9
4 0 2 85.79 4.1
4 0 2 82.59 2.9
-4 0 -2 85.79 4.2
-3 -1 2 244.78 6.9
3 -1 -2 246.88 6.2
-3 -1 2 217.08 7.2
3 -1 -2 244.08 8.7
3 -1 -2 237.48 5.5
-3 1 2 253.77 9.4
-3 1 2 247.78 6.7
-3 1 2 245.68 8.5
-3 1 2 250.17 6
2 -1 -2 38.6 2.7
2 -1 -2 36.4 1.4
-2 -1 2 38.4 2.3
2 -1 -2 39.1 2.9
-2 -1 2 36.1 1.6
2 -1 -2 39.6 1.8
-2 1 2 40.4 1.5
-2 1 2 42.9 3.1
-2 1 2 39.5 2.9
-2 1 2 37.5 2
2 1 -2 37.9 1.5
2 1 -2 38.3 1.5
1 -1 -2 27.4 1.2
1 -1 -2 31.2 2.4
-1 -1 2 29.6 2.9
1 -1 -2 29.7 1.4
-1 -1 2 29.8 1.6
1 -1 -2 30 2.3
-1 1 2 29.5 2.3
1 1 -2 29 2.7
-1 1 2 33.1 1.2
1 1 -2 28.8 1.4
-1 1 2 33.9 3
-1 1 2 31.3 1.7
0 -1 -2 476.95 12.9
0 -1 -2 485.55 10.2
0 -1 2 483.25 11.3
0 -1 2 486.45 11.2
0 -1 2 453.85 9.7
0 -1 -2 466.55 10.1
0 -1 2 497.05 14.2
0 -1 -2 469.85 12
0 1 -2 509.65 14.7
0 1 -2 483.05 10.5
0 1 2 477.05 12.2
0 1 2 472.15 9.9
0 1 -2 465.65 9.8
0 1 2 493.95 13.5
0 1 -2 476.95 11.1
0 1 2 488.35 11
-1 -1 -2 305.47 10.5
1 -1 2 279.57 7.7
-1 -1 -2 278.87 6.3
-1 -1 -2 276.97 6.6
1 -1 2 282.97 6.1
1 -1 2 271.87 10.8
-1 -1 -2 284.97 8.1
1 -1 2 291.77 8
-1 1 -2 281.17 7.9
-1 1 -2 270.87 6.2
1 1 2 280.87 11
1 1 2 297.67 7.9
1 1 2 274.07 6.1
-1 1 -2 286.17 11.6
-1 1 -2 275.17 7
1 1 2 276.47 8.1
-2 -1 -2 425.66 9.1
-2 -1 -2 426.46 9.9
2 -1 2 405.96 11.4
2 -1 2 421.56 10.9
-2 -1 -2 419.06 14.9
2 -1 2 405.66 14.6
-2 -1 -2 423.16 11
2 -1 2 421.76 9
-2 1 -2 427.86 10.4
-2 1 -2 420.56 16.3
-2 1 -2 423.26 9.2
2 1 2 431.96 15.3
2 1 2 431.86 11.3
2 1 2 418.76 11.6
-2 1 -2 414.96 11.4
2 1 2 417.46 9
3 -1 2 46.8 1.8
3 -1 2 50.79 3.1
-3 -1 -2 51.89 2.6
-3 -1 -2 58.19 7
3 -1 2 52.39 3.5
-3 -1 -2 54.39 3.1
3 -1 2 49.1 5.6
-3 -1 -2 49.99 1.8
-3 1 -2 48.9 2
3 1 2 51.99 6.1
3 1 2 57.19 3.4
-3 1 -2 44.5 2.8
3 1 2 47.3 1.7
-3 1 -2 35.7 6.3
3 1 2 49.2 3.4
-3 1 -2 47 3.3
4 -1 2 195.18 6.8
4 -1 2 198.78 5
-4 1 -2 185.08 6.7
-4 1 -2 195.58 5.3
4 -2 -2 8.6 1.4
-4 2 2 8.1 1.6
-4 2 2 6.2 1.2
3 -2 -2 44 2.4
3 -2 -2 49.2 4.7
3 -2 -2 43.2 1.8
-3 2 2 44.6 2.7
-3 2 2 44.7 4.4
-3 2 2 44.9 5
-3 2 2 46.3 2.2
2 -2 -2 284.07 9.4
2 -2 -2 283.77 7.1
2 -2 -2 277.97 9.8
2 -2 -2 285.67 6.5
-2 2 2 278.77 9.7
-2 2 2 272.97 10.1
-2 2 2 286.27 7.6
-2 2 2 274.07 6.7
-1 -2 2 1168.88 25.8
-1 -2 2 1152.68 24.1
1 -2 -2 1162.58 23.5
1 -2 -2 1169.28 27.1
1 -2 -2 1189.98 24
1 -2 -2 1197.58 26.8
-1 2 2 1152.68 23.5
1 2 -2 1126.19 26.9
-1 2 2 1190.88 27.4
1 2 -2 1137.29 24.1
-1 2 2 1158.28 24.5
-1 2 2 1115.49 27
0 -2 2 1851.91 42
0 -2 -2 1929.51 38.9
0 -2 2 1834.62 39.4
0 -2 2 1885.91 39.2
0 -2 -2 1897.71 41
0 -2 2 1901.91 38.5
0 -2 -2 1879.41 39.5
0 -2 -2 1888.31 40.8
0 2 -2 1933.11 38
0 2 2 1872.01 40.7
0 2 2 1878.41 41.5
0 2 -2 1833.32 39.1
0 2 2 1927.71 38.6
0 2 -2 1935.51 43.4
0 2 2 1900.61 39.2
0 2 -2 1888.31 39.2
-1 -2 -2 13.5 1.1
1 -2 2 12.5 1.7
-1 -2 -2 14.3 1
1 -2 2 12.8 2.7
-1 -2 -2 11.4 2.1
1 -2 2 14.9 1.9
1 -2 2 11.8 0.8
-1 -2 -2 10.2 1.7
-1 2 -2 11.7 0.9
-1 2 -2 14.2 1.9
-1 2 -2 9.3 1.2
1 2 2 14.6 2.1
1 2 2 13.2 0.9
-1 2 -2 12 3.1
1 2 2 13.8 1.8
1 2 2 13.3 2.7
-2 -2 -2 179.88 7.8
-2 -2 -2 179.68 4.7
-2 -2 -2 184.68 4.5
2 -2 2 172.68 9
2 -2 2 178.08 6.7
2 -2 2 179.08 6
2 -2 2 183.58 4.5
-2 -2 -2 172.88 6.2
2 2 2 177.08 4.3
-2 2 -2 176.58 10.3
-2 2 -2 176.28 4.6
2 2 2 169.78 9.4
-2 2 -2 171.38 5.6
-2 2 -2 176.78 6.8
2 2 2 194.18 6.5
2 2 2 190.48 6.8
-3 -2 -2 2.3 0.5
-3 -2 -2 1.4 0.7
3 -2 2 0.9 1.1
3 -2 2 1.4 0.5
-3 2 -2 2.4 1.2
3 2 2 2.1 0.5
3 2 2 2.5 1.4
-3 2 -2 1.5 0.6
4 -2 2 47 3.3
4 -2 2 44.5 2
-4 2 -2 43.6 3.3
-4 2 -2 42.8 2.2
4 -3 -2 93.89 4.1
-4 3 2 100.89 4.1
-4 3 2 105.29 4.9
3 -3 -2 11.2 1.6
3 -3 -2 9.2 1
-3 3 2 12.1 1.5
-3 3 2 10.3 1.8
-2 -3 2 90.99 3.3
2 -3 -2 84.19 3.4
-2 -3 2 90.19 2.8
2 -3 -2 92.89 5.3
2 -3 -2 90.89 5.8
2 -3 -2 89.39 2.9
2 3 -2 85.49 3
-2 3 2 93.39 6.2
-2 3 2 86.99 5.4
-2 3 2 81.59 3.1
-2 3 2 87.59 3.9
2 3 -2 74.99 4.1
1 -3 -2 386.86 12.4
-1 -3 2 381.46 9.5
1 -3 -2 365.36 8.5
-1 -3 2 378.56 8.6
-1 -3 2 379.56 7.8
1 -3 -2 357.56 9
1 -3 -2 385.06 11.8
-1 -3 2 358.46 10.8
-1 3 2 369.66 12.2
-1 3 2 371.06 9.6
1 3 -2 363.46 7.9
-1 3 2 365.36 8.6
1 3 -2 362.96 12
1 3 -2 375.26 8.4
-1 3 2 386.86 12.6
0 -3 -2 593.54 16.8
0 -3 2 636.04 15.3
0 -3 -2 618.84 13.3
0 -3 -2 630.54 13.8
0 -3 2 628.94 17.7
0 -3 -2 623.94 16.9
0 -3 2 636.34 14.2
0 -3 2 629.64 12.9
0 3 -2 632.54 19
0 3 2 618.44 17.2
0 3 -2 628.94 13.8
0 3 2 639.74 17.5
0 3 -2 628.44 13.1
0 3 2 622.24 13.4
0 3 2 637.44 14.5
1 -3 2 102.79 4.8
1 -3 2 93.39 2.8
1 -3 2 102.89 4
-1 -3 -2 97.09 5
-1 -3 -2 97.59 3
1 -3 2 100.39 6.5
-1 -3 -2 98.99 3.2
-1 -3 -2 100.79 5.3
-1 3 -2 98.19 3.6
1 3 2 100.59 4
-1 3 -2 95.79 7.2
-1 3 -2 99.89 3
1 3 2 97.19 2.9
1 3 2 106.39 5.2
1 3 2 95.59 5.8
-2 -3 -2 42.2 1.8
-2 -3 -2 41.1 1.9
-2 -3 -2 39.7 3.1
2 -3 2 40.2 2.7
-2 -3 -2 46.5 4.2
2 -3 2 38.3 1.7
2 3 2 39.8 3.7
2 3 2 40.3 1.6
2 3 2 47.3 5.7
-2 3 -2 37.3 2.5
2 3 2 41.2 3
-2 3 -2 40.2 1.9
3 -3 2 120.69 3.6
3 -3 2 117.39 5.1
-3 3 -2 111.59 3.8
-3 3 -2 113.69 4.9
4 -3 2 46.1 2.1
4 -3 2 53.49 3.7
-4 3 -2 49 2.5
-4 3 -2 51.89 3.7
5 -3 2 68.99 2.8
5 -3 2 65.09 4.3
-5 3 -2 61.69 4.5
5 -4 -2 10.4 2
-5 4 2 14.6 2.3
-5 4 2 13 2.6
4 -4 -2 3.4 1.2
-4 4 2 5 1.6
-4 4 2 4.8 1.3
3 -4 -2 51.99 2.4
3 -4 -2 57.59 3.2
-3 4 2 52.59 3.6
-3 4 2 52.39 2.8
2 -4 -2 129.59 4.7
2 -4 -2 132.09 4
-2 4 2 132.59 4.4
-2 4 2 128.29 5.2
-1 -4 2 347.67 9.7
1 -4 -2 344.37 8.3
-1 -4 2 357.26 11.4
1 -4 -2 356.66 9.1
-1 -4 2 352.56 8.5
1 -4 -2 353.66 13.2
-1 4 2 348.27 12.8
-1 4 2 338.27 13.5
1 4 -2 345.87 10.3
1 4 -2 347.27 8.3
1 4 -2 370.76 13
-1 4 2 341.37 9.7
0 -4 -2 332.87 11.2
0 -4 -2 323.07 8.2
0 -4 2 324.57 8.5
0 -4 2 318.87 9.8
0 -4 2 303.77 11.7
0 -4 -2 325.17 7.7
0 -4 -2 321.97 11.6
0 4 2 298.07 11.5
0 4 2 321.27 11.8
0 4 2 334.37 9
0 4 2 318.07 7.7
0 4 -2 318.57 8.1
0 4 -2 310.67 13
-1 -4 -2 64.19 4.6
-1 -4 -2 70.69 2.9
1 -4 2 67.49 3.5
-1 -4 -2 72.99 2.5
-1 -4 -2 70.09 4.6
1 4 2 65.99 2.5
-1 4 -2 67.79 2.6
-1 4 -2 71.29 3.2
1 4 2 68.89 5.2
1 4 2 66.19 3.4
1 4 2 68.39 4.7
-2 -4 -2 380.46 12.3
2 -4 2 399.16 9
-2 -4 -2 383.86 8.8
2 -4 2 382.56 10.8
-2 -4 -2 386.76 9.2
-2 -4 -2 394.16 12.1
-2 4 -2 390.46 10.4
2 4 2 374.66 10.7
-2 4 -2 387.36 9.3
2 4 2 380.56 14.9
2 4 2 376.66 8.7
2 4 2 396.26 12.4
3 -4 2 51.99 2.3
3 -4 2 52.99 3.6
-3 4 -2 51.79 2.6
-3 4 -2 53.89 3.5
4 -4 2 10.4 1.3
4 -4 2 12.3 2.4
-4 4 -2 5.1 1.8
5 -4 2 5.2 1.1
5 -4 2 5.8 1.9
-5 4 -2 5.3 2.1
5 -5 -2 13.4 2.4
-5 5 2 9.2 2.5
-5 5 2 13.6 2.3
4 -5 -2 12.9 2.2
-4 5 2 15 2.2
-4 5 2 11.8 2.5
3 -5 -2 28.5 2.9
3 -5 -2 22.4 1.7
-3 5 2 17.4 2.6
-3 5 2 20.5 2.3
2 -5 -2 61.19 3.3
-2 5 2 61.39 3.9
-2 5 2 53.79 2.9
-1 -5 2 196.38 8.7
-1 -5 2 205.98 7.4
1 -5 -2 198.88 5.5
-1 -5 2 209.98 5.9
1 -5 -2 200.88 6.4
1 5 -2 200.48 7.9
-1 5 2 196.98 5.9
1 5 -2 202.48 5.7
1 5 -2 207.88 10.3
-1 5 2 190.98 7
0 -5 -2 2.6 0.7
0 -5 2 3.7 1.1
0 -5 -2 3.5 1
0 5 2 4.2 1.4
0 5 2 3.7 0.9
0 5 -2 1.6 0.8
-1 -5 -2 53.39 2.7
-1 -5 -2 53.29 2.3
1 -5 2 58.09 3.4
1 5 2 54.09 2.4
-1 5 -2 52.79 3
1 5 2 51.59 3.3
2 -5 2 20.4 2.5
-2 -5 -2 20.4 1.4
-2 -5 -2 23.7 1.8
2 5 2 24.9 1.6
-2 5 -2 22.8 2.5
2 5 2 28.4 3.1
3 -5 2 88.09 3.3
3 -5 2 84.69 4.8
-3 5 -2 97.89 4.9
4 -5 2 33.1 2.1
4 -5 2 35.8 4
-4 5 -2 30 3.6
5 -5 2 10.7 1.5
5 -5 2 10.2 2.4
-5 5 -2 5.5 2.3
5 -6 -2 -0.1 1.2
-5 6 2 2 1.8
-5 6 2 1.4 1.7
4 -6 -2 7.3 1.8
-4 6 2 5.8 2.3
-4 6 2 7.5 1.8
3 -6 -2 36.4 3
-3 6 2 40.2 3
-3 6 2 27.9 3.4
2 -6 -2 11.1 2
2 -6 -2 12.1 1.5
-2 6 2 11.5 1.8
-2 6 2 11.5 2.2
1 -6 -2 55.99 2.6
1 -6 -2 55.69 3.3
-1 -6 2 53.39 2.9
-1 6 2 49.8 2.8
1 6 -2 54.79 2.8
-1 6 2 46.5 3.6
1 6 -2 60.89 3.3
0 -6 2 34.2 2.6
0 -6 -2 33 2.5
0 -6 -2 32.3 2
0 6 -2 36.3 2.5
0 6 2 33.8 2.2
0 6 2 26.7 3.1
-1 -6 -2 115.69 3.8
1 -6 2 109.09 5
-1 -6 -2 111.09 4.5
1 6 2 113.79 5.3
-1 6 -2 112.39 4.8
2 -6 2 173.58 6.9
-2 6 -2 182.18 6.8
3 -6 2 19 1.9
3 -6 2 15.7 2.6
-3 6 -2 19.8 2.9
4 -6 2 4 1
4 -6 2 2.5 1.5
-4 6 -2 4.7 1.8
5 -6 2 3.6 1.7
5 -6 2 6.7 1.5
-5 6 -2 5.7 3.1
5 -7 -2 23.1 3.5
-5 7 2 17 3.5
-5 7 2 19 3.7
4 -7 -2 30.7 3.8
-4 7 2 24.3 3.8
-4 7 2 26 3.4
3 -7 -2 6.5 1.8
-3 7 2 8.4 2.5
-3 7 2 8 1.8
2 -7 -2 6 1.2
2 -7 -2 6.6 1.7
-2 7 2 5.5 1.5
-2 7 2 6.6 2.1
1 -7 -2 30.2 2.1
1 -7 -2 27.6 3
-1 7 2 28.5 2.8
-1 7 2 34.8 4
0 -7 -2 23.2 2.1
0 -7 -2 31.4 3.1
0 -7 2 25.6 2.8
0 7 2 21.4 2.2
0 7 -2 21.1 2.4
0 7 2 25.6 3.3
-1 -7 -2 9.2 1.7
-1 -7 -2 10.6 1.4
1 -7 2 10.2 2
-1 7 -2 10.3 1.9
1 7 2 11.1 2.3
1 7 2 9 1.5
2 -7 2 32.4 3.6
-2 7 -2 25.1 3
3 -7 2 2.5 1
3 -7 2 0.9 1.3
-3 7 -2 0.8 1.4
4 -7 2 10.8 1.8
4 -7 2 5.9 2
-4 7 -2 11.3 3.3
5 -7 2 9.9 1.9
5 -7 2 8.3 2.4
-5 7 -2 8.6 3.9
4 -8 -2 10 2.5
-4 8 2 12.5 3
-4 8 2 10.4 2.9
3 -8 -2 20.2 2.9
-3 8 2 20.5 3.6
-3 8 2 24.5 3.3
2 -8 -2 21.1 3
-2 8 2 21.6 3.5
-2 8 2 16.4 2.5
1 -8 -2 21.5 2.2
1 -8 -2 14.5 2.4
-1 8 2 15.1 2.8
-1 8 2 14.5 2.2
0 -8 -2 13 1.7
0 -8 2 11.1 2.1
0 -8 -2 8.9 1.9
0 8 2 8.9 1.7
0 8 2 9.4 2.5
0 8 -2 11.4 2.3
0 8 -2 10.1 2
1 -8 2 32.4 3.7
-1 8 -2 31 3.3
2 -8 2 2.7 1.1
2 -8 2 7.3 2.1
-2 8 -2 4.2 1.7
3 -8 2 10.9 1.7
3 -8 2 16.1 3
-3 8 -2 14.7 3.3
4 -8 2 6.8 1.7
4 -8 2 4 1.9
-4 8 -2 3.5 3.1
3 -9 -2 -0.6 1.4
-3 9 2 -1 1.6
-3 9 2 3.3 2.4
2 -9 -2 2.8 1.7
-2 9 2 -0.1 1.4
-2 9 2 3.1 1.9
1 -9 -2 1.7 1.6
-1 9 2 2.5 1.4
-1 9 2 -0.1 1.5
0 -9 2 2.6 1.4
0 -9 -2 2 1.1
0 -9 -2 2.7 1.6
0 9 -2 4.6 1.8
0 9 -2 -0.5 1.6
0 9 2 1.1 1.2
0 9 2 -0.2 1.5
1 -9 2 1.7 1.1
1 -9 2 3.2 1.7
-1 9 -2 1.9 1.7
-1 9 -2 2.5 1.7
2 -9 2 13.9 2.9
2 -9 2 6.7 1.7
-2 9 -2 4.7 2.5
-2 9 -2 9.5 2.8
3 -9 2 8.1 2.6
3 -9 2 10.6 2.1
-3 9 -2 3.9 2.3
-3 9 -2 11.5 3.8
2 -10 -2 2 1.9
-2 10 2 1.8 2
-2 10 2 3 2.6
1 -10 -2 17.9 3.1
-1 10 2 9.5 2.7
-1 10 2 11.7 3.1
0 -10 -2 1.4 2.1
0 10 2 2 3.2
0 10 2 0.7 1.7
1 -10 2 14.2 3
1 -10 2 17.3 2.3
-1 10 -2 11.9 3
-1 10 -2 18.4 3.7
2 -10 2 6.7 2.5
-3 0 3 636.64 17
3 0 -3 682.93 16.5
3 0 -3 674.13 14.1
-3 0 3 651.43 16.9
3 0 -3 657.53 13.6
-3 0 3 666.63 14.7
-3 0 3 689.43 13.9
2 0 -3 5.6 1.3
2 0 -3 4.4 0.6
-2 0 3 5 1.2
2 0 -3 4.4 0.7
-2 0 3 4.9 0.6
-2 0 3 3.8 1.4
-2 0 3 2.5 0.8
2 0 -3 4.4 1.2
-1 0 3 358.86 9
1 0 -3 356.26 7.9
-1 0 3 353.66 7.6
-1 0 3 371.06 10
-1 0 3 355.76 12
1 0 -3 346.17 7.8
1 0 -3 357.66 9.7
1 0 -3 361.26 10.9
0 0 -3 20.5 1.5
0 0 -3 16.6 3
0 0 3 13.9 1.9
0 0 3 22.1 3.9
0 0 3 16.2 0.9
0 0 3 14.9 1.9
0 0 -3 17.3 1.1
0 0 -3 17.1 2
-1 0 -3 1.7 0.9
-1 0 -3 1.6 0.8
1 0 3 3.6 1.5
-1 0 -3 2.1 0.5
-1 0 -3 1 2.2
1 0 3 1.2 1.9
1 0 3 3.2 1.1
1 0 3 1.9 0.4
2 0 3 666.33 22.2
2 0 3 675.43 16.9
-2 0 -3 672.63 15.7
-2 0 -3 649.04 23.2
-2 0 -3 683.43 16.8
2 0 3 675.33 14.1
-2 0 -3 675.43 14.2
2 0 3 682.13 17.5
-3 0 -3 29.3 1.5
-3 0 -3 33.6 6.1
3 0 3 28.1 3.4
-3 0 -3 40.1 2.8
3 0 3 25.4 1.4
3 0 3 29.4 5.1
-3 0 -3 25.5 2.8
3 0 3 29.7 3.2
-4 0 -3 73.89 2.8
4 0 3 73.29 4.4
4 0 3 75.89 2.7
-4 0 -3 69.39 4
3 -1 -3 -0.6 0.7
3 -1 -3 0.9 0.6
3 -1 -3 -0.4 0.3
-3 1 3 -0.4 0.9
-3 1 3 0.5 0.7
-3 1 3 0.4 1.1
-3 1 3 -0.4 0.4
-2 -1 3 140.39 6.5
2 -1 -3 153.48 4
2 -1 -3 163.68 6.3
2 -1 -3 155.98 4.3
2 -1 -3 158.08 6.4
-2 -1 3 153.38 4.9
2 1 -3 154.38 5.1
-2 1 3 155.28 6.5
-2 1 3 145.39 6.6
-2 1 3 158.38 4
-2 1 3 159.98 4.9
2 1 -3 153.88 4.7
1 -1 -3 1174.58 23.7
-1 -1 3 1133.69 25.2
-1 -1 3 1163.38 28.9
-1 -1 3 1156.28 23
1 -1 -3 1119.39 26.8
1 -1 -3 1144.29 26.5
-1 -1 3 1196.48 24.9
1 -1 -3 1175.18 23.5
1 1 -3 1128.89 24.6
1 1 -3 1168.48 23.6
-1 1 3 1172.38 24.6
-1 1 3 1141.39 23.3
1 1 -3 1165.18 23.5
1 1 -3 1144.69 28
-1 1 3 1183.58 26.6
-1 1 3 1121.59 27.7
0 -1 -3 1012.9 25.1
0 -1 3 976.3 20.1
0 -1 -3 1008.9 20.8
0 -1 3 993.3 27
0 -1 -3 980.9 20.7
0 -1 -3 1006.7 23.3
0 -1 3 997 22.5
0 -1 3 1043.9 22.5
0 1 3 979.3 26.4
0 1 -3 967.2 20.3
0 1 3 1035.9 23.6
0 1 3 1052.19 22.3
0 1 -3 995.3 22.2
0 1 -3 1029.3 27.7
0 1 3 995.2 20.4
0 1 -3 1030 21.3
1 -1 3 40.7 2.8
1 -1 3 40 1.5
-1 -1 -3 41 1.7
-1 -1 -3 41.6 2.9
-1 -1 -3 44.8 5.3
1 -1 3 34.7 5.2
1 -1 3 38.6 3.1
-1 -1 -3 42.1 2.1
-1 1 -3 40.1 2.7
1 1 3 41.3 1.6
-1 1 -3 33.5 5.3
1 1 3 35.4 5.2
1 1 3 37.9 3.1
1 1 3 38.2 3.5
-1 1 -3 41.2 1.6
-1 1 -3 38.7 2.3
-2 -1 -3 458.15 11.3
2 -1 3 449.86 17.4
2 -1 3 469.45 10.3
-2 -1 -3 455.25 17.3
-2 -1 -3 489.75 13
-2 -1 -3 471.75 10.4
2 -1 3 494.15 13.5
2 1 3 475.95 10.3
2 1 3 492.15 13.8
2 1 3 465.85 18.2
-2 1 -3 476.15 19.3
-2 1 -3 479.35 12
2 1 3 492.45 13.4
-2 1 -3 495.15 13.2
-2 1 -3 478.65 10.5
-3 -1 -3 118.59 5.4
-3 -1 -3 115.39 3.4
-3 -1 -3 116.39 9
3 -1 3 117.49 3.4
3 -1 3 114.99 5.3
-3 -1 -3 116.79 4.5
3 1 3 112.79 3.4
-3 1 -3 115.89 3.6
3 1 3 135.69 9.2
-3 1 -3 119.09 5
3 1 3 121.59 5.7
3 1 3 124.99 6.2
4 -1 3 122.89 5.6
4 -1 3 119.89 3.7
-4 1 -3 123.89 4
-4 1 -3 119.49 5.5
4 -2 -3 35.7 2.3
-4 2 3 40.8 2.8
-4 2 3 39.7 2.3
3 -2 -3 154.78 4.2
3 -2 -3 153.08 4.8
3 -2 -3 160.68 7.6
-3 2 3 160.38 8.1
-3 2 3 157.58 4.6
-3 2 3 161.18 5.5
-3 2 3 149.09 7.5
2 -2 -3 97.89 5.5
-2 -2 3 101.19 4.3
-2 -2 3 95.29 3.4
2 -2 -3 96.49 5.2
2 -2 -3 92.99 3.4
2 -2 -3 92.69 2.9
-2 2 3 99.69 4
-2 2 3 94.89 3.1
-2 2 3 101.29 5.7
2 2 -3 98.09 4.3
2 2 -3 98.89 3
-2 2 3 86.09 5.4
-1 -2 3 569.54 16.3
1 -2 -3 569.34 12.6
1 -2 -3 580.04 15.8
-1 -2 3 559.24 11.5
1 -2 -3 555.34 12.2
1 -2 -3 582.54 15.9
-1 -2 3 568.94 12.9
-1 -2 3 565.94 13.4
-1 2 3 576.44 15.8
-1 2 3 557.44 12.2
-1 2 3 580.94 13.4
-1 2 3 550.54 16.4
1 2 -3 560.34 17.3
1 2 -3 560.14 11.6
1 2 -3 556.74 13.1
1 2 -3 557.74 12.5
0 -2 -3 791.62 20.7
0 -2 -3 823.82 17.5
0 -2 -3 855.51 21.7
0 -2 3 858.31 23.5
0 -2 3 888.11 19
0 -2 3 842.62 16.9
0 -2 3 821.62 19.3
0 -2 -3 803.92 17.7
0 2 -3 862.51 24.7
0 2 -3 842.12 17.1
0 2 3 851.31 21
0 2 3 818.32 17.3
0 2 -3 840.42 18.2
0 2 3 845.22 22.7
0 2 -3 800.32 19.1
0 2 3 841.62 18.8
-1 -2 -3 541.55 12
1 -2 3 564.54 18.5
1 -2 3 524.15 11.4
1 -2 3 575.14 14.4
-1 -2 -3 547.05 14.8
-1 -2 -3 538.65 12
-1 -2 -3 548.95 16.4
1 2 3 538.95 13.7
-1 2 -3 526.95 14
-1 2 -3 533.05 12.8
1 2 3 530.95 11.5
-1 2 -3 521.65 19.4
-1 2 -3 537.15 11.6
1 2 3 529.25 15.1
1 2 3 544.95 18.4
2 -2 3 78.79 2.5
2 -2 3 76.89 4.1
-2 -2 -3 78.79 3
-2 -2 -3 78.09 2.7
-2 -2 -3 80.59 4.3
2 -2 3 71.19 7.3
-2 -2 -3 70.19 5.6
2 -2 3 88.89 4.7
2 2 3 79.99 4.6
2 2 3 77.49 2.5
-2 2 -3 77.59 2.7
-2 2 -3 69.19 4.2
2 2 3 69.39 7.9
-2 2 -3 80.79 3.8
2 2 3 69.89 4.4
-2 2 -3 66.29 8
3 -2 3 88.99 4.6
-3 -2 -3 103.29 11.2
-3 -2 -3 74.69 5.6
-3 -2 -3 88.79 2.9
-3 -2 -3 85.79 3.4
3 -2 3 89.69 2.9
3 2 3 58.19 11.5
-3 2 -3 86.39 3.1
3 2 3 102.49 6.4
3 2 3 86.09 5
-3 2 -3 91.19 4.4
3 2 3 83.99 2.8
4 -2 3 9.4 2.1
4 -2 3 14 1.4
-4 2 -3 9.5 2.1
-4 2 -3 11.8 1.4
5 -2 3 41 4.1
-5 2 -3 39.2 2.8
4 -3 -3 7.2 1
4 -3 -3 7.7 1.5
-4 3 3 8.2 1.4
-4 3 3 6.1 1.7
3 -3 -3 32 1.8
3 -3 -3 32.2 2.3
-3 3 3 37.5 2.8
-3 3 3 35.2 2.1
2 -3 -3 38.9 4.5
2 -3 -3 60.39 2.4
-2 -3 3 55.29 2.6
2 -3 -3 56.79 2.8
-2 -3 3 59.19 1.6
-2 -3 3 56.19 2.3
-2 -3 3 59.29 3.1
2 -3 -3 56.29 4.3
-2 3 3 58.89 3.3
2 3 -3 56.59 1.7
2 3 -3 53.19 2.3
2 3 -3 57.59 4.3
-2 3 3 56.79 5.5
-2 3 3 62.59 5.9
-2 3 3 55.29 2.4
1 -3 -3 47 4.6
1 -3 -3 55.39 5.2
-1 -3 3 49 4.6
-1 -3 3 49.9 2.4
1 -3 -3 48 2.1
-1 -3 3 45.6 1.5
1 -3 -3 44.3 2.3
-1 -3 3 45.3 2.6
1 3 -3 49 2.3
-1 3 3 46.2 4.8
-1 3 3 47.2 2.9
-1 3 3 52.29 5.2
1 3 -3 41.1 2.5
-1 3 3 45.9 2.1
1 3 -3 46.9 1.6
1 3 -3 42.3 5.2
0 -3 3 406.26 11.4
0 -3 3 394.66 8.7
0 -3 -3 408.06 9.8
0 -3 -3 405.46 13.1
0 -3 -3 397.66 9.3
0 -3 3 419.56 10.5
0 -3 -3 418.16 13.3
0 -3 3 418.76 14.3
0 3 3 407.96 9.3
0 3 -3 413.56 10
0 3 3 411.06 10.7
0 3 -3 400.06 9
0 3 3 410.96 13
0 3 -3 402.66 11.2
0 3 3 411.96 14.1
0 3 -3 394.06 15.6
-1 -3 -3 37.1 1.9
-1 -3 -3 40.4 4.2
-1 -3 -3 42.2 2.1
1 -3 3 46 3
1 -3 3 37.1 5
1 -3 3 40.5 1.6
1 -3 3 42.6 3.2
-1 -3 -3 45.6 4.3
1 3 3 42.1 5.4
-1 3 -3 39.2 1.8
1 3 3 42.5 3
1 3 3 40.2 4.1
-1 3 -3 42.5 2.7
1 3 3 37.3 1.7
-1 3 -3 44.6 3.2
2 -3 3 303.77 9.4
-2 -3 -3 311.97 10.5
-2 -3 -3 314.57 7.7
-2 -3 -3 310.17 11.7
-2 -3 -3 317.67 7.7
2 -3 3 321.27 7.4
2 3 3 307.77 9.9
2 3 3 309.77 7.3
2 3 3 294.67 14.3
2 3 3 309.07 10.9
-2 3 -3 312.57 7.6
-2 3 -3 318.87 9.1
3 -3 3 61.09 2.4
-3 -3 -3 55.29 3.2
3 -3 3 68.99 4.1
3 3 3 66.19 4.8
-3 3 -3 64.49 2.8
-3 3 -3 65.29 3.9
4 -3 3 83.99 4.8
4 -3 3 94.69 3.3
-4 3 -3 90.69 3.6
-4 3 -3 92.09 5.2
5 -3 3 27.2 1.9
5 -3 3 26 3.5
-5 3 -3 27.8 3.7
-5 3 -3 26.8 2.1
5 -4 -3 50.19 3.4
-5 4 3 49.1 4.6
-5 4 3 43.1 3.2
4 -4 -3 0 0.9
4 -4 -3 1.6 0.7
-4 4 3 2.2 1.4
-4 4 3 0.1 0.9
3 -4 -3 122.09 4
3 -4 -3 128.49 5
-3 4 3 123.29 4.5
-3 4 3 121.89 5.5
2 -4 -3 16.3 1.9
2 -4 -3 18.3 1.6
-2 4 3 13.9 1.6
-2 4 3 14.2 2.2
-1 -4 3 326.17 7.3
-1 -4 3 323.77 11.4
-1 -4 3 339.87 9.8
-1 -4 3 335.47 8.4
1 -4 -3 330.27 8.1
1 -4 -3 331.07 8.8
1 4 -3 335.77 8.4
1 4 -3 316.47 13.5
-1 4 3 332.77 9.7
1 4 -3 335.47 7.5
-1 4 3 331.67 8.3
0 -4 3 669.53 16.9
0 -4 -3 660.43 19.3
0 -4 3 641.74 19.8
0 -4 -3 656.03 14.9
0 -4 -3 657.13 14.2
0 -4 3 619.24 15.2
0 -4 -3 640.14 19.5
0 -4 3 645.84 13.6
0 4 -3 646.64 13.9
0 4 -3 629.74 14.9
0 4 3 652.03 20.4
0 4 3 661.53 16
0 4 3 637.94 14.3
0 4 3 626.64 19.7
0 4 -3 650.63 22.3
1 -4 3 26.1 1.4
-1 -4 -3 25.9 3.5
-1 -4 -3 26.3 1.9
-1 -4 -3 30.4 4
1 -4 3 31.7 3
-1 -4 -3 25.2 1.6
1 4 3 25.2 1.6
1 4 3 26.4 2.9
1 4 3 26.3 3.7
-1 4 -3 30.9 2.8
-1 4 -3 27.8 1.6
1 4 3 24.1 4.1
-2 -4 -3 148.09 4.4
-2 -4 -3 144.49 4.6
2 -4 3 153.28 6.1
2 -4 3 150.38 4.3
-2 -4 -3 151.78 7.7
-2 -4 -3 141.29 7
2 4 3 142.99 7.2
2 4 3 146.39 4.2
2 4 3 147.99 6.4
2 4 3 135.49 9.6
-2 4 -3 137.79 5.6
-2 4 -3 151.38 4.6
3 -4 3 119.89 5.6
3 -4 3 125.09 3.9
-3 4 -3 115.49 4.2
-3 4 -3 117.19 5.5
4 -4 3 2.7 1.6
4 -4 3 1.6 0.7
-4 4 -3 4.7 1.1
-4 4 -3 1.6 1.6
5 -4 3 1.6 1.5
5 -4 3 1.5 0.8
-5 4 -3 1.8 1.8
5 -5 -3 7.1 1.9
-5 5 3 6.1 2.2
-5 5 3 10.8 2.1
4 -5 -3 5.1 1.5
-4 5 3 5.6 1.5
-4 5 3 7.5 2.1
3 -5 -3 75.59 4
-3 5 3 82.89 4.8
-3 5 3 73.59 3.7
2 -5 -3 171.88 6
2 -5 -3 169.18 5.1
-2 5 3 164.48 6.7
-2 5 3 158.18 5.4
1 -5 -3 0.8 0.6
1 -5 -3 1.4 0.9
-1 -5 3 1.5 1.5
-1 -5 3 1 0.8
-1 -5 3 1.8 0.5
-1 -5 3 1.4 1
1 5 -3 0.4 0.8
1 5 -3 -2.2 1.6
-1 5 3 1.8 0.8
-1 5 3 3.5 1.4
0 -5 -3 15.6 1.8
0 -5 3 14.8 2
0 -5 -3 15.7 1.6
0 -5 3 15.5 1.1
0 5 -3 13.6 1.8
0 5 3 14.3 2.3
0 5 3 12.7 1.5
-1 -5 -3 2.8 0.8
-1 -5 -3 3.2 1
1 -5 3 2.1 0.6
1 -5 3 3.3 1.4
1 5 3 3.2 0.9
-1 5 -3 2.9 1.2
-1 5 -3 2.4 0.8
1 5 3 1.9 1.3
-2 -5 -3 14.2 1.7
2 -5 3 14.7 2.4
2 -5 3 14.3 1.4
-2 -5 -3 16.8 1.6
2 5 3 14.6 2.6
-2 5 -3 12.9 1.5
-2 5 -3 15.5 2.4
2 5 3 15.1 1.5
3 -5 3 39.5 4
3 -5 3 40.2 2.2
-3 5 -3 38.9 4
4 -5 3 88.29 5.4
4 -5 3 88.69 3.5
-4 5 -3 83.09 5.2
5 -5 3 26 3.8
5 -5 3 23.7 2.2
-5 5 -3 24.4 4.1
5 -6 -3 11.6 2.4
-5 6 3 14 2.7
-5 6 3 8.3 2.5
4 -6 -3 3.3 1.4
-4 6 3 3.2 1.7
-4 6 3 2.2 1.3
3 -6 -3 119.49 4.3
3 -6 -3 112.19 5.3
-3 6 3 110.09 6
-3 6 3 117.39 5
2 -6 -3 56.49 3.5
-2 6 3 58.49 4.2
-2 6 3 63.29 3.3
1 -6 -3 125.59 4.4
-1 -6 3 120.19 4.7
-1 -6 3 126.09 3.6
1 -6 -3 126.79 5.2
1 6 -3 119.09 4.7
-1 6 3 114.29 5.8
-1 6 3 129.59 4.7
0 -6 -3 178.88 6.3
0 -6 3 183.38 6.5
0 -6 3 188.28 5.1
0 -6 -3 189.48 5.6
0 6 3 179.48 5.7
0 6 3 169.88 7.1
0 6 -3 188.28 6.4
1 -6 3 81.79 4.5
-1 -6 -3 91.89 3.5
-1 -6 -3 84.19 4
1 -6 3 91.39 3.3
1 6 3 84.69 5
1 6 3 94.79 3.6
-1 6 -3 90.29 4.5
2 -6 3 5.1 1.6
2 -6 3 7.5 1.2
-2 6 -3 6.3 1.8
3 -6 3 21.2 3
3 -6 3 23.9 1.8
-3 6 -3 24.6 3.2
4 -6 3 1.7 0.9
4 -6 3 1.4 1.5
-4 6 -3 3.5 2
5 -6 3 17.1 2.2
5 -6 3 23.6 3.8
-5 6 -3 13 4
5 -7 -3 4.1 1.9
-5 7 3 7.5 2.8
-5 7 3 8.1 2.7
4 -7 -3 2.6 1.5
-4 7 3 4.1 2.2
-4 7 3 2.8 1.8
3 -7 -3 69.99 3.5
3 -7 -3 74.09 4.5
-3 7 3 65.19 5.1
-3 7 3 66.59 4.1
2 -7 -3 59.19 3.1
2 -7 -3 56.89 3.8
-2 7 3 59.09 3.6
-2 7 3 56.59 4.5
1 -7 -3 51.89 3.6
1 -7 -3 53.79 2.9
-1 7 3 55.39 3.3
-1 7 3 50.59 4.2
0 -7 -3 20 2
0 -7 3 21.9 2.7
0 -7 -3 22.5 2.7
0 -7 3 15.5 1.5
0 7 -3 18.9 2.5
0 7 3 26.6 3.5
0 7 3 16.7 2.1
-1 -7 -3 8.5 1.4
1 -7 3 9.6 2.2
1 -7 3 10.2 1.4
-1 -7 -3 7.7 1.6
1 7 3 12.6 2.7
-1 7 -3 6.4 1.7
1 7 3 9 1.5
2 -7 3 1.8 1.5
2 -7 3 -0.3 0.6
-2 7 -3 -0.5 1.2
3 -7 3 24.4 3.6
3 -7 3 34.4 2.3
-3 7 -3 25.1 3.6
4 -7 3 29.9 2.7
4 -7 3 23.3 3.5
-4 7 -3 28.7 4.7
5 -7 3 15.5 3.4
5 -7 3 12.7 2.1
-5 7 -3 5.6 4
4 -8 -3 8.6 2.2
-4 8 3 11.7 3.3
-4 8 3 9.2 3
3 -8 -3 6 2.1
-3 8 3 9.6 2.5
-3 8 3 2.7 2
2 -8 -3 71.29 3.6
2 -8 -3 67.69 4.5
-2 8 3 60.19 4
-2 8 3 62.49 5.1
1 -8 -3 52.29 3.9
1 -8 -3 57.19 3.1
-1 8 3 53.19 5.5
-1 8 3 61.59 3.6
0 -8 -3 70.59 3.4
0 -8 -3 67.39 4.2
0 -8 3 73.79 4.4
0 -8 3 65.69 2.9
0 8 -3 67.79 4.4
0 8 3 62.79 4.9
0 8 3 67.69 3.7
1 -8 3 4.9 1.1
-1 -8 -3 3.4 1.3
1 -8 3 4.8 1.8
-1 -8 -3 5.2 1.2
1 8 3 4.1 2
-1 8 -3 6.6 2.1
1 8 3 4.3 1.4
2 -8 3 13.6 1.8
2 -8 3 11.3 2.4
-2 8 -3 11.9 2.8
3 -8 3 -0.2 1.1
3 -8 3 0.2 1.5
-3 8 -3 1.6 2.6
4 -8 3 0.2 1.4
4 -8 3 1 1.6
-4 8 -3 0.6 3.2
3 -9 -3 24 3.5
-3 9 3 15.4 3.3
-3 9 3 32.5 4.9
2 -9 -3 2.7 1.7
-2 9 3 0.8 1.8
-2 9 3 6.4 2.4
1 -9 -3 3.2 1.5
1 -9 -3 1.9 1.6
-1 9 3 3.5 2.1
-1 9 3 1.3 1.5
0 -9 -3 56.79 3.3
0 -9 -3 56.29 4.1
0 9 3 59.39 3.8
0 9 3 50.69 5.6
1 -9 3 11.1 1.8
1 -9 3 13.1 2.6
-1 9 -3 9.5 2.7
-1 9 -3 8.2 2.4
2 -9 3 9 1.9
2 -9 3 6.3 2.3
-2 9 -3 11.2 3.4
3 -9 3 3.1 2.2
3 -9 3 1.3 1.5
-3 9 -3 2.3 3.3
1 -10 -3 11.3 2.6
-1 10 3 12.1 2.8
-1 10 3 13 3.2
0 -10 -3 2.9 1.6
0 -10 -3 4.6 1.9
0 10 3 2.5 2.3
0 10 3 3.1 2
1 -10 3 10.3 1.9
1 -10 3 14.1 2.9
-1 10 -3 9.5 2.7
-1 10 -3 8.9 3.5
-3 0 4 18.7 1.1
3 0 -4 19.6 2.3
-3 0 4 17.6 3
3 0 -4 18.6 1.1
-3 0 4 18.9 1.9
3 0 -4 16.5 2.3
-3 0 4 18.2 2.6
3 0 -4 20.1 1.3
2 0 -4 672.13 14.2
-2 0 4 672.53 14
-2 0 4 666.13 17
2 0 -4 671.63 14.1
-2 0 4 667.73 15.6
-2 0 4 654.63 19.5
2 0 -4 669.03 16.8
2 0 -4 683.93 17.4
1 0 -4 1441.46 29.8
-1 0 4 1478.85 32.8
1 0 -4 1452.65 32.5
-1 0 4 1497.55 31.7
1 0 -4 1486.85 34.9
-1 0 4 1451.15 29.3
1 0 -4 1468.65 29.7
-1 0 4 1438.66 37
0 0 -4 239.88 5.9
0 0 4 227.68 11.8
0 0 -4 242.88 8
0 0 4 233.98 5.6
0 0 -4 241.88 11.2
0 0 -4 236.18 6.4
0 0 4 234.28 8.3
0 0 4 249.97 8.2
-1 0 -4 277.07 8.9
1 0 4 269.47 6.4
-1 0 -4 273.07 7.6
1 0 4 272.77 9.3
-1 0 -4 251.17 13.1
1 0 4 286.27 14
-1 0 -4 268.87 6.5
1 0 4 290.97 9.6
2 0 4 267.57 9.4
2 0 4 275.87 14.2
-2 0 -4 250.97 8.8
2 0 4 268.87 6.4
-2 0 -4 268.57 6.6
-2 0 -4 263.77 14.7
2 0 4 273.37 9.8
-2 0 -4 269.87 8
3 0 4 2.7 0.7
-3 0 -4 2.6 0.7
-3 0 -4 2.5 1.1
3 0 4 2.4 1.7
4 0 4 1.3 0.6
-4 0 -4 -0.1 1.1
4 0 4 1.6 1.5
-4 0 -4 0.6 0.6
3 -1 -4 708.13 18.8
3 -1 -4 659.63 14.4
3 -1 -4 696.43 18
3 -1 -4 674.83 15
-3 1 4 686.13 14.7
-3 1 4 665.13 19.6
-3 1 4 700.13 16.1
-3 1 4 677.93 18.9
2 -1 -4 81.69 4.8
2 -1 -4 75.89 2.8
2 -1 -4 77.49 2.6
-2 -1 4 78.69 2.2
-2 -1 4 73.49 3.9
2 -1 -4 75.59 4.6
-2 -1 4 76.99 3.6
-2 -1 4 71.49 5.7
-2 1 4 72.19 2.5
2 1 -4 80.89 4.4
-2 1 4 79.09 5.4
-2 1 4 77.89 3.6
2 1 -4 78.59 2.3
2 1 -4 76.89 2.4
2 1 -4 74.79 3.5
-2 1 4 72.39 4.5
-1 -1 4 2213.58 46
1 -1 -4 2245.58 44.9
-1 -1 4 2278.47 46.8
-1 -1 4 2124.39 52.29
1 -1 -4 2217.38 49.5
1 -1 -4 2204.78 48.3
1 -1 -4 2184.58 44.6
-1 -1 4 2277.77 47.4
1 1 -4 2287.77 51.49
1 1 -4 2297.77 45
-1 1 4 2188.18 48.5
1 1 -4 2263.37 45.2
1 1 -4 2242.28 46.5
-1 1 4 2255.87 46.4
-1 1 4 2221.18 51.69
-1 1 4 2187.88 45.9
0 -1 4 166.28 4.1
0 -1 4 162.68 6.4
0 -1 4 162.48 9.7
0 -1 -4 164.48 4.8
0 -1 -4 154.08 8.1
0 -1 -4 170.78 7
0 -1 -4 168.58 4.7
0 -1 4 175.88 6.6
0 1 -4 166.48 6.1
0 1 4 163.28 9.6
0 1 4 169.98 7
0 1 -4 164.08 5.2
0 1 4 178.48 6.5
0 1 -4 163.28 4.3
0 1 4 171.78 4.3
0 1 -4 162.48 10
1 -1 4 883.51 18.1
1 -1 4 892.41 27.6
-1 -1 -4 879.41 26.2
1 -1 4 895.91 21.3
-1 -1 -4 869.11 18.5
-1 -1 -4 871.31 19.2
-1 -1 -4 887.61 21.8
1 -1 4 901.11 21.7
-1 1 -4 858.41 19.8
1 1 4 839.62 21.4
1 1 4 865.01 28.2
-1 1 -4 869.21 21.1
1 1 4 877.21 18.2
-1 1 -4 871.81 28.6
-1 1 -4 862.91 18.2
1 1 4 893.51 22.2
-2 -1 -4 102.39 9.7
2 -1 4 94.49 9
2 -1 4 86.09 4.8
-2 -1 -4 78.79 4.6
-2 -1 -4 93.39 3.9
-2 -1 -4 91.69 3
2 -1 4 87.99 2.8
2 1 4 91.99 2.9
-2 1 -4 88.19 3
2 1 4 83.49 5.2
-2 1 -4 85.29 4.2
2 1 4 91.19 5.4
-2 1 -4 128.39 14.7
2 1 4 75.59 8.6
-3 -1 -4 174.98 4.8
3 -1 4 173.88 7.2
-3 -1 -4 176.98 6.1
3 -1 4 172.38 4.7
-3 1 -4 175.28 4.9
-3 1 -4 157.78 6.4
3 1 4 170.48 4.7
3 1 4 157.68 7.4
4 -1 4 182.58 7.7
4 -1 4 195.38 5.3
4 1 4 151.48 9.4
-4 1 -4 187.38 7.4
-4 1 -4 190.98 5.5
4 -2 -4 231.88 5.9
4 -2 -4 235.08 6.8
-4 2 4 226.18 7.6
-4 2 4 233.98 6.5
3 -2 -4 35.5 3.9
3 -2 -4 30.5 2
3 -2 -4 35.6 4.3
3 -2 -4 30.8 1.6
-3 2 4 26.6 3.9
-3 2 4 28.5 2.8
-3 2 4 34.9 4.5
-3 2 4 33.2 1.9
2 -2 -4 270.07 7.3
2 -2 -4 283.77 10.6
-2 -2 4 276.47 6
-2 -2 4 285.27 10.6
2 -2 -4 292.17 10.4
-2 -2 4 269.47 7.4
2 -2 -4 276.17 6.8
-2 -2 4 278.87 8.1
-2 2 4 265.67 10.5
-2 2 4 268.07 6.8
2 2 -4 270.67 6.5
-2 2 4 266.97 8.1
2 2 -4 269.67 9.8
-2 2 4 278.07 11.3
2 2 -4 280.57 6
2 2 -4 280.07 7.5
-1 -2 4 220.58 7.2
1 -2 -4 214.48 8.9
1 -2 -4 189.28 8.3
-1 -2 4 212.78 4.9
-1 -2 4 205.08 9.9
1 -2 -4 212.18 5.9
-1 -2 4 227.18 6.9
1 -2 -4 208.38 5.5
1 2 -4 200.08 6.6
-1 2 4 226.08 10
1 2 -4 209.68 5.9
1 2 -4 216.48 10.8
-1 2 4 199.78 6.7
-1 2 4 206.28 5.4
-1 2 4 218.08 8.7
1 2 -4 212.68 5
0 -2 -4 624.44 17.2
0 -2 4 633.84 15.4
0 -2 -4 588.24 13.4
0 -2 4 610.94 12.7
0 -2 -4 612.64 18.3
0 -2 4 612.44 15.7
0 -2 -4 615.24 13.7
0 -2 4 604.94 20.5
0 2 4 603.04 15.3
0 2 -4 596.74 21.4
0 2 -4 598.14 12.9
0 2 -4 584.54 15.3
0 2 4 597.34 20
0 2 4 592.74 17.2
0 2 4 608.04 13.1
0 2 -4 622.44 14.3
-1 -2 -4 20 1.5
1 -2 4 19.4 1.2
-1 -2 -4 16.1 1.5
1 -2 4 20.1 2.7
1 -2 4 20 4.5
-1 -2 -4 16.1 3.2
-1 -2 -4 23.8 3.1
1 -2 4 13.2 2.2
-1 2 -4 18.9 1.3
-1 2 -4 19.3 2.3
1 2 4 18.2 2.8
-1 2 -4 17.4 4.8
-1 2 -4 21.9 2.7
1 2 4 19 1.3
1 2 4 29.3 3.5
1 2 4 14.2 3.8
-2 -2 -4 193.08 5.4
2 -2 4 199.88 5.1
-2 -2 -4 210.18 10.7
-2 -2 -4 187.88 5.7
-2 -2 -4 190.78 7.9
2 2 4 176.58 12
2 2 4 205.98 8.6
2 2 4 181.78 7.9
-2 2 -4 194.08 6.8
-2 2 -4 194.88 5.3
2 2 4 192.88 5.1
3 -2 4 63.89 4.3
-3 -2 -4 62.99 3.2
3 -2 4 62.69 2.5
-3 -2 -4 58.39 2.5
3 2 4 57.99 4.8
-3 2 -4 57.69 3.9
3 2 4 61.39 2.4
-3 2 -4 62.99 2.7
4 -2 4 88.39 3.2
4 -2 4 92.49 5.3
-4 2 -4 83.89 3.4
-4 2 -4 89.19 5.1
5 -2 4 10.4 1.4
5 -2 4 10.7 2.6
-5 2 -4 13.7 2.8
-5 2 -4 13.9 1.8
4 -3 -4 171.78 5.9
4 -3 -4 173.78 5.1
-4 3 4 182.88 5.7
-4 3 4 176.78 6.8
3 -3 -4 550.04 13.3
3 -3 -4 553.94 12.4
-3 3 4 549.95 12.8
-3 3 4 540.15 14.4
2 -3 -4 189.28 5.2
2 -3 -4 195.28 5.9
-2 -3 4 187.88 4.4
2 3 -4 174.68 6.6
-2 3 4 187.68 5.4
-2 3 4 196.58 6.8
2 3 -4 185.38 4.7
1 -3 -4 440.46 15.4
-1 -3 4 477.35 12.8
1 -3 -4 473.75 15.4
-1 -3 4 500.55 16.2
-1 -3 4 470.95 10.1
1 -3 -4 480.35 11.5
1 -3 -4 474.15 10.9
-1 -3 4 479.75 11.9
-1 3 4 466.55 16.7
-1 3 4 477.75 10.9
1 3 -4 477.05 17.9
1 3 -4 482.55 11.5
1 3 -4 477.05 12.5
1 3 -4 489.85 10.3
-1 3 4 462.95 12.5
-1 3 4 487.85 15.6
0 -3 4 62.59 3.9
0 -3 4 63.79 2.1
0 -3 4 60.99 3.6
0 -3 -4 59.29 2.8
0 -3 -4 63.99 2.7
0 -3 4 54.79 6.3
0 -3 -4 64.69 4.8
0 -3 -4 66.49 5.1
0 3 -4 63.09 3.3
0 3 4 66.59 3.8
0 3 4 66.89 4.9
0 3 -4 58.59 7.3
0 3 4 66.39 7
0 3 4 63.79 2.5
0 3 -4 60.49 2.3
0 3 -4 65.79 3.8
-1 -3 -4 312.67 8.1
-1 -3 -4 324.07 8
1 -3 4 314.77 7.3
-1 -3 -4 314.57 12.4
-1 -3 -4 320.47 11.4
1 -3 4 310.17 9.7
-1 3 -4 322.37 7.7
1 3 4 316.87 10.1
1 3 4 334.47 11.8
-1 3 -4 311.37 9.1
1 3 4 312.67 7.6
1 3 4 305.27 14.5
2 -3 4 212.68 7.8
-2 -3 -4 200.78 10.5
-2 -3 -4 214.98 6
-2 -3 -4 220.78 12.1
2 -3 4 215.98 5.5
-2 -3 -4 202.88 5.9
2 3 4 212.48 8.5
2 3 4 207.38 5.6
2 3 4 181.58 17.6
-2 3 -4 218.98 5.8
-2 3 -4 211.98 7.4
-3 -3 -4 186.88 5.4
3 -3 4 193.78 5.3
3 -3 4 189.68 7.6
-3 -3 -4 192.28 5.8
-3 3 -4 188.38 7.4
3 3 4 188.68 5.2
-3 3 -4 191.48 5.6
3 3 4 180.68 8.4
4 -3 4 159.78 4.8
4 -3 4 151.68 7
-4 3 -4 146.89 7
-4 3 -4 147.49 5.1
5 -3 4 1.4 1.6
5 -3 4 0.4 0.7
-5 3 -4 0.9 1.7
-5 3 -4 -0.2 0.8
4 -4 -4 59.99 2.8
4 -4 -4 54.79 3.5
-4 4 4 67.79 3.4
-4 4 4 61.69 4.2
3 -4 -4 89.99 4.1
3 -4 -4 87.39 3.4
-3 4 4 84.49 3.6
-3 4 4 85.59 4.8
2 -4 -4 62.19 3.2
2 -4 -4 63.39 2.8
-2 4 4 56.99 3.8
-2 4 4 57.09 2.8
-1 -4 4 82.69 2.5
-1 -4 4 83.09 3.7
1 -4 -4 81.39 3.1
-1 -4 4 84.59 6
-1 -4 4 84.19 4.4
1 -4 -4 88.29 3.8
1 4 -4 83.39 8.9
-1 4 4 81.09 4.4
1 4 -4 84.09 3.7
1 4 -4 82.79 2.7
-1 4 4 78.79 3.2
0 -4 4 35.8 2.8
0 -4 -4 34.9 2.3
0 -4 4 32.5 1.5
0 -4 -4 34.3 2
0 4 -4 36.8 1.8
0 4 -4 37.3 2.6
0 4 4 41.5 3.2
0 4 4 33.9 2
1 -4 4 44.9 2
1 -4 4 46.5 3.5
-1 -4 -4 44.7 2.6
-1 -4 -4 46.1 2.3
-1 4 -4 39.3 2
1 4 4 48.4 2.2
1 4 4 49.6 3.8
-1 4 -4 49.3 3.2
-2 -4 -4 128.19 4.3
-2 -4 -4 128.09 4.5
2 -4 4 125.09 5.9
2 -4 4 132.09 4
2 4 4 128.69 6.6
2 4 4 135.59 4.1
-2 4 -4 134.19 5.7
-2 4 -4 125.39 4.3
3 -4 4 21.6 3.2
3 -4 4 16.4 1.6
-3 4 -4 17.9 1.8
-3 4 -4 21 2.9
4 -4 4 12.2 2.7
4 -4 4 14.2 1.6
-4 4 -4 18.2 3.1
-4 4 -4 16.4 2
5 -4 4 30.9 4.2
5 -4 4 32.7 2.3
-5 4 -4 27.3 2.7
-5 4 -4 28.4 4.3
5 -5 -4 1.2 1.3
-5 5 4 0.3 1.2
-5 5 4 2.2 1.8
4 -5 -4 30.8 2.1
4 -5 -4 28.5 3.2
-4 5 4 30.9 4
-4 5 4 26.1 2.7
3 -5 -4 61.59 2.9
3 -5 -4 58.39 3.6
-3 5 4 64.09 4.4
-3 5 4 63.39 3.4
2 -5 -4 15.6 1.8
2 -5 -4 15.4 2.1
-2 5 4 13.1 1.7
-2 5 4 12.1 2.4
1 -5 -4 265.77 8.1
-1 -5 4 268.47 7.8
-1 -5 4 275.57 6.4
1 5 -4 270.87 6.6
-1 5 4 269.67 7.5
-1 5 4 259.57 9.1
1 5 -4 258.07 7.8
0 -5 -4 22 2.3
0 -5 4 20.6 1.3
0 -5 -4 24.4 2.1
0 -5 4 25.3 2.8
0 5 4 22 1.7
0 5 4 21.1 3
0 5 -4 23 1.6
0 5 -4 20.3 2.4
-1 -5 -4 276.37 8.1
1 -5 4 281.77 7
1 -5 4 276.37 9.1
-1 -5 -4 289.47 7.5
1 5 4 285.97 9.8
-1 5 -4 279.47 8.9
1 5 4 280.07 7.5
-1 5 -4 286.87 7.5
-2 -5 -4 10.1 1.6
-2 -5 -4 9.6 1.4
2 -5 4 8.1 2
2 -5 4 8.5 1.2
-2 5 -4 10.4 2.3
2 5 4 7.5 2.3
-2 5 -4 9.1 1.4
2 5 4 10 1.4
3 -5 4 41.8 4.3
3 -5 4 46.5 2.4
-3 5 -4 40.6 4.2
-3 5 -4 39.7 2.6
4 -5 4 56.99 4.6
4 -5 4 63.09 3
-4 5 -4 57.29 5.4
-4 5 -4 63.19 3.4
5 -5 4 4.3 1.3
5 -5 4 7 2.4
-5 5 -4 1.5 2.8
5 -6 -4 3.9 1.7
-5 6 4 2.1 1.8
-5 6 4 2.6 1.9
4 -6 -4 13.4 2.4
4 -6 -4 13.1 1.7
-4 6 4 16.3 2.5
-4 6 4 20.4 3.4
3 -6 -4 0.8 1.1
3 -6 -4 0.6 0.8
-3 6 4 0.8 1.1
-3 6 4 4.2 1.8
2 -6 -4 15.8 1.9
2 -6 -4 14.5 2.3
-2 6 4 18.3 2.2
-2 6 4 15.6 2.8
-1 -6 4 23.5 2.6
1 -6 -4 16.7 2.2
1 -6 -4 15.1 1.7
-1 -6 4 18.3 1.2
-1 6 4 16 2.7
-1 6 4 17.7 2
1 6 -4 20.1 2.4
0 -6 4 37.1 1.9
0 -6 -4 41.5 2.4
0 -6 -4 36.5 2.8
0 -6 4 42.3 3.2
0 6 -4 38.1 3.4
0 6 4 41.9 4.3
0 6 4 41.6 2.5
1 -6 4 39.2 2.1
1 -6 4 32.2 3.3
-1 -6 -4 33.7 2.7
-1 -6 -4 38.1 2.3
-1 6 -4 35.6 3.7
1 6 4 37.9 4.3
1 6 4 39.9 2.4
-2 -6 -4 39.4 3
-2 -6 -4 37.1 3.9
2 -6 4 37.5 2.2
2 -6 4 33.1 3.6
2 6 4 32.6 4.3
2 6 4 35.5 4.2
-2 6 -4 29.3 3.5
3 -6 4 12.3 2.4
3 -6 4 16.3 1.8
-3 6 -4 10.5 2.6
4 -6 4 7.4 2.4
4 -6 4 6.8 1.4
-4 6 -4 4.2 2.7
5 -6 4 4.4 1.5
5 -6 4 3.8 1.9
-5 6 -4 7.8 3.8
5 -7 -4 2.6 1.6
-5 7 4 0.5 2.3
-5 7 4 1 2
4 -7 -4 1.6 1.4
-4 7 4 4.4 2.1
-4 7 4 3.1 2
3 -7 -4 17 2
3 -7 -4 11.9 2.3
-3 7 4 11.2 2.2
-3 7 4 14.5 3.1
2 -7 -4 83.99 4.7
2 -7 -4 94.69 4
-2 7 4 73.69 5.3
-2 7 4 89.59 4.4
1 -7 -4 69.09 4.2
1 -7 -4 63.99 3.2
-1 7 4 60.59 4.8
-1 7 4 69.69 3.6
0 -7 -4 0.1 0.7
0 -7 4 0.2 0.5
0 -7 -4 0.7 1
0 -7 4 1.5 1.3
0 7 4 -0.4 1.4
0 7 -4 0.5 1.2
0 7 4 -0.2 0.8
1 -7 4 37.5 2.2
-1 -7 -4 39.5 2.5
-1 -7 -4 41.3 3.2
1 -7 4 39.3 4
1 7 4 37.7 4.4
1 7 4 44.7 2.8
-1 7 -4 37.6 4
2 -7 4 109.49 6.1
2 -7 4 122.39 4.4
-2 7 -4 123.79 6.5
3 -7 4 15.1 1.8
3 -7 4 15.4 3
-3 7 -4 13.4 3.1
4 -7 4 12.5 2.8
4 -7 4 15.3 2.2
-4 7 -4 12.9 4
4 -8 -4 4.7 1.8
-4 8 4 4.3 2.4
-4 8 4 6.2 2.7
3 -8 -4 4.7 1.8
3 -8 -4 5.3 1.7
-3 8 4 3.6 2
-3 8 4 6.2 2.5
2 -8 -4 5.9 1.4
2 -8 -4 9.6 2.3
-2 8 4 3.1 1.5
-2 8 4 6.1 2.4
1 -8 -4 37.7 2.7
1 -8 -4 45.9 4.4
-1 8 4 41.9 5.1
-1 8 4 44 3.2
0 -8 -4 72.89 4.4
0 -8 -4 74.39 3.6
0 -8 4 72.89 3.1
0 -8 4 64.89 4.3
0 8 4 73.89 3.9
0 8 -4 71.19 4.6
0 8 4 73.09 5.5
-1 -8 -4 69.39 3.5
-1 -8 -4 70.59 4.2
1 -8 4 72.39 3.2
1 -8 4 66.49 4.7
-1 8 -4 64.29 4.8
1 8 4 64.29 3.6
1 8 4 65.69 5.4
2 -8 4 8 2.4
2 -8 4 4.5 1.3
-2 8 -4 1.7 2.1
3 -8 4 12.6 3
3 -8 4 9 1.8
-3 8 -4 7.1 3.2
3 -9 -4 24.7 3.7
-3 9 4 10 3
-3 9 4 20.3 3.7
2 -9 -4 27.1 3.5
2 -9 -4 26.8 3
-2 9 4 24.3 4.2
-2 9 4 21.4 3.4
1 -9 -4 86.99 4.4
1 -9 -4 79.29 5.1
-1 9 4 76.39 4.8
-1 9 4 75.59 6
0 -9 -4 -0.6 1.2
0 -9 -4 0 1.2
0 9 4 -0.3 1.2
0 9 4 2.5 1.9
1 -9 4 44.7 4.7
1 -9 4 37.9 2.8
-1 9 -4 36.1 4.7
2 -9 4 34.8 4.4
2 -9 4 30.5 2.9
-2 9 -4 27.5 4.6
1 -10 -4 2.6 1.9
1 -10 -4 2.3 1.8
-1 10 4 4.8 2.5
-1 10 4 7.8 3.2
0 -10 -4 72.99 4.2
0 -10 -4 65.79 4.9
0 10 4 70.89 4.9
0 10 4 59.69 6.6
-3 0 5 2.2 1.3
-3 0 5 0.3 0.4
3 0 -5 0.4 0.4
3 0 -5 1.5 0.6
-2 0 5 102.89 7.6
2 0 -5 102.89 5.3
2 0 -5 104.39 3.4
-2 0 5 103.39 4.8
2 0 -5 121.09 6.3
-2 0 5 102.99 5.5
-2 0 5 110.59 3.2
2 0 -5 100.19 3.3
-1 0 5 174.78 10.7
1 0 -5 182.28 5.2
-1 0 5 179.08 7.5
1 0 -5 182.18 7.2
-1 0 5 178.18 6.9
1 0 -5 179.18 4.9
1 0 -5 170.08 8.9
-1 0 5 177.88 4.6
0 0 5 264.17 9.6
0 0 5 264.17 9.3
0 0 -5 259.87 7.2
0 0 5 251.67 6.2
0 0 -5 254.97 6.5
0 0 -5 253.67 9.1
0 0 -5 258.47 12.7
0 0 5 247.48 13.8
1 0 5 0.6 0.6
-1 0 -5 0.8 1
1 0 5 -0.5 2.3
1 0 5 0.4 1.2
-1 0 -5 0.5 1.1
1 0 5 0.3 1.6
-1 0 -5 -0.4 0.6
-1 0 -5 1.1 2.4
2 0 5 36.7 4.5
2 0 5 26.6 1.5
-2 0 -5 24.4 2.7
-2 0 -5 27.6 1.7
3 0 5 242.28 9.7
-3 0 -5 241.98 6.5
3 0 5 244.38 6.4
-3 0 -5 241.88 8.3
-4 0 -5 2 1.4
4 0 5 0.7 0.7
4 0 5 2.5 1.9
-4 0 -5 1.7 0.8
3 -1 -5 33.1 1.7
3 -1 -5 31.7 3.8
3 -1 -5 36.6 2.1
3 -1 -5 39.7 4.1
-3 1 5 37.1 5.2
-3 1 5 34.6 4.2
-3 1 5 33.9 3.1
-3 1 5 34.5 1.8
2 -1 -5 56.79 5.1
2 -1 -5 55.69 4.4
2 -1 -5 56.29 2.3
-2 -1 5 63.09 4
2 -1 -5 57.09 2.6
-2 -1 5 55.79 6.8
-2 -1 5 55.49 2
-2 -1 5 56.59 3.8
-2 1 5 58.89 3.6
2 1 -5 56.49 3.4
2 1 -5 57.59 4.5
-2 1 5 49.7 5.9
-2 1 5 57.99 4.4
2 1 -5 55.09 2.3
2 1 -5 58.69 2.1
-2 1 5 58.89 2.3
1 -1 -5 15.3 1.5
1 -1 -5 17.3 3.2
-1 -1 5 11.8 2.2
-1 -1 5 11.6 3.7
1 -1 -5 15 2.6
-1 -1 5 20 2.9
1 -1 -5 13.7 1.4
-1 -1 5 13.3 1
1 1 -5 20 3.9
1 1 -5 18.2 1.8
-1 1 5 11.3 2.2
-1 1 5 12.9 1.2
1 1 -5 13.3 2
1 1 -5 14.2 1.1
-1 1 5 16.7 3
-1 1 5 9.2 3.1
0 -1 5 439.66 12.7
0 -1 5 387.56 17.4
0 -1 -5 416.76 10.2
0 -1 -5 427.66 15.9
0 -1 -5 418.76 10
0 -1 5 411.46 12.8
0 -1 -5 434.86 13.3
0 -1 5 409.46 9.3
0 1 -5 415.26 9.5
0 1 5 403.26 9.5
0 1 5 435.16 18.3
0 1 5 419.46 12.5
0 1 -5 435.56 10.8
0 1 -5 413.76 17.7
0 1 5 430.76 13.6
0 1 -5 400.06 12
-1 -1 -5 69.99 3.3
-1 -1 -5 69.69 2.8
-1 -1 -5 70.49 4.7
-1 -1 -5 78.69 8.4
1 -1 5 71.79 4.9
1 -1 5 66.99 2.5
-1 1 -5 70.99 2.6
1 1 5 71.69 5
1 1 5 64.59 8.6
1 1 5 65.09 4.9
1 1 5 69.29 2.6
-1 1 -5 51.99 9.1
-1 1 -5 73.39 3.9
2 -1 5 22.8 3.4
-2 -1 -5 17.2 1.4
-2 -1 -5 18.2 2.2
2 -1 5 16.5 1.3
-2 1 -5 19.6 1.4
2 1 5 17.6 1.4
2 1 5 20.2 3.5
-2 1 -5 18.5 2.4
3 -1 5 5.4 2.1
-3 -1 -5 7.2 1.1
-3 -1 -5 6.1 1.6
3 -1 5 4.7 0.9
-3 1 -5 8.1 1.3
-3 1 -5 5.1 1.9
3 1 5 6.6 2.4
3 1 5 6.8 1.1
-4 -1 -5 35.3 3.4
4 -1 5 31.6 2
4 -1 5 29.7 4.1
-4 -1 -5 35.7 2.1
-4 1 -5 26.5 3.5
-4 1 -5 30.8 2.1
4 1 5 30.9 2
4 1 5 26.9 3.9
4 -2 -5 3.8 0.8
4 -2 -5 4.3 1.2
-4 2 5 4 1.6
-4 2 5 3.3 1
3 -2 -5 117.99 4.4
3 -2 -5 123.09 3.9
-3 2 5 119.19 4
-3 2 5 128.19 5.4
-2 -2 5 67.89 7.1
-2 -2 5 58.79 2
-2 -2 5 58.09 3.7
2 -2 -5 56.69 2.8
2 -2 -5 55.09 2.4
-2 -2 5 55.79 3.4
2 2 -5 57.79 1.9
-2 2 5 56.39 2.4
2 2 -5 64.29 3.2
-2 2 5 56.89 3.6
2 2 -5 53.79 5.6
2 2 -5 58.49 2.5
-1 -2 5 140.79 5.8
-1 -2 5 131.69 3.6
1 -2 -5 125.29 6.8
-1 -2 5 138.89 6.1
1 -2 -5 136.79 4.3
1 -2 -5 139.59 4.6
-1 -2 5 136.59 9.1
1 2 -5 140.19 3.7
1 2 -5 135.49 5.5
-1 2 5 141.99 7.2
1 2 -5 142.79 9.5
-1 2 5 135.69 5.8
-1 2 5 134.99 4.1
-1 2 5 130.59 8.8
1 2 -5 133.59 4.7
0 -2 5 435.06 13.3
0 -2 5 428.86 18.1
0 -2 -5 447.76 16
0 -2 -5 450.75 14.4
0 -2 5 425.86 12.7
0 -2 5 438.16 9.8
0 -2 -5 460.35 10.8
0 -2 -5 433.76 10.6
0 2 5 457.85 18.6
0 2 5 441.96 13
0 2 -5 445.56 11.6
0 2 -5 444.06 9.9
0 2 -5 448.66 19.4
0 2 5 445.46 14.8
0 2 -5 453.15 12.8
0 2 5 436.06 10.2
1 -2 5 50.29 2
-1 -2 -5 51.59 2.5
-1 -2 -5 49.1 2.7
1 -2 5 52.09 4.1
-1 2 -5 50.09 2.2
-1 2 -5 58.29 3.5
1 2 5 36.8 4.1
1 2 5 51.49 2.2
2 -2 5 42 4.2
2 -2 5 46.2 2.1
-2 -2 -5 48 2.8
-2 -2 -5 49.7 2.4
2 2 5 50.79 2.2
-2 2 -5 49.6 2.3
2 2 5 41.1 4.8
-2 2 -5 50.89 3.7
3 -2 5 55.99 4.5
-3 -2 -5 50.09 3
3 -2 5 53.49 2.4
-3 -2 -5 51.99 2.5
3 2 5 52.39 5.6
3 2 5 51.59 2.4
-3 2 -5 50.79 2.6
-3 2 -5 55.29 4.1
4 -2 5 10.6 1.4
4 -2 5 15.5 3.1
-4 2 -5 12.2 1.6
-4 2 -5 13.8 2.9
5 -2 5 19 3.5
5 -2 5 11.1 1.6
-5 2 -5 12.8 2.9
-5 2 -5 16 1.9
4 -3 -5 82.79 3.2
4 -3 -5 82.79 4
-4 3 5 91.59 5
-4 3 5 84.89 3.6
3 -3 -5 293.47 7.7
3 -3 -5 304.37 8.6
-3 3 5 297.97 9.7
-3 3 5 305.77 8
2 -3 -5 45.7 2.7
2 -3 -5 41.5 2.2
-2 3 5 45 3.4
-2 3 5 40.1 2.2
-1 -3 5 17.2 2.5
-1 -3 5 17.2 1.1
-1 -3 5 21.9 2.6
-1 -3 5 22.6 4.5
1 -3 -5 14.9 1.8
1 -3 -5 15 1.5
1 3 -5 19.5 4.6
-1 3 5 14 2.2
1 3 -5 15.9 2.2
1 3 -5 15.6 1.1
-1 3 5 14.9 1.5
1 3 -5 16.9 2.1
0 -3 5 105.39 3.1
0 -3 -5 100.09 4
0 -3 5 99.99 5
0 -3 -5 98.69 3.7
0 3 -5 107.59 4.7
0 3 -5 103.09 3.3
0 3 5 103.29 5.4
0 3 5 105.29 3.6
-1 -3 -5 35.2 2.2
-1 -3 -5 34.1 2.2
1 -3 5 35.7 1.8
1 -3 5 41 4.1
1 3 5 37.1 1.9
-1 3 -5 34.4 1.9
-1 3 -5 39.8 3.7
1 3 5 36.7 4.2
-2 -3 -5 18.5 1.8
2 -3 5 11.7 2.4
2 -3 5 17.7 1.4
-2 -3 -5 16.4 1.8
2 3 5 17.5 1.6
-2 3 -5 12.4 2.4
2 3 5 13.7 3
-2 3 -5 16.8 1.7
3 -3 5 6.5 2
-3 -3 -5 6 1.3
3 -3 5 6 1.1
-3 -3 -5 5.9 1.1
-3 3 -5 6.7 1.2
3 3 5 7.1 2.6
3 3 5 6 1
-3 3 -5 4.5 2
4 -3 5 16.6 1.7
4 -3 5 17.1 3.3
-4 3 -5 18.4 2.1
-4 3 -5 21.4 3.4
5 -3 5 1.8 1.5
5 -3 5 -0.3 0.7
-5 3 -5 0.3 2
-5 3 -5 0.6 0.9
4 -4 -5 18 1.8
4 -4 -5 18.8 2.3
-4 4 5 21.1 2.3
-4 4 5 20 3
3 -4 -5 165.68 6
3 -4 -5 167.48 5.2
-3 4 5 155.58 6.9
-3 4 5 168.98 5.5
2 -4 -5 117.39 4.1
2 -4 -5 103.99 4.6
-2 4 5 116.39 4.2
-2 4 5 113.89 5.6
-1 -4 5 25.4 4.5
-1 -4 5 31.7 3.5
-1 -4 5 25.6 1.4
-1 -4 5 26.4 2.7
1 -4 -5 28.3 1.9
1 -4 -5 25.1 2.4
-1 4 5 32.4 3.6
1 4 -5 26.4 5.9
1 4 -5 26.4 1.5
1 4 -5 26.8 3
-1 4 5 24.4 1.9
1 4 -5 28.8 2.8
0 -4 -5 217.38 6.8
0 -4 5 212.78 5.5
0 -4 -5 212.68 6.2
0 -4 5 215.58 7.6
0 4 -5 212.88 7.3
0 4 5 213.88 8.2
0 4 -5 210.58 5.7
0 4 5 209.18 6
-1 -4 -5 109.79 4.3
1 -4 5 103.59 5.4
-1 -4 -5 105.59 4
1 -4 5 102.49 3.4
-1 4 -5 106.89 3.7
1 4 5 105.09 6
-1 4 -5 102.69 5
1 4 5 111.89 3.8
2 -4 5 0.8 0.6
-2 -4 -5 0.4 0.8
2 -4 5 2.3 1.6
-2 -4 -5 1.8 0.9
-2 4 -5 0.8 1.3
2 4 5 1.1 1.7
2 4 5 0.8 0.7
-2 4 -5 1.2 0.7
3 -4 5 5.7 2
3 -4 5 3.8 0.9
-3 4 -5 6.4 1.3
-3 4 -5 5.2 2.1
4 -4 5 0.5 1.4
4 -4 5 1.7 0.8
-4 4 -5 1.2 0.9
-4 4 -5 -0.2 1.5
5 -4 5 8 1.5
5 -4 5 7.4 2.4
-5 4 -5 8.5 1.7
-5 4 -5 6 3.2
5 -5 -5 28.5 3.2
-5 5 5 25 3.7
-5 5 5 21.1 2.8
4 -5 -5 49.6 3.5
4 -5 -5 44.5 2.6
-4 5 5 43.3 4.6
-4 5 5 41.2 3
3 -5 -5 74.49 3.4
3 -5 -5 69.89 4
-3 5 5 82.09 3.8
-3 5 5 75.79 5
2 -5 -5 78.59 4.1
2 -5 -5 89.89 3.7
-2 5 5 88.09 3.9
-2 5 5 94.49 5.4
1 -5 -5 6.6 1.5
1 -5 -5 10.7 1.6
-1 -5 5 7.5 1.6
-1 -5 5 7.2 0.9
1 5 -5 7.7 1.7
-1 5 5 6.9 2.1
1 5 -5 7.4 1
-1 5 5 11.4 1.6
0 -5 -5 3.8 1.3
0 -5 5 2.7 0.7
0 -5 5 7.3 1.8
0 -5 -5 5.7 1.2
0 5 -5 5.3 1.7
0 5 -5 3.9 0.9
0 5 5 5 1.8
0 5 5 3.2 1
-1 -5 -5 14.3 2
-1 -5 -5 17.9 1.9
1 -5 5 18.7 1.5
1 -5 5 13.6 2.5
1 5 5 18.7 3.3
1 5 5 17.6 1.9
-1 5 -5 17.4 1.8
-1 5 -5 14.7 2.4
2 -5 5 6.4 2
-2 -5 -5 5.1 1.2
-2 -5 -5 5.8 1.4
2 -5 5 5.3 1
2 5 5 3.7 2.2
-2 5 -5 5 1.2
-2 5 -5 4.4 2
2 5 5 6.4 1.2
3 -5 5 14.2 1.6
3 -5 5 16.8 3.1
-3 5 -5 13.1 2.8
-3 5 -5 10 1.6
4 -5 5 7.3 1.4
4 -5 5 10.6 2.5
-4 5 -5 5.6 2.5
-4 5 -5 9.5 1.7
5 -5 5 24.3 4
5 -5 5 20.8 2.4
-5 5 -5 18.7 4.7
5 -6 -5 15 2.7
-5 6 5 12.6 2.6
-5 6 5 9.3 2.7
4 -6 -5 14.2 2.4
4 -6 -5 18.7 2.2
-4 6 5 17 2.4
-4 6 5 17.3 3.4
3 -6 -5 42.9 2.7
3 -6 -5 41.6 3.4
-3 6 5 50.09 3.3
-3 6 5 32.9 4.1
2 -6 -5 6.7 1.8
2 -6 -5 9.2 1.6
-2 6 5 5.3 2.1
-2 6 5 11.4 1.8
1 -6 -5 44 2.7
1 -6 -5 47.3 3.3
-1 6 5 49.7 2.9
-1 6 5 36.7 4.1
0 -6 -5 34.6 2.8
0 -6 -5 28.1 2.2
0 -6 5 29.4 1.8
0 -6 5 28.5 3.2
0 6 -5 29.7 2
0 6 5 32.4 2.4
0 6 5 26.5 3.6
0 6 -5 30.5 3.3
1 -6 5 102.09 5.5
-1 -6 -5 100.69 4.1
1 -6 5 102.19 3.7
-1 -6 -5 96.09 4.6
1 6 5 105.99 4.2
-1 6 -5 100.09 4
1 6 5 106.79 6.5
-1 6 -5 106.49 5.6
2 -6 5 50.99 2.6
-2 -6 -5 50.49 3.2
2 -6 5 50.69 4.2
-2 -6 -5 49.4 2.8
2 6 5 49.9 2.8
-2 6 -5 47.2 2.9
2 6 5 49.6 5.6
-2 6 -5 55.89 5.3
3 -6 5 1.8 0.9
3 -6 5 0.7 1.5
-3 6 -5 0.6 0.9
-3 6 -5 -0.2 1.6
4 -6 5 1.9 1.2
4 -6 5 0.6 1.5
-4 6 -5 -0.6 2.5
5 -6 5 -1.1 1.4
5 -6 5 0.6 1.3
-5 6 -5 3.2 3.8
5 -7 -5 5 2
-5 7 5 2.8 2.3
-5 7 5 4.2 2.7
4 -7 -5 13.6 2.6
4 -7 -5 15.2 2.2
-4 7 5 10.1 2.5
-4 7 5 11.2 3.1
3 -7 -5 12.2 2.5
3 -7 -5 12.4 1.9
-3 7 5 13.9 2.4
-3 7 5 8.9 2.6
2 -7 -5 16.6 2.1
2 -7 -5 17.3 2.7
-2 7 5 13.7 3.1
-2 7 5 19.8 2.4
1 -7 -5 2 1.1
1 -7 -5 2.7 1.4
-1 7 5 1 1
-1 7 5 2.5 1.8
0 -7 5 14.2 1.5
0 -7 5 14.1 2.5
0 -7 -5 15.6 2.1
0 -7 -5 13.4 2.2
0 7 5 11.4 1.8
0 7 -5 11.4 2.4
0 7 5 17.3 3.3
-1 -7 -5 10.6 1.7
-1 -7 -5 10.3 2.1
1 -7 5 10.7 1.4
1 -7 5 13 2.5
-1 7 -5 11.4 2.5
1 7 5 15.7 2.1
1 7 5 8.7 2.7
2 -7 5 7.5 1.3
2 -7 5 6.2 2.1
-2 7 -5 7.1 2.4
3 -7 5 14.2 3
3 -7 5 11.7 1.8
-3 7 -5 8.4 3
4 -7 5 10 3
4 -7 5 15.1 2.3
-4 7 -5 15.3 4.6
4 -8 -5 6.9 2
4 -8 -5 6.5 2.1
-4 8 5 3.5 2.3
-4 8 5 6.1 2.6
3 -8 -5 0.1 1.3
3 -8 -5 -0.4 1.2
-3 8 5 0.9 1.7
-3 8 5 0.9 1.7
2 -8 -5 1.5 1.3
2 -8 -5 0.3 1.3
-2 8 5 -1.6 1.5
-2 8 5 -0.9 1.3
1 -8 -5 9.4 1.8
1 -8 -5 12 2.6
-1 8 5 9.6 2.9
-1 8 5 11.8 2.2
0 -8 5 15.6 2.7
0 -8 -5 21.8 2.5
0 -8 5 20.1 1.9
0 -8 -5 17.2 2.7
0 8 5 21.8 2.6
0 8 5 22 3.9
0 8 -5 11.9 2.7
1 -8 5 58.19 3
1 -8 5 67.09 4.9
-1 -8 -5 58.69 3.3
-1 -8 -5 48.5 3.8
1 8 5 56.09 3.4
1 8 5 52.49 5.9
-1 8 -5 64.49 5.8
2 -8 5 31.9 2.9
2 -8 5 27 4.1
-2 8 -5 25.5 4.3
3 -8 5 5.6 1.7
3 -8 5 7.6 2.7
-3 8 -5 1.1 3.4
3 -9 -5 -0.9 1.4
3 -9 -5 -0.2 1.6
-3 9 5 2.6 2.2
-3 9 5 0.5 2.3
2 -9 -5 2.6 1.8
2 -9 -5 1.8 1.6
-2 9 5 3.9 2.3
-2 9 5 -0.2 1.8
1 -9 -5 1.2 1.6
1 -9 -5 2.5 1.6
-1 9 5 1.6 2.2
-1 9 5 0.1 1.7
0 -9 -5 41.9 3.6
0 -9 -5 36.4 4.2
0 9 5 37.7 5.4
0 9 5 32.3 3.6
1 -9 5 -0.5 1.6
1 -9 5 -0.1 1.1
-1 9 -5 -0.6 2.3
2 -9 5 -0.7 1.3
2 -9 5 1.3 1.9
-2 9 -5 -1.9 2.9
3 0 -6 1.4 0.6
-3 0 6 3.3 1.6
-3 0 6 0.6 0.6
3 0 -6 1.9 0.8
-2 0 6 77.79 8.7
2 0 -6 76.39 5.7
-2 0 6 85.39 5
-2 0 6 79.99 5.4
2 0 -6 80.29 4.9
2 0 -6 82.79 3.1
-2 0 6 82.59 2.9
2 0 -6 84.19 3.1
-1 0 6 76.59 5.2
-1 0 6 69.39 2.6
-1 0 6 63.69 8.6
1 0 -6 69.69 7.2
1 0 -6 71.79 3.2
1 0 -6 69.49 4.6
1 0 -6 67.89 2.8
-1 0 6 76.09 5
0 0 6 29.9 1.7
0 0 -6 32 1.9
-1 0 -6 315.27 9.2
1 0 6 305.97 11.6
1 0 6 315.57 7.7
-1 0 -6 307.57 7.9
-2 0 -6 117.89 4
-2 0 -6 119.19 5.4
2 0 6 117.49 3.9
2 0 6 124.59 7.2
3 0 6 9.3 2.6
-3 0 -6 6.3 1.1
-3 0 -6 8.5 2.1
3 0 6 6.9 1.2
4 0 6 71.49 6.8
4 0 6 70.89 3.2
-4 0 -6 70.69 3.2
-4 0 -6 62.89 4.5
3 -1 -6 148.99 4.9
3 -1 -6 141.09 4.4
-3 1 6 147.39 6.4
-3 1 6 156.88 4.5
-2 -1 6 84.59 5.1
2 -1 -6 86.49 3.4
-2 -1 6 83.29 2.8
-2 -1 6 75.89 9.1
-2 -1 6 78.79 5.2
2 -1 -6 85.99 3.3
2 1 -6 90.19 3.3
-2 1 6 92.19 5.1
2 1 -6 87.09 2.9
-2 1 6 88.39 3.1
2 1 -6 84.69 6.2
2 1 -6 91.29 4.7
1 -1 -6 579.34 13.6
-1 -1 6 623.84 23.6
1 -1 -6 602.84 13.6
-1 -1 6 596.14 17.2
-1 -1 6 585.14 12.8
-1 -1 6 566.34 16.4
-1 1 6 580.54 13.1
1 1 -6 595.44 13
1 1 -6 599.44 14
-1 1 6 575.74 16.3
1 1 -6 597.24 16.2
1 1 -6 569.64 20.9
0 -1 -6 124.09 4.6
0 -1 6 133.19 3.9
0 -1 -6 132.29 4.4
0 -1 6 131.19 6.8
0 1 -6 131.99 4
0 1 -6 129.29 5.1
0 1 6 134.99 6.9
0 1 6 128.79 4
1 -1 6 151.48 7.6
-1 -1 -6 154.38 5.5
-1 -1 -6 154.08 4.8
1 -1 6 154.68 4.4
1 1 6 137.89 7.6
-1 1 -6 158.28 6.1
1 1 6 153.38 4.6
-1 1 -6 155.68 4.6
2 -1 6 6.8 1.1
2 -1 6 10.5 2.9
-2 -1 -6 7.6 1.7
-2 -1 -6 12.2 1.5
2 1 6 9.9 2.9
-2 1 -6 10 2.1
2 1 6 8.6 1.2
-2 1 -6 9.6 1.3
-3 -1 -6 109.99 5.2
-3 -1 -6 112.39 4
3 -1 6 114.49 6.8
3 -1 6 117.79 4
3 1 6 108.69 7
-3 1 -6 110.79 4.1
3 1 6 117.79 4.1
-3 1 -6 111.59 5.8
4 -1 6 85.29 3.5
4 -1 6 76.99 5.9
-4 -1 -6 84.69 3.6
-4 -1 -6 91.19 4.9
4 1 6 85.29 3.6
4 1 6 89.19 6.3
-4 1 -6 86.59 3.7
-4 1 -6 80.79 5.2
3 -2 -6 12.3 1.4
3 -2 -6 11.9 1.8
-3 2 6 11 2.3
-3 2 6 13.6 1.5
2 -2 -6 205.18 6.3
-2 -2 6 196.48 7.5
2 -2 -6 202.58 5.8
-2 -2 6 208.08 5.2
2 2 -6 203.08 5.9
-2 2 6 204.18 5.7
2 2 -6 202.48 5.1
-2 2 6 200.18 7.9
-1 -2 6 173.38 4.7
-1 -2 6 157.98 7.6
-1 -2 6 165.28 11.2
1 -2 -6 179.78 5.6
1 -2 -6 180.88 5.4
-1 -2 6 183.28 7.4
1 2 -6 163.88 6.8
1 2 -6 172.38 11.2
1 2 -6 172.58 5.9
-1 2 6 167.78 5
-1 2 6 177.08 7.5
1 2 -6 171.58 4.7
0 -2 6 7.5 2.2
0 -2 -6 9.7 1.5
0 -2 6 7.8 1
0 -2 -6 6.1 1.2
0 2 -6 8.1 1.7
0 2 6 8.3 2.4
0 2 6 7.9 1.2
0 2 -6 8.8 1.1
-1 -2 -6 300.47 8.4
-1 -2 -6 292.47 8
1 -2 6 296.37 10.8
1 -2 6 293.37 7.3
1 2 6 299.27 7.6
-1 2 -6 292.37 7.5
1 2 6 288.57 11.2
-1 2 -6 297.77 9.5
-2 -2 -6 88.29 3.6
-2 -2 -6 87.59 4.1
2 -2 6 89.89 5.7
2 -2 6 88.69 3.3
2 2 6 85.09 3.3
-2 2 -6 87.09 5
2 2 6 77.59 6.2
-2 2 -6 86.89 3.4
-3 -2 -6 27 2.8
3 -2 6 25.8 3.7
3 -2 6 26.6 1.8
-3 -2 -6 29.1 2
-3 2 -6 20.4 3.2
3 2 6 25.6 1.9
3 2 6 25 4.4
-3 2 -6 28.7 2
4 -2 6 53.09 5.7
4 -2 6 54.99 2.8
-4 2 -6 53.89 5.4
-4 2 -6 46.1 2.8
5 -2 6 5.5 2.3
5 -2 6 6.5 1.3
-5 2 -6 7.9 2.7
-5 2 -6 4.6 1.3
4 -3 -6 39.5 2.3
4 -3 -6 34.6 2.7
-4 3 6 42.7 4.5
-4 3 6 39.6 2.6
3 -3 -6 174.68 6
3 -3 -6 170.68 5.3
-3 3 6 162.28 5.3
-3 3 6 167.18 7.2
2 -3 -6 153.08 5.5
2 -3 -6 151.58 4.9
-2 3 6 159.18 6.9
-2 3 6 151.58 4.9
-1 -3 6 437.16 9.7
-1 -3 6 443.96 12.6
1 -3 -6 446.36 11.3
1 -3 -6 415.66 10.6
-1 3 6 418.36 10.4
-1 3 6 416.66 13.1
1 3 -6 438.86 9.8
1 3 -6 426.86 11.5
0 -3 6 27.8 1.6
0 -3 6 28.8 3.5
0 -3 -6 22.6 2.1
0 -3 -6 26.6 2.2
0 3 6 29.6 3.9
0 3 -6 24.6 1.6
0 3 6 28.8 1.9
0 3 -6 29.3 3.1
1 -3 6 345.17 11.7
-1 -3 -6 367.26 9.5
-1 -3 -6 355.76 9.5
1 -3 6 359.96 8.5
1 3 6 355.26 8.9
-1 3 -6 333.07 10.7
-1 3 -6 338.37 8.7
1 3 6 358.26 12.7
2 -3 6 15.5 3
-2 -3 -6 14.6 1.8
-2 -3 -6 12.5 1.7
2 -3 6 15.8 1.6
2 3 6 13.9 1.6
-2 3 -6 10.3 2.5
2 3 6 10.3 3.2
-2 3 -6 14.1 1.6
3 -3 6 38.5 4.8
3 -3 6 43.2 2.3
-3 -3 -6 45.9 2.6
-3 -3 -6 40.1 2.9
-3 3 -6 37.9 4.2
-3 3 -6 44 2.6
3 3 6 37.7 5.5
3 3 6 42.7 2.4
4 -3 6 63.79 3.1
4 -3 6 53.59 5.5
-4 3 -6 62.29 5.9
-4 3 -6 68.09 3.4
5 -3 6 22.9 2.3
5 -3 6 18.6 3.7
-5 3 -6 17.3 3.9
-5 3 -6 24.5 2.5
4 -4 -6 5.9 1.2
4 -4 -6 5.4 1.5
-4 4 6 4.2 1.3
-4 4 6 6.8 2.2
3 -4 -6 47 3.2
3 -4 -6 47.3 2.6
-3 4 6 44.1 4.4
-3 4 6 42.6 2.7
2 -4 -6 138.69 4.8
2 -4 -6 139.89 5.5
-2 4 6 141.99 6.8
-2 4 6 139.49 4.9
1 -4 -6 18.4 2.3
-1 -4 6 16.4 1.2
1 -4 -6 21.1 2.1
-1 -4 6 18.9 2.7
1 4 -6 17.3 1.3
-1 4 6 15.3 1.7
1 4 -6 17.3 2.4
-1 4 6 16.3 3
0 -4 -6 8.7 1.4
0 -4 6 9.4 2.2
0 -4 6 8.5 1.1
0 -4 -6 8.3 1.6
0 4 6 9 1.3
0 4 -6 8.9 2
0 4 -6 10.3 1.3
0 4 6 6.5 2.3
-1 -4 -6 54.29 3.1
1 -4 6 56.19 4.4
1 -4 6 54.49 2.5
-1 -4 -6 48.6 2.8
1 4 6 49.8 2.6
1 4 6 54.19 5.7
-1 4 -6 48.4 4.4
-1 4 -6 49.6 2.5
2 -4 6 256.87 6.9
2 -4 6 249.88 9.8
-2 -4 -6 251.67 7.5
-2 -4 -6 252.67 7.6
-2 4 -6 257.17 7.2
-2 4 -6 246.18 9.4
2 4 6 248.08 11
2 4 6 256.27 7.1
-3 -4 -6 1.8 0.9
3 -4 6 2.5 1.8
-3 -4 -6 3.6 2
3 -4 6 0.8 0.8
3 4 6 0.8 1.4
3 4 6 2.5 2.5
-3 4 -6 0.8 0.8
-3 4 -6 1.6 1.9
4 -4 6 12.2 1.7
4 -4 6 13.5 2.9
-4 4 -6 13.7 2
-4 4 -6 15.1 3.4
5 -4 6 -0.1 1
5 -4 6 1.5 1.9
-5 4 -6 3.8 3.4
-5 4 -6 2.3 1.3
5 -5 -6 18.4 3.6
5 -5 -6 19.4 2.2
-5 5 6 18.2 3.6
-5 5 6 14.3 2.6
4 -5 -6 35.2 3.7
4 -5 -6 36.9 2.5
-4 5 6 40.8 4.8
-4 5 6 33.4 3.1
3 -5 -6 20.7 2.8
3 -5 -6 18.5 2
-3 5 6 19.8 3.4
-3 5 6 22.2 2.4
2 -5 -6 90.79 3.9
2 -5 -6 96.89 4.7
-2 5 6 94.09 4.1
-2 5 6 91.89 5.7
-1 -5 6 24.8 2.9
1 -5 -6 25 2.8
-1 -5 6 20.2 1.4
1 -5 -6 17.7 1.9
-1 5 6 23.6 3.6
1 5 -6 19.2 1.5
1 5 -6 19.8 2.6
-1 5 6 20.5 2.1
0 -5 -6 64.29 3.2
0 -5 -6 53.79 3.5
0 -5 6 65.19 2.6
0 -5 6 61.79 4.3
0 5 6 66.49 3.2
0 5 -6 66.89 2.8
0 5 6 70.89 5.2
0 5 -6 62.49 4.2
1 -5 6 214.88 6.1
-1 -5 -6 227.38 6.9
-1 -5 -6 212.68 7.2
1 -5 6 198.78 8.4
1 5 6 228.48 6.7
1 5 6 216.38 9.8
-1 5 -6 221.48 8.6
-1 5 -6 222.28 6.4
-2 -5 -6 12.9 1.8
2 -5 6 6.7 2.1
2 -5 6 11.3 1.5
-2 -5 -6 10.4 1.8
-2 5 -6 12.8 2.7
2 5 6 5.9 2.7
2 5 6 9 1.5
-2 5 -6 10.1 1.5
3 -5 6 40.7 2.5
3 -5 6 35 4.3
-3 5 -6 41.9 5
-3 5 -6 38.1 2.7
4 -5 6 -0.7 1.3
4 -5 6 0.5 1
-4 5 -6 1.3 1.1
-4 5 -6 0.5 2.8
5 -5 6 9.2 2.9
5 -5 6 6 1.7
-5 5 -6 8.5 1.8
-5 5 -6 6.4 4.3
5 -6 -6 16.5 2.8
5 -6 -6 17.2 2.3
-5 6 6 16 3.5
-5 6 6 11.3 2.6
4 -6 -6 10.2 1.8
4 -6 -6 7.9 2
-4 6 6 7.1 2.5
-4 6 6 7.1 2
3 -6 -6 17.2 2.7
3 -6 -6 20.2 2.3
-3 6 6 21.3 3.6
-3 6 6 16.4 2.2
2 -6 -6 16 2
2 -6 -6 17.3 2.6
-2 6 6 19.6 3.5
-2 6 6 20.2 2.4
1 -6 -6 39.9 3.2
1 -6 -6 38.8 2.6
-1 6 6 33.2 4.4
-1 6 6 39.9 2.7
0 -6 6 9.1 1.2
0 -6 -6 12.2 2.2
0 -6 6 13 2.3
0 -6 -6 10.7 1.7
0 6 6 20.6 3.5
0 6 6 12.7 1.8
0 6 -6 8.6 1.3
1 -6 6 4.8 1
-1 -6 -6 6.3 1.6
-1 -6 -6 8 1.6
1 -6 6 3.3 1.7
1 6 6 7.8 2.7
1 6 6 6 1.4
-1 6 -6 6.7 1.3
-1 6 -6 2.3 1.8
-2 -6 -6 52.09 3
-2 -6 -6 47.7 3.3
2 -6 6 49.5 2.7
2 -6 6 45.4 4.8
-2 6 -6 51.89 3.1
2 6 6 58.09 6.8
2 6 6 50.39 2.9
-2 6 -6 49.2 5.2
3 -6 6 12 2.9
3 -6 6 11.4 1.7
-3 6 -6 9.4 3
-3 6 -6 11.8 1.9
4 -6 6 -0.5 1.2
4 -6 6 -0.8 1.4
-4 6 -6 -1.5 3
-4 6 -6 0.1 1
4 -7 -6 2.6 1.6
4 -7 -6 2.3 1.6
-4 7 6 1.8 2
-4 7 6 3 2.2
3 -7 -6 21.2 2.6
3 -7 -6 24.8 3.4
-3 7 6 21.8 3.1
-3 7 6 19 3.6
2 -7 -6 21.4 2.4
2 -7 -6 15.7 2.6
-2 7 6 15 3.2
-2 7 6 17.8 2.4
1 -7 -6 14.1 2.4
1 -7 -6 21.7 2.5
-1 7 6 23.8 2.7
-1 7 6 16.2 3.3
0 -7 6 32.8 3.7
0 -7 6 40.8 2.3
0 -7 -6 48.5 3.7
0 -7 -6 36.5 2.8
0 7 6 40.7 2.9
0 7 6 36.1 4.8
0 7 -6 41.3 4.5
-1 -7 -6 19.6 2.8
1 -7 6 19.6 3.1
1 -7 6 16.8 1.8
-1 -7 -6 19.6 2.3
1 7 6 15.8 3.6
-1 7 -6 25.8 3.9
-1 7 -6 23.3 2.4
1 7 6 21.7 2.5
2 -7 6 0.9 1.5
2 -7 6 1.9 1.1
-2 7 -6 2.8 1.1
-2 7 -6 3.4 2.5
3 -7 6 1.5 1.4
3 -7 6 0.8 1.5
-3 7 -6 -0.6 3
3 -8 -6 4 1.8
3 -8 -6 3.7 1.9
-3 8 6 2.9 2.3
-3 8 6 6 2.5
2 -8 -6 7.6 2.1
2 -8 -6 9.5 2
-2 8 6 8.1 2.2
-2 8 6 9 3
1 -8 -6 2.6 1.5
1 -8 -6 1.7 1.4
-1 8 6 1 1.9
-1 8 6 2.4 1.6
0 -8 -6 4.7 1.5
0 -8 6 3.2 1.1
0 -8 -6 2.8 1.5
0 8 -6 4.7 2.7
0 8 6 5.5 2.5
0 8 6 3.1 1.4
1 -8 6 0.3 1
-1 -8 -6 0.8 1.3
-1 -8 -6 -1.5 1
1 -8 6 -0.4 1.3
-1 8 -6 0.5 2.1
1 8 6 -0.2 2.1
1 8 6 0.3 1
2 -8 6 11 2.8
2 -8 6 17 2.4
-2 8 -6 21 4.6
3 -8 6 5.1 1.8
3 -8 6 14 3.4
-3 8 -6 5.9 4.1
2 -9 -6 0.5 1.7
2 -9 -6 1.1 1.6
-2 9 6 0.9 2
-2 9 6 -1.8 1.9
1 -9 -6 8.1 2.3
1 -9 -6 11 2.4
-1 9 6 11.7 3.4
-1 9 6 16.2 3
0 -9 -6 2.9 1.8
0 -9 -6 8.3 2.2
0 9 6 7 3
0 9 6 5.4 2.1
1 -9 6 0.1 1.2
1 -9 6 -0.8 1.7
-1 9 -6 -1.6 2.9
-3 0 7 470.65 10.7
-3 0 7 451.25 16.4
3 0 -7 463.15 10.9
3 0 -7 439.96 11.2
2 0 -7 27.5 1.9
-2 0 7 23.6 1.6
2 0 -7 22.7 1.8
-2 0 7 32 4.2
1 0 -7 10.7 1.4
-1 0 7 13.5 1.4
1 0 -7 12.2 1.7
-1 0 7 14.2 3.2
0 0 7 77.59 3.1
0 0 7 97.39 6.5
0 0 -7 83.59 3.3
0 0 -7 81.89 4
1 0 7 0.6 0.6
1 0 7 -0.7 1.6
-1 0 -7 -0.5 0.6
-1 0 -7 0.4 1
-2 0 -7 84.39 3.4
2 0 7 79.89 6.4
2 0 7 87.49 3.4
-2 0 -7 77.69 4.6
-3 0 -7 181.98 7.5
-3 0 -7 171.78 5.6
3 0 7 184.58 5.7
3 0 7 172.78 9.3
4 0 7 12 3.3
-4 0 -7 15 2.8
4 0 7 11.8 1.8
-4 0 -7 10.8 1.6
3 -1 -7 134.49 4.7
3 -1 -7 133.59 4.3
-3 1 7 126.79 4.3
-3 1 7 130.19 6.6
-2 -1 7 268.07 6.7
-2 -1 7 257.87 9.9
2 -1 -7 257.27 7.3
2 -1 -7 261.27 7.2
2 1 -7 261.97 6.7
2 1 -7 252.87 7.2
-2 1 7 268.57 6.9
-2 1 7 244.78 9.8
-1 -1 7 299.87 7.4
-1 -1 7 284.77 11
1 -1 -7 300.87 8.1
1 -1 -7 302.87 8.2
-1 1 7 294.47 7.7
1 1 -7 291.27 7.5
-1 1 7 309.47 11.3
1 1 -7 299.17 8.5
0 -1 7 129.39 4.1
0 -1 -7 125.19 4.8
0 -1 -7 130.59 4.6
0 -1 7 112.79 7
0 1 7 129.59 7.3
0 1 -7 131.49 4.2
0 1 -7 125.49 5.3
0 1 7 131.89 4.3
-1 -1 -7 66.59 3.1
1 -1 7 72.69 5.8
-1 -1 -7 65.39 3.6
1 -1 7 67.69 2.9
-1 1 -7 68.59 4.2
1 1 7 68.89 2.9
1 1 7 61.89 6.5
-1 1 -7 67.09 2.9
2 -1 7 39 5.1
-2 -1 -7 37.2 2.3
-2 -1 -7 40.1 3.7
2 -1 7 38.3 2.2
-2 1 -7 34.1 2.2
2 1 7 38.2 5.5
2 1 7 36.3 2.2
-2 1 -7 31.8 3.6
-3 -1 -7 60.39 3
3 -1 7 62.29 3
-3 -1 -7 62.29 4.1
3 -1 7 59.59 6.3
3 1 7 48.7 5.9
3 1 7 61.69 3
-3 1 -7 56.09 4.4
-3 1 -7 64.89 3.1
-4 -1 -7 8.2 1.5
4 -1 7 8.9 1.6
-4 -1 -7 8.7 2.2
4 -1 7 5.9 2.4
-4 1 -7 12.4 2.9
4 1 7 5.5 2.8
4 1 7 6.9 1.4
-4 1 -7 7 1.4
5 -1 7 2 2.5
3 -2 -7 104.79 3.8
3 -2 -7 98.89 4.3
-3 2 7 101.89 3.9
-3 2 7 99.59 5.9
2 -2 -7 170.38 5.4
2 -2 -7 164.68 5.7
-2 -2 7 173.28 7.5
-2 -2 7 166.38 4.7
-2 2 7 156.38 7.5
2 2 -7 164.98 4.6
-2 2 7 161.08 5.1
2 2 -7 165.38 5.5
-1 -2 7 29.4 1.7
1 -2 -7 32.3 2.3
-1 -2 7 29.4 3.9
1 -2 -7 30.6 2.2
-1 2 7 29.6 1.9
1 2 -7 27 2.7
1 2 -7 32.4 1.8
-1 2 7 37.7 4.7
0 -2 -7 169.98 5.7
0 -2 -7 164.88 5.7
0 -2 7 177.38 5
0 -2 7 186.78 8.5
0 2 7 175.58 5.3
0 2 -7 167.28 5
0 2 -7 185.58 6.8
0 2 7 169.88 8.5
1 -2 7 124.49 7.1
-1 -2 -7 115.39 4.8
-1 -2 -7 121.49 4.6
1 -2 7 116.79 3.9
-1 2 -7 122.89 5.9
1 2 7 119.19 4.2
1 2 7 117.79 7.6
-1 2 -7 121.29 4.1
2 -2 7 129.09 7.5
-2 -2 -7 153.38 5.8
2 -2 7 143.59 4.7
-2 -2 -7 142.99 5
2 2 7 132.19 8.5
-2 2 -7 151.38 4.9
-2 2 -7 147.49 6.9
2 2 7 146.99 4.9
-3 -2 -7 101.49 4.9
3 -2 7 82.69 6.2
-3 -2 -7 86.39 3.8
3 -2 7 100.29 3.9
-3 2 -7 93.59 3.9
3 2 7 102.49 3.9
3 2 7 72.39 7.5
-3 2 -7 97.69 5.9
4 -2 7 6.6 1.4
4 -2 7 2 2
-4 2 -7 2.5 2.1
-4 2 -7 4.2 1.3
5 -2 7 6.5 2.7
5 -2 7 6.2 1.6
-5 2 -7 4.5 2.9
-5 2 -7 4.6 1.3
4 -3 -7 57.19 2.9
4 -3 -7 58.09 3.5
-4 3 7 60.69 4.7
-4 3 7 57.99 3.2
3 -3 -7 86.49 4.2
3 -3 -7 87.19 3.7
-3 3 7 93.49 3.8
-3 3 7 77.79 5.3
2 -3 -7 54.19 3.3
2 -3 -7 59.59 3
-2 3 7 55.19 2.8
-2 3 7 40.7 4.5
1 -3 -7 444.96 11.7
1 -3 -7 461.85 11.4
-1 -3 7 435.66 10.3
-1 -3 7 447.46 13.7
1 3 -7 442.26 12.1
-1 3 7 448.56 14.6
1 3 -7 443.06 10.4
-1 3 7 442.16 11
0 -3 -7 30.3 2.4
0 -3 7 28.9 1.8
0 -3 7 29.4 3.9
0 -3 -7 34 2.9
0 3 7 38.4 5
0 3 -7 31.6 1.9
0 3 -7 30.5 3.4
0 3 7 31 2.1
-1 -3 -7 35.2 2.5
1 -3 7 26.6 3.8
-1 -3 -7 35.1 2.6
1 -3 7 33.9 2.1
-1 3 -7 35.2 2.1
-1 3 -7 37.6 4.1
1 3 7 39.1 2.4
1 3 7 48.2 5.7
-2 -3 -7 135.19 5.1
-2 -3 -7 133.39 5.4
2 -3 7 149.99 7.7
2 -3 7 133.69 4.6
-2 3 -7 144.49 4.9
2 3 7 145.59 8.9
2 3 7 134.29 4.8
-2 3 -7 147.59 7.1
3 -3 7 33.8 2.3
-3 -3 -7 39.4 3.5
3 -3 7 33.3 4.6
-3 -3 -7 34.8 2.4
-3 3 -7 32.3 2.4
-3 3 -7 32.3 4.3
3 3 7 32.6 2.3
3 3 7 35.7 5.7
4 -3 7 12.6 1.8
4 -3 7 11.2 3.2
-4 3 -7 4.8 2.7
-4 3 -7 11.5 1.8
5 -3 7 10.6 2
5 -3 7 10.7 3.2
-5 3 -7 12.5 4.1
-5 3 -7 11.2 1.9
4 -4 -7 33.7 2.4
4 -4 -7 33.7 3.4
-4 4 7 36.4 4.6
-4 4 7 28.2 2.7
3 -4 -7 4.6 1.5
3 -4 -7 4.1 1.2
-3 4 7 6 2.3
-3 4 7 3.7 1.3
2 -4 -7 28.4 2.9
2 -4 -7 33.2 2.4
-2 4 7 33.2 2.4
-2 4 7 39.8 4.7
-1 -4 7 37.3 3.9
1 -4 -7 39.5 2.9
1 -4 -7 39.6 2.5
-1 -4 7 35.9 1.9
1 4 -7 41 3.8
1 4 -7 33.6 1.9
-1 4 7 40.9 4.9
-1 4 7 39.1 2.5
0 -4 7 62.49 2.7
0 -4 -7 58.29 3.4
0 -4 -7 59.19 3.2
0 -4 7 58.29 4.5
0 4 7 60.69 6.1
0 4 7 55.29 3
0 4 -7 54.09 4.1
0 4 -7 61.99 2.8
-1 -4 -7 272.27 8.4
-1 -4 -7 266.67 8
1 -4 7 258.27 10.3
1 -4 7 271.57 7.2
1 4 7 253.57 11.4
1 4 7 273.47 7.6
-1 4 -7 263.87 7.4
-1 4 -7 256.27 9.7
2 -4 7 80.99 3.3
2 -4 7 67.59 5.2
-2 -4 -7 77.59 3.9
-2 -4 -7 71.69 3.7
2 4 7 67.19 7.2
-2 4 -7 79.29 3.5
-2 4 -7 78.99 5.3
2 4 7 72.99 3.4
-3 -4 -7 15.9 2.1
3 -4 7 11.8 1.6
3 -4 7 12.3 3
-3 -4 -7 11.6 2
-3 4 -7 12.2 3
-3 4 -7 10.2 1.7
3 4 7 12.2 1.7
3 4 7 7.2 3.3
4 -4 7 7.9 1.6
4 -4 7 8.2 2.6
-4 4 -7 3.7 1.4
-4 4 -7 3.8 3
5 -4 7 16.7 3.4
5 -4 7 25.8 2.9
-5 4 -7 25.1 5.4
-5 4 -7 23.3 2.7
4 -5 -7 45.2 2.9
4 -5 -7 50.59 3.8
-4 5 7 43.7 3.2
-4 5 7 38.2 4.9
3 -5 -7 9.4 1.6
3 -5 -7 6.9 1.8
-3 5 7 12.5 2
-3 5 7 9.6 2.9
2 -5 -7 20.2 2.2
2 -5 -7 19.8 2.7
-2 5 7 22.2 3.8
-2 5 7 16.7 2.1
1 -5 -7 84.29 4.5
1 -5 -7 79.89 3.8
-1 -5 7 83.19 4.9
-1 -5 7 83.59 3.1
1 5 -7 79.09 4.7
-1 5 7 85.29 3.9
-1 5 7 72.99 5.7
1 5 -7 80.29 3.2
0 -5 7 67.99 2.9
0 -5 -7 67.39 4
0 -5 7 68.99 4.8
0 -5 -7 74.39 3.6
0 5 -7 73.49 4.8
0 5 7 72.99 5.9
0 5 -7 72.09 3.2
0 5 7 75.59 3.6
-1 -5 -7 6 1.4
1 -5 7 6.8 1.2
1 -5 7 9.6 2.6
-1 -5 -7 8.5 1.7
-1 5 -7 8.3 2.5
1 5 7 7 1.4
-1 5 -7 6.3 1.2
2 -5 7 54.99 2.8
-2 -5 -7 48.5 3.2
-2 -5 -7 48.9 3.1
2 -5 7 39.7 4.7
-2 5 -7 50.19 2.9
2 5 7 48.5 6.5
2 5 7 46.2 2.9
-2 5 -7 52.69 5.3
3 -5 7 36.2 4.9
3 -5 7 34.2 2.5
-3 5 -7 34 4.6
-3 5 -7 31.6 2.6
4 -5 7 8.6 2.8
4 -5 7 6.5 1.7
-4 5 -7 4.3 1.4
-4 5 -7 5.5 3.6
5 -6 -7 3 1.8
5 -6 -7 3 1.5
-5 6 7 6 2.7
-5 6 7 0.6 2
4 -6 -7 15.8 2.2
4 -6 -7 13.3 2.7
-4 6 7 15.4 2.7
-4 6 7 21.7 4.1
3 -6 -7 9 1.7
3 -6 -7 14.4 2.7
-3 6 7 10.3 2.9
-3 6 7 12.6 2.2
2 -6 -7 12.6 1.9
2 -6 -7 10.2 2.2
-2 6 7 10.9 3.1
-2 6 7 10 1.8
1 -6 -7 32 3.5
1 -6 -7 34.7 2.7
-1 6 7 37.1 2.8
-1 6 7 34.2 4.9
0 -6 -7 27.6 2.7
0 -6 7 37.4 4.2
0 -6 -7 27 3.2
0 -6 7 23.8 1.8
0 6 -7 31.8 2.2
0 6 7 27.9 4.5
0 6 -7 29.9 3.8
0 6 7 32.7 3
1 -6 7 79.79 5.4
-1 -6 -7 82.49 4.5
-1 -6 -7 83.39 4
1 -6 7 81.59 3.5
1 6 7 84.99 4
-1 6 -7 75.29 5.5
1 6 7 82.39 6.8
-1 6 -7 84.69 3.8
2 -6 7 32 2.4
-2 -6 -7 35.2 3.1
2 -6 7 28.1 4.1
-2 -6 -7 30.8 3.3
-2 6 -7 33.3 2.6
2 6 7 28.1 2.7
-2 6 -7 33.4 4.7
2 6 7 26.6 5.1
3 -6 7 10 2
3 -6 7 8.5 2.6
-3 6 -7 4.8 3.3
-3 6 -7 6.5 1.6
4 -6 7 5.5 2.3
4 -6 7 5.1 1.8
-4 6 -7 5.1 4.1
-4 6 -7 9.8 2
4 -7 -7 7.1 2
4 -7 -7 10.4 2.6
-4 7 7 11.6 2.8
-4 7 7 8.4 2.9
3 -7 -7 2.3 1.6
3 -7 -7 2 1.6
-3 7 7 3.6 1.9
-3 7 7 3.8 2.3
2 -7 -7 2.8 1.5
2 -7 -7 2.9 1.6
-2 7 7 3.1 2.3
-2 7 7 1.9 1.6
1 -7 -7 16.8 2.3
1 -7 -7 19.6 3.1
-1 7 7 16.1 3.7
-1 7 7 12 2
0 -7 -7 73.49 4.7
0 -7 7 75.29 3.3
0 -7 -7 80.69 4.1
0 -7 7 85.29 5.4
0 7 -7 76.09 3.6
0 7 -7 76.99 5.5
0 7 7 79.09 4.2
0 7 7 73.79 7.7
-1 -7 -7 4.3 1.7
1 -7 7 7.6 2.5
1 -7 7 7 1.4
-1 -7 -7 6.5 1.6
-1 7 -7 5.9 1.4
1 7 7 4.7 1.5
-1 7 -7 2.4 2.1
1 7 7 6.9 3
2 -7 7 0.8 1.2
2 -7 7 -0.3 1.4
-2 7 -7 4.4 3.2
-2 7 -7 1.9 1.1
3 -7 7 4.5 1.8
3 -7 7 2.9 2.1
-3 7 -7 1.6 1.2
-3 7 -7 5.1 3.8
3 -8 -7 11 2.7
3 -8 -7 8.6 2.1
-3 8 7 8.8 3.3
-3 8 7 10.4 2.7
2 -8 -7 1.2 1.5
2 -8 -7 6.8 2
-2 8 7 4.8 2.1
-2 8 7 7.5 2.9
1 -8 -7 13.9 2.5
1 -8 -7 15.7 2.9
-1 8 7 11.2 3.5
-1 8 7 17.5 2.8
0 -8 -7 1.8 1.6
0 -8 -7 2.4 1.5
0 8 7 0.1 2
0 8 7 4.8 1.8
-1 -8 -7 72.19 4.7
-1 -8 -7 68.39 4.2
1 -8 7 65.99 3.6
1 -8 7 46.4 5
-1 8 -7 58.29 6.5
1 8 7 64.39 4.1
1 8 7 62.59 8
2 -8 7 0.8 1.7
2 -8 7 3.7 1.6
-2 8 -7 5 3.6
1 -9 -7 21.4 3.5
1 -9 -7 24.1 3.1
-1 9 7 18.4 3.2
-1 9 7 27.9 5
0 -9 -7 14.9 2.7
0 -9 -7 13.7 3
0 9 7 8.7 3.6
0 9 7 10 2.6
2 0 -8 30.1 2.6
-2 0 8 32.6 4.5
-2 0 8 33.2 2.1
2 0 -8 28.7 2
-1 0 8 0.5 1.8
-1 0 8 2.9 0.8
1 0 -8 3.3 1
1 0 -8 2.8 1.1
0 0 8 798.42 23.4
0 0 -8 790.32 17.8
0 0 -8 784.32 19
0 0 8 786.22 17.6
1 0 8 328.17 13.5
-1 0 -8 324.77 8.8
1 0 8 335.07 8.6
-1 0 -8 323.07 10.2
-2 0 -8 16.2 2.6
2 0 8 12 1.6
2 0 8 10.5 3.3
-2 0 -8 15.8 1.9
3 0 8 1.1 0.9
-3 0 -8 0.6 1.5
3 0 8 0 2.1
-3 0 -8 1.2 0.8
-4 0 -8 26.1 3.8
4 0 8 34 2.6
4 0 8 26.2 4.7
-4 0 -8 33.6 2.6
3 -1 -8 25.7 2.5
3 -1 -8 23.3 2.2
-3 1 8 24.7 1.9
-3 1 8 23.1 4
2 -1 -8 88.69 3.8
2 -1 -8 92.19 3.9
-2 -1 8 90.59 3.4
-2 -1 8 78.49 6
2 1 -8 89.79 3.4
2 1 -8 93.79 3.9
-2 1 8 89.49 3.6
-2 1 8 86.49 6.1
-1 -1 8 66.19 5.6
1 -1 -8 78.59 3.7
-1 -1 8 69.59 3
1 -1 -8 70.09 3.4
-1 1 8 70.99 3.1
1 1 -8 67.89 3
1 1 -8 71.39 3.8
-1 1 8 73.69 6
0 -1 -8 131.79 4.9
0 -1 -8 144.09 5.5
0 -1 8 132.69 8.1
0 -1 8 140.29 4.6
0 1 -8 138.09 5.9
0 1 8 141.29 4.7
0 1 -8 142.09 4.7
0 1 8 135.49 8.3
1 -1 8 168.98 9.3
1 -1 8 191.28 5.8
-1 -1 -8 183.78 6.9
-1 -1 -8 186.78 6
-1 1 -8 189.88 5.8
-1 1 -8 192.48 7.5
1 1 8 179.38 10
1 1 8 190.18 5.8
2 -1 8 45.3 2.7
2 -1 8 34.8 5
-2 -1 -8 43.2 2.7
-2 -1 -8 43.8 4
-2 1 -8 43.5 4.4
-2 1 -8 46.5 2.6
2 1 8 38.9 5.8
2 1 8 44.1 2.7
3 -1 8 28.5 4.7
-3 -1 -8 21.4 3.1
3 -1 8 22 2.2
-3 -1 -8 22.2 2.3
-3 1 -8 20.8 3.2
3 1 8 22.7 4.6
-3 1 -8 20 2.1
3 1 8 19.3 2.1
4 -1 8 8.6 1.7
4 -1 8 6.3 2.9
-4 -1 -8 10 2.4
-4 -1 -8 9.3 1.6
-4 1 -8 8.2 2.7
4 1 8 3.2 2.6
-4 1 -8 10.2 1.8
4 1 8 10.3 1.8
5 -1 8 3.8 2.6
-5 1 -8 4.9 1.6
3 -2 -8 97.89 4.3
3 -2 -8 90.39 3.8
-3 2 8 88.49 6.1
-3 2 8 95.79 3.9
2 -2 -8 24.7 2.6
2 -2 -8 27.1 2.4
-2 -2 8 29.6 1.8
-2 -2 8 32.6 4.2
2 2 -8 26.2 1.7
2 2 -8 31.8 2.8
-2 2 8 27.1 2.1
-2 2 8 24.9 3.9
-1 -2 8 83.29 3.2
-1 -2 8 85.59 5.9
1 -2 -8 77.09 3.8
1 -2 -8 88.09 3.9
-1 2 8 83.89 3.5
1 2 -8 78.39 4.2
-1 2 8 73.59 6
1 2 -8 79.99 3.1
0 -2 8 268.87 7.2
0 -2 -8 269.47 8.1
0 -2 -8 264.57 7.9
0 -2 8 247.48 10.8
0 2 -8 261.17 7.1
0 2 -8 258.77 8.9
0 2 8 232.18 11.1
-1 -2 -8 287.87 8.8
-1 -2 -8 284.37 8.4
1 -2 8 262.27 11.5
1 -2 8 296.17 7.7
-1 2 -8 288.87 7.8
-1 2 -8 284.77 9.9
1 2 8 263.37 12.4
1 2 8 288.27 7.9
-2 -2 -8 11.2 2.1
2 -2 8 9 1.4
-2 -2 -8 9.6 1.6
2 -2 8 11.9 3.1
2 2 8 5.1 3
2 2 8 8.4 1.5
-2 2 -8 10.7 2.5
-2 2 -8 7.7 1.5
-3 -2 -8 67.19 4.3
3 -2 8 68.29 3.3
-3 -2 -8 70.69 3.5
3 2 8 61.59 3.3
-3 2 -8 69.09 3.5
3 2 8 59.69 7.4
-3 2 -8 69.59 5.3
4 -2 8 18.6 2.2
4 -2 8 10.8 3.3
-4 2 -8 19.9 2.3
-4 2 -8 21.2 4
4 2 8 27.6 5.7
5 -2 8 11.3 2.2
5 -2 8 12.3 3.5
-5 2 -8 12.6 4
-5 2 -8 9.6 1.8
4 -3 -8 32.1 2.3
4 -3 -8 29.7 3.2
-4 3 8 30.3 2.7
-4 3 8 30.9 4.6
3 -3 -8 9.2 1.5
3 -3 -8 9.2 1.8
-3 3 8 11.5 1.8
-3 3 8 14.5 3.4
2 -3 -8 23.6 2.7
2 -3 -8 18.5 2.1
-2 3 8 19.4 2.2
-2 3 8 16.3 3.3
-1 -3 8 64.09 2.8
-1 -3 8 63.79 5
1 -3 -8 63.49 3.4
1 -3 -8 66.59 3.7
-1 3 8 60.09 3.1
1 3 -8 64.79 2.8
1 3 -8 64.39 4
-1 3 8 68.89 6.9
0 -3 8 44.1 2.3
0 -3 -8 41.3 2.8
0 -3 -8 39.7 2.9
0 -3 8 40.9 4.9
0 3 -8 43.2 2.3
0 3 8 43.4 2.6
0 3 8 41.2 5.7
0 3 -8 46.9 4.4
-1 -3 -8 14.4 2
1 -3 8 13.6 1.6
1 -3 8 16.2 3.4
-1 -3 -8 15.5 2.1
-1 3 -8 13.9 2.7
1 3 8 13.5 1.8
1 3 8 17 4
-1 3 -8 10.6 1.5
2 -3 8 49.1 2.7
-2 -3 -8 45.6 2.9
-2 -3 -8 39.1 3.1
2 -3 8 42.9 5.2
2 3 8 40.5 2.7
-2 3 -8 38.4 4.5
-2 3 -8 41.4 2.6
2 3 8 41.7 6.3
-3 -3 -8 6 1.7
3 -3 8 3.4 2.1
3 -3 8 6.7 1.4
-3 -3 -8 9.2 1.7
3 3 8 9.8 3.9
-3 3 -8 7 2.4
-3 3 -8 9.3 1.6
3 3 8 6 1.4
4 -3 8 11 3.2
4 -3 8 10.7 1.9
-4 3 -8 12.7 3.9
-4 3 -8 11.8 1.9
4 -4 -8 103.79 4.4
4 -4 -8 99.59 5.1
-4 4 8 98.59 4.5
-4 4 8 94.89 6.7
3 -4 -8 34.4 3.5
3 -4 -8 34.4 2.6
-3 4 8 35.4 2.7
-3 4 8 36.5 4.9
2 -4 -8 77.79 3.7
2 -4 -8 74.99 4.3
-2 4 8 74.49 3.7
-2 4 8 69.19 5.8
1 -4 -8 7.7 1.6
1 -4 -8 6.8 1.6
-1 -4 8 7.9 1.2
-1 -4 8 8.1 2.3
1 4 -8 7.2 1.1
-1 4 8 7.5 1.5
-1 4 8 6.5 2.7
1 4 -8 8.3 2.1
0 -4 -8 82.79 4.1
0 -4 -8 90.09 4.5
0 -4 8 85.39 5.8
0 -4 8 82.79 3.4
0 4 -8 89.09 3.6
0 4 8 78.39 6.6
0 4 -8 90.49 5.3
0 4 8 86.89 3.9
-1 -4 -8 18 2.3
1 -4 8 20.9 3.8
1 -4 8 26.8 2
-1 -4 -8 19.2 2.4
-1 4 -8 18.5 3.2
1 4 8 26 4.7
1 4 8 21.9 2.3
-1 4 -8 21.8 2.1
2 -4 8 4.8 2.3
-2 -4 -8 5.5 1.5
-2 -4 -8 6.6 1.7
2 -4 8 3.8 1.1
-2 4 -8 6 1.4
2 4 8 4.2 2.9
2 4 8 4.8 1.3
-2 4 -8 3.9 2.2
-3 -4 -8 48 3.4
-3 -4 -8 45.9 3
3 -4 8 43.7 2.9
3 -4 8 38.9 5.2
3 4 8 32.2 5.9
-3 4 -8 43.2 2.9
-3 4 -8 38.7 5.1
3 4 8 39.1 2.8
4 -4 8 1.6 2
4 -4 8 6.6 1.9
-4 4 -8 3.4 3.8
-4 4 -8 7 1.7
4 -5 -8 29 2.8
4 -5 -8 23.8 3.3
-4 5 8 22.4 4.1
-4 5 8 24.5 2.9
3 -5 -8 2 1.4
3 -5 -8 0.7 1.1
-3 5 8 1.8 2
-3 5 8 1.7 1.1
2 -5 -8 95.79 4.4
2 -5 -8 86.99 4.9
-2 5 8 92.19 4.4
-2 5 8 85.89 6.6
1 -5 -8 40.6 2.9
1 -5 -8 41.2 3.3
-1 -5 8 35.8 2.1
-1 5 8 40.3 2.8
-1 5 8 40.3 5.6
1 5 -8 31.5 4.1
0 -5 8 33.1 2.1
0 -5 8 27.1 3.9
0 -5 -8 31.1 3.2
0 -5 -8 34.2 3.1
0 5 -8 32.2 4.1
0 5 -8 33.7 2.2
0 5 8 32.9 2.6
0 5 8 29.8 4.7
1 -5 8 1.1 1.7
-1 -5 -8 2 1.2
1 -5 8 1.8 0.9
-1 -5 -8 3.1 1.4
1 5 8 4.2 1.3
-1 5 -8 1.6 0.9
1 5 8 5.1 2.8
-1 5 -8 0.8 1.7
2 -5 8 6.9 1.5
2 -5 8 8.3 2.8
-2 -5 -8 7 1.7
-2 -5 -8 7.2 1.8
2 5 8 5.3 3
-2 5 -8 6.7 1.4
-2 5 -8 5.4 2.5
2 5 8 6.6 1.6
3 -5 8 6.5 2.5
3 -5 8 6.5 1.5
-3 5 -8 7.4 3.3
-3 5 -8 8.3 1.8
4 -5 8 13.6 2.5
4 -5 8 9.7 3.1
-4 5 -8 9.9 1.9
-4 5 -8 12.9 4.9
4 -6 -8 9 2.4
4 -6 -8 12.7 2.3
-4 6 8 14.5 2.7
-4 6 8 11.2 3.3
3 -6 -8 69.39 4.8
3 -6 -8 72.79 4.1
-3 6 8 58.99 6.4
-3 6 8 80.19 4.6
2 -6 -8 46.9 3.8
2 -6 -8 43.1 3.2
-2 6 8 40.6 5.6
-2 6 8 35.9 3.4
1 -6 -8 1.2 1.1
1 -6 -8 3.6 1.6
-1 6 8 1.7 1.2
-1 6 8 2.1 2.3
0 -6 -8 9.1 2.1
0 -6 8 12.3 2.8
0 -6 8 8.6 1.4
0 -6 -8 10.9 2
0 6 -8 8.9 1.5
0 6 8 9.6 1.9
0 6 -8 9.2 2.6
0 6 8 2.5 2.5
-1 -6 -8 17.7 2.4
-1 -6 -8 18.5 2.9
1 -6 8 12 1.8
1 -6 8 10.7 2.7
-1 6 -8 16.4 3.5
1 6 8 15.9 4.2
-1 6 -8 14.4 2
1 6 8 14.8 2.2
2 -6 8 3.7 1.3
-2 -6 -8 5.3 1.7
2 -6 8 8.4 2.7
-2 -6 -8 3.4 1.5
-2 6 -8 5 3.1
2 6 8 6.9 1.6
-2 6 -8 3.6 1.2
2 6 8 4.9 3.3
3 -6 8 16.8 3.5
3 -6 8 28.1 3
-3 6 -8 20.8 5.1
-3 6 -8 23.2 2.7
-4 7 8 16.2 4.3
3 -7 -8 26.9 3.6
3 -7 -8 26.4 3.2
-3 7 8 27.8 5
-3 7 8 21.3 3.4
2 -7 -8 23.1 3.5
2 -7 -8 20.6 2.8
-2 7 8 23 4.6
-2 7 8 17 2.8
1 -7 -8 1.6 1.5
1 -7 -8 2.3 1.6
-1 7 8 2.1 1.7
-1 7 8 1.8 2.3
0 -7 -8 47.7 3.7
0 -7 8 41 4.5
0 -7 8 47.6 2.7
0 -7 -8 47 4
0 7 8 39.7 5.9
0 7 -8 43.5 5.2
0 7 -8 47.4 3
0 7 8 47.6 3.6
1 -7 8 5.9 2.3
1 -7 8 6.2 1.6
-1 -7 -8 8.6 2
-1 -7 -8 5.5 1.8
1 7 8 7.4 2
-1 7 -8 6 1.6
1 7 8 1.6 2.7
-1 7 -8 4 2.8
2 -7 8 4.5 2.1
2 -7 8 4.4 1.7
-2 7 -8 3.7 3.6
-2 7 -8 4 1.5
2 -8 -8 12.4 2.5
2 -8 -8 11.1 2.7
-2 8 8 9.7 3.4
-2 8 8 12.9 2.9
1 -8 -8 13.5 2.9
1 -8 -8 22.7 3.1
-1 8 8 13.7 3.8
-1 8 8 16.8 3
0 -8 -8 1.4 1.5
0 -8 -8 2.2 2
0 8 8 0.8 1.9
0 8 8 2.8 2.8
1 -8 8 4.6 1.7
-1 -8 -8 3.9 1.9
-1 -8 -8 2.4 1.9
1 -8 8 1.5 1.8
-1 8 -8 0.7 3.1
1 8 8 3.1 3.2
1 8 8 4.3 2
-2 0 9 37.6 5.4
2 0 -9 39.7 2.8
2 0 -9 41.6 2.6
-2 0 9 42.5 2.5
1 0 -9 47.4 2.7
1 0 -9 47.5 3.2
-1 0 9 45.1 5.8
-1 0 9 47.2 2.6
0 0 9 9.7 1.5
0 0 -9 3.9 1.5
0 0 9 9.3 3.3
0 0 -9 8.3 1.5
-1 0 -9 66.99 3.4
1 0 9 70.39 3.4
-1 0 -9 69.89 4.4
1 0 9 57.59 6.8
-2 0 -9 41.2 2.7
2 0 9 42.4 6.3
2 0 9 47.8 2.8
-2 0 -9 45.5 4.5
-3 0 -9 1.2 1.6
-3 0 -9 -0.3 0.8
3 0 9 -0.9 0.8
3 0 9 -2.6 1.9
4 0 9 4.1 1.5
-4 0 -9 0.6 1
4 0 9 1.4 2.4
-4 0 -9 2.7 2.6
3 -1 -9 8.6 1.5
3 -1 -9 12.4 1.9
-3 1 9 10.7 1.6
-3 1 9 8 3
2 -1 -9 87.49 4
2 -1 -9 84.99 4
-2 -1 9 75.59 6.4
-2 -1 9 87.69 3.6
2 1 -9 93.69 4.2
2 1 -9 92.79 3.6
-2 1 9 90.29 3.8
-2 1 9 78.99 6.6
1 -1 -9 16.5 2.1
1 -1 -9 16.9 2.2
-1 -1 9 12.4 1.6
-1 -1 9 19.4 4.1
-1 1 9 15.7 1.8
1 1 -9 18.5 2
-1 1 9 12.1 3.5
1 1 -9 15.8 2.4
0 -1 9 3.8 1
0 -1 9 1 2.3
0 -1 -9 4.8 1.3
0 -1 -9 4.9 1.4
0 1 9 7 3.1
0 1 -9 4.3 1.1
0 1 -9 3.6 1.6
0 1 9 3.5 1
-1 -1 -9 61.89 3.3
1 -1 9 60.19 6.8
-1 -1 -9 66.49 4.1
1 -1 9 56.09 3
-1 1 -9 62.39 3.1
1 1 9 60.29 3.2
-1 1 -9 52.09 4.1
1 1 9 44 6.2
-2 -1 -9 6.5 1.9
2 -1 9 6.4 1.4
2 -1 9 6.3 2.9
-2 -1 -9 7.6 1.5
-2 1 -9 12.1 1.7
-2 1 -9 9.2 2.3
2 1 9 13 4
2 1 9 7.8 1.5
3 -1 9 14.7 2.1
3 -1 9 13.7 3.9
-3 -1 -9 15.1 2
-3 -1 -9 14.7 2.7
-3 1 -9 14.4 1.9
-3 1 -9 14.9 3.2
3 1 9 8.4 3.5
3 1 9 12.5 1.9
-4 -1 -9 28 4.1
4 -1 9 36 3.3
-4 -1 -9 34.5 2.7
4 -1 9 33.7 5.7
-4 1 -9 32.2 2.7
-4 1 -9 27.7 4.7
4 1 9 35.3 3.2
4 1 9 34.6 5.8
3 -2 -9 42 2.7
3 -2 -9 47.5 3.1
-3 2 9 41.6 5.5
-3 2 9 43.5 2.8
-2 -2 9 23.2 4.9
-2 -2 9 30 2
2 -2 -9 30.7 2.8
2 -2 -9 26.6 2.7
-2 2 9 34.3 5.3
2 2 -9 27.4 1.9
-2 2 9 26 2.4
2 2 -9 30.5 2.9
-1 -2 9 1 1.9
1 -2 -9 0.5 1
1 -2 -9 0.5 0.9
-1 -2 9 0 0.6
-1 2 9 -0.4 0.6
-1 2 9 -2.6 1.6
1 2 -9 -0.7 1
1 2 -9 0.8 0.7
0 -2 9 6 1.2
0 -2 -9 5 1.3
0 -2 -9 10.8 1.9
0 -2 9 5.7 2.7
0 2 -9 6.3 1.2
0 2 9 3.5 2.7
0 2 9 7.8 1.5
0 2 -9 3.5 1.7
1 -2 9 64.99 3.2
-1 -2 -9 58.89 3.4
1 -2 9 51.29 6.1
-1 -2 -9 57.89 3.8
-1 2 -9 57.19 3
1 2 9 60.79 7.5
-1 2 -9 60.29 4.6
1 2 9 62.89 3.3
-2 -2 -9 58.09 3.3
2 -2 9 44.2 5.6
2 -2 9 65.59 3.4
-2 -2 -9 58.29 4
2 2 9 53.69 7.6
-2 2 -9 55.99 3.1
2 2 9 62.79 3.4
-2 2 -9 53.19 5.3
-3 -2 -9 19.9 2.3
3 -2 9 15.8 2.1
3 -2 9 14.7 3.7
-3 -2 -9 18.6 2.8
-3 2 -9 13 3.2
3 2 9 18.6 2.2
3 2 9 19.3 4.8
-3 2 -9 18.1 2.3
4 -2 9 13.4 2.3
4 -2 9 21.5 4.6
-4 -2 -9 10.3 2.1
-4 2 -9 9 3.6
-4 2 -9 9 1.7
4 2 9 17.4 4.6
3 -3 -9 7.1 1.5
3 -3 -9 7.5 1.7
-3 3 9 11.1 3.1
-3 3 9 7.7 1.5
2 -3 -9 14.6 2
2 -3 -9 11.9 2.1
-2 3 9 16.5 2.1
-2 3 9 12.9 3.5
-1 -3 9 54.19 5.7
-1 -3 9 70.19 3.1
1 -3 -9 61.79 3.8
1 -3 -9 68.89 3.7
1 3 -9 66.59 3
-1 3 9 65.29 7.5
1 3 -9 65.19 4.3
-1 3 9 71.99 3.6
0 -3 9 17.1 3.6
0 -3 -9 13.4 2
0 -3 -9 15.7 2.2
0 -3 9 17.7 2
0 3 -9 22.4 3.2
0 3 9 15.3 2
0 3 -9 14.3 1.8
0 3 9 27.8 4.9
1 -3 9 55.99 6.2
-1 -3 -9 61.99 3.8
1 -3 9 70.39 3.3
-1 -3 -9 65.09 3.7
1 3 9 60.99 7.7
-1 3 -9 61.39 4.8
-1 3 -9 63.29 3.2
1 3 9 65.19 3.4
2 -3 9 8 1.4
2 -3 9 7.8 2.7
-2 -3 -9 9.5 2.1
-2 -3 -9 7.7 1.6
2 3 9 11.8 1.9
2 3 9 6.5 3.6
-2 3 -9 12.2 1.8
-2 3 -9 6.3 2.3
3 -3 9 5.7 2.7
3 -3 9 7.9 1.6
-3 -3 -9 7.7 2.1
-3 -3 -9 10.9 1.9
-3 3 -9 6.9 2.8
3 3 9 8.3 1.7
-3 3 -9 9.9 1.8
3 3 9 5.1 3.4
4 -3 9 5.7 2.8
4 -3 9 5.5 1.9
-4 3 -9 4.5 4
-4 3 -9 4.9 1.5
4 -4 -9 6.6 2
4 -4 -9 6.6 1.5
-4 4 9 6.3 3.1
-4 4 9 7.2 1.8
3 -4 -9 19.8 2.4
3 -4 -9 24 3.1
-3 4 9 16.2 2.2
-3 4 9 16.8 3.9
2 -4 -9 54.29 3.8
2 -4 -9 58.49 3.4
-2 4 9 56.59 3.4
-2 4 9 51.79 6.5
1 -4 -9 54.49 3.3
1 -4 -9 47.5 3.5
-1 -4 9 48.9 2.6
-1 -4 9 51.39 5.3
1 4 -9 43.4 4.2
-1 4 9 48.5 3.1
1 4 -9 49.4 2.6
-1 4 9 43.2 5.8
0 -4 9 4.2 2.2
0 -4 -9 4.3 1.3
0 -4 -9 5.4 1.6
0 -4 9 4 1.1
0 4 9 5.5 3.1
0 4 -9 2.3 0.9
0 4 9 5.3 1.3
0 4 -9 3.5 2
1 -4 9 29 4.7
1 -4 9 27.4 2.5
-1 -4 -9 23.5 2.8
-1 -4 -9 27 3
1 4 9 20.6 2.4
-1 4 -9 18.8 3.3
-1 4 -9 22.5 2.2
1 4 9 20.6 4.8
2 -4 9 24.7 2.5
-2 -4 -9 30.8 3.3
2 -4 9 17 3.7
-2 -4 -9 24.2 2.8
2 4 9 28 2.9
-2 4 -9 28.3 2.7
2 4 9 22 5.3
-2 4 -9 23.3 4
-3 -4 -9 1.7 1.6
3 -4 9 0.1 1.4
-3 -4 -9 2.1 1.1
3 -4 9 -0.5 1.8
3 4 9 1 1.2
3 4 9 7.5 4
-3 4 -9 2.9 3.3
-3 4 -9 -0.5 0.8
4 -4 9 21.4 4
4 -4 9 28.4 3.2
-4 4 -9 26.1 2.9
-4 4 -9 26.9 5.5
4 -5 -9 61.79 3.8
4 -5 -9 53.79 4.2
-4 5 9 47.7 6.2
3 -5 -9 94.39 5.4
3 -5 -9 91.99 4.5
-3 5 9 91.39 7.3
2 -5 -9 28.2 2.9
2 -5 -9 26.9 3.3
-2 5 9 31.1 3.2
-2 5 9 25.2 4.7
1 -5 -9 70.69 3.9
1 -5 -9 58.59 4.1
-1 5 9 55.39 7
-1 5 9 70.19 3.8
0 -5 9 13.8 3.2
0 -5 9 13.4 1.8
0 -5 -9 10.5 2
0 -5 -9 12.9 2.3
0 5 9 17.2 2.3
0 5 -9 11.5 1.7
0 5 9 13.2 4
0 5 -9 14.4 2.9
1 -5 9 8.2 2.7
-1 -5 -9 12.9 2.2
1 -5 9 14.3 1.9
-1 -5 -9 9.5 2
1 5 9 14.1 2.1
1 5 9 9.4 3.7
-1 5 -9 15 2.1
-1 5 -9 7.9 2.6
2 -5 9 14.9 2.2
-2 -5 -9 14.5 2.6
-2 -5 -9 14.1 2.3
2 -5 9 9.2 2.8
2 5 9 9.9 4
2 5 9 17 2.4
-2 5 -9 14.9 2.1
-2 5 -9 6.1 3.1
3 -5 9 5.9 2.6
3 -5 9 7.2 2.1
-3 5 -9 5.1 1.5
-3 5 -9 4.4 3.9
4 -6 -9 0.9 1.7
4 -6 -9 0.7 1.5
-4 6 9 -0.4 1.9
-4 6 9 1.9 2.6
3 -6 -9 6 2.1
3 -6 -9 9.4 2.2
-3 6 9 4.9 2.1
2 -6 -9 56.99 3.9
2 -6 -9 53.89 4.3
-2 6 9 55.59 7
-2 6 9 57.49 4.1
1 -6 -9 3.2 1.7
1 -6 -9 4 1.8
-1 6 9 5.9 1.9
-1 6 9 0 2.3
0 -6 9 28.2 4.2
0 -6 -9 26.9 3.1
0 -6 9 25.8 2.4
0 -6 -9 24 3.4
0 6 -9 27.7 2.6
0 6 9 25.4 5.4
0 6 9 28.5 3.1
0 6 -9 31.1 4.3
1 -6 9 4.3 2.4
1 -6 9 5.2 1.5
-1 -6 -9 5.1 1.9
-1 -6 -9 6.3 1.9
1 6 9 2.9 3.1
1 6 9 4.7 1.7
-1 6 -9 5.3 2.8
-1 6 -9 5.1 1.4
2 -6 9 6.8 2.8
-2 -6 -9 8.7 2.2
-2 -6 -9 7.6 1.9
2 -6 9 6.8 1.8
2 6 9 7.4 2
-2 6 -9 0.5 3.4
2 6 9 3.5 3.1
-2 6 -9 3.7 1.4
3 -7 -9 28.5 3.7
3 -7 -9 29.4 3.5
-3 7 9 26.9 3.7
-3 7 9 33.4 6
2 -7 -9 5.5 2.1
2 -7 -9 5.1 2.1
-2 7 9 4.2 2.2
-2 7 9 5.1 3
1 -7 -9 19.8 2.8
1 -7 -9 14.8 2.9
-1 7 9 26 5.4
-1 7 9 20.5 3
0 -7 -9 2.6 1.7
0 -7 -9 0.2 1.8
0 7 9 0.8 1.8
0 7 9 0.8 2.7
-1 -7 -9 44.7 4.2
1 -7 9 32.4 4.5
-1 -7 -9 40.1 4.4
1 -7 9 40 3.4
-1 7 -9 55.39 6.9
1 7 9 39.4 7.1
-1 7 -9 41.6 3.1
1 7 9 41.7 4
-2 0 10 41.7 2.6
2 0 -10 39.7 2.9
-2 0 10 33.9 5.4
2 0 -10 41.4 2.7
1 0 -10 51.39 3.5
1 0 -10 51.89 3
-1 0 10 52.19 2.9
-1 0 10 39.5 5.8
0 0 10 100.09 8.4
0 0 10 117.09 4.6
0 0 -10 116.59 5.6
0 0 -10 125.79 4.8
-1 0 -10 59.29 3.3
1 0 10 57.89 3.3
-1 0 -10 59.09 4.3
1 0 10 43.5 6.6
2 0 10 12.8 3.8
-2 0 -10 6.1 2.2
-2 0 -10 11.3 1.8
2 0 10 13.3 2
3 0 10 23.9 2.8
-3 0 -10 24.8 2.7
-3 0 -10 16 3.3
3 0 10 21.3 4.9
4 0 10 36.5 6.1
-4 0 -10 32 4.9
4 0 10 32.9 3.4
-4 0 -10 31.7 3.1
3 -1 -10 12.4 1.9
3 -1 -10 8.4 1.6
-3 1 10 6 3.1
-3 1 10 11.8 1.7
2 -1 -10 3.4 1.3
2 -1 -10 4.9 1.4
-2 -1 10 5.9 2.8
-2 -1 10 4.1 1.2
2 1 -10 4.8 1.2
-2 1 10 4.7 2.9
-2 1 10 5 1.3
2 1 -10 4.7 1.5
1 -1 -10 47.6 3.3
1 -1 -10 46.2 3.1
-1 -1 10 40.6 5.9
-1 -1 10 43.7 2.7
-1 1 10 50.09 2.9
1 1 -10 49 2.8
-1 1 10 40.7 6.3
1 1 -10 46.5 3.5
0 -1 10 32.7 2.4
0 -1 10 31.9 5.2
0 -1 -10 32.8 3.4
0 -1 -10 31.3 3
0 1 10 32.4 2.5
0 1 -10 43.4 4.2
0 1 10 17.6 4.6
0 1 -10 35.6 2.5
-1 -1 -10 27.1 2.7
1 -1 10 29 2.6
-1 -1 -10 24.9 3
1 -1 10 25.7 5.2
1 1 10 30.7 2.4
-1 1 -10 24.7 2.4
1 1 10 18.2 4.5
-1 1 -10 33.9 4.1
2 -1 10 5.2 3.3
2 -1 10 10.4 1.8
-2 -1 -10 9 1.7
-2 -1 -10 5 1.8
2 1 10 7.3 3.5
-2 1 -10 5.8 2.2
-2 1 -10 7.6 1.6
2 1 10 8.1 1.6
-3 -1 -10 15.5 2.2
3 -1 10 13.8 2.3
3 -1 10 15.8 4.4
-3 -1 -10 11.5 3
3 1 10 16.8 5.1
3 1 10 13.4 2.2
-3 1 -10 13.6 2
-3 1 -10 12.3 3.4
4 -1 10 8.4 2.2
-4 -1 -10 3.6 1.3
4 -1 10 4.2 3.1
-4 -1 -10 4.1 2.8
4 1 10 3.5 1.8
-4 1 -10 3.6 1.4
4 1 10 0.7 2.7
-4 1 -10 10.9 3.9
3 -2 -10 2.1 1.2
3 -2 -10 2 1.1
-3 2 10 1.9 1.1
-3 2 10 3.5 2.7
2 -2 -10 123.49 5.1
2 -2 -10 122.29 5.2
-2 2 10 102.99 8
-2 2 10 115.09 4.7
-1 -2 10 12.1 3.5
1 -2 -10 12.4 2.1
1 -2 -10 10.8 1.8
-1 -2 10 11.2 1.7
1 2 -10 13 1.7
1 2 -10 12 2.2
-1 2 10 8.2 3.5
-1 2 10 11.9 1.8
0 -2 -10 123.99 5.4
0 -2 10 114.29 4.5
0 -2 10 97.49 7.8
0 -2 -10 116.59 5.1
0 2 10 112.29 4.7
0 2 -10 118.39 4.5
0 2 -10 114.09 6
0 2 10 106.39 8.8
-1 -2 -10 12.7 2.3
-1 -2 -10 17.5 2.4
1 -2 10 18.5 2.2
1 -2 10 8.7 3.2
1 2 10 10.2 1.7
1 2 10 17 4.9
-1 2 -10 9.9 2.5
-1 2 -10 16.9 2.1
2 -2 10 11 2
2 -2 10 14 4
-2 -2 -10 6.2 2.1
-2 -2 -10 7.8 1.7
-2 2 -10 6 1.4
2 2 10 7.7 1.7
2 2 10 5.3 3.6
-2 2 -10 7 2.7
3 -2 10 2.5 1.5
-3 -2 -10 3.5 2.2
-3 -2 -10 3.9 1.4
3 -2 10 -0.9 1.9
3 2 10 0.3 1.4
-3 2 -10 1.9 2.7
-3 2 -10 3.9 1.3
3 2 10 3.5 3.1
3 -3 -10 6 1.9
3 -3 -10 6.5 1.6
-3 3 10 3.4 2.7
-3 3 10 6.7 1.6
2 -3 -10 12.3 2
2 -3 -10 8.8 2
-2 3 10 12.2 1.9
-2 3 10 9.1 3.4
-1 -3 10 59.99 3.1
-1 -3 10 58.49 6.6
1 -3 -10 62.09 3.9
1 -3 -10 63.19 3.8
1 3 -10 55.59 4.1
-1 3 10 65.89 3.6
1 3 -10 62.09 3.1
-1 3 10 56.69 7.4
0 -3 10 19.8 4.2
0 -3 -10 16.8 2.4
0 -3 -10 26.2 3
0 -3 10 20.6 2.2
0 3 -10 23 3.4
0 3 -10 19.5 2.1
0 3 10 15.5 4.3
0 3 10 27 2.8
1 -3 10 23.3 2.4
-1 -3 -10 20.9 2.7
-1 -3 -10 25.8 3.1
1 -3 10 15 3.7
1 3 10 13 4.3
1 3 10 20.7 2.5
-1 3 -10 19.8 2.2
-1 3 -10 19.5 3.5
-2 -3 -10 5.1 2
2 -3 10 1.6 2.1
-2 -3 -10 3.9 1.4
2 -3 10 3.9 1.5
-2 3 -10 4.2 1.4
2 3 10 3.6 1.5
2 3 10 1.7 3.3
-2 3 -10 4.3 2.5
3 -3 10 3.1 2.5
3 -3 10 3.3 1.8
-3 -3 -10 2.3 1.3
-3 -3 -10 4.7 2.3
3 3 10 4.1 1.8
3 3 10 4.7 3.4
-3 3 -10 3.2 1.4
-3 3 -10 2.2 3.5
4 -4 -10 25.5 2.8
4 -4 -10 24.4 3.3
-4 4 10 25.1 5.3
-4 4 10 24.8 3.1
3 -4 -10 21.1 3
3 -4 -10 22.7 2.8
-3 4 10 20.5 4.5
-3 4 10 21.2 2.8
2 -4 -10 22.6 2.7
2 -4 -10 18.2 2.8
-2 4 10 8.2 3.4
-2 4 10 16.1 2.3
1 -4 -10 19.4 2.9
1 -4 -10 19.8 2.6
-1 -4 10 16.1 1.9
-1 -4 10 22 3.9
-1 4 10 20.6 4.8
-1 4 10 19.5 2.5
1 4 -10 20.4 3.1
1 4 -10 20.6 2.1
0 -4 10 100.89 7.3
0 -4 10 109.19 4.6
0 -4 -10 115.89 5.4
0 -4 -10 115.49 5.5
0 4 -10 121.49 6.7
0 4 10 118.59 5.1
0 4 -10 116.89 4.6
0 4 10 103.99 10.3
-1 -4 -10 18.7 2.7
-1 -4 -10 18.5 2.8
1 -4 10 22.9 2.4
1 -4 10 22.1 4.3
-1 4 -10 19.2 2.3
1 4 10 22.2 2.6
-1 4 -10 21 3.9
1 4 10 12.5 4.3
2 -4 10 22.9 4.6
-2 -4 -10 15.9 2.4
-2 -4 -10 24.6 3.4
2 -4 10 19.8 2.6
-2 4 -10 20.4 2.5
2 4 10 10.2 4.2
2 4 10 21.3 2.8
-2 4 -10 23.6 4.8
3 -4 10 25.3 3
-3 -4 -10 26 3.7
-3 -4 -10 20.1 2.6
3 -4 10 22.1 4.6
-3 4 -10 26 5.7
3 4 10 23.4 3
-3 4 -10 23.8 2.7
3 4 10 22.5 5.7
4 -5 -10 5.8 2.1
4 -5 -10 5.2 2.1
-4 5 10 2.9 2
-4 5 10 4.2 2.8
3 -5 -10 14.2 2.8
3 -5 -10 15.5 2.5
-3 5 10 7.2 3.5
-3 5 10 12.6 2.6
2 -5 -10 8 2
2 -5 -10 9.5 2.2
-2 5 10 7 2.1
-2 5 10 7.4 3.3
1 -5 -10 4.4 1.8
1 -5 -10 7 2.2
-1 5 10 5.2 1.9
-1 5 10 3.3 3.1
0 -5 -10 13 2.5
0 -5 10 12 3.3
0 -5 -10 12.1 2.5
0 -5 10 14.7 2
0 5 10 9.6 3.7
0 5 -10 10.1 1.6
0 5 10 14 2.4
0 5 -10 11.2 2.8
1 -5 10 80.89 7.7
1 -5 10 72.49 3.9
-1 -5 -10 64.99 4.6
-1 -5 -10 64.69 4.3
1 5 10 60.69 8.3
1 5 10 73.69 4.4
-1 5 -10 55.69 6
-1 5 -10 66.69 3.7
-2 -5 -10 24.4 3.1
2 -5 10 21 4.3
-2 -5 -10 25 3.5
2 -5 10 22.5 2.8
2 5 10 25.6 6.4
-2 5 -10 22.1 2.6
2 5 10 19.5 2.9
-2 5 -10 23.4 5.2
3 -6 -10 8.1 2.4
3 -6 -10 7.5 2.3
-3 6 10 5.5 3.3
-3 6 10 10.2 2.6
2 -6 -10 13.1 2.6
2 -6 -10 12.8 2.6
-2 6 10 17.4 4.7
-2 6 10 16.2 2.9
1 -6 -10 18.9 2.9
1 -6 -10 17.5 3
-1 6 10 17.2 4.7
-1 6 10 20.4 3.1
0 -6 10 65.39 6.6
0 -6 -10 59.79 4.4
0 -6 -10 57.39 4.5
0 -6 10 59.09 3.5
0 6 10 51.79 7.6
0 6 -10 61.99 6.3
0 6 10 57.39 4.2
0 6 -10 60.09 3.4
-1 -6 -10 17.4 2.9
1 -6 10 20.1 4.1
1 -6 10 20.3 2.7
-1 -6 -10 20.2 3
1 6 10 13.4 4.6
-1 6 -10 18.7 4.5
1 6 10 20.4 3
-1 6 -10 22.3 2.6
1 -7 -10 2.3 2.1
1 -7 -10 3.8 2
-1 7 10 6.2 3.5
-1 7 10 5.3 2.4
0 -7 -10 14.8 2.9
0 -7 -10 12.9 2.8
0 7 10 12.1 4.4
0 7 10 12.8 2.9
-2 0 11 24.2 2.5
2 0 -11 28.5 2.7
-2 0 11 23.8 5.2
2 0 -11 25.8 2.9
1 0 -11 11.6 2.3
-1 0 11 7.6 1.6
-1 0 11 5.5 3.2
1 0 -11 10.7 1.7
0 0 -11 0.2 1.3
0 0 11 1.2 2.7
0 0 11 0.7 1
0 0 -11 0.1 0.9
-1 0 -11 1.9 1.2
-1 0 -11 4 1.9
1 0 11 1.1 2.9
1 0 11 2.6 1.3
2 0 11 53.49 3.8
-2 0 -11 54.69 3.5
-2 0 -11 61.09 5.9
2 0 11 42.3 6.8
3 0 11 0.1 1.6
3 0 11 4.9 3.3
-3 0 -11 0.1 1
-3 0 -11 -1.6 2.5
-2 -1 11 6 1.5
2 -1 -11 8.5 1.8
2 -1 -11 7.4 1.8
-2 -1 11 4.6 3
-2 1 11 8.5 3.7
2 1 -11 10.8 1.8
-2 1 11 8.8 1.7
2 1 -11 8.1 1.9
1 -1 -11 48.1 3.2
1 -1 -11 52.89 3.7
-1 -1 11 37.8 6
-1 -1 11 50.19 3.1
1 1 -11 56.69 4
-1 1 11 52.89 3.3
1 1 -11 49.9 3.1
-1 1 11 41.8 6.5
0 -1 11 56.69 7.5
0 -1 11 51.59 3.2
0 -1 -11 52.39 3.3
0 -1 -11 49.1 3.7
0 1 11 61.49 3.5
0 1 11 35.9 6.3
0 1 -11 57.29 3.3
0 1 -11 53.69 4.9
-1 -1 -11 19.5 2.4
-1 -1 -11 23.3 3.4
1 -1 11 21.1 2.5
1 -1 11 20.2 5.2
-1 1 -11 20.8 2.4
1 1 11 20.1 2.5
-1 1 -11 13.3 2.8
1 1 11 14.7 4.5
-2 -1 -11 6.5 2.6
-2 -1 -11 10.1 1.9
2 -1 11 9 3.7
2 -1 11 8.2 1.9
2 1 11 10.6 4.1
-2 1 -11 5.9 2.7
2 1 11 7.5 2.1
-2 1 -11 9.1 1.7
3 -1 11 28.5 3.4
-3 -1 -11 26.9 3
-3 -1 -11 16.4 3.7
3 -1 11 24.8 5.2
-3 1 -11 21.2 4.5
3 1 11 24 3.1
3 1 11 23.2 5.7
-3 1 -11 31.3 3.2
3 -2 -11 18.1 2.5
3 -2 -11 14.1 2.2
-3 2 11 16.8 4.6
-3 2 11 14 2.2
2 -2 -11 4.7 1.6
2 -2 -11 4.9 1.5
-2 2 11 4.1 1.4
-2 2 11 5.1 3.2
1 -2 -11 17.6 2.5
-1 -2 11 9.8 3.5
-1 -2 11 18.8 2.2
1 -2 -11 16.4 2.5
1 2 -11 17.2 2.8
-1 2 11 18.1 2.3
1 2 -11 17.6 2.1
-1 2 11 14.3 4.3
0 -2 -11 22.3 2.7
0 -2 11 23.1 2.5
0 -2 -11 14.4 2.4
0 -2 11 29.1 5.5
0 2 -11 23.3 2.4
0 2 -11 21 3.3
0 2 11 28.3 2.9
0 2 11 24.6 5.8
1 -2 11 14.7 2.2
-1 -2 -11 15.6 2.9
-1 -2 -11 12.4 2.1
1 -2 11 13.2 3.8
-1 2 -11 12.3 1.9
1 2 11 14 4.5
-1 2 -11 14.8 3.3
1 2 11 16.4 2.5
2 -2 11 2 2.3
2 -2 11 6.6 2.1
-2 -2 -11 5.5 2.3
-2 -2 -11 6.8 1.7
-2 2 -11 8.3 1.8
-2 2 -11 9 3.5
2 2 11 6.4 1.9
2 2 11 6 3.9
3 -2 11 0.4 2.4
-3 -2 -11 6.2 1.6
3 -2 11 5.2 2.1
-3 -2 -11 6.5 3
-3 2 -11 10.6 4
3 2 11 5.9 3.4
-3 2 -11 5.5 1.7
3 2 11 6.4 2.2
3 -3 -11 3.7 1.6
3 -3 -11 5.1 1.9
-3 3 11 6.7 1.8
-3 3 11 4.1 3.3
2 -3 -11 13.7 2.3
2 -3 -11 10.4 2.3
-2 3 11 15.6 2.5
-2 3 11 11.2 4.1
-1 -3 11 12.2 3.6
-1 -3 11 12.3 1.9
1 -3 -11 11.2 2.2
1 -3 -11 9.9 2
1 3 -11 8.9 2.3
1 3 -11 8.5 1.5
-1 3 11 8.8 2
-1 3 11 4.7 3.3
0 -3 11 28.7 2.8
0 -3 -11 21.6 2.9
0 -3 11 31.6 5.5
0 -3 -11 22.9 2.9
0 3 -11 26.6 3.8
0 3 11 18.5 5.4
0 3 -11 26.4 2.6
0 3 11 21.3 2.6
1 -3 11 5.4 2.8
1 -3 11 10.2 2.1
-1 -3 -11 10.7 2.2
-1 -3 -11 7.2 2.2
-1 3 -11 8.3 3.1
-1 3 -11 11.7 1.9
1 3 11 6.6 1.8
1 3 11 11.2 4.6
-2 -3 -11 11.3 2.9
2 -3 11 9.5 2.2
2 -3 11 4.8 3
-2 -3 -11 7.3 1.8
-2 3 -11 11.4 3.9
-2 3 -11 8.7 1.8
2 3 11 9.2 2.3
2 3 11 15.4 5.3
3 -4 -11 21.9 3.3
3 -4 -11 16.9 2.7
-3 4 11 20.1 3
-3 4 11 10.4 3.9
2 -4 -11 10 2.3
2 -4 -11 13.3 2.5
-2 4 11 5.3 2
-2 4 11 10.1 4.1
1 -4 -11 21.6 3.1
1 -4 -11 17.7 2.8
-1 4 11 11.6 4.6
-1 4 11 20 2.9
0 -4 11 41.3 3.1
0 -4 -11 42.2 4.1
0 -4 11 43.9 5.9
0 -4 -11 44.2 3.7
0 4 -11 44.2 2.9
0 4 -11 49.2 5.4
0 4 11 35.5 6.7
0 4 11 42.9 3.8
1 -4 11 11.2 3.5
-1 -4 -11 15.4 2.6
-1 -4 -11 19.4 3.3
1 -4 11 18.9 2.6
-1 4 -11 15.5 3.8
-1 4 -11 17.2 2.3
1 4 11 17.7 2.8
1 4 11 7.8 4.2
2 -4 11 8.7 3.3
2 -4 11 8 2.2
-2 -4 -11 8.9 2
-2 -4 -11 14.7 3.2
2 4 11 8.4 4.4
-2 4 -11 9.6 1.9
-2 4 -11 9.7 4
2 4 11 11.5 2.6
3 -5 -11 12.9 2.5
3 -5 -11 13.7 2.9
-3 5 11 4.8 3.3
-3 5 11 11.2 2.8
2 -5 -11 73.19 4.8
2 -5 -11 81.69 5.2
-2 5 11 75.19 9.6
-2 5 11 80.89 5.1
1 -5 -11 9.6 2.3
1 -5 -11 8.4 2.4
-1 5 11 9.7 2.4
-1 5 11 10.1 4.2
0 -5 11 5.7 2.8
0 -5 -11 4.3 1.8
0 -5 -11 6 2.4
0 -5 11 5.8 1.8
0 5 11 4.7 2.1
0 5 11 3.6 3.6
0 5 -11 6.7 2.9
0 5 -11 6.6 1.5
-1 -5 -11 1.4 1.4
-1 -5 -11 2.5 2.2
1 -5 11 -0.3 1.5
1 -5 11 4.9 2.8
-1 5 -11 1 1.1
-1 5 -11 -1.7 3
1 5 11 -0.8 1.7
1 5 11 6.4 4.1
1 -6 -11 10.4 2.6
1 -6 -11 13.7 2.9
-1 6 11 5.2 3.7
-1 6 11 10.1 2.5
0 -6 -11 28.6 3.9
0 -6 -11 30.7 3.7
0 -6 11 29 3.2
0 6 -11 19.3 4.1
0 6 11 27.3 6.6
0 6 11 23.4 3.5
2 0 -12 13.4 2.3
-2 0 12 10 4.1
-2 0 12 11.8 2.1
2 0 -12 15.2 2.2
1 0 -12 99.99 5.5
-1 0 12 112.59 5.1
-1 0 12 94.89 10
1 0 -12 100.39 4.7
0 0 12 2.8 3.3
0 0 -12 1.2 1.9
0 0 -12 1.3 1.1
0 0 12 2.1 1.5
-1 0 -12 4.5 2.7
1 0 12 4.5 3.5
-1 0 -12 5.5 1.6
1 0 12 4.1 1.9
2 0 12 1.7 1.8
-2 0 -12 1.3 1.2
-2 0 -12 3.6 2.9
2 0 12 2.3 3.3
2 -1 -12 28 3
2 -1 -12 23.4 3
-2 -1 12 36.9 3.5
-2 1 12 25.2 5.8
2 1 -12 34.3 4
-2 1 12 28.6 3.1
1 -1 -12 20.7 2.6
1 -1 -12 23.1 3.2
-1 -1 12 20.3 2.6
-1 -1 12 14.5 4.4
-1 1 12 23.1 2.9
1 1 -12 23.4 3.4
1 1 -12 22.5 2.5
-1 1 12 14.6 4.9
0 -1 -12 38.9 4.2
0 -1 12 44.9 3.4
0 -1 -12 42.1 3.2
0 -1 12 35.3 6.4
0 1 -12 37.3 2.9
0 1 -12 47.7 4.8
0 1 12 46.1 4
0 1 12 25.5 5.8
-1 -1 -12 3.1 2.2
1 -1 12 7.2 3.8
-1 -1 -12 4.7 1.6
1 -1 12 5.4 2
-1 1 -12 6.4 3.1
1 1 12 3.9 3.6
1 1 12 5.6 2
-1 1 -12 4.8 1.4
-2 -1 -12 5 1.6
-2 -1 -12 7.1 3
2 -1 12 2.4 2.7
2 -1 12 5.7 2.3
-2 1 -12 5.2 3.3
-2 1 -12 5.6 1.6
2 1 12 5.4 2.2
2 1 12 4.4 3.6
3 -2 -12 30.2 3.3
3 -2 -12 23.8 3
-3 2 12 28.7 3.3
-3 2 12 23.3 5.6
2 -2 -12 4.3 1.8
2 -2 -12 5.8 1.7
-2 2 12 5.1 2
-2 2 12 3.6 3.1
1 -2 -12 32.4 3.7
1 -2 -12 20.2 2.7
-1 -2 12 17 4.4
-1 -2 12 27.7 3
-1 2 12 24.1 3
1 2 -12 29.2 3.7
1 2 -12 25.4 2.7
-1 2 12 42.2 7.4
0 -2 -12 28.1 3.5
0 -2 -12 31.2 3.5
0 -2 12 26.6 3
0 -2 12 26.2 5.6
0 2 -12 27.7 2.8
0 2 -12 28.4 3.9
0 2 12 32.9 6.9
0 2 12 27.9 3.3
-1 -2 -12 -0.4 1
1 -2 12 1.5 2.8
1 -2 12 -0.8 1.6
-1 -2 -12 -1.8 1.9
-1 2 -12 0.3 2.8
1 2 12 0 3.1
1 2 12 0.6 1.7
-1 2 -12 0.1 1
2 -2 12 4.5 3.1
2 -2 12 5.7 2.2
-2 -2 -12 5.2 2.8
-2 -2 -12 5.3 1.8
-2 2 -12 2.6 3
-2 2 -12 6.8 1.7
2 2 12 6 2.3
2 2 12 8.5 4.6
3 -3 -12 45.3 3.7
3 -3 -12 48.6 4.2
-3 3 12 34.2 6.3
-3 3 12 54.49 4.2
2 -3 -12 9.2 2.3
2 -3 -12 8.7 2
-2 3 12 14.7 2.7
-2 3 12 7.8 3.9
1 -3 -12 3.3 1.6
-1 -3 12 7.3 1.8
1 -3 -12 3.8 2.2
-1 -3 12 8.8 3.3
-1 3 12 4.7 3.5
-1 3 12 4.6 1.9
1 3 -12 2.9 2.1
1 3 -12 3.8 1.2
0 -3 -12 21.1 2.9
0 -3 12 19.6 4.9
0 -3 -12 21.1 3.2
0 -3 12 28.1 3.1
0 3 12 18.5 2.8
0 3 -12 21.9 2.4
0 3 12 28.8 6.3
0 3 -12 19.5 3.7
1 -3 12 -0.4 1.7
-1 -3 -12 0.3 1.2
-1 -3 -12 0.1 2.2
1 -3 12 -0.8 2.2
-1 3 -12 0.7 3
1 3 12 4.2 3.7
1 3 12 0.5 1.9
-1 3 -12 0.5 1
2 -4 -12 2.4 1.6
2 -4 -12 2.5 2
-2 4 12 1 2
-2 4 12 1.7 3.4
1 -4 -12 -1.1 1.1
1 -4 -12 -1.3 1.8
-1 4 12 -0.5 1.7
-1 4 12 -0.4 3
0 -4 12 3.2 2.6
0 -4 -12 0.1 2.1
0 -4 12 1.1 1.8
0 -4 -12 2 1.5
0 4 -12 4 2.9
0 4 -12 1.4 1
0 4 12 1.1 1.9
0 4 12 0.2 3.1
1 -4 12 5.1 2.2
1 -4 12 -0.5 2.6
-1 -4 -12 2 1.6
-1 -4 -12 1.1 2.3
-1 4 -12 4.2 3.5
1 4 12 2.4 3.9
-1 4 -12 2.7 1.4
1 4 12 2.1 2.1
2 0 -13 1.4 1.8
-2 0 13 0.4 1.6
-2 0 13 6.6 3.6
2 0 -13 1.9 1.2
-1 0 13 52.09 4.4
1 0 -13 56.49 5.1
-1 0 13 38 6.6
1 0 -13 50.99 3.5
0 0 -13 87.19 6.2
0 0 13 97.29 5.3
0 0 13 88.39 10.3
0 0 -13 102.29 4.9
1 0 13 -1.1 3.4
-1 0 -13 -2.5 2.3
-1 0 -13 0.9 1.3
1 0 13 -0.4 1.8
2 -1 -13 58.19 4.5
2 -1 -13 32.8 3.3
-2 1 13 38.6 3.8
-2 1 13 41.6 7.4
1 -1 -13 8.9 1.9
-1 -1 13 6 2
-1 -1 13 4.8 3.4
1 -1 -13 10.5 2.7
1 1 -13 9.3 2.9
-1 1 13 7.9 2.3
1 1 -13 7.8 1.7
-1 1 13 2.2 3.4
0 -1 -13 22.1 3.6
0 -1 13 24 5.8
0 -1 13 25.2 3.2
0 -1 -13 24.8 2.9
0 1 -13 24.5 4
0 1 13 26.8 6.4
0 1 13 27.2 3.5
0 1 -13 28.8 2.9
2 -2 -13 23.4 2.9
2 -2 -13 23.2 3.4
-2 2 13 27.1 6.5
-2 2 13 23.1 3.4
-1 -2 13 10.3 4
-1 -2 13 12.3 2.5
1 -2 -13 7.1 2.6
1 -2 -13 10.2 2.1
-1 2 13 9.9 2.5
1 2 -13 12.5 2
-1 2 13 4 4
1 2 -13 9.7 2.9
0 -2 -13 91.79 6
0 -2 13 79.89 9.3
0 -2 13 92.39 5.2
0 -2 -13 87.69 4.9
0 2 -13 89.19 6.6
0 2 13 71.09 10.1
0 2 13 88.19 5.3
0 2 -13 91.89 4.6
-1 3 13 10 5.1
loop_
_geom_angle_atom_site_label_1
_geom_angle_atom_site_label_2
_geom_angle_atom_site_label_3
_geom_angle
_geom_angle_site_symmetry_1
_geom_angle_site_symmetry_3
_geom_angle_publ_flag
H1B N1 H1A 110.0(14) . . ?
H1C N1 H1A 110.9(14) . . ?
H1C N1 H1B 109.8(13) . . ?
C2 N1 H1A 108.4(9) . . ?
C2 N1 H1B 109.5(10) . . ?
C2 N1 H1C 108.1(10) . . ?
C6 N3 H3 125.5(11) . . ?
C5 N3 H3 127.1(11) . . ?
C5 N3 C6 107.15(9) . . ?
C5 N2 C4 105.42(9) . . ?
O1 C1 O2 126.19(10) . . ?
C2 C1 O2 116.66(8) . . ?
C2 C1 O1 117.08(11) . . ?
C6 C4 N2 109.39(9) . . ?
C3 C4 N2 121.02(9) . . ?
C3 C4 C6 129.58(11) . . ?
C4 C6 N3 106.12(11) . . ?
H6 C6 N3 121.2(8) . . ?
H6 C6 C4 132.7(8) . . ?
C1 C2 N1 109.93(8) . . ?
H2 C2 N1 107.5(7) . . ?
H2 C2 C1 108.3(7) . . ?
C3 C2 N1 110.38(9) . . ?
C3 C2 C1 109.68(8) . . ?
C3 C2 H2 111.0(7) . . ?
N2 C5 N3 111.92(11) . . ?
H5 C5 N3 122.8(8) . . ?
H5 C5 N2 125.3(8) . . ?
C2 C3 C4 113.12(8) . . ?
H3A C3 C4 112.2(10) . . ?
H3A C3 C2 107.4(9) . . ?
H3B C3 C4 108.0(8) . . ?
H3B C3 C2 109.3(11) . . ?
H3B C3 H3A 106.5(17) . . ?
loop_
_geom_bond_atom_site_label_1
_geom_bond_atom_site_label_2
_geom_bond_distance
_geom_bond_site_symmetry_2
_geom_bond_publ_flag
O2 C1 1.2529(14) . ?
O1 C1 1.2461(12) . ?
N1 H1A 1.018(16) . ?
N1 H1B 0.988(16) . ?
N1 H1C 0.988(16) . ?
N1 C2 1.4896(14) . ?
N3 H3 1.010(14) . ?
N3 C6 1.3759(15) . ?
N3 C5 1.3455(16) . ?
N2 C4 1.3833(14) . ?
N2 C5 1.3224(13) . ?
C1 C2 1.5433(13) . ?
C4 C6 1.3695(13) . ?
C4 C3 1.5026(13) . ?
C6 H6 1.076(16) . ?
C2 H2 1.098(12) . ?
C2 C3 1.5366(14) . ?
C5 H5 1.103(18) . ?
C3 H3A 1.089(17) . ?
C3 H3B 1.090(17) . ?
loop_
_geom_torsion_atom_site_label_1
_geom_torsion_atom_site_label_2
_geom_torsion_atom_site_label_3
_geom_torsion_atom_site_label_4
_geom_torsion
_geom_torsion_site_symmetry_1
_geom_torsion_site_symmetry_2
_geom_torsion_site_symmetry_3
_geom_torsion_site_symmetry_4
_geom_torsion_publ_flag
C5 N2 C4 C3 178.65(10) . . . . ?
C6 N3 C5 N2 0.12(15) . . . . ?
O1 C1 C2 C3 93.59(12) . . . . ?
N1 C2 C3 C4 -58.25(13) . . . . ?
C2 C3 C4 C6 -127.85(13) . . . . ?
H1A N1 C2 C1 164.3(9) . . . . ?
H1B N1 C2 C1 44.4(10) . . . . ?
H1C N1 C2 C1 -75.2(10) . . . . ?
C4 N2 C5 H5 179.8(14) . . . . ?
H3 N3 C5 H5 6(2) . . . . ?
H3 N3 C6 H6 -4.2(19) . . . . ?
C5 N2 C4 C6 -0.12(13) . . . . ?
C5 N3 C6 C4 -0.19(14) . . . . ?
O2 C1 C2 N1 154.78(9) . . . . ?
C1 C2 C3 C4 -179.51(10) . . . . ?
N2 C4 C6 N3 0.19(13) . . . . ?
H1A N1 C2 C3 43.2(9) . . . . ?
H1B N1 C2 C3 -76.7(10) . . . . ?
H1C N1 C2 C3 163.7(10) . . . . ?
C6 N3 C5 H5 -179.7(13) . . . . ?
C5 N3 C6 H6 -179.1(13) . . . . ?
O1 C1 C2 H2 -145.1(7) . . . . ?
C4 N2 C5 N3 0.00(14) . . . . ?
O1 C1 C2 N1 -27.95(13) . . . . ?
O2 C1 C2 C3 -83.69(12) . . . . ?
C2 C3 C4 N2 53.66(15) . . . . ?
C3 C4 C6 N3 -178.44(11) . . . . ?
H1A N1 C2 H2 -78.1(11) . . . . ?
H1B N1 C2 H2 162.1(12) . . . . ?
H1C N1 C2 H2 42.4(12) . . . . ?
H3 N3 C5 N2 -174.7(15) . . . . ?
H3 N3 C6 C4 174.7(14) . . . . ?
O2 C1 C2 H2 37.6(7) . . . . ?
N1 C2 C3 H3A 66.2(11) . . . . ?
C1 C2 C3 H3B 60.1(10) . . . . ?
H2 C2 C3 H3B -59.5(12) . . . . ?
H3B C3 C4 N2 174.9(12) . . . . ?
C3 C4 C6 H6 0.3(15) . . . . ?
N1 C2 C3 H3B -178.7(10) . . . . ?
H2 C2 C3 C4 60.9(7) . . . . ?
H3A C3 C4 N2 -68.0(10) . . . . ?
H3B C3 C4 C6 -6.6(12) . . . . ?
C1 C2 C3 H3A -55.1(11) . . . . ?
H2 C2 C3 H3A -174.7(12) . . . . ?
H3A C3 C4 C6 110.5(10) . . . . ?
N2 C4 C6 H6 179.0(15) . . . . ?

_cod_database_fobs_code 2108884
