#------------------------------------------------------------------------------
#$Date: 2019-09-25 16:35:28 +0300 (Wed, 25 Sep 2019) $
#$Revision: 218858 $
#$URL: file:///home/coder/svn-repositories/cod/cif/2/10/84/2108490.cif $
#------------------------------------------------------------------------------
#
# This file is available in the Crystallography Open Database (COD),
# http://www.crystallography.net/. The original data for this entry
# were provided by IUCr Journals, http://journals.iucr.org/.
#
# The file may be used within the scientific community so long as
# proper attribution is given to the journal article from which the
# data were obtained.
#
data_2108490
loop_
_publ_author_name
'Shishkina, Svitlana V.'
'Konovalova, Irina S.'
'Kovalenko, Sergiy M.'
'Trostianko, Pavlo V.'
'Geleverya, Anna O.'
'Nikolayeva, Lyudmila L.'
'Bunyatyan, Natalya D.'
_publ_section_title
;
 Influence of <i>ortho</i>-substituent on the molecular and crystal
 structures of 2-(<i>N</i>-arylimino)coumarin-3-carboxamide: isotypic and
 polymorphic structures
;
_journal_coeditor_code           XK5058SUP1
_journal_issue                   5
_journal_name_full               'Acta Crystallographica Section B'
_journal_page_first
;
;
_journal_paper_doi               10.1107/S2052520619010485
_journal_volume                  75
_journal_year                    2019
_chemical_formula_sum            'C16 H12 N2 O2'
_chemical_formula_weight         264.28
_space_group_crystal_system      triclinic
_space_group_IT_number           2
_space_group_name_Hall           '-P 1'
_space_group_name_H-M_alt        'P -1'
_symmetry_space_group_name_Hall  '-P 1'
_symmetry_space_group_name_H-M   'P -1'
_atom_sites_solution_hydrogens   geom
_audit_creation_method           SHELXL-2016/6
_cell_angle_alpha                96.790(13)
_cell_angle_beta                 95.002(15)
_cell_angle_gamma                91.404(15)
_cell_formula_units_Z            2
_cell_length_a                   4.8281(10)
_cell_length_b                   8.5805(13)
_cell_length_c                   15.436(2)
_cell_measurement_reflns_used    524
_cell_measurement_temperature    293(2)
_cell_measurement_theta_max      23.400
_cell_measurement_theta_min      3.985
_cell_volume                     632.18(18)
_computing_structure_refinement  'SHELXL-2016/6 (Sheldrick, 2016)'
_computing_structure_solution    'SHELXT 2014/5 (Sheldrick, 2014)'
_diffrn_ambient_temperature      293(2)
_diffrn_detector_area_resol_mean 16.1827
_diffrn_measured_fraction_theta_full 0.998
_diffrn_measured_fraction_theta_max 0.998
_diffrn_measurement_device_type  'Xcalibur, Sapphire3'
_diffrn_measurement_method       '\w scans'
_diffrn_radiation_type           MoK\a
_diffrn_radiation_wavelength     0.71073
_diffrn_reflns_av_R_equivalents  0.0637
_diffrn_reflns_av_unetI/netI     0.0786
_diffrn_reflns_Laue_measured_fraction_full 0.998
_diffrn_reflns_Laue_measured_fraction_max 0.998
_diffrn_reflns_limit_h_max       5
_diffrn_reflns_limit_h_min       -5
_diffrn_reflns_limit_k_max       9
_diffrn_reflns_limit_k_min       -10
_diffrn_reflns_limit_l_max       17
_diffrn_reflns_limit_l_min       -18
_diffrn_reflns_number            4959
_diffrn_reflns_point_group_measured_fraction_full 0.998
_diffrn_reflns_point_group_measured_fraction_max 0.998
_diffrn_reflns_theta_full        25.000
_diffrn_reflns_theta_max         25.000
_diffrn_reflns_theta_min         3.362
_diffrn_source                   'Enhance (Mo) X-ray Source'
_exptl_absorpt_coefficient_mu    0.094
_exptl_absorpt_correction_T_max  1.00000
_exptl_absorpt_correction_T_min  0.25729
_exptl_absorpt_correction_type   multi-scan
_exptl_absorpt_process_details
;
CrysAlisPro 1.171.39.46 (Rigaku Oxford Diffraction, 2018)
Empirical absorption correction using spherical harmonics,
 implemented in SCALE3 ABSPACK scaling algorithm.
;
_exptl_crystal_colour            colorless
_exptl_crystal_density_diffrn    1.388
_exptl_crystal_description       stick
_exptl_crystal_F_000             276
_exptl_crystal_size_max          0.500
_exptl_crystal_size_mid          0.080
_exptl_crystal_size_min          0.030
_refine_diff_density_max         0.230
_refine_diff_density_min         -0.214
_refine_diff_density_rms         0.049
_refine_ls_extinction_coef       0.015(6)
_refine_ls_extinction_expression Fc^*^=kFc[1+0.001xFc^2^\l^3^/sin(2\q)]^-1/4^
_refine_ls_extinction_method     'SHELXL-2016/6 (Sheldrick 2016)'
_refine_ls_goodness_of_fit_ref   1.001
_refine_ls_hydrogen_treatment    constr
_refine_ls_matrix_type           full
_refine_ls_number_parameters     182
_refine_ls_number_reflns         2219
_refine_ls_number_restraints     0
_refine_ls_restrained_S_all      1.001
_refine_ls_R_factor_all          0.1206
_refine_ls_R_factor_gt           0.0679
_refine_ls_shift/su_max          0.000
_refine_ls_shift/su_mean         0.000
_refine_ls_structure_factor_coef Fsqd
_refine_ls_weighting_details
'w=1/[\s^2^(Fo^2^)+(0.0628P)^2^] where P=(Fo^2^+2Fc^2^)/3'
_refine_ls_weighting_scheme      calc
_refine_ls_wR_factor_gt          0.1545
_refine_ls_wR_factor_ref         0.1838
_reflns_Friedel_coverage         0.000
_reflns_number_gt                1143
_reflns_number_total             2219
_reflns_threshold_expression     'I > 2\s(I)'
_cod_data_source_file            xk5058sup1.cif
_cod_data_source_block           1h
_cod_original_cell_volume        632.16(19)
_cod_database_code               2108490
_shelx_shelxl_version_number     2016/6
_shelx_space_group_comment
;
The symmetry employed for this shelxl refinement is uniquely defined
by the following loop, which should always be used as a source of
symmetry information in preference to the above space-group names.
They are only intended as comments.
;
_shelx_estimated_absorpt_t_min   0.955
_shelx_estimated_absorpt_t_max   0.997
_shelx_res_file
;
TITL is7_a.res in P-1
    is7.res
    created by SHELXL-2016/6 at 17:05:05 on 09-Jul-2019
CELL 0.71073 4.8281 8.5805 15.4356 96.79 95.002 91.404
ZERR 2 0.001 0.0013 0.0024 0.013 0.015 0.015
LATT 1
SFAC C H N O
UNIT 32 24 4 4
L.S. 10
PLAN  20
acta
BOND $H
FMAP 2
list 4
OMIT 0 50
conf
size 0.5 0.08 0.03
temp 20
htab n2 n1
eqiv $1 2-x,1-y,1-z
htab n2 o2_$1
WGHT    0.062800
EXTI    0.015036
FVAR       1.07522
O1    4    0.275695    0.356163    0.761430    11.00000    0.06051    0.05856 =
         0.04613   -0.00191    0.01240   -0.01009
O2    4    0.742269    0.329827    0.499947    11.00000    0.07824    0.07801 =
         0.05203   -0.00832    0.01657   -0.00998
N1    3    0.584365    0.552475    0.747051    11.00000    0.06917    0.05601 =
         0.04474   -0.00660    0.01066   -0.01112
N2    3    0.878760    0.525479    0.606452    11.00000    0.07047    0.06653 =
         0.04986    0.00011    0.01613   -0.00873
AFIX  93
H2NA  2    1.001957    0.561643    0.576327    11.00000   -1.20000
H2NB  2    0.857303    0.570756    0.658067    11.00000   -1.20000
AFIX   0
C1    1    0.132552    0.217557    0.730259    11.00000    0.04645    0.04973 =
         0.05351    0.00820   -0.00121   -0.00094
C2    1   -0.053104    0.162299    0.782497    11.00000    0.06463    0.06044 =
         0.05618    0.00501    0.00731   -0.00468
AFIX  43
H2    2   -0.077785    0.217241    0.836765    11.00000   -1.20000
AFIX   0
C3    1   -0.203179    0.024224    0.753756    11.00000    0.06823    0.06286 =
         0.07886    0.01476    0.01431   -0.00417
AFIX  43
H3    2   -0.333835   -0.012776    0.787936    11.00000   -1.20000
AFIX   0
C4    1   -0.159288   -0.059326    0.673987    11.00000    0.06942    0.04982 =
         0.08387    0.00072    0.00613   -0.00404
AFIX  43
H4    2   -0.259551   -0.152828    0.654922    11.00000   -1.20000
AFIX   0
C5    1    0.031320   -0.004631    0.623121    11.00000    0.06523    0.05085 =
         0.05519   -0.00275    0.00389    0.00126
AFIX  43
H5    2    0.061921   -0.062342    0.570133    11.00000   -1.20000
AFIX   0
C6    1    0.179772    0.136518    0.649936    11.00000    0.04945    0.04392 =
         0.05101    0.00207    0.00121    0.00434
C7    1    0.377610    0.204182    0.600999    11.00000    0.05346    0.06014 =
         0.03935   -0.00243    0.00582    0.00492
AFIX  43
H7    2    0.411534    0.152205    0.546798    11.00000   -1.20000
AFIX   0
C8    1    0.516675    0.339574    0.629878    11.00000    0.05067    0.05126 =
         0.04148    0.00229    0.00665    0.00310
C9    1    0.463848    0.423271    0.714393    11.00000    0.04835    0.05219 =
         0.04618    0.00816    0.00618    0.00088
C10   1    0.722273    0.400216    0.573396    11.00000    0.05834    0.05425 =
         0.04948    0.00196    0.00306    0.00433
C11   1    0.523213    0.626999    0.830003    11.00000    0.06940    0.06324 =
         0.05027   -0.00110    0.01259   -0.01555
C12   1    0.327391    0.736823    0.836582    11.00000    0.10466    0.09600 =
         0.07189   -0.00729    0.01843    0.01530
AFIX  43
H12   2    0.219408    0.758001    0.786721    11.00000   -1.20000
AFIX   0
C13   1    0.287225    0.817757    0.917260    11.00000    0.15765    0.10061 =
         0.09563   -0.02107    0.06009    0.01049
AFIX  43
H13   2    0.152601    0.893387    0.920653    11.00000   -1.20000
AFIX   0
C14   1    0.437223    0.789894    0.990462    11.00000    0.15915    0.10029 =
         0.06917   -0.03623    0.05418   -0.05562
AFIX  43
H14   2    0.408325    0.844684    1.044413    11.00000   -1.20000
AFIX   0
C15   1    0.633053    0.679188    0.983682    11.00000    0.17414    0.15887 =
         0.05462   -0.02460   -0.01010   -0.00473
AFIX  43
H15   2    0.738461    0.657005    1.033813    11.00000   -1.20000
AFIX   0
C16   1    0.678063    0.598725    0.903018    11.00000    0.13040    0.12934 =
         0.06230   -0.01312   -0.00070    0.02506
AFIX  43
H16   2    0.815775    0.524934    0.899346    11.00000   -1.20000

AFIX   0
HKLF 4




REM  is7_a.res in P-1
REM R1 =  0.0679 for    1143 Fo > 4sig(Fo)  and  0.1206 for all    2219 data
REM    182 parameters refined using      0 restraints

END

WGHT      0.0822      0.0000

REM Highest difference peak  0.230,  deepest hole -0.214,  1-sigma level  0.049
Q1    1   0.7326  0.5974  0.7069  11.00000  0.05    0.23
Q2    1   1.0463  0.6083  0.5507  11.00000  0.05    0.23
Q3    1   0.9115  0.4706  0.5203  11.00000  0.05    0.19
Q4    1   0.5577  0.1943  0.4812  11.00000  0.05    0.18
Q5    1  -0.3974 -0.0470  0.8065  11.00000  0.05    0.16
Q6    1   1.0002  0.3755  0.9012  11.00000  0.05    0.16
Q7    1   0.4201  0.4014  0.7282  11.00000  0.05    0.16
Q8    1   0.8938  0.5742  0.8690  11.00000  0.05    0.15
Q9    1   0.5700  0.2520  0.5427  11.00000  0.05    0.15
Q10   1   0.4088  0.8279  0.7768  11.00000  0.05    0.15
Q11   1  -0.0090 -0.0058  0.6393  11.00000  0.05    0.14
Q12   1   0.4230  0.1219  0.5272  11.00000  0.05    0.14
Q13   1   0.1075  0.6848  0.8807  11.00000  0.05    0.14
Q14   1   1.0391  0.6861  0.6260  11.00000  0.05    0.14
Q15   1   0.5586  0.6892  0.7167  11.00000  0.05    0.13
Q16   1   0.4512  0.4239  0.4810  11.00000  0.05    0.13
Q17   1   0.2026  0.0663  0.6565  11.00000  0.05    0.13
Q18   1   0.2106 -0.0654  0.5116  11.00000  0.05    0.13
Q19   1   0.6365  0.4247  0.8825  11.00000  0.05    0.13
Q20   1   0.7788  0.6548  0.6654  11.00000  0.05    0.13
;
_shelx_res_checksum              10964
_shelx_hkl_file
;
   0   0  -3  513.05   20.43
   0   0   3  532.48   15.99
   0   0  -3  585.13   16.29
   0   0  -4  210.59   11.57
   0   0  -5  662.48   22.65
   0   0  -6  247.63   14.96
   0   0  -7  106.17   10.75
   0   0  -8 1161.29   37.69
   0   0  -9   95.74   11.54
   0   0 -10   11.49    4.31
   0   0 -11   14.47    4.57
   0   0 -12  237.47   21.16
   0   0 -13    7.65    4.47
   0   0 -14   -0.71    2.54
   0   0 -15   30.09    8.19
   0   0 -16    0.74    1.12
   0   0 -17    2.19    2.38
   0   0 -18    7.24    5.38
   0   0 -19    3.70    4.48
   0   0 -20    2.05    3.33
   0   0 -21   -1.90    4.03
   0   1 -21   -0.48    3.19
   0   1 -20   -1.56    1.53
   0   1 -19    1.87    4.34
   0   1 -18   -0.52    1.68
   0   1 -17   -0.51    2.22
   0   1 -16    1.51    2.96
   0   1 -15   15.37    5.90
   0   1 -14   29.41    7.76
   0   1 -13   94.24   13.27
   0   1 -12    5.84    3.64
   0   1 -11   -0.31    0.59
   0   1 -10   36.61    7.06
   0  -1   9   42.99    8.31
   0   1  -9   41.98    7.36
   0  -1   8   24.34    6.90
   0   1  -8   15.79    4.00
   0  -1   7   66.24    9.34
   0   1  -7   56.79    7.67
   0  -1   6   35.59    6.34
   0   1  -6   30.75    5.18
   0  -1   5  204.37   13.92
   0   1  -5  183.15   11.28
   0  -1   4    2.19    1.60
   0   1  -4   -1.97    1.37
   0  -1   3 1794.21   28.08
   0  -1   3 1987.65   33.87
   0   1  -3 1840.89   26.00
   0  -1   2 1943.52   22.61
   0  -1  -2 3677.12   37.27
   0   1   2 3683.97   43.38
   0   1   2 3382.51   35.83
   0  -1  -2 3385.97   36.75
   0  -1  -3   13.96    2.84
   0  -1  -3   11.73    2.48
   0   1   3    4.27    1.87
   0  -1  -4  450.97   17.63
   0  -1  -4  480.59   18.50
   0  -1  -5  263.76   15.13
   0  -1  -5  291.29   16.18
   0  -1  -6  551.94   23.99
   0  -1  -7 1289.77   39.52
   0  -1  -8  159.12   14.68
   0  -1  -9  283.34   20.95
   0  -1 -10   12.69    4.86
   0  -1 -11    0.10    1.43
   0  -1 -12   82.71   12.98
   0  -1 -13   63.20   11.68
   0  -1 -14   12.12    5.24
   0  -1 -15   15.76    6.35
   0  -1 -16   12.57    6.43
   0  -1 -17    5.64    4.60
   0  -1 -18    4.64    4.33
   0  -1 -19    1.77    1.84
   0  -1 -20    2.39    3.61
   0  -1 -21   11.30    7.88
   0   2 -21    0.74    3.05
   0   2 -20    4.27    4.21
   0   2 -19    1.62    3.08
   0   2 -18    5.59    3.26
   0   2 -17   10.22    5.55
   0   2 -16    1.46    1.52
   0   2 -15    2.86    3.14
   0   2 -14    3.67    2.79
   0   2 -13   19.17    6.18
   0  -2  12   27.01    7.48
   0   2 -12   17.86    5.34
   0   2 -11    4.02    1.36
   0   2 -11    2.05    1.61
   0  -2  11    7.36    4.51
   0   2 -10   -1.25    1.23
   0  -2  10   -0.52    2.01
   0   2  -9    0.93    0.16
   0  -2   9   -5.02    3.64
   0   2  -8    6.30    2.53
   0  -2   8    4.97    3.40
   0   2  -7   13.62    3.65
   0  -2   7    6.06    2.84
   0   2  -6  784.91   24.49
   0  -2   6  803.90   30.66
   0   2  -5   40.07    5.00
   0  -2   5   29.34    5.53
   0   2  -4   13.46    2.31
   0  -2   4    9.43    3.20
   0  -2   3  153.80    8.60
   0   2  -3  216.31    8.12
   0  -2   3  223.04   12.57
   0   2  -2 1519.85   17.21
   0  -2   2 1692.96   32.19
   0  -2   2 1433.66   25.99
   0  -2   1 1506.54   32.21
   0  -2   0   58.64    6.15
   0   2   0   68.93    6.69
   0   2   1  334.60    9.88
   0   2   1  300.45   12.54
   0   2   1  370.72   15.85
   0  -2  -1  357.72   14.14
   0  -2  -1  329.22   10.36
   0   2   2   51.16    4.88
   0   2   2   47.90    5.04
   0  -2  -2   52.24    4.85
   0   2   2   54.71    6.51
   0   2   3  149.26    8.54
   0  -2  -3  181.77   10.46
   0   2   3  180.76   12.84
   0   2   4  622.61   25.06
   0  -2  -4  667.88   24.11
   0  -2  -4  680.41   23.29
   0  -2  -5  226.23   14.88
   0   2   5  201.96   15.55
   0  -2  -5  194.40   13.71
   0  -2  -6  278.98   17.27
   0  -2  -6  280.63   18.02
   0   2   6  253.74   18.27
   0  -2  -7    1.61    2.28
   0   2   7    1.95    1.95
   0  -2  -7    1.80    1.30
   0  -2  -8    1.22    0.18
   0  -2  -8    0.62    1.09
   0  -2  -9   17.59    3.12
   0  -2  -9   22.94    6.28
   0  -2 -10   66.36   10.90
   0  -2 -10   64.11    6.62
   0   2  11   -0.13    0.65
   0  -2 -11    2.78    2.09
   0  -2 -11    0.25    1.43
   0  -2 -12    1.34    2.11
   0  -2 -13   40.12   10.01
   0  -2 -14   60.65   12.52
   0  -2 -15   -3.10    2.94
   0  -2 -16   18.31    7.67
   0  -2 -17   14.11    6.40
   0   2  17   30.14   12.92
   0   2  18   -3.29    5.24
   0  -2 -18   -1.55    0.40
   0   2  19    0.81    3.25
   0  -2 -19   -0.41    2.06
   0   2  20    1.53    3.57
   0  -2 -20    5.96    5.05
   0   3 -21   -0.53    1.71
   0   3 -20    2.15    1.47
   0   3 -19   -2.78    3.81
   0   3 -18    2.62    1.53
   0   3 -17    1.38    1.74
   0   3 -16  112.79   16.41
   0  -3  15  200.45   25.75
   0   3 -15  176.04   19.80
   0   3 -14    8.80    3.58
   0  -3  14    0.11    2.55
   0   3 -13   66.05   10.96
   0  -3  13   65.94   13.61
   0  -3  12   -0.14    1.03
   0   3 -12    2.51    2.37
   0   3 -11    1.42    1.36
   0  -3  11    0.69    2.58
   0   3 -10   70.91    9.72
   0  -3  10   65.33   11.58
   0   3  -9   27.24    5.52
   0  -3   9   27.89    7.15
   0   3  -8   87.34    9.46
   0  -3   8   93.10   12.18
   0  -3   7  216.88   17.31
   0   3  -7  225.46   14.04
   0  -3   6  180.42   15.08
   0   3  -6  186.82   11.60
   0   3  -5   47.12    5.18
   0  -3   5   50.63    7.61
   0   3  -4  269.90   10.55
   0  -3   4  280.00   17.24
   0  -3   3   71.69    6.83
   0  -3   3   96.13    9.67
   0   3  -3   88.79    4.94
   0  -3   2    2.18    0.85
   0   3  -2    2.26    0.64
   0  -3   1    2.75    2.94
   0  -3   1    4.06    1.83
   0  -3   0  106.76    8.85
   0   3   0   93.91    4.84
   0   3   0   97.66   10.11
   0   3   1  262.28   16.35
   0  -3  -1  245.28   13.90
   0   3   1  216.82    9.03
   0  -3  -2   33.22    5.17
   0   3   2   29.29    5.63
   0  -3  -2   28.45    3.92
   0  -3  -3  338.22   15.60
   0   3   3  350.35   20.20
   0  -3  -4   41.05    5.85
   0   3   4   51.71    8.19
   0   3   5    3.76    2.11
   0  -3  -5    0.56    0.85
   0  -3  -5    3.07    1.76
   0  -3  -6  273.10   18.39
   0  -3  -6  292.92   19.83
   0   3   6  294.15   21.18
   0  -3  -7    1.84    1.78
   0  -3  -7    3.17    1.96
   0   3   7    6.05    3.62
   0   3   8  102.35   13.75
   0  -3  -8   98.03   12.12
   0  -3  -8  115.21   13.58
   0  -3  -9   -0.13    2.39
   0   3   9    4.04    5.04
   0  -3  -9   -0.61    1.77
   0  -3 -10    1.88    1.90
   0  -3 -10   -0.82    1.77
   0   3  10    2.94    2.93
   0  -3 -11    5.14    4.27
   0   3  11    3.31    2.42
   0   3  12   29.71   10.18
   0  -3 -12   17.50    6.58
   0  -3 -13   26.72    8.36
   0   3  13   33.42   10.54
   0   3  14   -0.58    2.21
   0  -3 -14    9.52    4.83
   0  -3 -15   30.35   10.00
   0   3  15   28.23   11.91
   0  -3 -16    8.19    5.59
   0   3  16    5.32    3.97
   0  -3 -17    0.72    2.27
   0   3  17    4.87    5.95
   0   3  18    9.15    5.41
   0  -3 -18   -0.34    1.00
   0   3  19   -9.15    8.47
   0  -3 -19    5.10    5.60
   0   3  20    7.75    5.57
   0  -3 -20    6.58    6.30
   0   4 -21   -0.48    0.90
   0   4 -20   -0.54    1.12
   0   4 -19    4.43    4.63
   0   4 -18    1.62    2.66
   0   4 -17   37.07   10.26
   0  -4  17   30.67   11.42
   0   4 -16    7.50    5.03
   0  -4  16    1.30    3.84
   0  -4  15  113.76   18.88
   0   4 -15  102.98   15.59
   0  -4  14   85.42   15.73
   0   4 -14   84.68   13.40
   0  -4  13   -1.06    2.18
   0   4 -13    0.78    2.80
   0  -4  12   -3.70    4.12
   0   4 -12    2.13    2.20
   0  -4  11    8.73    5.23
   0   4 -11   15.28    4.86
   0   4 -10   33.52    6.83
   0  -4  10   23.88    7.11
   0  -4   9  301.45   23.55
   0   4  -9  321.02   19.84
   0   4  -8  169.41   13.28
   0  -4   8  139.38   15.29
   0  -4   7  491.14   28.13
   0   4  -7  528.83   21.54
   0  -4   6  134.62   14.42
   0   4  -6  142.63   10.12
   0  -4   5    1.30    2.54
   0   4  -5    1.23    0.75
   0  -4   4   15.56    3.33
   0   4  -4   20.81    2.88
   0  -4   4   22.98    5.54
   0   4  -3   24.29    2.50
   0   4  -3   19.94    2.30
   0  -4   3   23.26    5.79
   0  -4   2  150.29   14.28
   0  -4   2  132.72   12.16
   0   4  -2  120.71    4.83
   0   4  -1   11.50    1.59
   0  -4   1   16.42    4.13
   0  -4   1   12.33    4.74
   0  -4   0   92.74    9.84
   0   4   0   92.24   10.84
   0   4   0   86.88    5.20
   0   4   1    3.20    1.27
   0   4   1    3.67    1.94
   0  -4  -1    0.11    0.48
   0   4   2   81.92   10.67
   0  -4  -2   79.61    9.16
   0   4   3   97.97   11.89
   0  -4  -4    3.29    1.75
   0   4   4   -0.04    0.71
   0   4   5  160.27   16.44
   0  -4  -5  138.41   13.96
   0  -4  -5  160.93   13.54
   0  -4  -6   10.06    4.14
   0  -4  -6    4.89    3.13
   0   4   6    8.89    4.61
   0  -4  -7    8.11    3.86
   0   4   7   16.22    6.63
   0  -4  -7    8.79    4.38
   0   4   8    8.78    4.21
   0  -4  -8   10.06    4.22
   0  -4  -8   11.80    4.60
   0   4   9    2.46    3.46
   0  -4  -9    1.67    2.21
   0  -4  -9   -0.01    0.62
   0   4  10    2.83    2.96
   0  -4 -10   -0.69    0.48
   0  -4 -10    1.23    0.37
   0  -4 -11    4.60    3.16
   0   4  11    6.93    4.37
   0  -4 -11    2.79    2.77
   0  -4 -12    6.68    3.87
   0  -4 -12    7.62    4.83
   0   4  12    8.06    5.46
   0  -4 -13   28.51    9.13
   0   4  13   51.56   13.30
   0   4  14    3.15    3.88
   0  -4 -14   -0.96    3.31
   0   4  15    2.75    3.09
   0  -4 -15    6.20    4.42
   0   4  16    4.45    2.59
   0  -4 -16    0.02    2.55
   0   4  17   -2.83    5.87
   0  -4 -17    0.24    1.80
   0  -4 -18   -2.01    2.92
   0   4  18    0.68    3.70
   0  -4 -19    2.22    3.93
   0   4  19    1.16    4.37
   0   5 -21   -2.09    3.05
   0   5 -20   -1.47    2.66
   0   5 -19   -0.98    3.02
   0  -5  18    3.55    4.80
   0   5 -18   -1.04    0.52
   0  -5  17   -5.42    3.17
   0   5 -17    2.11    2.46
   0  -5  16   -1.64    1.24
   0   5 -16    5.25    3.30
   0  -5  15    8.13    4.98
   0   5 -15    4.94    3.61
   0   5 -14    4.50    2.94
   0  -5  14    9.03    4.29
   0  -5  13    4.25    5.04
   0   5 -13    2.43    2.59
   0   5 -12    3.82    2.45
   0  -5  12    5.76    4.07
   0  -5  11    1.24    1.44
   0   5 -11    2.11    1.87
   0  -5  10   27.35    7.91
   0   5 -10   19.58    5.22
   0   5  -9   27.53    5.84
   0  -5   9   29.25    9.14
   0  -5   8   91.26   13.92
   0   5  -8   92.41   10.03
   0   5  -7    5.79    2.07
   0  -5   7    1.41    1.81
   0  -5   6    7.47    3.71
   0   5  -6    5.45    1.93
   0   5  -5    2.37    1.30
   0  -5   5    2.93    3.69
   0   5  -5    1.15    0.82
   0   5  -4    0.12    0.31
   0   5  -4    1.33    1.46
   0  -5   4    1.36    2.29
   0  -5   3    4.80    3.39
   0  -5   3    0.39    1.85
   0   5  -3    1.86    0.94
   0  -5   2  444.77   26.11
   0  -5   2  495.51   29.73
   0   5  -1  454.49   13.38
   0  -5   1  598.73   33.51
   0   5  -1  507.75   10.75
   0  -5   1  520.79   27.20
   0  -5   0  545.64   27.36
   0   5   0  495.28   13.89
   0  -5   0  608.76   35.30
   0   5   0  524.89   29.46
   0  -5  -1  190.23   16.15
   0  -5  -1  170.21    7.23
   0   5   1  167.66    9.75
   0   5   1  195.14   17.93
   0   5   2    9.02    3.36
   0  -5  -2    7.05    2.86
   0   5   3   21.17    6.50
   0   5   4   28.15    7.18
   0   5   5   25.93    7.02
   0   5   6  578.49   35.39
   0  -5  -6  521.16   31.32
   0  -5  -6  462.80   25.01
   0  -5  -7  100.82   14.42
   0  -5  -7   87.44   11.26
   0   5   7  134.18   17.54
   0  -5  -8   36.54    8.74
   0  -5  -8   31.09    7.01
   0   5   8   46.52   10.68
   0  -5  -9   41.38    9.70
   0   5   9   40.69   10.04
   0  -5  -9   46.86    9.23
   0  -5 -10    3.93    2.39
   0  -5 -10    2.62    2.82
   0   5  10    5.98    4.87
   0  -5 -11   34.45    9.29
   0   5  11   40.27   10.95
   0  -5 -11   48.28   10.65
   0  -5 -12   15.26    5.68
   0  -5 -12   12.66    6.09
   0   5  12   24.03    7.99
   0  -5 -13    3.47    2.64
   0   5  13    1.88    2.07
   0  -5 -13    0.30    1.38
   0  -5 -14   -1.06    1.75
   0   5  14   10.10    6.22
   0  -5 -15    3.54    3.55
   0   5  15    0.03    4.30
   0  -5 -16    1.40    3.07
   0   5  16    3.80    3.95
   0  -5 -17    0.00    2.94
   0   5  17   -0.77    1.55
   0   5  18   -2.85    1.22
   0  -5 -18   -0.19    0.98
   0  -6  19    0.16    3.05
   0  -6  19   -7.40    7.20
   0  -6  18   -2.91    5.24
   0  -6  18    2.72    2.96
   0  -6  17    9.70    7.06
   0   6 -17    0.35    1.46
   0  -6  17    3.67    3.00
   0  -6  16    2.65    2.27
   0   6 -16    2.32    1.78
   0  -6  15   -7.90    6.18
   0   6 -15    0.70    1.44
   0   6 -14    0.60    2.15
   0  -6  14   -0.04    5.25
   0  -6  13    2.01    5.44
   0   6 -13   -1.97    2.60
   0  -6  12    7.40    4.52
   0   6 -12    2.49    2.41
   0   6 -11    0.91    0.55
   0  -6  11    3.84    3.06
   0   6 -10    2.52    2.55
   0  -6  10    2.19    3.12
   0   6  -9   14.34    4.44
   0  -6   9   15.27    6.66
   0   6  -8   14.34    3.66
   0  -6   8   26.52    8.03
   0   6  -8   16.07    4.25
   0   6  -7    0.25    0.37
   0   6  -7   -0.01    0.45
   0  -6   7   -1.84    1.78
   0  -6   6    1.38    1.97
   0  -6   6    0.57    2.46
   0   6  -6    0.50    0.51
   0   6  -6    0.22    0.39
   0  -6   5   24.85    6.96
   0   6  -5   11.40    1.90
   0   6  -5   15.43    2.82
   0  -6   5   23.25    6.66
   0   6  -4   25.21    2.68
   0  -6   4   50.60    9.99
   0  -6   4   41.54    9.48
   0  -6   3   21.34    6.03
   0  -6   3   24.74    7.57
   0  -6   2   80.55   12.50
   0  -6   2   66.63   12.02
   0  -6   1  165.43   19.70
   0  -6   1  177.11   18.00
   0  -6   0  125.99   17.48
   0  -6   0  109.28   13.82
   0   6   0  104.28   14.71
   0   6   0   82.41    5.21
   0   6   1   11.02    4.79
   0  -6  -1    5.49    2.63
   0  -6  -2    4.27    1.52
   0   6   2   -1.90    2.82
   0  -6  -2    2.86    2.08
   0  -6  -3   21.53    3.80
   0   6   3   19.68    6.86
   0   6   4   41.56    9.57
   0   6   5  351.02   28.74
   0  -6  -6    4.78    3.43
   0   6   6    6.16    4.51
   0   6   7  776.88   45.69
   0  -6  -7  649.33   39.98
   0   6   8  224.35   25.47
   0  -6  -8  241.21   24.97
   0   6   9    1.36    0.89
   0  -6  -9   -1.72    3.02
   0   6  10   12.87    6.73
   0  -6 -10    2.82    2.52
   0  -6 -11    8.60    5.04
   0   6  11    4.36    2.74
   0  -6 -12   18.87    7.32
   0   6  12   32.84   11.77
   0   6  13   30.30   12.05
   0   6  14   -1.18    5.06
   0   6  15   16.66    9.70
   0   6  16    5.92    5.56
   0   6  17   -5.24    4.89
   0  -7  19    1.49    1.95
   0  -7  19   -0.71    1.91
   0  -7  18   -3.93    4.46
   0  -7  18   -0.10    0.88
   0  -7  17    9.76    7.81
   0  -7  17   -0.95    2.54
   0  -7  16    4.11    5.16
   0  -7  16    0.42    0.48
   0  -7  15   10.56    7.42
   0  -7  15    1.12    2.61
   0  -7  14    2.43    3.87
   0  -7  14    4.25    3.93
   0  -7  13    3.21    2.68
   0  -7  13    5.39    5.49
   0  -7  12    3.61    3.46
   0  -7  12    0.20    2.78
   0  -7  11    0.90    1.09
   0  -7  11    5.26    5.81
   0  -7  10    2.31    3.87
   0  -7  10    4.18    3.99
   0  -7   9   -1.61    3.26
   0  -7   9   -6.39    4.69
   0  -7   8    2.24    2.71
   0  -7   8    2.23    1.08
   0  -7   7  100.40   20.88
   0  -7   7    1.40    2.68
   0  -7   6   13.25    5.91
   0  -7   6    7.32    6.01
   0  -7   5    4.68    4.06
   0  -7   5    2.14    1.95
   0  -7   4    0.40    2.55
   0  -7   4    4.29    2.98
   0  -7   3   17.73    6.70
   0  -7   3   16.73    5.88
   0  -7   2   57.59   12.26
   0  -7   2   51.42   11.18
   0  -7   1    4.02    2.40
   0  -7   1    4.65    3.31
   0  -7   0   13.96    5.80
   0  -7   0   13.65    7.07
   0  -7  -1    1.58    0.98
   0  -7  -1    2.35    3.98
   0   7   1   -0.17    1.08
   0  -7  -2   10.75    4.11
   0   7   2    5.39    3.30
   0   7   3    7.02    4.69
   0   7   4   27.41    9.16
   0   7   5   20.39    7.26
   0   7   6    1.82    3.19
   0  -7  -6    2.67    2.55
   0   7   7    3.96    4.26
   0  -7  -7   -1.28    1.89
   0   7   8    5.19    3.19
   0  -7  -8    6.25    4.73
   0  -7  -9   -2.17    4.22
   0   7   9   -2.53    0.71
   0  -7 -10   13.53    6.88
   0   7  10   24.90   11.04
   0  -7 -11    6.50    4.97
   0   7  11    8.25    7.16
   0   7  12   19.37    8.99
   0   7  13    6.47    5.10
   0   7  14   12.90    8.00
   0   7  15    1.70    3.34
   0   7  16    0.54    1.29
   0  -8  19   -2.74    1.07
   0  -8  18   -0.03    3.88
   0  -8  17   -7.05    7.50
   0  -8  17    3.08    4.57
   0  -8  16   -0.72    4.53
   0  -8  16    1.46    1.38
   0  -8  15    4.65    3.44
   0  -8  15    5.07    5.49
   0  -8  14   -4.60    4.93
   0  -8  14    0.21    3.71
   0  -8  13   -1.67    3.89
   0  -8  13   -3.27    3.15
   0  -8  12    6.94    4.29
   0  -8  12   -4.38    5.87
   0  -8  11    3.94    3.27
   0  -8  11    1.90    4.20
   0  -8  10   42.84   12.41
   0  -8  10   21.99    8.65
   0  -8   9    4.93    2.72
   0  -8   9    7.40    4.97
   0  -8   8   -2.18    5.43
   0  -8   8    2.92    3.56
   0  -8   7    2.41    3.51
   0  -8   7   14.51    7.24
   0  -8   6    4.41    4.42
   0  -8   6    9.80    5.92
   0  -8   5    6.14    4.74
   0  -8   5    5.28    0.71
   0  -8   4    7.65    6.20
   0  -8   4    3.58    4.53
   0  -8   3   -0.10    2.29
   0  -8   3    1.39    2.04
   0  -8   2    0.64    2.98
   0  -8   2    7.97    5.22
   0  -8   1   -1.75    2.37
   0  -8   1   -3.48    2.63
   0  -8   0   -8.78    5.32
   0  -8   0   -0.58    1.10
   0  -8  -1   -4.16    4.77
   0  -8  -1    3.72    4.06
   0   8   2    5.65    3.51
   0  -8  -2    2.89    5.76
   0   8   3    0.99    2.15
   0   8   4   40.54   10.99
   0   8   5   36.05   10.79
   0   8   6    5.38    3.82
   0  -8  -6    1.04    2.04
   0  -8  -7    0.63    2.25
   0   8   7    1.81    2.62
   0   8   8   -2.79    5.79
   0  -8  -8    2.42    3.69
   0  -8  -9   -1.00    4.38
   0   8   9   -0.69    2.75
   0   8  10   -1.13    0.44
   0  -8 -10   -2.07    3.87
   0   8  11    0.38    1.24
   0   8  12   -0.13    1.94
   0   8  13    2.98    6.26
   0   8  14   -5.39    7.94
   0   8  15   -1.31    4.96
   0  -9  17    1.68    4.73
   0  -9  16    2.57    4.02
   0  -9  16    0.87    2.14
   0  -9  15    9.14    6.97
   0  -9  15   -7.98    5.91
   0  -9  14    1.75    2.15
   0  -9  14    3.30    4.63
   0  -9  13    0.85    2.90
   0  -9  13    0.77    3.32
   0  -9  12   -2.64    2.87
   0  -9  12    3.26    1.65
   0  -9  11   11.30    6.19
   0  -9  11   19.16    9.57
   0  -9  10   15.57    7.66
   0  -9  10   15.96    8.98
   0  -9   9   61.92   16.51
   0  -9   9   65.28   16.62
   0  -9   8  158.29   24.44
   0  -9   8  149.85   23.91
   0  -9   7   -3.12    5.75
   0  -9   7    4.28    4.12
   0  -9   6   10.09    4.19
   0  -9   6    6.53    4.86
   0  -9   5    0.13    3.27
   0  -9   5    1.83    3.96
   0  -9   4    3.42    4.88
   0  -9   4   -5.85    6.91
   0  -9   3   30.73   11.12
   0  -9   3   20.12    7.66
   0  -9   2    5.13    5.33
   0  -9   2    5.21    6.86
   0  -9   1    9.30    6.55
   0  -9   1    9.27    6.27
   0  -9   0   12.02    5.32
   0  -9   0   -2.58    1.47
   0  -9  -1    7.63    6.69
   0  -9  -2   -0.03    3.63
   0   9   3   -3.50    4.87
   0  -9  -3    4.16    5.67
   0   9   4   16.91    8.05
   0   9   5   -2.85    4.81
   0   9   6   -7.42    5.36
   0  -9  -6    3.60    1.20
   0  -9  -7    2.90    2.68
   0   9   7   -1.10    2.79
   0  -9  -8    4.81    5.25
   0   9   8   -1.35    0.50
   0   9   9    0.19    4.67
   0   9  10    4.44    4.14
   0   9  11    1.23    3.81
   0   9  12    3.33    3.09
   0   9  13    0.94    4.76
   0 -10  14    0.63    2.30
   0 -10  14    1.98    2.02
   0 -10  13   -7.38    5.74
   0 -10  13   -0.78    4.90
   0 -10  12   -0.49    3.72
   0 -10  12    1.78    3.37
   0 -10  11    9.80    6.32
   0 -10  11    3.34    0.86
   0 -10  10   13.34    6.77
   0 -10  10   23.75   10.66
   0 -10   9   10.09    7.82
   0 -10   9    3.43    0.76
   0 -10   8    2.63    2.04
   0 -10   8    8.91    7.43
   0 -10   7    9.37    6.92
   0 -10   7    9.22    8.32
   0 -10   6    1.23    3.73
   0 -10   6   11.44    7.32
   0 -10   5   -1.18    4.51
   0 -10   5    0.50    2.30
   0 -10   4    7.33    6.54
   0 -10   4    3.64    5.72
   0 -10   3   -3.47    4.35
   0 -10   3   -2.98    5.01
   0 -10   2   33.23   12.40
   0 -10   2   23.76   10.18
   0 -10   1    9.83    6.90
   0 -10   1   20.87    9.03
   0 -10   0    0.82    4.44
   0 -10  -1   19.58    8.84
   0 -10  -2    6.71    6.26
   0 -10  -3    1.73    3.17
   0 -10  -4    0.18    2.46
   0  10   4    5.48    4.61
   0  10   5   -0.20    2.74
   0  10   6    0.86    3.35
   0 -10  -6    1.69    0.62
   0 -10  -7   10.23    6.53
   0  10   7    0.37    4.53
   0  10   8   -2.24    3.68
   0  10   9    8.88    7.07
   0  10  10    2.83    0.93
   0  10  11    3.26    6.29
   0 -11  11   10.47    8.13
   0 -11  11    1.85    2.13
   0 -11  10    3.01    1.99
   0 -11  10   -1.15    5.35
   0 -11   9    1.13    2.12
   0 -11   9    4.62    6.06
   0 -11   8   -1.67    5.90
   0 -11   8   -0.15    2.82
   0 -11   7    5.02    6.53
   0 -11   7   -0.35    2.08
   0 -11   6    0.10    0.71
   0 -11   6    0.61    3.09
   0 -11   5    1.35    2.02
   0 -11   5   -3.98    5.59
   0 -11   4    1.65    3.47
   0 -11   4    2.81    5.20
   0 -11   3    2.74    6.45
   0 -11   3   -1.64    3.78
   0 -11   2    4.90    5.87
   0 -11   2   -6.02    7.49
   0 -11   1    4.02    6.99
   0 -11   0   -1.85    1.29
   0 -11  -1   -2.48    6.32
   0 -11  -2   -4.60    6.95
   0 -11  -3  -10.81   10.04
   0 -11  -4   -5.23    9.65
   0 -11  -5   11.73    8.30
   0 -11  -5    8.30    6.39
   0 -11  -6   12.49    9.34
   0 -11  -6    5.39    5.32
   0  11   6   -0.57    2.87
   0  11   7   -0.83    3.85
   0  11   8   -2.14    1.28
   0 -12   7    0.82    4.35
   0 -12   6    1.40    3.45
   0 -12   5   -2.57    3.74
   0 -12   5   -1.61    5.91
   0 -12   4    1.98    4.03
   0 -12   4   -0.84    4.81
   0 -12   3   -4.02    6.75
   0 -12   2   -3.61    4.33
   0 -12   1   -1.33    4.94
   0 -12   0    3.65    4.00
   1 -12  -1   -0.22    1.70
   1 -12   0    1.15    4.41
   1 -12   1    1.52    5.07
   1 -12   1   -3.40    4.34
   1 -12   2    2.05    3.65
   1 -12   2   -1.52    4.60
   1 -12   3    6.38    7.20
   1 -12   3    5.37    4.86
   1 -12   4    3.63    3.92
   1 -12   4    4.61    5.97
   1 -12   5   -3.15    5.18
   1 -12   5   -2.03    3.36
   1 -12   6   -0.54    1.98
   1 -12   6    1.62    2.13
   1 -11  -7   -4.15    8.01
  -1  11   7    1.89    3.90
  -1  11   6    5.67    6.31
   1 -11  -6    0.21    5.60
   1 -11  -5   12.45    7.26
  -1  11   5   -3.07    3.36
   1 -11  -4   -4.31    8.36
   1 -11  -3   -0.01    1.21
   1 -11  -2    4.81    6.55
   1 -11  -1   -3.03    6.57
   1 -11  -1    0.08    3.45
   1 -11   0   -4.51    6.01
   1 -11   0    0.08    1.29
   1 -11   1    6.07    4.80
   1 -11   1   -2.41    3.50
   1 -11   2    1.88    2.28
   1 -11   2    5.61    4.69
   1 -11   3   -0.99    3.21
   1 -11   3    1.83    4.39
   1 -11   4    6.06    4.96
   1 -11   4   14.82   11.08
   1 -11   5   -1.74    3.70
   1 -11   5    1.32    3.40
   1 -11   6    6.21    2.63
   1 -11   6   -5.13    4.87
   1 -11   7   -0.15    3.61
   1 -11   7    1.33    0.76
   1 -11   8    0.75    5.12
   1 -11   8    5.91    6.61
   1 -11   9    9.82    6.99
   1 -11   9    5.58    4.57
   1 -11  10    4.76    7.58
   1 -11  10   14.05    7.73
   1 -11  11    4.97    4.73
  -1  10  10   -2.50    5.02
  -1  10   9   -1.11    4.89
  -1  10   8    2.67    4.55
  -1  10   7    6.95    5.77
  -1  10   6   -1.21    2.68
   1 -10  -5   -6.39    9.93
  -1  10   5    6.69    5.17
  -1  10   4   -0.25    2.92
   1 -10  -4    4.69    8.38
   1 -10  -3    3.55    3.49
   1 -10  -2   11.56    8.67
   1 -10  -2    1.28    2.27
   1 -10  -1    0.95    2.26
   1 -10  -1   -5.83    6.88
   1 -10   0    1.71    4.96
   1 -10   0    4.07    3.67
   1 -10   1   -1.73    4.83
   1 -10   1   -1.48    1.16
   1 -10   2    3.27    4.11
   1 -10   2    4.63    5.09
   1 -10   3    6.05    6.62
   1 -10   3    2.70    4.24
   1 -10   4   -1.35    3.66
   1 -10   4   10.87    6.61
   1 -10   5    1.28    3.87
   1 -10   5    2.83    3.00
   1 -10   6    0.92    3.10
   1 -10   6   -3.25    4.60
   1 -10   7   -2.27    4.35
   1 -10   7    8.76    7.00
   1 -10   8    1.85    4.18
   1 -10   8   -7.93    5.35
   1 -10   9    6.62    5.02
   1 -10   9    4.82    4.88
   1 -10  10    3.12    1.32
   1 -10  10   -2.80    4.75
   1 -10  11   14.94    8.81
   1 -10  11   16.83    7.91
   1 -10  12    2.79    3.73
   1 -10  12   -0.09    4.85
   1 -10  13    3.81    2.69
   1 -10  13    4.41    4.42
   1 -10  14   -1.63    2.25
  -1   9  12   -3.88    2.86
  -1   9  11    2.81    1.10
  -1   9  10    5.54    3.09
  -1   9   9   -1.20    5.39
  -1   9   8   -0.83    3.46
  -1   9   7   -5.36    5.84
  -1   9   6    5.98    4.48
  -1   9   5   -1.16    2.53
  -1   9   4   14.25    7.24
  -1   9   3    6.72    4.98
   1  -9  -3    0.77    1.24
   1  -9  -2   26.13   11.04
   1  -9  -2   11.63    5.87
   1  -9  -1   -2.33    4.11
   1  -9  -1   -0.87    1.34
   1  -9   0   -1.02    3.70
   1  -9   0   14.37    8.90
   1  -9   1    2.87    2.03
   1  -9   1   -2.12    1.01
   1  -9   2    1.57    5.40
   1  -9   2    1.82    3.08
   1  -9   3    4.76    4.73
   1  -9   3    4.44    4.46
   1  -9   4    5.89    2.87
   1  -9   4    3.12    4.08
   1  -9   5    4.62    5.08
   1  -9   5    2.78    4.08
   1  -9   6   11.98    5.70
   1  -9   6    2.26    4.02
   1  -9   7   -2.58    4.72
   1  -9   7    2.28    3.50
   1  -9   8   12.38    4.41
   1  -9   8    0.70    1.26
   1  -9   9    3.10    5.08
   1  -9  10   -6.53    5.25
   1  -9  11    7.30    4.31
   1  -9  12   -2.98    4.94
   1  -9  13   -5.76    5.58
   1  -9  14    5.34    4.80
   1  -9  15    1.39    2.96
   1  -9  16    9.41    7.73
   1  -9  16    3.39    3.87
  -1   8  14    4.32    5.33
  -1   8  13   -0.09    1.36
  -1   8  12   29.43   12.42
  -1   8  11   17.21    9.91
  -1   8  10    7.30    4.60
  -1   8   9   15.73    8.61
  -1   8   8   10.80    6.02
  -1   8   7   28.40    9.79
  -1   8   6   45.47   13.34
  -1   8   5   15.23    8.52
  -1   8   4   24.86    9.14
   1  -8  -4   11.20    4.64
  -1   8   3  115.81   19.38
   1  -8  -3   72.71   12.57
   1  -8  -2   15.05    8.37
   1  -8  -2    8.21    4.82
  -1   8   2   15.49    8.50
   1  -8  -1   16.51    7.47
   1  -8  -1   10.13    5.77
   1  -8   0    3.11    3.58
   1  -8   0    8.19    5.57
   1  -8   1   -2.41    0.82
   1  -8   1   -0.46    1.14
   1  -8   2   14.33    7.29
   1  -8   2   15.93    7.32
   1  -8   3    0.88    1.94
   1  -8   3    1.19    2.77
   1  -8   4    2.26    1.67
   1  -8   5   10.01    5.91
   1  -8   6   -0.83    3.74
   1  -8   7   -1.19    4.35
   1  -8   8   10.04    5.47
   1  -8   9    0.46    1.34
   1  -8  10    6.12    5.43
   1  -8  11    2.15    1.75
   1  -8  12    6.58    7.38
   1  -8  13   -3.34    3.91
   1  -8  14   -2.86    6.61
   1  -8  15    1.07    3.14
   1  -8  16   13.73    7.56
   1  -8  17   -0.84    0.97
  -1   7  16    0.75    4.30
  -1   7  15   -2.53    4.91
   1  -7 -15   -0.89    3.01
  -1   7  14    2.05    2.61
   1  -7 -14    0.54    2.11
   1  -7 -13   10.38    5.34
  -1   7  13   27.64   10.66
   1  -7 -12   -0.77    1.14
  -1   7  12    2.72    4.94
  -1   7  11    4.21    4.50
   1  -7 -11    2.61    2.68
   1  -7 -10    4.64    3.12
  -1   7  10   15.48    7.90
   1  -7  -9    5.03    2.78
  -1   7   9    3.29    1.29
  -1   7   8    3.65    4.17
   1  -7  -8   -1.29    3.07
   1  -7  -8    0.03    0.56
   1  -7  -7   11.75    3.86
  -1   7   7   21.11    9.16
   1  -7  -6    0.62    1.39
  -1   7   6    1.43    3.17
  -1   7   5  814.74   50.06
  -1   7   4   97.93   17.13
   1  -7  -4   45.43    8.65
   1  -7  -3   27.83    7.22
  -1   7   3   43.43   10.75
  -1   7   2   65.83   13.14
   1  -7  -2   57.32   11.32
   1  -7  -1    7.67    4.27
   1  -7  -1    5.84    4.66
  -1   7   1    1.96    0.85
   1  -7   0    9.61    5.18
   1  -7   0   11.27    5.54
   1  -7   1   23.82    7.40
   1  -7   1   22.57    7.12
   1  -7   2    7.67    4.78
   1  -7   3  125.82   17.29
   1  -7   4   56.83   11.87
   1  -7   5    5.41    3.23
   1  -7   6    4.79    3.48
   1  -7   7   17.22    7.26
   1  -7   8    3.96    3.89
   1  -7   9   -0.17    3.14
   1  -7  10    2.44    4.25
   1  -7  11   -1.19    0.63
   1  -7  12    2.78    1.08
   1  -7  13   11.52    6.79
   1  -7  14   -0.59    2.58
   1  -7  15    4.54    6.03
   1  -7  16    4.10    5.49
   1  -7  17   -0.24    3.77
   1  -7  18    3.22    4.03
   1  -6 -18    3.95    6.09
  -1   6  17    4.86    6.36
   1  -6 -17    1.02    1.98
  -1   6  16    2.08    0.22
   1  -6 -16    0.72    2.23
   1  -6 -15    0.00    2.38
  -1   6  15    9.77    7.76
  -1   6  14    7.41    6.51
   1  -6 -14   -0.43    2.11
  -1   6  13   11.86    6.41
   1  -6 -13   -0.63    0.55
   1  -6 -12    0.79    1.02
  -1   6  12   -3.93    3.84
  -1   6  11    3.18    2.88
   1  -6 -11    2.37    3.13
   1  -6 -10    2.13    2.52
  -1   6  10    1.73    2.79
   1  -6  -9    4.55    2.70
  -1   6   9    9.83    5.82
   1  -6  -9    8.06    4.43
   1  -6  -8   65.33   11.68
  -1   6   8   80.69   15.31
   1  -6  -8   29.46    6.35
   1  -6  -7   16.39    5.45
  -1   6   7   43.31   11.30
   1  -6  -7   26.25    5.74
  -1   6   6   12.25    5.32
   1  -6  -6    7.07    2.76
   1  -6  -5    4.82    2.01
  -1   6   5    6.40    3.43
  -1   6   5    3.20    1.92
   1  -6  -5    5.59    3.09
   1  -6  -4    1.19    1.14
   1  -6  -4   -0.47    0.58
  -1   6   4    3.22    3.41
   1  -6  -3   36.16    4.58
   1  -6  -3   40.53    7.81
  -1   6   3   59.18   11.54
   1  -6  -2    4.34    2.99
  -1   6   2    4.26    4.72
  -1   6   1    7.85    3.88
   1  -6  -1    4.26    3.78
  -1   6   0   35.71    9.00
   1  -6   0   37.32    9.44
   1  -6   1    5.34    1.53
   1  -6   1   11.01    4.23
   1  -6   2  238.88   21.66
   1  -6   3    0.29    2.95
  -1   6  -3    0.86    0.57
  -1   6  -4   18.84    3.69
   1  -6   4   35.83    8.37
  -1   6  -5    0.07    0.85
   1  -6   5   -1.44    2.45
  -1   6  -6   -0.35    0.11
   1  -6   6   -2.10    2.20
  -1   6  -7   -0.44    0.80
   1  -6   7    0.21    1.13
   1  -6   8   37.01    9.55
  -1   6  -8   28.09    5.55
  -1   6  -9    4.80    2.39
   1  -6   9    6.31    4.71
  -1   6 -10   60.92    9.58
   1  -6  10   78.21   14.29
   1  -6  11   23.16    8.11
  -1   6 -11   14.82    4.81
   1  -6  12    5.57    4.75
  -1   6 -12    1.82    1.52
  -1   6 -12    1.50    2.05
   1  -6  13    4.73    3.44
  -1   6 -13    1.40    3.10
  -1   6 -13    2.28    2.94
  -1   6 -14    1.92    4.47
   1  -6  14    1.29    2.70
  -1   6 -15   -1.83    4.72
   1  -6  15    2.88    4.09
   1  -6  16   11.42    7.54
  -1   6 -16    9.03    6.01
   1  -6  17    8.90    6.38
  -1   6 -17   -0.41    2.75
   1  -6  18   -7.53    5.30
  -1   6 -18    3.81    5.55
   1  -6  19    4.01    5.99
   1  -5 -19   -3.03    5.32
  -1   5  18    5.76    4.97
   1  -5 -18   13.52    8.68
   1  -5 -17    9.43    6.96
  -1   5  17    8.78    8.36
   1  -5 -16   -0.90    1.78
  -1   5  16   -4.78    5.02
   1  -5 -15    3.63    3.32
  -1   5  15    3.02    3.77
  -1   5  14   -0.37    1.74
   1  -5 -14    2.48    2.91
  -1   5  13   19.14    8.56
   1  -5 -13   12.16    5.60
   1  -5 -12   -1.18    1.32
  -1   5  12   -1.73    3.24
   1  -5 -11   57.81   10.88
  -1   5  11   57.70   13.24
   1  -5 -10   12.00    4.56
  -1   5  10   18.53    8.21
   1  -5 -10    9.93    4.11
   1  -5  -9    0.09    0.42
   1  -5  -9    2.31    2.10
  -1   5   9    4.16    3.13
   1  -5  -8    2.13    2.44
  -1   5   8   10.54    5.62
   1  -5  -8    1.90    1.08
  -1   5   7   53.93   11.19
   1  -5  -7   63.23    9.90
   1  -5  -7   57.10    8.42
  -1   5   6   12.46    6.23
   1  -5  -6    8.48    2.82
   1  -5  -5   13.81    3.57
  -1   5   5   25.14    7.67
   1  -5  -5   23.54    4.72
  -1   5   5   20.67    4.46
   1  -5  -4    2.26    1.53
  -1   5   4   11.59    5.94
  -1   5   4    6.97    3.44
   1  -5  -4    4.32    2.18
  -1   5   3   14.03    5.11
   1  -5  -3   11.02    3.57
   1  -5  -3    7.38    2.12
   1  -5  -2   49.59    4.71
   1  -5  -2   75.19   10.00
  -1   5   2   70.02   11.49
  -1   5   1  106.06   14.30
   1  -5  -1   71.02    4.46
   1  -5   0   19.00    5.86
  -1   5   0   15.72    6.00
   1  -5   1    8.25    2.46
   1  -5   1   16.96    5.75
   1  -5   2    2.59    1.75
   1  -5   2    0.49    0.82
  -1   5  -2   -0.08    0.47
   1  -5   3   10.83    4.16
  -1   5  -3    8.93    2.67
   1  -5   4   38.53    8.19
   1  -5   4   21.31    2.74
  -1   5  -4   32.04    5.45
   1  -5   5   54.88    5.13
  -1   5  -5   95.21    9.85
   1  -5   5   85.76   12.32
  -1   5  -6   12.69    3.49
   1  -5   6   18.81    6.59
   1  -5   7    2.35    2.11
  -1   5  -7    1.85    0.83
   1  -5   8   45.65   10.08
  -1   5  -8   32.85    6.29
  -1   5  -9   63.22    9.79
  -1   5  -9   57.97    9.10
   1  -5   9   49.22   10.39
  -1   5 -10    5.15    2.93
   1  -5  10    4.66    4.44
  -1   5 -10    1.81    1.83
   1  -5  11   52.67   11.61
  -1   5 -11   56.31   10.64
  -1   5 -11   45.95    9.68
   1  -5  12   33.57   10.17
  -1   5 -12   46.72   10.32
  -1   5 -12   43.57   10.52
  -1   5 -13    2.38    2.79
   1  -5  13    2.46    4.05
  -1   5 -13    3.98    2.44
  -1   5 -14    1.95    2.73
  -1   5 -14    0.82    1.31
   1  -5  14   -1.31    1.97
   1  -5  15    3.07    3.50
  -1   5 -15    4.09    4.75
  -1   5 -15    8.30    6.13
  -1   5 -16   17.29    6.74
   1  -5  16   26.43   10.95
  -1   5 -16   24.41   10.28
  -1   5 -17   57.41   14.10
  -1   5 -17   69.07   17.38
   1  -5  17   57.09   16.03
  -1   5 -18    1.70    5.05
  -1   5 -18    8.64    5.81
  -1   5 -19    2.19    3.72
  -1   5 -19    5.95    5.50
  -1   5 -20    1.37    3.14
  -1   5 -21   -0.36    2.38
   1  -4 -20   64.36   18.78
  -1   4  19   16.68   11.52
   1  -4 -19   -5.26    4.99
   1  -4 -18   25.32   11.27
  -1   4  18   37.34   15.49
  -1   4  17    6.16    9.08
   1  -4 -17    2.89    3.39
   1  -4 -16   -4.34    3.92
  -1   4  16    1.35    1.29
  -1   4  15   15.64   11.04
   1  -4 -15    8.41    5.35
   1  -4 -14    1.44    1.90
  -1   4  14    6.02    3.24
   1  -4 -13   36.72   10.02
  -1   4  13   45.08   12.30
   1  -4 -12   54.79   11.97
  -1   4  12   60.98   14.69
   1  -4 -11   21.31    5.22
   1  -4 -11   39.94    9.23
  -1   4  11   24.95    6.70
  -1   4  11   28.62    8.79
   1  -4 -10    0.69    1.11
   1  -4 -10    4.13    2.34
  -1   4  10   -2.17    3.31
  -1   4   9   17.92    6.89
   1  -4  -9   10.60    3.46
   1  -4  -9   20.82    6.06
   1  -4  -8   24.17    6.27
   1  -4  -8   20.98    5.05
  -1   4   8   40.26   11.51
   1  -4  -7    0.18    1.81
   1  -4  -7    0.69    1.55
  -1   4   7    0.86    1.70
   1  -4  -6    3.03    1.97
  -1   4   6    0.59    2.58
   1  -4  -5   66.69    8.12
  -1   4   5   61.99   11.06
   1  -4  -5   59.73    6.43
  -1   4   4   73.50   11.88
   1  -4  -4   75.36    7.93
  -1   4   4   77.96    8.51
   1  -4  -4   70.66    7.42
   1  -4  -3   34.06    4.81
  -1   4   3   32.23    7.30
  -1   4   2   85.33   11.74
   1  -4  -2   86.21    6.55
   1  -4  -1   10.68    1.87
  -1   4   1    7.18    3.40
   1  -4   0   35.88    2.60
  -1   4   0   39.76    8.25
   1  -4   0   49.15    8.64
  -1   4  -1   85.04    7.10
   1  -4   1   86.24   10.94
   1  -4   2   27.67    6.03
  -1   4  -2   35.16    4.93
  -1   4  -3  138.78   11.32
   1  -4   3  119.97   12.59
   1  -4   4  107.84   12.33
  -1   4  -4  100.65    9.77
   1  -4   4   62.09    5.64
  -1   4  -5   17.59    4.33
   1  -4   5   15.59    4.22
   1  -4   6   23.82    6.68
  -1   4  -6    4.43    2.45
   1  -4   7   42.73    8.32
  -1   4  -7   32.02    6.37
  -1   4  -7   38.26    6.59
  -1   4  -8   48.90    8.15
  -1   4  -8   54.09    8.67
   1  -4   8   54.20    9.83
   1  -4   9    3.87    3.80
  -1   4  -9    0.72    1.32
  -1   4  -9    1.28    1.14
  -1   4 -10    8.62    4.45
  -1   4 -10    6.83    3.96
   1  -4  10    7.08    5.45
  -1   4 -11    3.75    3.37
   1  -4  11    1.67    4.29
  -1   4 -11    2.59    2.57
  -1   4 -11    3.90    3.83
   1  -4  12    3.81    4.25
  -1   4 -12    3.14    3.25
  -1   4 -12    3.94    3.37
  -1   4 -12   10.71    5.61
   1  -4  13    5.20    5.22
  -1   4 -13   -1.20    1.85
  -1   4 -13    4.12    4.61
   1  -4  14    2.09    1.73
  -1   4 -14    0.82    1.86
  -1   4 -14    1.78    4.50
  -1   4 -15    6.55    4.60
   1  -4  15    8.75    5.25
  -1   4 -15    2.16    2.87
  -1   4 -16   11.35    8.06
  -1   4 -16    5.57    4.09
   1  -4  16    7.53    7.10
  -1   4 -17    1.99    2.93
  -1   4 -17    2.59    2.69
  -1   4 -18   22.59    8.98
  -1   4 -18   22.73    9.31
  -1   4 -19   10.81    6.63
  -1   4 -19    2.14    3.21
  -1   4 -20    7.85    6.49
  -1   4 -20    1.16    3.29
  -1   4 -21    0.28    2.50
  -1   3  20   30.89   20.83
   1  -3 -20   14.98    9.79
  -1   3  19   10.47    8.93
   1  -3 -19   13.10    7.39
  -1   3  18    9.62    8.53
   1  -3 -18   -1.89    2.27
   1  -3 -17    5.17    6.36
  -1   3  17   18.04   11.63
  -1   3  16    5.35    1.54
   1  -3 -16   -3.92    3.68
  -1   3  15    8.16    5.95
   1  -3 -15    2.19    3.68
   1  -3 -14   40.57   10.88
  -1   3  14   30.81   13.48
  -1   3  13   82.74   18.95
   1  -3 -13   67.84   13.93
  -1   3  12  105.40   19.84
   1  -3 -12  106.37   16.28
  -1   3  11    5.16    2.21
  -1   3  11    2.86    2.44
   1  -3 -11   11.65    5.65
   1  -3 -10   10.55    4.45
  -1   3  10    9.01    4.58
  -1   3  10    5.38    2.71
  -1   3   9   -0.44    2.00
   1  -3  -9    3.04    2.19
  -1   3   9    6.11    2.38
   1  -3  -9    0.91    1.15
  -1   3   8    6.54    3.94
   1  -3  -8   15.40    4.94
   1  -3  -8    8.03    2.73
   1  -3  -7    8.51    2.86
   1  -3  -7   10.24    3.53
  -1   3   7   11.01    4.19
   1  -3  -6   23.61    5.17
   1  -3  -6   24.59    4.61
  -1   3   6   19.34    5.24
   1  -3  -5  259.86   16.02
  -1   3   5  238.35   18.85
   1  -3  -5  222.31    9.73
   1  -3  -4   19.40    3.11
  -1   3   4   17.87    5.41
  -1   3   4   18.18    3.43
   1  -3  -4   21.62    4.47
  -1   3   3  316.95   16.28
   1  -3  -3  298.97   13.83
  -1   3   3  291.83   19.82
   1  -3  -2   14.31    2.65
  -1   3   2   12.31    3.67
   1  -3  -1   45.88    4.63
  -1   3   1   37.70    6.83
   1  -3   0   50.89    5.27
  -1   3   0   43.73    5.50
  -1   3   0   35.41    6.17
   1  -3   0   46.83    7.27
   1  -3   1   93.12    9.84
  -1   3  -1   87.63    7.86
  -1   3  -2   86.70    8.31
   1  -3   2   86.54    8.90
   1  -3   2   41.24    4.24
   1  -3   3    2.91    1.23
  -1   3  -3    6.98    2.48
   1  -3   3   12.02    3.74
   1  -3   4   30.52    5.90
  -1   3  -4   34.60    5.51
  -1   3  -5  113.88   10.89
   1  -3   5  120.10   12.31
  -1   3  -6    3.55    2.31
  -1   3  -6    5.88    2.57
   1  -3   6   -0.95    2.47
  -1   3  -7   14.58    3.75
  -1   3  -7   17.43    4.94
   1  -3   7   17.11    5.71
  -1   3  -8   61.90    9.30
   1  -3   8   54.01    9.85
  -1   3  -8   54.89    9.15
   1  -3   9    0.83    2.57
  -1   3  -9    5.93    3.62
  -1   3  -9    3.66    2.23
  -1   3  -9    4.78    2.98
   1  -3  10    2.06    3.97
  -1   3 -10    3.40    2.30
  -1   3 -10    4.53    3.70
  -1   3 -10    2.45    2.47
   1  -3  11   13.63    6.49
  -1   3 -11   20.13    6.01
  -1   3 -11   16.39    5.22
  -1   3 -11   15.82    5.44
  -1   3 -12    1.46    2.28
   1  -3  12    1.40    1.34
  -1   3 -12    8.11    3.54
   1  -3  13    2.19    2.39
  -1   3 -13    3.98    3.65
  -1   3 -14    6.27    4.17
   1  -3  14    9.58    6.38
  -1   3 -15    5.59    4.72
  -1   3 -15    2.63    3.86
  -1   3 -16   -7.70    4.98
  -1   3 -16    2.22    2.78
  -1   3 -17    1.03    3.50
  -1   3 -17   -0.55    1.82
  -1   3 -18   -0.22    0.94
  -1   3 -18   -5.96    4.66
  -1   3 -19   -0.66    1.84
  -1   3 -19   -2.46    4.70
  -1   3 -20    0.94    3.40
  -1   3 -20    2.61    3.30
  -1   3 -21    0.83    3.67
  -1   3 -21   -0.15    2.14
   1  -2 -20    1.48    4.63
  -1   2  20   -5.36    7.94
  -1   2  19    4.09    6.32
   1  -2 -19    1.50    5.58
   1  -2 -18    4.58    4.90
  -1   2  18   11.60   10.97
  -1   2  17    6.68    7.82
   1  -2 -17    2.64    3.31
   1  -2 -16    9.57    5.89
  -1   2  16   15.49    9.00
   1  -2 -15   11.40    6.81
  -1   2  15    8.24    5.31
   1  -2 -14   13.05    5.25
  -1   2  14   17.51    8.40
   1  -2 -13   25.15    8.00
  -1   2  13   19.22    7.96
   1  -2 -12    4.61    3.17
  -1   2  12   -3.99    3.24
  -1   2  11    8.09    2.29
   1  -2 -11   28.54    7.89
  -1   2  11   37.80   12.08
   1  -2 -10   37.82    8.40
  -1   2  10   24.52    4.74
  -1   2  10   48.22   12.29
   1  -2  -9   67.88   10.72
  -1   2   9   69.48   13.24
  -1   2   9   36.27    5.76
   1  -2  -8    0.43    0.72
  -1   2   8    0.50    0.58
  -1   2   8   -0.58    2.42
   1  -2  -7  385.44   15.33
   1  -2  -7  386.05   17.11
  -1   2   7  301.93   16.22
  -1   2   7  387.47   25.22
   1  -2  -7  396.92   22.70
  -1   2   6 1364.23   34.39
   1  -2  -6 1460.57   26.70
   1  -2  -6 1547.86   41.16
   1  -2  -6 1250.89   32.97
  -1   2   6 1534.52   45.93
   1  -2  -5  575.71   22.43
   1  -2  -5  691.16   17.45
   1  -2  -5  703.82   25.77
  -1   2   5  681.33   28.56
   1  -2  -4 1117.43   30.30
  -1   2   4 1101.25   34.50
   1  -2  -4  998.42   29.50
  -1   2   3   90.33    9.59
   1  -2  -3  103.05    8.64
   1  -2  -2  512.95   19.38
  -1   2   2  446.85   20.60
  -1   2   2  450.53   18.12
   1  -2  -1    8.23    2.09
  -1   2   1   11.04    2.81
  -1   2   1    9.28    2.43
  -1   2   1    7.26    2.52
  -1   2   0  279.75   15.66
  -1   2   0  245.84   12.66
   1  -2   0  288.52   14.11
  -1   2  -1 9902.94   84.52
   1  -2   1 9661.94   75.09
  -1   2  -2 3541.87   51.29
   1  -2   2 3462.66   46.57
  -1   2  -3  528.26   21.10
   1  -2   3  510.67   20.02
  -1   2  -4 1505.80   37.99
   1  -2   4 1433.45   36.34
   1  -2   5   37.00    6.06
  -1   2  -5   47.95    6.75
  -1   2  -5   33.29    6.00
  -1   2  -6  499.89   22.41
   1  -2   6  501.00   25.88
  -1   2  -6  499.86   23.20
  -1   2  -6  533.97   24.99
  -1   2  -7  252.92   17.01
  -1   2  -7  265.06   18.78
  -1   2  -7  264.65   17.83
   1  -2   7  254.19   19.68
   1  -2   8    8.31    3.57
  -1   2  -8    3.44    3.26
  -1   2  -8    1.32    1.86
  -1   2  -9  119.60   13.67
  -1   2  -9  139.46   13.63
   1  -2   9  118.96   15.54
  -1   2 -10   53.97    9.54
  -1   2 -10   47.52    7.21
   1  -2  10   46.59   10.48
  -1   2 -11    7.27    2.42
  -1   2 -11    7.71    3.38
   1  -2  11    8.45    4.39
  -1   2 -12    4.11    3.20
  -1   2 -13    0.08    0.42
  -1   2 -14    8.95    4.03
  -1   2 -15   -1.71    1.29
  -1   2 -16    0.10    1.89
  -1   2 -17    1.24    0.38
  -1   2 -18   -0.57    1.68
  -1   2 -18    2.53    3.30
  -1   2 -19    5.06    6.16
  -1   2 -19    0.84    2.94
  -1   2 -20   -2.38    4.05
  -1   2 -20    0.91    5.58
  -1   2 -21    0.62    2.25
  -1   2 -21   -2.41    4.17
   1  -1 -21    2.80    2.82
  -1   1  21   -3.08    6.62
  -1   1  20    5.06    4.63
   1  -1 -20    2.88    3.47
   1  -1 -19    2.90    3.36
   1  -1 -18   -2.49    3.85
   1  -1 -17    6.31    5.51
   1  -1 -16    4.62    3.47
   1  -1 -15   -3.19    2.97
   1  -1 -14    6.55    4.02
   1  -1 -13   18.86    6.61
   1  -1 -12    3.49    1.88
   1  -1 -11   13.97    5.34
   1  -1 -10   38.36    8.43
   1  -1  -9  247.94   19.57
  -1   1   9  193.74   12.68
   1  -1  -8   89.05   11.33
  -1   1   8   80.75    8.41
   1  -1  -7  350.06   20.14
  -1   1   7  333.70   16.98
  -1   1   6  242.08   14.70
   1  -1  -6  225.53   15.37
   1  -1  -5  153.33   11.84
  -1   1   5  145.75   11.08
  -1   1   5  164.64   13.31
  -1   1   4   20.67    4.41
   1  -1  -4   27.89    5.13
  -1   1   4   30.22    4.77
   1  -1  -3  360.59   17.20
  -1   1   3  437.13   19.29
  -1   1   3  328.67   17.14
   1  -1  -2  353.05   16.66
  -1   1   2  459.69   19.34
   1  -1  -2  490.08   23.05
   1  -1  -1   62.21    6.33
  -1   1   1   64.37    6.46
  -1   1   1   70.27    7.18
  -1   1   1   61.21    5.90
  -1   1   1   74.19    7.22
   1  -1   0 3366.86   30.71
  -1   1   0 3144.70   46.65
   1  -1   0 3133.79   44.53
  -1   1   0 3090.29   41.45
  -1   1   0 3164.64   47.69
  -1   1   0 3280.16   47.30
  -1   1  -1  169.59   10.36
  -1   1  -1  155.25    6.86
   1  -1   1  178.96    7.55
  -1   1  -1  206.60   13.00
  -1   1  -1  180.32   11.63
  -1   1  -2 9426.84   87.65
   1  -1   2 9617.66   67.99
  -1   1  -2 9254.87   81.90
  -1   1  -3 9999.00   92.24
   1  -1   3 9661.02   80.52
  -1   1  -3 9331.96   92.39
   1  -1   4   67.09    7.84
  -1   1  -4   61.29    7.49
  -1   1  -4   54.03    7.61
   1  -1   5   41.35    7.13
  -1   1  -5   46.31    6.81
  -1   1  -5   39.16    6.36
   1  -1   6  148.12   14.56
  -1   1  -6  130.97   11.69
  -1   1  -6  138.68   11.02
  -1   1  -6  137.97   12.53
  -1   1  -7  214.20   15.85
  -1   1  -7  165.13   11.38
   1  -1   7  235.65   20.01
  -1   1  -8  231.87   12.43
  -1   1  -8  298.77   20.33
  -1   1  -9   22.04    5.87
  -1   1 -10  256.76   21.01
  -1   1 -11  202.43   19.68
  -1   1 -12    2.30    3.82
  -1   1 -13    5.81    2.90
  -1   1 -14   14.52    5.29
  -1   1 -15   -0.88    3.10
  -1   1 -16    2.39    2.39
  -1   1 -17    4.17    2.22
  -1   1 -18    4.03    4.68
  -1   1 -19    4.35    3.68
  -1   1 -19    4.56    4.62
  -1   1 -20    0.29    0.55
  -1   1 -20   -3.43    2.67
  -1   1 -21    4.33    5.35
  -1   1 -21    3.20    2.88
   1   0 -21    2.17    5.19
   1   0 -20    1.02    1.87
   1   0 -19    4.83    3.82
   1   0 -18    3.12    1.84
   1   0 -17    4.30    4.93
   1   0 -16    1.95    3.04
   1   0 -15    5.43    4.00
   1   0 -14   -1.62    1.86
   1   0 -13   -0.92    2.65
  -1   0  12   24.26    4.69
   1   0 -12   24.74    7.27
   1   0 -11   32.93    7.31
  -1   0  11   43.42    6.07
   1   0 -10   76.77   11.03
  -1   0  10   83.77    7.92
  -1   0   9   -0.08    0.27
   1   0  -9   -1.25    1.03
  -1   0   8   19.41    3.38
   1   0  -8   15.00    4.53
   1   0  -7  279.17   17.62
  -1   0   7  302.25   12.43
   1   0  -6  102.04   10.14
   1   0  -5    0.67    0.38
   1   0  -4  305.56   11.89
   1   0  -4  355.94   18.00
  -1   0   3   60.23    6.88
   1   0  -3   84.88    8.84
   1   0  -3  102.86    8.29
  -1   0   3   65.51    5.83
  -1   0   2  426.36   12.63
   1   0  -2  336.98   11.61
  -1   0   2  447.85   17.17
   1   0  -2  408.88   16.90
  -1   0   2  402.94   10.54
  -1   0   2  438.71   11.47
  -1   0   1  864.06   17.80
   1   0  -1  853.02   18.81
  -1   0   1  952.52   24.41
   1   0  -1  849.27   15.93
  -1   0   1  909.86   24.16
  -1   0   1  925.46   15.80
   1   0   0  716.28   13.08
  -1   0   0  647.46   17.88
  -1   0   0  682.47   20.57
  -1   0   0  723.59   21.91
   1   0   0  704.81   21.78
  -1   0  -1  581.28   19.77
  -1   0  -1  559.82   18.39
  -1   0  -1  636.46   23.29
  -1   0  -1  547.09   18.67
  -1   0  -2    3.75    1.29
  -1   0  -2    4.55    2.40
  -1   0  -2    4.25    2.35
  -1   0  -2    2.75    1.27
  -1   0  -2    0.68    1.42
  -1   0  -3   69.82    7.45
  -1   0  -3   53.00    7.01
  -1   0  -4  139.49   11.12
  -1   0  -4  121.87   10.64
  -1   0  -5   23.48    4.60
  -1   0  -5   18.51    4.22
   1   0   6    5.96    2.95
  -1   0  -6   11.35    4.13
  -1   0  -6    6.81    2.68
   1   0   7  179.86   13.72
  -1   0  -7  210.94   16.50
  -1   0  -8    7.85    3.43
   1   0   8    2.87    1.42
  -1   0  -9  153.13   15.73
  -1   0 -10   65.45   10.75
  -1   0 -11   71.24   11.85
  -1   0 -12   33.98    8.84
  -1   0 -13    7.34    3.64
  -1   0 -14    0.56    1.20
  -1   0 -14    3.18    3.45
  -1   0 -15   19.14    7.19
  -1   0 -15   15.97    6.95
  -1   0 -16    4.42    3.03
  -1   0 -17   21.63    8.24
  -1   0 -18   13.72    7.38
  -1   0 -19   -1.46    4.83
  -1   0 -19    2.53    2.44
  -1   0 -20    2.42    4.42
  -1   0 -20    3.39    4.29
   1   1 -21    4.88    4.08
   1   1 -20   25.46    9.97
   1   1 -19    2.60    3.80
   1   1 -18    3.16    1.64
   1   1 -17    5.32    4.26
   1   1 -16    1.22    1.42
   1   1 -15  198.89   22.37
   1   1 -14   50.13   10.62
  -1  -1  14   58.46    9.02
  -1  -1  13   52.91    8.32
   1   1 -13   53.52   10.77
   1   1 -12   60.01   10.67
  -1  -1  12   61.50    8.54
  -1  -1  11   27.87    5.43
   1   1 -11   20.80    5.79
   1   1 -11   20.35    4.24
   1   1 -10   17.23    5.34
  -1  -1  10   14.15    3.90
  -1  -1  10   19.68    6.08
  -1  -1   9   47.96    6.67
   1   1  -9   43.62    7.55
  -1  -1   9   51.37    9.63
  -1  -1   8   48.76    8.58
  -1  -1   8   54.38    6.85
   1   1  -8   45.73    7.38
  -1  -1   7  104.28   11.32
  -1  -1   7  109.55    9.17
   1   1  -7   90.88   10.04
   1   1  -6  157.57   12.51
  -1  -1   6  170.87   11.09
  -1  -1   6  162.34   13.46
   1   1  -5  149.78   11.99
  -1  -1   5  159.91   10.25
  -1  -1   5  162.30   11.96
   1   1  -4  206.22   14.33
  -1  -1   4  182.36   10.43
  -1  -1   4  197.44   11.92
   1   1  -3 2669.35   48.21
  -1  -1   3 2495.90   38.58
  -1  -1   2  821.51   22.90
   1   1  -2  764.83   19.14
  -1  -1   2  817.51   19.31
  -1  -1   1  277.19   13.47
  -1  -1   1  256.02    9.98
   1   1  -1  192.70   10.26
  -1  -1   0 1462.04   30.60
  -1  -1   0 1541.44   31.80
   1   1   1  180.22    6.71
  -1  -1  -1  142.06    9.31
  -1  -1  -1  147.90   10.69
  -1  -1  -2  403.45   17.27
  -1  -1  -2  368.09   18.58
  -1  -1  -3   11.71    3.89
  -1  -1  -3   11.58    4.00
  -1  -1  -4   16.30    4.57
  -1  -1  -4   17.32    3.77
  -1  -1  -5  113.99   10.55
  -1  -1  -5   95.68   10.96
  -1  -1  -5   98.73   10.64
  -1  -1  -6  160.43   15.26
  -1  -1  -6  159.22   13.65
  -1  -1  -7   16.23    4.72
  -1  -1  -7   20.89    4.89
  -1  -1  -8   19.42    4.83
  -1  -1  -8   22.66    5.89
   1   1   9   39.32    6.29
  -1  -1  -9   70.86   11.35
  -1  -1  -9   62.15    8.95
  -1  -1 -10    7.15    3.43
   1   1  10    3.18    2.10
  -1  -1 -10    7.35    3.48
  -1  -1 -11   -0.20    2.05
  -1  -1 -11    5.21    2.39
  -1  -1 -12  105.03   15.76
  -1  -1 -12   85.07   11.93
  -1  -1 -13    8.74    4.13
  -1  -1 -13   11.39    4.86
  -1  -1 -14   56.02   12.45
  -1  -1 -15    5.08    3.64
  -1  -1 -16   29.46   10.09
  -1  -1 -17    1.44    0.90
  -1  -1 -18   -2.07    1.79
  -1  -1 -19   12.52    6.40
  -1  -1 -19    4.77    4.39
  -1  -1 -20    3.71    5.59
   1   2 -21   10.87    7.44
   1   2 -20    5.50    5.31
   1   2 -19   10.79    6.37
   1   2 -18    0.50    1.92
   1   2 -17   -0.56    1.58
   1   2 -16    9.54    5.84
  -1  -2  15   30.73    7.44
   1   2 -15   35.67    9.42
  -1  -2  14   75.97   11.35
   1   2 -14   71.79   12.76
   1   2 -13 1062.86   46.98
  -1  -2  13 1114.66   42.31
  -1  -2  13 1095.75   53.62
  -1  -2  12   13.65    4.36
   1   2 -12   11.31    4.73
  -1  -2  12    6.63    5.04
  -1  -2  11   75.26   12.75
   1   2 -11   80.01   11.45
  -1  -2  11   81.65   10.65
  -1  -2  10    3.95    3.79
  -1  -2  10    7.65    2.63
   1   2 -10    3.69    1.39
  -1  -2   9   11.21    4.22
   1   2  -9   11.84    3.85
  -1  -2   9   11.66    3.40
   1   2  -8  371.73   20.96
  -1  -2   8  443.15   21.80
  -1  -2   8  439.71   25.72
   1   2  -7   76.85    9.11
  -1  -2   7   84.78    9.07
  -1  -2   7   93.46   10.95
   1   2  -6  369.35   19.56
  -1  -2   6  384.07   18.99
  -1  -2   6  395.15   21.28
   1   2  -5 1531.61   39.85
  -1  -2   5 1487.88   39.37
  -1  -2   5 1494.68   36.42
   1   2  -4  372.78   19.96
  -1  -2   4  343.34   18.01
  -1  -2   4  353.89   17.36
  -1  -2   3  447.69   18.66
   1   2  -3  417.94   19.70
  -1  -2   3  424.47   18.81
  -1  -2   2  440.05   16.26
  -1  -2   2  449.16   17.33
  -1  -2   1 3982.91   52.99
  -1  -2   1 3978.60   41.92
  -1  -2   1 3893.47   50.25
   1   2   0  780.74   17.71
  -1  -2   0  749.58   17.35
  -1  -2   0  737.77   22.24
   1   2   1   17.23    2.76
  -1  -2  -1   12.22    4.06
  -1  -2  -1   13.05    2.76
  -1  -2  -1   15.74    2.81
  -1  -2  -2   -1.29    1.74
   1   2   2    3.94    1.48
  -1  -2  -2    6.35    1.98
  -1  -2  -3  122.85   12.58
   1   2   3  129.43   10.14
  -1  -2  -3  126.77   10.48
  -1  -2  -4   10.50    3.25
   1   2   4    8.60    2.39
  -1  -2  -4    9.48    2.91
  -1  -2  -5  399.03   20.32
  -1  -2  -5  403.93   24.21
  -1  -2  -6   40.44    7.79
  -1  -2  -6   41.68    6.84
  -1  -2  -7   12.83    4.77
  -1  -2  -8   12.55    4.98
  -1  -2  -8   12.02    4.37
  -1  -2  -9   24.42    7.15
  -1  -2  -9   23.43    6.21
  -1  -2 -10   38.48    9.52
  -1  -2 -11  120.18   17.32
  -1  -2 -12    2.52    3.79
  -1  -2 -13    1.24    3.21
  -1  -2 -14   39.69   11.50
  -1  -2 -15    6.09    6.40
  -1  -2 -16    0.42    3.51
  -1  -2 -17    2.48    3.10
  -1  -2 -18    1.77    1.71
   1   2  19    5.64    5.24
  -1  -2 -19   -2.59    3.81
   1   2  20    1.02    5.52
  -1  -2 -20   -3.67    5.71
   1   3 -21   -1.57    1.81
   1   3 -20    4.15    4.06
   1   3 -19    3.10    3.74
   1   3 -18    2.68    3.69
   1   3 -17   -0.52    2.42
   1   3 -16   24.02    7.95
  -1  -3  16   20.92    6.96
  -1  -3  15   78.01   12.94
   1   3 -15   62.74   12.38
  -1  -3  15   67.24   13.97
  -1  -3  14    6.30    3.90
   1   3 -14    3.79    1.37
  -1  -3  14    0.07    0.96
  -1  -3  13   32.02    9.62
  -1  -3  13   41.27    8.75
   1   3 -13   36.48    8.70
  -1  -3  12   57.25   10.07
  -1  -3  12   49.11   10.75
   1   3 -12   47.84    9.43
  -1  -3  11    3.27    1.11
  -1  -3  11    1.67    3.03
   1   3 -11    0.77    0.28
  -1  -3  10    3.17    1.96
  -1  -3  10    4.84    3.58
   1   3 -10    0.74    0.22
  -1  -3   9   28.97    6.76
  -1  -3   9   33.53    7.68
   1   3  -9   27.11    6.30
   1   3  -8   20.68    4.82
  -1  -3   8   20.04    5.05
  -1  -3   8   23.93    5.52
  -1  -3   7  560.97   26.46
   1   3  -7  531.72   24.71
  -1  -3   7  518.09   27.45
   1   3  -6  669.51   27.39
  -1  -3   6  622.25   27.15
  -1  -3   6  651.52   29.81
   1   3  -5    9.13    3.51
  -1  -3   5    8.11    3.37
  -1  -3   5    7.70    2.35
   1   3  -4  955.97   33.28
  -1  -3   4  850.78   30.28
  -1  -3   4  758.32   29.65
   1   3  -3  260.67   16.73
  -1  -3   3  285.08   17.60
  -1  -3   3  274.20   16.16
  -1  -3   2   47.95    7.42
  -1  -3   2   49.96    8.06
  -1  -3   1    3.70    1.62
  -1  -3   1    2.97    2.76
   1   3   0  844.01   24.69
  -1  -3   0  796.91   24.10
  -1  -3  -1  278.92   13.82
   1   3   1  327.55   16.20
   1   3   2  746.10   25.76
  -1  -3  -2  791.29   25.69
  -1  -3  -3   40.11    6.11
  -1  -3  -3   28.69    6.32
   1   3   3   36.95    5.99
  -1  -3  -4   97.00   10.18
  -1  -3  -4   88.41   12.83
   1   3   4   90.63   10.56
   1   3   5   20.30    5.60
  -1  -3  -5   19.21    5.45
  -1  -3  -5   14.07    4.85
   1   3   6   25.64    6.79
  -1  -3  -6   17.53    4.70
  -1  -3  -6   15.78    5.74
   1   3   7    1.46    2.41
  -1  -3  -7    4.93    2.59
  -1  -3  -7    6.58    3.10
  -1  -3  -8   42.13    9.35
   1   3   8   45.47    9.51
   1   3   9   -1.16    1.76
  -1  -3  -9    2.19    2.67
   1   3  10    3.42    1.70
  -1  -3 -10    0.55    1.18
   1   3  11   32.30    9.23
  -1  -3 -11   38.08    9.14
   1   3  12   62.87   12.62
   1   3  13   -2.77    3.99
   1   3  14   -2.58    2.26
   1   3  15    3.72    3.84
   1   3  16   18.27   10.05
   1   3  17    1.89    4.20
  -1  -3 -17    1.01    3.22
   1   3  18   -1.10    1.29
  -1  -3 -18    3.44    3.78
   1   3  19   -2.19    2.65
  -1  -3 -19   -0.72    1.80
   1   3  20   -7.26    7.28
   1   4 -21   -0.31    0.74
   1   4 -20   -0.92    2.29
   1   4 -19    4.29    0.76
   1   4 -18    3.60    3.18
  -1  -4  17    2.04    3.69
   1   4 -17    3.30    3.14
   1   4 -16    3.51    5.97
  -1  -4  16    2.19    2.38
  -1  -4  16   -0.83    2.38
  -1  -4  15   19.55    8.22
  -1  -4  15   19.91    7.79
   1   4 -15   16.49    6.77
  -1  -4  14   -0.05    3.23
   1   4 -14   -0.11    1.38
  -1  -4  14   -2.76    2.94
  -1  -4  13   -4.11    3.60
  -1  -4  13    1.78    2.22
   1   4 -13    1.21    2.06
  -1  -4  12    2.51    1.88
  -1  -4  12    4.84    4.44
   1   4 -12    3.61    2.55
  -1  -4  11    0.82    3.58
  -1  -4  11    4.05    0.99
   1   4 -11    2.68    2.97
  -1  -4  10   23.37    6.62
   1   4 -10   25.28    6.11
  -1  -4  10   36.81    8.56
  -1  -4   9   59.41   10.52
   1   4  -9   56.30    9.05
  -1  -4   9   64.34   10.83
  -1  -4   8    5.95    3.24
   1   4  -8    6.25    2.94
  -1  -4   8    4.29    3.47
   1   4  -7   99.86   10.94
  -1  -4   7   92.51   11.92
  -1  -4   7   90.28   12.00
  -1  -4   6   46.23    8.28
  -1  -4   6   34.15    7.59
   1   4  -6   42.05    7.17
  -1  -4   5    7.40    3.70
  -1  -4   5    5.19    2.70
   1   4  -5    7.98    3.35
  -1  -4   4    0.96    1.99
   1   4  -4    1.30    1.59
  -1  -4   4    0.38    0.77
   1   4  -3  525.77   24.61
  -1  -4   3  526.81   25.94
  -1  -4   3  510.86   25.80
  -1  -4   2   34.33    6.87
   1   4  -2   23.79    4.34
  -1  -4   2   39.77    7.49
  -1  -4   1   29.55    6.49
   1   4  -1   19.60    3.88
  -1  -4   1   23.45    3.50
   1   4   0  489.73   22.49
  -1  -4   0  500.83   19.51
  -1  -4  -1 1190.23   30.07
   1   4   1 1256.71   37.35
  -1  -4  -2    5.00    2.38
   1   4   2    2.94    1.90
  -1  -4  -3  161.98   16.77
  -1  -4  -3  139.55   11.93
   1   4   3  158.25   14.09
  -1  -4  -4  170.06   17.93
  -1  -4  -4  158.26   13.29
   1   4   4  154.61   14.67
  -1  -4  -5   69.48    9.08
  -1  -4  -5   77.26   12.84
   1   4   5   75.79   10.98
  -1  -4  -6  170.71   19.43
   1   4   6  175.32   17.65
  -1  -4  -6  141.84   14.09
  -1  -4  -7   15.06    4.99
  -1  -4  -7   27.55    8.01
   1   4   7   28.03    7.36
  -1  -4  -8  605.43   32.27
   1   4   8  559.60   35.10
  -1  -4  -8  613.00   38.58
   1   4   9  944.76   47.37
  -1  -4  -9  913.77   41.96
  -1  -4  -9  883.43   46.68
  -1  -4 -10   -2.35    2.87
   1   4  10   -1.04    3.11
   1   4  11   71.89   14.39
  -1  -4 -11   56.33   12.27
  -1  -4 -12   -2.73    3.80
   1   4  12    2.13    1.41
   1   4  13    3.25    3.64
   1   4  14   13.04    7.18
  -1  -4 -14   18.91    8.45
   1   4  15   -1.76    2.10
  -1  -4 -15    1.03    1.37
   1   4  16   -1.23    1.69
  -1  -4 -16    2.90    3.72
   1   4  17   16.37    8.73
  -1  -4 -17   14.32    8.06
   1   4  18    4.24    5.13
  -1  -4 -18    1.32    4.97
   1   4  19   -7.96    7.63
  -1  -4 -19    3.71    4.24
   1   5 -21    2.64    2.64
   1   5 -20   -0.51    3.08
   1   5 -19    8.92    5.99
  -1  -5  19   -1.29    4.99
   1   5 -18    9.19    6.33
  -1  -5  18   -1.29    3.62
  -1  -5  17   -5.19    5.35
  -1  -5  17   -1.95    3.71
   1   5 -17    0.16    2.80
   1   5 -16    2.54    2.16
  -1  -5  16    1.55    3.81
  -1  -5  16    0.06    2.97
  -1  -5  15   -0.51    3.36
  -1  -5  15    1.64    1.95
   1   5 -15    2.35    3.24
  -1  -5  14    7.36    5.68
  -1  -5  14    0.74    1.69
   1   5 -14   -0.86    1.76
  -1  -5  13    1.10    1.83
  -1  -5  13    2.66    3.94
   1   5 -13    4.02    4.20
  -1  -5  12    1.83    3.07
  -1  -5  12    2.46    3.97
   1   5 -12    6.04    3.31
   1   5 -11    2.61    2.05
  -1  -5  11    0.11    0.86
  -1  -5  11   -2.88    4.34
  -1  -5  10   33.31    9.16
  -1  -5  10   37.02    9.29
   1   5 -10   37.30    7.49
   1   5  -9    2.14    1.62
  -1  -5   9    0.08    2.32
  -1  -5   9   -0.36    1.90
   1   5  -8    1.18    1.29
  -1  -5   8    2.30    3.61
  -1  -5   8    3.73    3.90
  -1  -5   7   14.01    5.48
  -1  -5   7   13.90    6.02
   1   5  -7   14.73    4.56
  -1  -5   6   10.08    3.76
   1   5  -6   13.53    4.45
  -1  -5   6   11.96    4.79
  -1  -5   5    3.90    3.73
  -1  -5   5    4.82    3.08
   1   5  -5    2.79    2.28
  -1  -5   4   21.38    6.37
   1   5  -4   15.85    5.16
  -1  -5   4   14.26    4.63
  -1  -5   3    1.08    1.99
   1   5  -3    2.34    0.56
  -1  -5   3    3.37    2.69
   1   5  -3   -0.40    0.89
  -1  -5   2   89.87   12.28
   1   5  -2   56.53    4.98
  -1  -5   2   64.88    9.76
  -1  -5   1   46.83    9.26
  -1  -5   0   40.04    5.15
   1   5   0   40.07    7.40
  -1  -5   0   60.92   11.32
  -1  -5  -1    9.95    2.68
   1   5   1   16.15    5.18
  -1  -5  -2  106.34    9.74
   1   5   2  124.65   13.52
   1   5   3   11.53    4.21
  -1  -5  -3   14.83    3.89
  -1  -5  -4   26.20    5.73
   1   5   4   26.16    6.07
  -1  -5  -4   40.85    9.04
  -1  -5  -5  138.59   18.06
  -1  -5  -5  123.01   12.86
   1   5   5  125.07   15.07
  -1  -5  -6    3.20    4.15
  -1  -5  -6    3.13    2.73
   1   5   6    2.75    2.98
   1   5   7  140.37   18.25
  -1  -5  -7   95.41   12.56
  -1  -5  -7  136.20   18.62
  -1  -5  -8   30.81    7.65
  -1  -5  -8   42.22   10.62
   1   5   8   45.94   11.64
  -1  -5  -9  138.93   19.90
  -1  -5  -9   99.96   14.32
   1   5   9  136.80   19.09
  -1  -5 -10  163.78   19.65
  -1  -5 -10  174.82   23.11
   1   5  10  170.99   22.20
  -1  -5 -11   10.40    4.71
  -1  -5 -11   12.69    6.01
   1   5  11   11.24    5.18
   1   5  12    7.76    5.89
  -1  -5 -12   12.65    6.24
  -1  -5 -12   13.76    6.38
  -1  -5 -13   15.19    7.06
  -1  -5 -13   14.84    7.04
   1   5  13    8.27    5.57
  -1  -5 -14   -1.41    3.32
   1   5  14   -3.99    5.83
  -1  -5 -15   22.05   10.60
   1   5  15   24.76   10.24
  -1  -5 -16   14.42    7.40
   1   5  16   12.22    6.70
  -1  -5 -17    0.41    2.69
   1   5  17    5.07    4.57
  -1  -5 -18    2.34    4.69
   1   5  18    0.61    3.26
  -1  -6  19    5.22    5.41
   1   6 -19    2.89    2.86
  -1  -6  18   -6.08    4.75
  -1  -6  18   -0.45    0.90
   1   6 -18   -2.17    2.70
  -1  -6  17   -4.01    5.13
   1   6 -17    1.29    3.17
  -1  -6  17    4.02    4.27
  -1  -6  16   -2.15    2.58
  -1  -6  16    3.80    3.63
   1   6 -16    6.58    5.09
  -1  -6  15    3.71    4.72
   1   6 -15    1.48    2.16
  -1  -6  15    0.01    2.90
  -1  -6  14    4.55    5.46
  -1  -6  14    1.46    2.57
   1   6 -14   -0.58    1.17
  -1  -6  13   -0.86    1.66
  -1  -6  13    6.52    5.28
   1   6 -13    0.78    0.24
  -1  -6  12   12.91    6.45
  -1  -6  12    8.26    5.40
   1   6 -12    9.09    4.38
  -1  -6  11    0.17    1.74
  -1  -6  11    9.97    5.96
   1   6 -11    5.63    2.72
  -1  -6  10    2.16    4.66
   1   6 -10   -1.21    1.74
  -1  -6  10   -1.90    3.94
  -1  -6   9    7.59    4.30
  -1  -6   9    2.19    1.72
   1   6  -9    5.06    2.77
  -1  -6   8    0.32    1.03
  -1  -6   8    0.15    1.07
   1   6  -8    0.79    1.51
  -1  -6   7   -1.85    1.51
   1   6  -7    0.85    0.44
  -1  -6   7    4.23    2.68
  -1  -6   6    1.94    2.72
   1   6  -6    2.50    1.85
  -1  -6   6    1.21    1.93
  -1  -6   5    2.35    2.52
   1   6  -5    4.99    2.48
  -1  -6   5    6.08    3.41
  -1  -6   4   -1.05    1.33
   1   6  -4   -0.57    2.01
  -1  -6   4    3.74    3.36
   1   6  -3    0.42    1.40
  -1  -6   3    1.57    2.97
  -1  -6   3    3.29    3.59
  -1  -6   2   14.18    6.04
  -1  -6   2   14.63    5.26
  -1  -6   1   10.57    5.09
  -1  -6   0   17.71    2.70
  -1  -6   0   45.45   11.33
  -1  -6  -1    0.50    0.47
   1   6   1    0.54    1.76
  -1  -6  -2    3.29    1.52
   1   6   2    4.67    2.64
  -1  -6  -3   15.20    3.81
   1   6   3   32.80   10.17
  -1  -6  -4    0.13    0.52
   1   6   4   -3.15    2.30
  -1  -6  -4    3.97    3.19
  -1  -6  -5   11.12    4.09
  -1  -6  -5   22.41    7.74
   1   6   5   21.47    6.52
  -1  -6  -6   21.48    8.13
  -1  -6  -6   17.57    4.95
   1   6   6   26.11    7.68
  -1  -6  -7   -0.08    2.94
  -1  -6  -7    1.71    1.41
   1   6   7   -2.34    2.91
  -1  -6  -8    4.88    4.95
  -1  -6  -8   -0.69    0.62
   1   6   8    2.67    4.01
  -1  -6  -9    5.12    4.59
  -1  -6  -9    2.54    1.50
   1   6   9    4.00    3.43
  -1  -6 -10    4.09    7.28
  -1  -6 -10    0.42    0.72
   1   6  10    0.23    4.31
  -1  -6 -11   -1.42    3.09
  -1  -6 -11    1.71    4.18
   1   6  11    5.47    4.25
  -1  -6 -12   -2.05    1.43
   1   6  12   -0.66    1.70
  -1  -6 -12    2.99    2.64
  -1  -6 -13    3.94    5.03
  -1  -6 -13   -1.22    1.88
   1   6  13    4.02    6.00
   1   6  14    7.90    6.22
  -1  -6 -14    5.86    4.76
  -1  -6 -14   11.13    7.31
  -1  -6 -15    0.72    1.62
   1   6  15   -5.10    5.39
  -1  -6 -16   -1.75    3.82
   1   6  16    1.02    3.06
  -1  -6 -17   -4.05    4.66
   1   6  17    2.90    0.62
  -1  -6 -18    1.13    3.03
  -1  -7  18   -2.22    4.81
  -1  -7  18    0.94    3.73
  -1  -7  17    2.03    2.21
  -1  -7  17   -2.02    2.78
  -1  -7  16   -1.54    1.93
  -1  -7  16   -2.30    1.89
  -1  -7  15   13.28    8.76
  -1  -7  15   13.96    8.14
  -1  -7  14   -1.62    5.04
  -1  -7  14   -1.82    3.21
  -1  -7  13   18.59    8.51
  -1  -7  13   12.62    6.90
  -1  -7  12    4.94    2.92
  -1  -7  12    5.03    3.65
  -1  -7  11    5.66    2.78
  -1  -7  11    0.08    0.84
  -1  -7  10    1.39    2.18
  -1  -7  10    0.85    1.58
  -1  -7   9    1.33    1.64
  -1  -7   9    5.89    2.72
  -1  -7   8   70.60   14.03
  -1  -7   8   91.62   15.66
   1   7  -8   66.88    8.91
  -1  -7   7  234.09   24.41
  -1  -7   7  264.67   26.02
   1   7  -7  225.34   15.98
  -1  -7   6   40.27   10.15
  -1  -7   6   42.06   10.08
   1   7  -6   35.91    6.57
  -1  -7   5   34.95    9.23
   1   7  -5   36.98    6.44
  -1  -7   5   38.56   10.26
  -1  -7   4   21.11    7.09
   1   7  -4   26.49    6.16
  -1  -7   4   24.48    7.55
  -1  -7   3    0.69    2.46
  -1  -7   3    9.35    4.78
   1   7  -3    2.35    1.09
  -1  -7   2    7.11    4.27
   1   7  -2    6.92    3.05
  -1  -7   1   43.88   10.91
  -1  -7   0   17.24    8.19
   1   7   1    8.98    4.85
  -1  -7  -1    5.86    3.42
   1   7   2   37.86    9.40
   1   7   3    8.47    3.03
   1   7   4    5.72    3.96
   1   7   5   -0.68    0.60
  -1  -7  -5    1.17    1.18
  -1  -7  -6   18.15    8.50
   1   7   6    8.37    6.33
  -1  -7  -7   10.84    6.69
  -1  -7  -7    5.78    2.96
   1   7   7   13.83    5.56
  -1  -7  -8    4.58    5.12
  -1  -7  -8    3.09    2.92
   1   7   8    4.93    5.03
  -1  -7  -9    2.20    1.76
   1   7   9   -0.80    3.81
  -1  -7  -9    0.87    0.92
  -1  -7 -10    7.59    4.39
  -1  -7 -10    3.99    1.62
   1   7  10   12.73    6.31
  -1  -7 -11   -3.91    4.11
   1   7  11    4.91    6.62
  -1  -7 -11    1.65    2.95
   1   7  12    2.80    0.70
  -1  -7 -12    1.66    3.40
  -1  -7 -13    0.40    3.55
   1   7  13   12.13    7.78
   1   7  14    2.66    4.41
   1   7  15   -2.79    3.02
   1   7  16   -1.69    4.31
  -1  -8  19   -2.78    5.84
  -1  -8  18   -2.99    6.06
  -1  -8  17  -11.48    7.74
  -1  -8  17    2.47    5.70
  -1  -8  16   -4.54    4.35
  -1  -8  16    1.34    4.17
  -1  -8  15   12.87    7.70
  -1  -8  15    5.75    5.42
  -1  -8  14    5.21    4.47
  -1  -8  14   10.26    7.17
  -1  -8  13    2.99    5.48
  -1  -8  13   -0.53    1.32
  -1  -8  12    5.89    7.64
  -1  -8  12    5.86    5.09
  -1  -8  11    4.21    5.53
  -1  -8  11    7.65    5.00
  -1  -8  10    8.67    7.00
  -1  -8  10    7.20    5.78
  -1  -8   9   16.15    7.86
  -1  -8   9   13.74    6.48
  -1  -8   8  112.57   18.62
  -1  -8   8  155.01   22.02
  -1  -8   7    3.83    3.55
  -1  -8   7    0.27    3.67
  -1  -8   6  300.39   29.70
  -1  -8   6  332.52   31.10
  -1  -8   5   65.52   13.68
  -1  -8   5   70.54   13.76
  -1  -8   4   13.36    6.24
  -1  -8   4   11.38    4.57
  -1  -8   3   10.66    5.62
  -1  -8   3   13.24    6.71
  -1  -8   2    3.31    5.74
  -1  -8   1   54.86   12.98
  -1  -8   0   66.61   14.22
  -1  -8  -1    9.81    5.57
   1   8   2   51.77   11.32
  -1  -8  -2   66.45   15.89
   1   8   3   18.51    7.02
   1   8   4    1.70    3.65
   1   8   5    2.44    2.26
  -1  -8  -5    2.50    3.94
  -1  -8  -6   17.53    7.72
   1   8   6   17.19    7.97
  -1  -8  -7    4.39    6.16
   1   8   7    5.31    4.42
  -1  -8  -8   -0.40    2.09
   1   8   8    5.46    5.04
   1   8   9   -2.62    1.61
  -1  -8  -9    2.06    4.94
  -1  -8 -10    0.15    2.77
   1   8  10   -2.88    5.23
  -1  -8 -11    2.24    3.98
   1   8  11   -1.16    3.79
  -1  -8 -12   -0.22    4.60
   1   8  12    7.21   10.55
   1   8  13    9.76    8.25
   1   8  14   -1.16    3.23
   1   8  15   -5.21    6.37
  -1  -9  17   -4.16    4.30
  -1  -9  16    0.43    1.57
  -1  -9  16    3.96    5.27
  -1  -9  15    6.60    9.77
  -1  -9  15   -0.90    2.48
  -1  -9  14    0.45    1.15
  -1  -9  14    8.86    7.33
  -1  -9  13    2.72    2.95
  -1  -9  13   -0.57    5.16
  -1  -9  12    7.82    3.54
  -1  -9  12   -1.30    2.70
  -1  -9  11    5.53    5.79
  -1  -9  11   13.35    8.05
  -1  -9  10    2.85    3.97
  -1  -9  10    4.79    5.27
  -1  -9   9    2.06    3.45
  -1  -9   9    3.81    5.36
  -1  -9   8    1.93    3.83
  -1  -9   8    3.43    4.39
  -1  -9   7    1.16    1.97
  -1  -9   7   -0.66    3.00
  -1  -9   6   14.98    8.01
  -1  -9   6    5.17    5.00
  -1  -9   5   -0.58    3.30
  -1  -9   5   12.38    8.50
  -1  -9   4    0.16    1.07
  -1  -9   4    2.61    0.78
  -1  -9   3    4.81    3.66
  -1  -9   2   -0.12    2.82
  -1  -9   1    3.55    3.73
  -1  -9   0    9.83    8.04
  -1  -9  -1   18.96    9.56
  -1  -9  -2   -3.69    3.83
   1   9   3    4.70    3.10
  -1  -9  -3   14.51    6.67
  -1  -9  -4   -1.91    4.24
   1   9   4    5.78    4.95
  -1  -9  -5    0.37    0.85
   1   9   5    0.23    2.23
   1   9   6   45.39   12.23
  -1  -9  -6    5.76    4.27
   1   9   7    5.61    5.65
  -1  -9  -7   15.05    9.00
   1   9   8   -1.68    3.03
  -1  -9  -8   -2.22    4.17
   1   9   9   21.18   11.16
  -1  -9  -9   24.11   10.27
   1   9  10   -2.15    4.59
  -1  -9 -10   -0.48    2.99
   1   9  11   -2.19    4.78
   1   9  12   -3.71    4.84
   1   9  13   -0.04    2.53
  -1 -10  14    2.74    4.78
  -1 -10  13   -0.58    2.05
  -1 -10  13   -7.52    6.10
  -1 -10  12    1.19    7.37
  -1 -10  12   -0.13    1.01
  -1 -10  11   11.65    7.44
  -1 -10  11   -1.46    1.96
  -1 -10  10   -3.03    5.65
  -1 -10  10   -0.20    2.40
  -1 -10   9    5.01    2.66
  -1 -10   9    7.27    6.11
  -1 -10   8    4.43    5.15
  -1 -10   8    8.86    6.17
  -1 -10   7    1.91    6.31
  -1 -10   7   -1.97    4.40
  -1 -10   6    2.90    5.36
  -1 -10   6    1.22    3.73
  -1 -10   5   -0.60    3.67
  -1 -10   4    0.05    2.08
  -1 -10   3    2.14    5.04
  -1 -10   2    3.12    5.31
  -1 -10   1   -2.71    4.30
  -1 -10   0    1.02    4.32
  -1 -10  -1    2.40    3.93
  -1 -10  -2   -2.14    6.33
  -1 -10  -3    0.33    2.70
  -1 -10  -4   14.13    9.35
  -1 -10  -4    7.41    5.47
  -1 -10  -5   -6.27    7.78
   1  10   5   -6.49    6.31
  -1 -10  -5   -0.64    3.00
  -1 -10  -6    0.78    2.11
   1  10   6   -0.12    1.54
  -1 -10  -7   -1.15    2.11
   1  10   7    7.31    5.99
   1  10   8    2.90    4.06
  -1 -10  -8    7.43    5.48
   1  10   9   -4.24    8.06
  -1 -10  -9    2.23    0.75
   1  10  10   -7.27    7.30
   1  10  11    3.48    5.34
  -1 -11  11   -3.90    3.88
  -1 -11  10    1.93    4.14
  -1 -11  10    1.38    4.01
  -1 -11   9    2.53    3.88
  -1 -11   9    6.79    6.68
  -1 -11   8    2.06    3.66
  -1 -11   8   -0.05    4.17
  -1 -11   7    5.58    3.97
  -1 -11   6   -4.29    3.82
  -1 -11   5   -3.11    3.97
  -1 -11   4   -0.40    2.16
  -1 -11   3    1.16    2.65
  -1 -11   2    0.57    4.11
  -1 -11   1   -0.88    2.87
  -1 -11   0    1.67    2.40
  -1 -11  -1    2.37    4.29
  -1 -11  -2   -3.70    3.49
  -1 -11  -3   -4.35    6.11
  -1 -11  -4    1.79    3.97
  -1 -11  -4   -3.06    7.98
  -1 -11  -5    4.15    2.03
  -1 -11  -5   -5.66    5.26
  -1 -11  -6    1.77    3.62
   1  11   7   -2.04    6.68
  -1 -11  -7    1.80    3.05
  -1 -11  -8    1.76    3.07
   2 -12  -2    7.01    4.43
   2 -12  -1    1.19    4.55
   2 -12   0    1.86    2.46
   2 -12   1   -2.92    3.60
   2 -12   2    1.99    1.50
   2 -12   2   -0.95    2.38
   2 -12   3    1.86    4.14
   2 -12   3    4.65    5.75
   2 -12   4    1.95    3.40
   2 -12   4    9.55    8.20
   2 -12   5   -0.21    4.95
   2 -12   5    6.60    5.59
   2 -12   6   -1.10    3.79
   2 -11  -7   -1.39    3.36
   2 -11  -6  -12.64    8.93
   2 -11  -5   -1.81    2.78
   2 -11  -4   -1.80    5.78
   2 -11  -3   -0.43    3.98
   2 -11  -2   -2.08    4.30
   2 -11  -1   -0.87    1.27
   2 -11   0    5.38    5.99
   2 -11   0   -2.11    1.62
   2 -11   1    1.02    4.31
   2 -11   1   -1.71    4.60
   2 -11   2   -1.20    1.51
   2 -11   2   11.35    9.12
   2 -11   3   -5.13    5.02
   2 -11   3   -3.34    2.84
   2 -11   4    2.42    4.32
   2 -11   4   -4.23    2.52
   2 -11   5   -3.68    4.81
   2 -11   5    0.35    4.12
   2 -11   6   -1.47    3.71
   2 -11   6    2.01    1.75
   2 -11   7   -3.05    3.61
   2 -11   7    0.11    3.01
   2 -11   8    2.03    5.84
   2 -11   8    5.43    6.10
   2 -11   9   -3.92    6.00
   2 -11   9    3.51    2.26
   2 -11  10   -2.88    5.13
   2 -11  11    2.20    5.72
  -2  10   8    9.45    7.40
  -2  10   7    1.32    0.94
   2 -10  -6    4.69    5.62
  -2  10   6   -0.05    4.74
  -2  10   5   -2.90    6.42
   2 -10  -5    3.86    1.77
  -2  10   4    3.31    3.38
   2 -10  -4   -0.93    2.44
   2 -10  -3    7.38    7.81
   2 -10  -2    6.50    7.00
   2 -10  -1   -2.20    2.84
   2 -10  -1    7.14    5.39
   2 -10   0   -0.98    2.45
   2 -10   0   -1.30    3.81
   2 -10   1   -2.39    4.95
   2 -10   1   -4.12    5.30
   2 -10   2   -1.42    4.38
   2 -10   2    3.47    5.03
   2 -10   3    6.59    4.62
   2 -10   3   -1.50    3.14
   2 -10   4    1.59    3.48
   2 -10   4   -3.06    4.77
   2 -10   5    3.74    4.18
   2 -10   6   -3.32    1.49
   2 -10   7   11.09    6.54
   2 -10   8    0.00    1.09
   2 -10   9    1.59    1.92
   2 -10  10    1.95    5.08
   2 -10  11   -1.73    4.62
   2 -10  12   -1.49    3.89
   2 -10  13    2.50    3.37
   2 -10  14    5.45    7.57
  -2   9  11    8.29    7.00
  -2   9  10    2.44    5.92
  -2   9  10    1.31    3.44
  -2   9   9    2.60    3.59
  -2   9   8    3.73    6.34
  -2   9   7    1.68    3.72
  -2   9   6    1.30    4.59
  -2   9   5   -3.13    5.91
   2  -9  -4   84.84   20.05
  -2   9   4   53.59   14.67
   2  -9  -3   73.97   17.41
  -2   9   3   57.53   14.81
   2  -9  -2    0.81    2.92
   2  -9  -2   -3.04    4.34
   2  -9  -1   74.67   16.28
   2  -9  -1   74.61   16.00
   2  -9   0    8.37    6.08
   2  -9   0    6.88    6.04
   2  -9   1    3.41    2.74
   2  -9   1    7.71    4.45
   2  -9   2   -4.63    4.40
   2  -9   3   -3.79    3.69
   2  -9   4    2.95    2.48
   2  -9   5    1.76    2.84
   2  -9   6   -2.93    3.12
   2  -9   7   -0.84    5.76
   2  -9   8   -2.44    3.12
   2  -9   9    0.46    3.02
   2  -9  10   -0.61    0.78
   2  -9  11    0.22    0.45
   2  -9  12    4.18    4.72
  -2   9 -12    2.08    2.20
   2  -9  13   -2.78    3.52
   2  -9  14    5.90    5.56
   2  -9  15   -1.44    3.44
   2  -9  16    3.81    4.05
  -2   8  13    2.89    5.85
  -2   8  12    1.50    4.65
  -2   8  11    6.31    7.10
  -2   8  10    1.21    2.39
  -2   8  10   -2.52    3.55
  -2   8   9    0.80    3.92
  -2   8   8   -0.97    1.39
  -2   8   7   20.94    8.93
  -2   8   6    4.72    4.95
  -2   8   5   17.12    8.52
   2  -8  -4   18.35    6.42
  -2   8   4   22.70    9.26
   2  -8  -3   57.35   12.24
   2  -8  -3   69.47   16.55
  -2   8   3   51.36   13.09
   2  -8  -2  110.10   17.68
  -2   8   2  129.67   23.30
  -2   8   2   99.56   18.60
   2  -8  -2  128.95   21.06
   2  -8  -1    1.59    3.93
   2  -8   0    2.32    2.92
   2  -8   1   -5.49    4.88
   2  -8   2    9.26    5.25
   2  -8   3   14.69    7.32
   2  -8   4    7.27    3.34
   2  -8   5    7.54    4.74
   2  -8   6   31.19   10.09
   2  -8   7    0.25    2.01
   2  -8   8    6.31    5.81
   2  -8   9   -1.09    2.30
   2  -8  10    0.04    3.86
   2  -8  11    0.18    3.35
   2  -8  12    3.31    4.21
  -2   8 -12    0.65    1.75
   2  -8  13    7.51    8.39
   2  -8  14    1.11    1.62
   2  -8  15   -1.00    1.74
   2  -8  16   52.67   19.96
   2  -8  17   12.31    9.76
  -2   7  15    2.83    6.36
  -2   7  14    6.03    5.30
  -2   7  13    0.98    1.14
  -2   7  12   -0.54    2.18
  -2   7  11    3.02    3.28
  -2   7  11    0.14    1.03
  -2   7  10   -3.23    3.05
  -2   7  10    4.41    2.24
  -2   7   9   12.21    7.01
  -2   7   8    1.08    1.89
  -2   7   7   -0.11    0.64
  -2   7   6   12.95    6.60
   2  -7  -5    4.29    2.77
  -2   7   5    9.53    6.23
   2  -7  -4    1.97    1.20
  -2   7   4    3.56    4.56
  -2   7   4    2.08    2.18
  -2   7   3    4.63    3.62
  -2   7   3    0.85    2.14
   2  -7  -3    0.99    0.35
   2  -7  -2    5.59    3.21
  -2   7   2    5.15    5.29
  -2   7   2    4.45    4.47
   2  -7  -1    8.09    5.81
  -2   7   1    3.63    4.19
   2  -7   0   -0.18    1.50
   2  -7   1    1.36    3.23
   2  -7   2   12.61    5.23
   2  -7   3    4.44    4.15
   2  -7   4   16.09    6.73
   2  -7   5   19.85    7.74
   2  -7   6    8.57    6.19
   2  -7   7    5.68    5.39
   2  -7   8    1.62    4.17
   2  -7   9   -0.97    3.35
   2  -7  10    3.50    4.07
   2  -7  11    2.17    3.88
  -2   7 -11    7.96    6.68
   2  -7  12    3.87    4.38
  -2   7 -12   10.01    5.68
   2  -7  13   11.94    6.92
   2  -7  14    8.30    7.22
   2  -7  15    5.20    5.14
   2  -7  16   11.62    8.83
   2  -7  17    3.66    4.41
   2  -7  18    4.65    3.29
   2  -6 -18    2.76    3.42
   2  -6 -17    0.58    2.88
   2  -6 -16   12.20    7.79
  -2   6  16   23.82   13.23
   2  -6 -15   -0.50    2.50
  -2   6  15    3.87    6.53
   2  -6 -14    1.86    1.41
  -2   6  14    0.96    4.18
  -2   6  13    2.42    3.01
   2  -6 -13    1.44    1.48
   2  -6 -12   10.83    5.26
  -2   6  12   14.09    7.94
  -2   6  11   26.11   10.23
   2  -6 -11   20.85    6.72
  -2   6  11   24.80    9.02
   2  -6 -10    6.09    3.48
  -2   6  10    5.37    3.75
  -2   6  10    8.52    5.73
   2  -6  -9    3.59    2.30
  -2   6   9    4.03    4.82
  -2   6   9    2.37    1.23
   2  -6  -8   35.07    7.43
  -2   6   8   49.80   12.18
   2  -6  -7    6.46    2.96
  -2   6   7    5.06    2.94
   2  -6  -6    2.09    2.00
   2  -6  -6    1.74    0.54
  -2   6   6    6.63    4.66
   2  -6  -5   29.09    6.31
  -2   6   5   26.81    6.95
  -2   6   5   28.62    9.03
   2  -6  -5   41.63    6.42
  -2   6   4    1.96    1.88
   2  -6  -4    0.25    0.86
  -2   6   4   -0.86    1.77
  -2   6   3   37.68    9.62
   2  -6  -3   23.91    4.16
  -2   6   3   36.91   10.13
  -2   6   2    4.97    2.46
   2  -6  -2    1.84    0.95
  -2   6   2    4.57    3.74
   2  -6  -1    0.39    0.18
  -2   6   1    0.16    0.99
  -2   6   1    0.53    0.62
   2  -6   0    0.75    0.35
   2  -6   0   57.06   10.46
   2  -6   1   64.88   10.97
  -2   6  -2    0.24    0.83
   2  -6   2   78.79   13.11
  -2   6  -3    1.26    1.86
   2  -6   4   12.81    5.53
  -2   6  -4    8.75    4.12
   2  -6   5    0.35    2.74
  -2   6  -5    0.80    2.66
   2  -6   6    2.12    4.41
  -2   6  -6   -2.35    0.90
   2  -6   7   26.86    8.33
  -2   6  -7   15.54    5.28
   2  -6   8   -1.72    4.29
  -2   6  -8    1.94    1.76
   2  -6   9    1.14    2.91
  -2   6  -9    1.99    2.26
  -2   6  -9    2.21    1.38
   2  -6  10    1.90    2.76
  -2   6 -10    3.51    2.62
  -2   6 -10    3.83    4.13
   2  -6  11    1.38    1.96
  -2   6 -11    1.69    2.68
  -2   6 -11    9.47    7.30
  -2   6 -12    8.54    9.14
   2  -6  12    9.28    5.79
  -2   6 -12    0.12    2.26
   2  -6  13    4.10    6.43
  -2   6 -13    1.81    2.39
   2  -6  14    3.13    3.55
  -2   6 -14    3.49    4.23
   2  -6  15   -2.81    5.47
  -2   6 -15    2.08    1.35
   2  -6  16    4.35    7.16
  -2   6 -16   -0.53    3.75
  -2   6 -17    0.00    4.22
   2  -6  17    5.86    8.20
  -2   6 -18   -4.61    7.50
   2  -5 -19    0.00    4.03
   2  -5 -18   85.98   20.83
  -2   5  18  143.80   33.77
   2  -5 -17   -1.54    4.46
  -2   5  17    3.19    5.51
   2  -5 -16    6.36    3.66
  -2   5  16   11.69    7.79
   2  -5 -15   10.41    6.91
  -2   5  15    5.39    5.88
   2  -5 -14    0.28    2.24
  -2   5  14    5.57    5.65
   2  -5 -13   13.86    6.77
  -2   5  13   19.58   11.07
   2  -5 -12    6.70    4.34
  -2   5  12   -0.80    2.58
  -2   5  11    8.38    4.69
   2  -5 -11   10.56    4.84
  -2   5  11    1.35    4.40
  -2   5  10   51.02   12.75
   2  -5 -10   59.13   11.57
  -2   5  10   48.20   11.89
   2  -5  -9   15.01    5.15
  -2   5   9   14.40    6.63
  -2   5   9   23.61    8.26
   2  -5  -8    1.39    1.42
  -2   5   8    2.82    4.81
  -2   5   8    3.47    3.79
   2  -5  -7   29.91    6.79
  -2   5   7   49.62   12.06
  -2   5   7   35.41    9.26
   2  -5  -6   97.01    9.09
   2  -5  -6  130.29   13.42
  -2   5   6  131.32   18.18
   2  -5  -5    4.09    2.51
  -2   5   5    6.49    3.80
  -2   5   4    1.71    0.56
  -2   5   4    2.08    2.16
   2  -5  -4    0.81    1.15
   2  -5  -3   18.37    4.15
  -2   5   3   23.68    9.10
  -2   5   3   24.59    7.12
   2  -5  -2   -0.98    1.01
  -2   5   2   -0.13    0.94
  -2   5   2   -1.39    2.12
   2  -5  -1   -1.81    1.16
  -2   5   1    3.75    3.70
   2  -5  -1    0.75    1.37
  -2   5   1    2.78    3.90
   2  -5   0   32.16    7.47
   2  -5   0   31.41    5.40
  -2   5  -1    3.02    2.31
   2  -5   1    3.37    1.76
   2  -5   1    1.01    1.36
   2  -5   2    9.98    4.02
   2  -5   2    4.26    2.00
  -2   5  -2    7.16    3.25
  -2   5  -3    6.52    3.43
   2  -5   3    5.43    2.90
  -2   5  -4    1.38    1.57
   2  -5   4    0.90    1.25
  -2   5  -5    5.11    4.07
   2  -5   5    5.50    2.95
  -2   5  -6   71.86   11.98
   2  -5   6  160.44   25.13
   2  -5   7   32.49    8.65
  -2   5  -7   35.00   10.16
  -2   5  -7   24.86    6.30
   2  -5   8    7.92    4.63
  -2   5  -8    1.46    2.99
  -2   5  -8    2.24    3.47
   2  -5   9    9.07    4.45
  -2   5  -9    5.22    3.18
  -2   5  -9   11.61    5.22
  -2   5 -10    3.96    1.17
   2  -5  10   12.21    6.64
  -2   5 -10   -0.20    2.71
   2  -5  11    6.74    2.53
  -2   5 -11    1.64    1.79
  -2   5 -11    5.15    4.69
   2  -5  12    1.88    0.38
  -2   5 -12    2.45    6.19
  -2   5 -12   -1.55    1.72
   2  -5  13    0.91    3.17
  -2   5 -13    0.12    1.39
   2  -5  14   -2.98    3.98
  -2   5 -14   -1.58    2.51
  -2   5 -15   -4.00    5.74
   2  -5  15    0.95    1.69
  -2   5 -16   -2.94    6.56
   2  -5  16   -5.19    3.26
  -2   5 -17   -0.77    3.55
  -2   5 -18    0.00    3.27
  -2   5 -19    0.41    3.57
  -2   5 -20   -4.46    5.02
   2  -4 -19    0.11    1.85
   2  -4 -18    0.20    2.14
  -2   4  18    0.27    0.43
   2  -4 -17    2.24    3.33
  -2   4  17    0.42    5.29
  -2   4  16    9.49   11.10
   2  -4 -16   -0.36    2.96
   2  -4 -15    0.10    1.64
  -2   4  15   -0.70    5.39
   2  -4 -14    2.57    4.62
  -2   4  14    0.39    2.84
   2  -4 -13    6.43    6.11
  -2   4  13    2.41    2.35
   2  -4 -12    9.31    5.82
  -2   4  12   11.10    5.36
  -2   4  12   14.27    8.15
   2  -4 -11   49.89   11.47
  -2   4  11   34.50    8.67
  -2   4  11   42.85   11.60
   2  -4 -10    5.41    4.54
  -2   4  10    0.66    0.77
  -2   4  10    1.41    3.91
   2  -4  -9   41.70    9.30
  -2   4   9   12.52    4.89
  -2   4   9   22.57    7.23
  -2   4   8   57.04   11.38
   2  -4  -8   64.87   11.08
   2  -4  -8   51.15    5.29
  -2   4   8   76.69   13.22
   2  -4  -7    1.16    0.54
   2  -4  -7    0.22    0.46
   2  -4  -7    2.17    1.68
  -2   4   7    2.08    2.00
  -2   4   7    0.85    1.48
   2  -4  -6   -1.13    1.40
  -2   4   6    1.04    1.58
  -2   4   6   -3.31    2.28
   2  -4  -5  266.60   19.19
  -2   4   5  240.60   22.35
  -2   4   5  314.09   27.11
   2  -4  -4   30.39    6.12
  -2   4   4   36.89    8.94
  -2   4   4   37.69    8.83
   2  -4  -3  414.58   22.49
  -2   4   3  378.01   26.52
  -2   4   3  478.64   32.91
  -2   4   3  376.88   25.65
  -2   4   2   75.54   11.37
  -2   4   2   98.38   13.74
   2  -4  -2   92.50   10.53
   2  -4  -1   99.40   10.93
  -2   4   1   95.46   12.63
  -2   4   1  136.18   17.12
   2  -4  -1  112.93   12.57
  -2   4   0   57.57   10.54
   2  -4   0   64.61    8.89
   2  -4   0   58.10    7.56
  -2   4   0   49.67    7.80
  -2   4   0   85.48   14.31
  -2   4  -1   79.85   10.12
  -2   4  -1  156.93   20.48
   2  -4   1   99.62   11.21
  -2   4  -2  104.47   12.56
   2  -4   2  114.21   12.23
  -2   4  -3  268.55   24.56
  -2   4  -3  225.68   20.06
   2  -4   3  217.95   17.89
   2  -4   4    0.51    0.48
  -2   4  -4    0.61    2.08
  -2   4  -4    3.30    3.51
  -2   4  -5  105.06   15.95
  -2   4  -5   85.30   12.25
   2  -4   5  101.47   13.74
   2  -4   6   56.87   10.80
  -2   4  -6   50.14    9.57
  -2   4  -6   55.57   11.76
   2  -4   7   57.12   11.25
  -2   4  -7   35.61    7.94
  -2   4  -7   48.76   11.27
  -2   4  -8   -0.25    1.37
   2  -4   8   -1.34    2.71
  -2   4  -8    0.43    1.02
   2  -4   9   16.34    7.12
  -2   4  -9   11.43    6.16
  -2   4  -9    8.48    4.33
   2  -4  10   -0.80    2.17
  -2   4 -10   -0.31    4.02
  -2   4 -10    2.78    3.81
   2  -4  11    6.81    5.96
  -2   4 -11    0.50    2.00
  -2   4 -11    0.00    1.34
   2  -4  12    5.28    5.14
  -2   4 -12    0.17    3.06
  -2   4 -12    5.08    4.64
  -2   4 -13    6.01    4.65
   2  -4  13    3.56    4.97
  -2   4 -14    5.69    5.64
   2  -4  14    6.93    8.06
  -2   4 -15    7.15    6.75
  -2   4 -16    2.28    6.00
  -2   4 -17    3.09    3.28
  -2   4 -18   -0.60    3.07
  -2   4 -19   -1.79    3.06
  -2   4 -20   -1.69    2.64
  -2   4 -20    1.95    5.83
   2  -3 -20    3.36    4.98
  -2   3  19   21.38   13.86
   2  -3 -19    1.59    5.34
  -2   3  18   15.32   12.70
   2  -3 -18    4.47    5.64
  -2   3  17   11.11   12.62
   2  -3 -17    3.23    3.28
  -2   3  16    1.04    0.86
   2  -3 -16    4.41    5.80
  -2   3  15    2.84    7.55
   2  -3 -15    6.28    5.47
  -2   3  14   39.42   13.97
   2  -3 -14   19.84    8.12
  -2   3  13    1.74    5.45
   2  -3 -13    0.80    3.19
  -2   3  12   21.62    9.81
  -2   3  12    8.33    3.80
   2  -3 -12   23.93    8.49
  -2   3  11    6.62    3.40
   2  -3 -11   22.62    8.34
  -2   3  11    6.82    2.87
   2  -3 -10   -1.52    2.21
  -2   3  10    0.05    1.53
  -2   3  10   -2.16    0.95
   2  -3  -9    5.44    3.92
  -2   3   9    1.18    1.54
  -2   3   9    7.68    4.25
  -2   3   8  206.18   20.15
   2  -3  -8  238.33   20.98
  -2   3   8  155.67   16.16
   2  -3  -7    2.97    1.97
  -2   3   7    6.50    3.38
  -2   3   7    1.19    1.67
  -2   3   6   20.11    6.47
   2  -3  -6   25.87    6.37
  -2   3   6   17.57    6.96
   2  -3  -5   94.26   11.72
  -2   3   5   78.04   11.80
  -2   3   5   79.09   11.45
   2  -3  -4  589.68   29.68
  -2   3   4  486.59   29.97
  -2   3   4  543.84   30.68
  -2   3   3   41.60    9.62
   2  -3  -3   23.02    8.16
  -2   3   3   21.08    7.55
   2  -3  -2  216.41   16.99
  -2   3   2  207.14   17.17
  -2   3   2  227.66   19.65
  -2   3   2  228.26   18.60
  -2   3   1  272.06   19.29
  -2   3   1  341.91   24.21
   2  -3  -1  268.03   16.93
  -2   3   1  326.99   23.87
  -2   3   1  276.17   18.53
  -2   3   0  181.91   14.91
  -2   3   0  198.47   16.21
  -2   3   0  221.53   19.45
  -2   3   0  226.42   20.74
   2  -3   0  200.32   13.56
   2  -3   1   18.71    3.77
  -2   3  -1   30.27    6.53
  -2   3  -1   41.92    9.32
  -2   3  -1   26.81    7.12
  -2   3  -2  154.97   16.47
  -2   3  -2  226.05   22.87
  -2   3  -2  149.57   15.52
   2  -3   2  159.61   13.05
  -2   3  -3 1541.52   51.75
  -2   3  -3 1587.76   53.60
   2  -3   3 1659.22   45.30
  -2   3  -4 3473.02   79.23
  -2   3  -4 3510.37   81.78
   2  -3   4 3727.17   72.42
  -2   3  -5  111.34   14.06
  -2   3  -5  122.45   15.49
   2  -3   5  128.51   14.17
  -2   3  -6  505.29   30.16
  -2   3  -6  597.57   35.49
   2  -3   6  594.11   32.37
   2  -3   7   46.39    9.71
  -2   3  -7   66.18   12.30
  -2   3  -7   40.70    8.50
   2  -3   8    2.67    4.19
  -2   3  -8    8.08    4.78
  -2   3  -8    8.33    4.08
   2  -3   9   21.62    7.23
  -2   3  -9   12.43    5.55
  -2   3  -9   15.14    5.65
   2  -3  10    5.03    2.39
  -2   3 -10   15.68    5.96
  -2   3 -10   11.25    4.68
  -2   3 -11   13.71    5.05
  -2   3 -11   15.21    5.65
   2  -3  11   20.33    7.79
  -2   3 -12   76.44   14.98
  -2   3 -13   13.28    6.56
  -2   3 -14    3.97    4.50
  -2   3 -15   -5.03    4.48
  -2   3 -16    0.05    3.04
  -2   3 -17   -0.12    1.68
  -2   3 -18    8.40    7.38
  -2   3 -18   -2.13    4.78
  -2   3 -19   -0.96    4.10
  -2   3 -19    5.05    8.26
  -2   3 -20    0.38    4.16
  -2   2  20    6.09    8.27
   2  -2 -20   -1.84    4.97
  -2   2  19    0.73    2.31
   2  -2 -19   -1.94    4.32
  -2   2  18    9.60    8.75
   2  -2 -18    1.75    3.60
  -2   2  17   -7.79    9.53
   2  -2 -17   -1.70    3.78
  -2   2  16   -4.38    9.20
   2  -2 -16    0.70    1.92
  -2   2  15   20.68   13.52
   2  -2 -15   15.50    7.25
  -2   2  14   -2.20    7.85
   2  -2 -14    1.11    1.26
  -2   2  13    6.47    5.92
   2  -2 -13    1.69    2.08
  -2   2  12    5.62    6.17
   2  -2 -12   -2.06    1.62
  -2   2  12   -0.20    1.19
  -2   2  11    0.97    1.05
  -2   2  11   -1.41    1.99
   2  -2 -11   -1.32    1.56
  -2   2  10    8.00    4.82
   2  -2 -10    8.60    4.16
  -2   2  10    8.93    3.39
  -2   2   9   88.82   14.22
   2  -2  -9   81.33   12.61
  -2   2   9   54.81    8.71
  -2   2   8   29.41    7.58
  -2   2   8   26.12    6.12
   2  -2  -8   23.40    6.48
  -2   2   7   12.07    4.45
   2  -2  -7    6.15    2.92
   2  -2  -7    3.88    1.04
  -2   2   7    5.34    2.86
   2  -2  -6    4.28    2.02
  -2   2   6    8.08    3.01
  -2   2   6    3.55    2.64
  -2   2   5   10.75    4.09
   2  -2  -5   15.74    4.69
  -2   2   5   14.36    4.41
   2  -2  -4    3.12    1.74
  -2   2   4    3.11    2.45
   2  -2  -4    2.63    1.12
  -2   2   4    6.45    2.51
   2  -2  -3   23.23    5.47
  -2   2   3   18.74    4.82
  -2   2   3   18.16    4.67
  -2   2   2   44.63    7.81
   2  -2  -2   39.41    7.04
  -2   2   2   44.13    7.20
  -2   2   2   47.72    8.03
  -2   2   1  202.88   16.53
  -2   2   1  204.04   16.83
  -2   2   1  199.70   14.56
  -2   2   1  191.96   15.41
  -2   2   0  389.54   22.40
  -2   2   0  384.81   19.94
  -2   2   0  401.78   23.49
  -2   2   0  413.11   24.86
   2  -2   0  430.99   14.92
  -2   2  -1   18.14    4.98
   2  -2   1   21.46    3.49
  -2   2  -1   19.29    5.23
  -2   2  -1   20.03    5.22
  -2   2  -2   60.27    9.92
  -2   2  -2   57.81    9.37
  -2   2  -2   56.67    9.29
   2  -2   2   63.19    6.77
  -2   2  -3  317.85   22.65
  -2   2  -3  306.03   21.78
  -2   2  -3  335.01   25.03
   2  -2   3  338.75   17.57
  -2   2  -4  111.95   13.52
  -2   2  -4  143.16   17.50
  -2   2  -4  120.04   14.12
   2  -2   4  126.51   11.61
  -2   2  -5  703.11   34.95
  -2   2  -5  681.72   34.13
  -2   2  -5  858.90   45.10
   2  -2   5  704.54   30.21
   2  -2   6   34.71    7.75
  -2   2  -6   38.03    7.95
  -2   2  -6   39.29    8.37
  -2   2  -6   56.34   12.22
   2  -2   7    2.61    0.53
  -2   2  -7    2.65    1.65
  -2   2  -7    0.29    2.20
  -2   2  -8   19.02    5.70
  -2   2  -8   22.27    7.06
   2  -2   8   13.80    6.20
  -2   2  -9    7.18    3.86
  -2   2  -9    3.01    2.09
  -2   2 -10   59.01    9.33
  -2   2 -10   83.95   14.43
  -2   2 -11   57.51    9.61
  -2   2 -11  104.14   17.48
  -2   2 -12   11.68    5.07
  -2   2 -13   21.78    9.34
  -2   2 -14    3.35    2.18
  -2   2 -14   -0.04    4.47
  -2   2 -15    1.03    1.59
  -2   2 -15    6.11    4.97
  -2   2 -16   -2.35    3.85
  -2   2 -16   -2.04    6.17
  -2   2 -17    3.45    4.69
  -2   2 -17    4.41    5.40
  -2   2 -18   -0.77    4.52
  -2   2 -19    1.80    4.03
  -2   2 -20   10.98    6.57
  -2   1  20   -4.38    5.18
   2  -1 -20   -1.20    2.20
  -2   1  19   -3.11    6.14
   2  -1 -19    1.17    0.37
  -2   1  18    8.31    8.81
   2  -1 -18    9.17    4.76
  -2   1  17    6.91    7.61
   2  -1 -17    3.88    5.83
  -2   1  16   14.76    9.62
   2  -1 -16   25.57    9.70
  -2   1  15   -3.16    4.35
   2  -1 -15   -0.40    2.27
  -2   1  14   94.45   25.92
   2  -1 -14   56.84   12.84
  -2   1  13   19.80   10.86
   2  -1 -13   16.56    6.63
  -2   1  12   11.96    5.37
   2  -1 -12    8.54    5.25
  -2   1  11    6.75    5.62
   2  -1 -11    0.47    1.94
   2  -1 -10    1.22    0.23
  -2   1  10    3.43    4.36
  -2   1   9   11.00    5.99
   2  -1  -9    9.34    4.01
  -2   1   9    1.32    2.70
  -2   1   8   48.45    9.32
   2  -1  -8   42.27    8.46
  -2   1   8   29.91    6.47
  -2   1   7   15.61    7.46
   2  -1  -7    2.28    1.24
  -2   1   7    1.70    2.23
  -2   1   6    3.24    1.63
   2  -1  -6    4.44    2.48
  -2   1   6    4.02    3.06
  -2   1   5   -1.08    1.66
  -2   1   5    0.45    0.29
   2  -1  -5    0.37    1.03
   2  -1  -4   54.43    9.28
  -2   1   4   59.90    9.01
  -2   1   4   53.94    7.54
   2  -1  -3   20.71    4.37
  -2   1   3   16.65    4.49
   2  -1  -3   16.37    4.95
   2  -1  -3   13.45    2.66
  -2   1   3   17.82    4.10
  -2   1   2  914.60   33.99
  -2   1   2  875.15   26.87
  -2   1   2  925.64   35.90
   2  -1  -2  873.56   22.18
  -2   1   1   -0.96    0.53
  -2   1   1    0.93    2.91
  -2   1   1   -0.52    1.34
  -2   1   0    1.81    2.09
  -2   1   0    0.95    0.96
  -2   1  -1  155.89   14.67
  -2   1  -1  154.61   14.55
  -2   1  -1  142.96   14.23
  -2   1  -1  134.84    5.68
  -2   1  -2    4.17    1.19
  -2   1  -2    6.33    3.37
  -2   1  -2   -1.49    2.17
  -2   1  -2    1.75    1.72
  -2   1  -3   15.32    4.67
  -2   1  -3   10.84    4.53
  -2   1  -3    9.66    3.02
  -2   1  -4  126.84   14.12
  -2   1  -4  109.61   12.39
  -2   1  -4  118.34   13.45
  -2   1  -5    8.18    3.36
  -2   1  -5   16.32    5.31
  -2   1  -5   12.26    4.40
  -2   1  -6   39.20    7.26
  -2   1  -6   48.17    9.18
  -2   1  -6   40.14    8.57
  -2   1  -7   22.22    6.91
  -2   1  -7   14.18    4.40
  -2   1  -7   19.71    6.78
  -2   1  -8   34.87    8.86
  -2   1  -8   33.92    8.54
  -2   1  -9   12.59    5.20
  -2   1  -9   25.06    7.79
  -2   1 -10    5.81    3.46
  -2   1 -10    0.35    1.82
  -2   1 -11    5.53    4.17
  -2   1 -11    9.85    6.37
  -2   1 -12   -2.85    1.24
  -2   1 -12    5.45    4.39
  -2   1 -13    3.68    3.90
  -2   1 -13    5.34    4.72
  -2   1 -14    2.63    0.75
  -2   1 -14    2.44    1.04
  -2   1 -15    6.47    4.54
  -2   1 -15    6.18    5.47
  -2   1 -16   -3.24    0.69
  -2   1 -16   -0.90    1.81
  -2   1 -17    2.43    1.02
  -2   1 -18   11.35    7.49
  -2   1 -19    5.51    4.95
  -2   1 -20    1.72    1.91
  -2   0  21    1.35    6.17
   2   0 -21   -2.41    3.38
  -2   0  20   11.41    7.27
   2   0 -20   14.05    8.49
   2   0 -19   13.39    7.71
   2   0 -18   15.61    6.72
   2   0 -17   13.74    6.80
   2   0 -16    2.70    4.80
   2   0 -15    9.35    5.57
   2   0 -14    0.96    3.26
   2   0 -13   55.22   11.46
   2   0 -12  669.77   37.90
   2   0 -11  273.64   23.47
   2   0 -10   42.85    9.02
  -2   0  10   15.24    2.47
   2   0  -9  223.88   19.61
   2   0  -8    6.71    3.61
  -2   0   7  143.71    7.47
   2   0  -7  134.39   15.09
  -2   0   6  201.98    9.75
   2   0  -6  179.31   17.18
  -2   0   6  169.14   14.49
  -2   0   5  200.47   10.33
  -2   0   5  171.84   12.78
   2   0  -5  198.43   18.22
   2   0  -4  543.87   29.71
  -2   0   4  509.61   17.45
  -2   0   4  485.67   19.65
  -2   0   3  412.30   23.02
   2   0  -3  395.11   24.78
  -2   0   3  386.69   15.83
  -2   0   3  402.10   16.53
   2   0  -3  305.60   14.03
  -2   0   2  178.32   11.35
  -2   0   2  175.60    9.56
  -2   0   2  172.30   14.59
   2   0  -2  136.14    6.62
   2   0  -1   58.81    5.13
  -2   0   1   93.89    8.80
  -2   0   1  102.31   11.62
  -2   0   1   91.32    6.06
  -2   0   0  121.76   10.69
  -2   0   0  140.30   13.50
   2   0   0   82.68    5.94
  -2   0  -1    5.21    1.47
  -2   0  -1    3.54    1.14
   2   0   1    2.07    1.16
  -2   0  -1    2.33    2.61
  -2   0  -2    9.42    2.51
  -2   0  -2   11.76    4.09
  -2   0  -2    7.37    3.58
  -2   0  -3   59.73   10.13
  -2   0  -3   61.74    9.87
  -2   0  -4    7.76    3.77
  -2   0  -4    2.48    3.54
  -2   0  -5  362.48   24.51
  -2   0  -5  306.24   22.04
  -2   0  -6    0.20    2.97
  -2   0  -6    3.11    3.08
  -2   0  -7   34.01    8.43
  -2   0  -7   33.66    7.48
  -2   0  -8   16.41    5.59
  -2   0  -8   17.82    6.20
  -2   0  -9   -0.06    0.97
  -2   0  -9    3.27    3.52
  -2   0 -10   14.36    7.04
  -2   0 -10    4.18    3.39
  -2   0 -11   32.95    9.18
  -2   0 -11   16.14    6.16
  -2   0 -12    1.68    0.85
  -2   0 -12    0.64    1.45
  -2   0 -13    8.14    5.10
  -2   0 -13    5.28    3.81
  -2   0 -14   -1.08    4.44
  -2   0 -14    0.25    2.70
  -2   0 -15    5.23    4.89
  -2   0 -15    2.31    3.41
  -2   0 -16    4.04    4.25
  -2   0 -17    8.44    5.75
  -2   0 -18   -0.73    4.20
  -2   0 -19    0.67    1.01
   2   1 -21    0.10    2.98
   2   1 -20    1.72    1.45
   2   1 -19   -1.05    3.51
   2   1 -18    0.35    4.11
   2   1 -17   11.20    6.18
   2   1 -16   -0.10    3.64
   2   1 -15   25.37    8.73
   2   1 -14    2.13    0.13
   2   1 -13  131.22   17.25
   2   1 -12    1.88    1.88
   2   1 -11  501.85   31.33
   2   1 -10  344.46   25.28
   2   1  -9  166.74   17.09
  -2  -1   9  182.04   17.65
  -2  -1   8    7.62    3.19
   2   1  -8    6.79    3.63
  -2  -1   7   21.01    4.89
   2   1  -7   31.22    7.80
   2   1  -6  362.12   25.03
  -2  -1   6  318.92   18.30
   2   1  -5 1094.13   43.96
  -2  -1   5  941.11   29.19
  -2  -1   4   -0.34    1.39
  -2  -1   4    1.04    0.51
   2   1  -4   -0.55    2.09
  -2  -1   3 1059.38   29.91
  -2  -1   3 1044.07   21.58
  -2  -1   3 1083.86   36.75
  -2  -1   3 1088.27   25.28
  -2  -1   2  671.18   24.99
  -2  -1   2  645.42   28.24
  -2  -1   2  657.00   13.83
  -2  -1   2  707.04   18.94
   2   1  -2  517.65   19.86
  -2  -1   1    0.11    0.47
  -2  -1   1   -0.59    0.92
  -2  -1   1    3.91    1.79
  -2  -1   0    5.64    1.50
  -2  -1   0    4.91    2.66
  -2  -1   0    9.07    3.69
  -2  -1  -1   51.70    7.53
  -2  -1  -1   49.25    7.96
  -2  -1  -2   92.30   10.88
  -2  -1  -2   99.17   11.49
  -2  -1  -3   -0.46    1.53
  -2  -1  -3   -0.85    1.16
  -2  -1  -4   80.29   11.35
  -2  -1  -4   74.07   10.57
  -2  -1  -5    3.32    1.13
  -2  -1  -5   -0.41    1.44
  -2  -1  -6   37.15    7.78
  -2  -1  -6   41.87    8.66
  -2  -1  -7   36.54    8.22
  -2  -1  -8   20.97    5.71
  -2  -1  -9    8.86    5.69
  -2  -1  -9    2.04    3.51
  -2  -1 -10    1.33    0.94
  -2  -1 -10   -1.02    1.35
  -2  -1 -11    3.87    2.72
  -2  -1 -11    2.31    2.95
  -2  -1 -12    1.27    2.05
  -2  -1 -12    2.98    1.15
  -2  -1 -13    8.23    5.96
  -2  -1 -13    6.08    3.28
  -2  -1 -14    0.46    1.21
  -2  -1 -15   -1.56    3.20
  -2  -1 -16    2.83    3.37
  -2  -1 -17   10.86    5.45
  -2  -1 -18    3.44    4.31
  -2  -1 -19   -0.38    4.28
   2   2 -21    3.10    5.30
   2   2 -20    2.05    3.87
   2   2 -19    5.98    5.32
   2   2 -18    3.79    4.69
   2   2 -17   11.44    5.72
   2   2 -16    4.87    4.00
   2   2 -15    2.72    2.52
   2   2 -14    9.94    5.33
   2   2 -13   28.48    7.98
  -2  -2  13   27.39    7.82
   2   2 -12    1.29    0.82
  -2  -2  12    5.93    4.45
  -2  -2  11   23.46    7.83
   2   2 -11   26.96    7.30
  -2  -2  10    3.94    2.90
   2   2 -10    6.97    3.39
  -2  -2   9   74.16   11.14
   2   2  -9   70.17   11.35
  -2  -2   8   16.38    5.17
   2   2  -8   11.06    4.67
  -2  -2   7   23.16    6.14
   2   2  -7   29.10    7.40
   2   2  -6  117.59   14.88
  -2  -2   6  111.22   11.51
   2   2  -5  127.11   16.13
  -2  -2   5  119.30   11.32
   2   2  -4  319.75   24.97
  -2  -2   4  330.76   18.17
  -2  -2   3  133.70   12.78
  -2  -2   3  159.88   11.99
  -2  -2   2  184.46   14.03
  -2  -2   2  185.11   14.99
  -2  -2   2  188.56   11.91
  -2  -2   1  672.75   28.53
  -2  -2   1  642.70   29.36
  -2  -2   1  619.98   20.98
  -2  -2   0   24.01    5.66
  -2  -2   0   24.42    4.33
  -2  -2   0   32.55    6.37
  -2  -2  -1   83.02   10.81
   2   2   1   68.02    3.99
  -2  -2  -1   61.95    8.97
  -2  -2  -2  692.37   32.31
  -2  -2  -2  691.18   31.79
   2   2   2  626.80   16.41
  -2  -2  -3  251.54   20.26
   2   2   3  284.25   14.55
  -2  -2  -3  267.16   20.25
  -2  -2  -4  863.46   38.54
  -2  -2  -4  876.41   37.80
   2   2   4  978.12   31.28
  -2  -2  -5  180.09   18.34
  -2  -2  -5  190.40   18.08
  -2  -2  -6    1.31    2.74
  -2  -2  -6    2.41    1.88
  -2  -2  -7   15.50    5.16
  -2  -2  -7   14.65    6.37
  -2  -2  -8    0.71    1.30
  -2  -2  -8    3.40    2.22
  -2  -2  -9  132.25   17.95
  -2  -2  -9  131.05   16.77
  -2  -2 -10   95.45   14.82
  -2  -2 -11  123.44   17.51
  -2  -2 -12   74.47   14.83
  -2  -2 -13   14.49    4.90
  -2  -2 -14   -0.51    3.90
  -2  -2 -15    3.00    1.61
  -2  -2 -16    5.13    5.92
  -2  -2 -17    6.04    5.66
  -2  -2 -18   -2.10    5.61
   2   2  19    3.92    4.46
  -2  -2 -19    1.07    3.49
   2   2  20    6.42    6.66
   2   3 -21    1.03    1.66
   2   3 -20    0.36    2.24
   2   3 -19    0.42    1.60
   2   3 -18    3.72    3.76
   2   3 -17   10.61    5.87
   2   3 -16   38.93   11.46
   2   3 -15   10.47    5.91
  -2  -3  15   18.63    7.90
  -2  -3  14    1.64    3.42
   2   3 -14    0.52    1.10
  -2  -3  13   12.70    5.63
   2   3 -13   14.53    5.96
  -2  -3  12    0.16    1.84
   2   3 -12    1.92    2.54
  -2  -3  11    0.51    1.23
   2   3 -11    1.23    0.86
  -2  -3  10   10.88    4.34
   2   3 -10   11.63    5.29
  -2  -3   9   -0.76    0.60
   2   3  -9    1.23    2.29
  -2  -3   8   44.69    8.97
   2   3  -8   44.08    9.43
  -2  -3   7   13.84    4.63
   2   3  -7   19.41    6.16
  -2  -3   6   22.91    5.77
   2   3  -6   20.31    6.42
  -2  -3   5   19.69    5.07
   2   3  -5   16.15    5.79
   2   3  -4  453.94   30.14
  -2  -3   4  394.44   22.02
  -2  -3   3  101.41   10.95
  -2  -3   3  107.46   10.66
  -2  -3   2    2.16    1.58
  -2  -3   2    3.12    2.10
  -2  -3   2    1.03    0.56
  -2  -3   1  442.57   24.21
  -2  -3   1  354.84   11.95
  -2  -3   1  418.00   20.65
  -2  -3   0   14.46    2.55
  -2  -3   0   18.96    4.69
  -2  -3   0   18.65    5.08
  -2  -3   0   14.24    4.64
  -2  -3  -1    9.80    4.64
  -2  -3  -1    6.61    2.61
   2   3   1    6.49    1.72
  -2  -3  -2  123.84   15.21
  -2  -3  -2  105.23   12.64
   2   3   2   90.06    7.60
  -2  -3  -3  411.27   28.08
  -2  -3  -3  403.56   25.42
   2   3   3  345.59   16.45
  -2  -3  -4   73.47   11.24
  -2  -3  -4   65.94   11.75
   2   3   4   67.12    8.33
   2   3   5   43.58    7.76
  -2  -3  -5   30.54    8.65
  -2  -3  -5   37.16    7.70
   2   3   6   15.84    5.58
  -2  -3  -6   15.14    6.93
  -2  -3  -6   10.17    4.03
   2   3   7   15.74    5.65
  -2  -3  -7   12.66    5.75
  -2  -3  -7   14.57    5.73
   2   3   8   15.12    6.07
  -2  -3  -8    5.75    4.17
  -2  -3  -8   11.05    4.52
  -2  -3  -9  183.26   22.43
  -2  -3  -9  169.79   19.65
   2   3   9  117.36   16.57
   2   3  10   25.51    7.90
  -2  -3 -10   43.84   10.30
  -2  -3 -10   38.61    9.82
  -2  -3 -11  656.13   44.01
  -2  -3 -11  680.31   43.45
   2   3  11  736.41   45.67
   2   3  12   26.25    8.94
  -2  -3 -12   30.79   10.27
   2   3  13    1.28    1.49
  -2  -3 -13    0.07    1.33
   2   3  14    3.29    3.60
  -2  -3 -14   -0.29    3.11
   2   3  15    4.01    4.17
  -2  -3 -15   -0.97    2.35
   2   3  16   11.50    7.68
  -2  -3 -16    4.30    3.89
   2   3  17    6.23    6.04
  -2  -3 -17   16.01    8.63
   2   3  18   -0.10    1.22
  -2  -3 -18   -0.70    1.07
   2   3  19    6.69    6.05
   2   4 -21    7.98    6.78
   2   4 -20    1.14    3.06
   2   4 -19   -0.08    3.05
   2   4 -18    8.85    5.70
   2   4 -17    5.55    4.73
  -2  -4  17   12.85    7.90
  -2  -4  16    6.43    5.53
   2   4 -16   -0.67    2.39
  -2  -4  15    1.99    2.97
   2   4 -15    0.93    0.88
  -2  -4  15    4.93    4.96
  -2  -4  14   13.43    5.11
   2   4 -14   13.24    5.96
  -2  -4  14   17.65    7.31
  -2  -4  13    2.81    4.44
   2   4 -13    4.86    3.15
  -2  -4  13   -0.10    2.58
  -2  -4  12    3.34    1.47
   2   4 -12    1.07    1.44
  -2  -4  12    0.15    2.10
  -2  -4  11    2.34    3.06
  -2  -4  11    1.98    2.44
   2   4 -11    3.98    4.28
  -2  -4  10   -1.75    3.16
   2   4 -10   -0.33    1.27
   2   4  -9    3.88    3.07
  -2  -4   9    1.90    3.37
   2   4  -8   85.91   13.06
  -2  -4   8   77.23   12.04
  -2  -4   7   13.74    5.62
   2   4  -7    3.92    3.92
  -2  -4   6    1.45    3.28
   2   4  -6    0.91    1.88
  -2  -4   5    1.00    1.30
   2   4  -5    1.40    2.07
  -2  -4   4    3.65    2.15
   2   4  -4   12.18    5.77
  -2  -4   3  119.10   12.26
  -2  -4   2  257.88   17.38
  -2  -4   2  263.85   18.32
  -2  -4   1   23.45    6.27
  -2  -4   1   27.74    5.97
  -2  -4   0   19.84    5.61
  -2  -4   0   23.35    6.79
  -2  -4  -1   68.09   12.03
  -2  -4  -1   69.93   10.44
   2   4   1   58.40    6.91
  -2  -4  -2   76.58   10.95
  -2  -4  -2   88.55   14.34
   2   4   2   70.60    8.31
  -2  -4  -3    5.94    2.61
  -2  -4  -3    6.98    3.76
   2   4   3    5.98    2.74
  -2  -4  -4   19.14    7.19
  -2  -4  -4   18.96    5.78
   2   4   4   20.74    5.13
  -2  -4  -5   29.75    9.58
  -2  -4  -5   21.72    6.45
   2   4   5   22.07    5.66
  -2  -4  -6   63.92   19.05
  -2  -4  -6   32.94    9.47
   2   4   6   19.04    5.63
  -2  -4  -7   -1.36    2.04
  -2  -4  -7    1.36    1.64
   2   4   7    0.27    1.35
   2   4   8   28.60    8.17
  -2  -4  -8   40.79    9.34
  -2  -4  -8   41.72   10.68
   2   4   9   40.01   10.49
  -2  -4  -9   65.05   14.03
  -2  -4  -9   48.91   10.84
   2   4  10    2.82    3.42
  -2  -4 -10    1.12    3.13
  -2  -4 -10   -0.58    3.84
   2   4  11    3.92    3.80
  -2  -4 -11   -1.04    4.90
  -2  -4 -11    1.50    1.94
   2   4  12   11.14    6.47
  -2  -4 -12    8.62    3.92
  -2  -4 -12   12.33    6.85
   2   4  13    4.64    3.76
  -2  -4 -13    5.90    5.33
   2   4  14    0.44    0.54
  -2  -4 -14    0.46    2.90
   2   4  15    0.05    1.92
  -2  -4 -15    2.71    3.63
   2   4  16   -2.24    4.69
  -2  -4 -16    9.11    7.24
   2   4  17    2.65    3.16
  -2  -4 -17    3.39    1.85
   2   4  18    7.36    6.71
  -2  -4 -18   20.88    9.78
   2   4  19    2.36    4.96
   2   5 -21   -4.66    5.85
   2   5 -20    1.04    3.66
   2   5 -19    0.55    2.04
  -2  -5  19   -0.03    1.60
   2   5 -18   -1.42    3.00
  -2  -5  18   -2.40    6.39
  -2  -5  17    1.83    2.92
   2   5 -17    7.02    5.92
  -2  -5  16    3.78    4.75
   2   5 -16    2.81    2.28
  -2  -5  16    1.53    0.51
  -2  -5  15    0.22    1.68
   2   5 -15   -2.08    2.85
  -2  -5  15   -0.51    2.01
   2   5 -14    1.61    1.49
  -2  -5  14    3.17    1.44
  -2  -5  14    2.21    1.64
  -2  -5  13    9.70    5.79
   2   5 -13   19.51    6.82
  -2  -5  13   11.46    5.48
  -2  -5  12    0.43    3.90
   2   5 -12    0.30    1.98
  -2  -5  12    1.19    1.54
   2   5 -11   41.97   10.14
  -2  -5  11   40.90   10.34
  -2  -5  11   39.35    9.30
  -2  -5  10    2.74    3.48
   2   5 -10    0.76    1.73
  -2  -5  10    4.11    3.40
  -2  -5   9    7.00    5.07
   2   5  -9   13.54    5.75
  -2  -5   8    2.58    2.60
   2   5  -8    0.07    1.60
  -2  -5   7   38.29    8.61
   2   5  -7   37.70    9.27
   2   5  -6  189.49   21.40
  -2  -5   6  133.28   16.37
  -2  -5   5   -0.60    1.57
   2   5  -5    1.46    0.46
  -2  -5   4    8.60    3.40
   2   5  -4   11.78    5.34
  -2  -5   3   21.95    5.92
  -2  -5   2    1.16    2.17
  -2  -5   2    1.51    1.53
  -2  -5   1   25.18    6.24
  -2  -5   1   26.31    5.75
  -2  -5   0    0.19    2.51
  -2  -5   0    1.57    1.87
  -2  -5  -1    3.08    2.36
   2   5   1    3.82    2.48
  -2  -5  -1    6.49    2.80
  -2  -5  -2    6.91    4.09
  -2  -5  -2    2.58    1.11
   2   5   2    3.05    2.52
  -2  -5  -3    1.34    0.80
  -2  -5  -3    7.33    4.21
   2   5   3    2.43    1.19
  -2  -5  -4    4.35    2.58
  -2  -5  -4   -0.13    1.14
   2   5   4    4.30    2.02
  -2  -5  -5   27.80    9.57
  -2  -5  -5   15.98    5.17
   2   5   5   30.38    7.24
  -2  -5  -6   -0.89    2.63
  -2  -5  -6   -0.72    1.24
   2   5   6   -0.17    2.12
  -2  -5  -7   -2.48    3.50
  -2  -5  -7   -2.11    3.13
   2   5   7    0.98    1.59
  -2  -5  -8   27.82    9.18
  -2  -5  -8   28.04    8.21
   2   5   8   15.63    6.37
  -2  -5  -9   32.36   10.45
  -2  -5  -9   27.40    8.72
   2   5   9   43.72   11.35
  -2  -5 -10    2.18    4.75
  -2  -5 -10   -0.16    3.65
   2   5  10    7.27    3.86
  -2  -5 -11   -3.13    5.95
  -2  -5 -11    0.09    0.91
   2   5  11   -0.13    1.80
  -2  -5 -12    0.56    2.49
  -2  -5 -12   -1.13    4.12
   2   5  12   -0.62    3.37
  -2  -5 -13    0.47    2.63
  -2  -5 -13    0.68    2.40
   2   5  13    1.18    2.36
  -2  -5 -14    1.29    2.09
   2   5  14    3.66    6.46
  -2  -5 -15    4.52    4.17
   2   5  15   -1.65    0.74
  -2  -5 -16   -0.11    2.06
   2   5  16   -3.53    4.99
  -2  -5 -17    1.78    4.61
   2   5  17   -3.18    6.73
   2   5  18   -4.28    5.09
   2   6 -20    1.11    3.75
  -2  -6  19    1.65    2.61
   2   6 -19    3.79    3.92
  -2  -6  18    1.69    3.56
   2   6 -18    0.30    2.11
  -2  -6  17   -3.01    4.67
   2   6 -17    2.93    3.35
  -2  -6  17    0.05    2.71
  -2  -6  16    3.37    3.99
  -2  -6  16    3.93    3.51
   2   6 -16    7.98    6.03
  -2  -6  15    2.30    2.48
   2   6 -15    1.10    2.27
  -2  -6  15    2.49    2.89
  -2  -6  14   -5.08    4.49
   2   6 -14    1.69    4.24
  -2  -6  14    3.07    4.54
  -2  -6  13   28.11    9.71
   2   6 -13   33.31    9.37
  -2  -6  13   28.69    8.75
  -2  -6  12   31.16    9.87
   2   6 -12   32.62    9.42
  -2  -6  12   27.71    8.49
  -2  -6  11    3.80    4.35
   2   6 -11    6.70    4.26
  -2  -6  11    3.12    1.91
  -2  -6  10    8.80    5.85
   2   6 -10    4.23    2.70
  -2  -6  10    6.22    3.95
  -2  -6   9    0.30    1.88
   2   6  -9    0.38    0.67
  -2  -6   8    1.31    3.72
   2   6  -8   -0.40    1.83
   2   6  -7   86.45   14.89
  -2  -6   7   69.83   12.70
  -2  -6   6    0.99    1.70
   2   6  -6    0.99    1.82
   2   6  -5  655.46   41.81
  -2  -6   5  502.55   31.41
   2   6  -4  771.10   43.31
  -2  -6   4  645.42   34.52
  -2  -6   3    9.17    4.34
  -2  -6   2   48.35    9.72
  -2  -6   1   -2.19    2.25
  -2  -6   1    0.62    0.85
  -2  -6   0    6.99    4.32
  -2  -6   0   -0.66    0.51
  -2  -6  -1   72.39   10.53
  -2  -6  -1   80.87   15.65
  -2  -6  -2    4.91    4.39
  -2  -6  -2    0.25    1.33
   2   6   2   -0.44    1.90
  -2  -6  -3    9.55    4.09
  -2  -6  -3   19.01    8.43
   2   6   3   10.57    4.68
  -2  -6  -4   86.48   17.24
  -2  -6  -4   55.37   10.19
   2   6   4   56.47   10.14
  -2  -6  -5    5.78    3.78
  -2  -6  -5   10.74    6.14
   2   6   5    7.67    3.73
  -2  -6  -6    4.34    4.36
  -2  -6  -6    3.47    2.97
   2   6   6    3.19    3.91
  -2  -6  -7    0.70    2.94
  -2  -6  -7    0.57    1.07
   2   6   7    1.42    2.51
  -2  -6  -8   17.98    8.97
  -2  -6  -8   10.64    5.22
   2   6   8   11.84    6.07
  -2  -6  -9    5.51    5.52
  -2  -6  -9    2.17    2.24
   2   6   9    0.48    4.73
  -2  -6 -10   -0.58    5.99
  -2  -6 -10   -1.77    1.98
   2   6  10    2.51    3.61
  -2  -6 -11    2.86    4.88
  -2  -6 -11    0.93    1.97
   2   6  11   -1.27    3.38
  -2  -6 -12    2.55    3.26
  -2  -6 -12    0.13    3.41
   2   6  12   -1.43    2.14
  -2  -6 -13    1.12    1.74
  -2  -6 -13   -0.15    1.95
   2   6  13    5.31    6.47
  -2  -6 -14    4.21    4.72
  -2  -6 -14    3.80    4.16
   2   6  14   -4.30    4.96
  -2  -6 -15   -2.31    0.97
   2   6  15   -1.54    4.02
  -2  -6 -16    3.42    3.96
  -2  -6 -17   -0.49    2.08
  -2  -7  18   -3.53    4.16
  -2  -7  17    1.92    3.64
  -2  -7  17   -2.51    3.40
  -2  -7  16   -4.10    4.96
  -2  -7  16    1.83    2.93
  -2  -7  15   -0.10    2.64
  -2  -7  15    1.70    2.35
  -2  -7  14    0.15    1.76
   2   7 -14   -0.17    1.72
  -2  -7  14   -0.50    2.69
  -2  -7  13    1.74    5.54
   2   7 -13    0.31    0.85
  -2  -7  13    4.85    3.70
  -2  -7  12   -2.18    3.88
   2   7 -12    1.98    2.39
  -2  -7  12    4.34    5.69
  -2  -7  11    4.30    2.77
   2   7 -11    4.27    3.39
  -2  -7  11   -0.94    2.12
  -2  -7  10    7.89    6.35
   2   7 -10   12.61    5.10
  -2  -7   9    3.32    3.49
   2   7  -9   11.85    5.12
  -2  -7   8   20.94    7.93
   2   7  -8   24.23    7.71
  -2  -7   7    3.41    2.42
   2   7  -7    4.99    2.91
   2   7  -6  131.42   19.12
  -2  -7   6  107.64   16.10
  -2  -7   5    4.30    2.58
   2   7  -5    6.51    5.31
   2   7  -4  116.40   17.47
  -2  -7   4   85.92   13.74
  -2  -7   3   80.88   14.76
   2   7  -3   60.12   12.30
  -2  -7   2   -3.07    3.45
  -2  -7   1   10.74    6.37
  -2  -7   0   10.01    4.10
  -2  -7  -1   -3.22    2.54
  -2  -7  -2  106.47   18.27
  -2  -7  -3   37.45   11.25
   2   7   3   15.79    6.06
  -2  -7  -4   41.87   12.32
   2   7   4   23.41    6.97
  -2  -7  -5   19.66    9.28
   2   7   5   13.87    6.05
  -2  -7  -6    7.38    6.55
   2   7   6   -1.02    4.35
  -2  -7  -7    1.68    3.53
   2   7   7   -0.60    1.30
  -2  -7  -8    0.83    4.51
   2   7   8    6.09    4.65
  -2  -7  -9   -4.30    4.83
   2   7   9    7.10    6.61
  -2  -7 -10    3.54    4.54
   2   7  10   -2.98    4.13
  -2  -7 -11   10.33    7.44
   2   7  11    6.13    3.94
  -2  -7 -12    4.37    0.70
   2   7  12   -4.05    3.98
  -2  -7 -13   -1.99    2.74
  -2  -7 -14   -0.16    3.08
  -2  -8  17    5.06    5.35
  -2  -8  16   -4.70    6.77
  -2  -8  15    5.82    6.45
  -2  -8  14   -1.89    1.52
  -2  -8  13   -0.93    3.30
  -2  -8  12    3.08    5.62
  -2  -8  11    3.76    4.32
  -2  -8  10   11.42    6.56
  -2  -8   9    2.08    2.33
  -2  -8   8    3.07    2.89
  -2  -8   7    5.69    3.66
  -2  -8   6   11.45    4.73
  -2  -8   5    1.08    2.88
  -2  -8   4   11.08    6.69
  -2  -8   3    2.24    3.71
  -2  -8   2    1.66    1.18
  -2  -8   1    3.30    3.21
  -2  -8   0    1.30    1.64
  -2  -8  -1    8.57    4.21
  -2  -8  -2    4.39    3.30
  -2  -8  -2    5.19    4.10
  -2  -8  -3    6.74    5.28
  -2  -8  -4    2.48    2.93
   2   8   4    1.80    2.64
   2   8   5    2.20    1.35
  -2  -8  -5    1.54    5.05
  -2  -8  -6   15.84    9.28
   2   8   6    5.48    3.90
  -2  -8  -7    4.08    5.85
   2   8   7    1.91    3.82
  -2  -8  -8    0.79    2.98
  -2  -8  -9   16.18    8.59
  -2  -8 -10   12.33    8.02
  -2  -8 -11    0.54    1.42
  -2  -8 -12    9.13    6.93
  -2  -8 -13    0.19    0.50
  -2  -9  15   -5.99    4.84
  -2  -9  14    5.98    5.79
  -2  -9  13    0.30    3.56
  -2  -9  12   -2.15    5.32
  -2  -9  11   -0.64    3.44
  -2  -9  10   14.23    7.72
  -2  -9   9    3.87    5.88
  -2  -9   8    3.48    3.03
  -2  -9   7   -1.03    2.74
  -2  -9   6    1.91    3.74
  -2  -9   5    0.46    2.62
  -2  -9   4   -3.59    3.59
  -2  -9   3    5.96    5.14
  -2  -9   2    2.43    2.49
  -2  -9   1    0.94    2.33
  -2  -9   0    2.89    1.87
  -2  -9  -1   -0.07    4.35
  -2  -9  -2   -1.77    1.30
  -2  -9  -2    2.35    0.78
  -2  -9  -3    5.35    4.33
  -2  -9  -3    8.59    4.74
  -2  -9  -4    2.80    3.46
  -2  -9  -4   10.03    7.74
  -2  -9  -5    2.48    5.40
  -2  -9  -6    2.72    2.82
  -2  -9  -7   -0.82    5.68
  -2  -9  -8   -3.86    5.95
  -2  -9  -9   -1.28    4.07
  -2  -9 -10    1.32    5.83
  -2  -9 -11    5.55    3.33
  -2  -9 -12    4.92    6.62
  -2 -10  13    3.28    3.59
  -2 -10  12   64.40   18.11
  -2 -10  11    7.21    2.17
  -2 -10  10    3.13    5.24
  -2 -10   9    8.80    5.96
  -2 -10   8   -1.39    1.22
  -2 -10   7    5.38    3.49
  -2 -10   6   -2.22    2.36
  -2 -10   5   -0.31    2.80
  -2 -10   4   -1.09    1.82
  -2 -10   3    1.54    6.26
  -2 -10   2    9.20    6.75
  -2 -10   1   -0.67    1.22
  -2 -10   0    1.01    5.00
  -2 -10  -1    0.93    0.72
  -2 -10  -2    3.87    5.73
  -2 -10  -2    3.85    4.93
  -2 -10  -3    2.83    3.89
  -2 -10  -3    6.89    6.96
  -2 -10  -4    1.86    3.71
  -2 -10  -4    3.01    0.46
  -2 -10  -5    7.60    5.80
  -2 -10  -5    0.28    2.71
  -2 -10  -6   -4.71    7.15
  -2 -10  -6    0.00    3.03
  -2 -10  -7    3.22    5.03
  -2 -10  -8   -1.49    3.82
  -2 -10  -9   -2.61    4.83
  -2 -11   9   -4.90    4.39
  -2 -11   8   -1.36    0.90
  -2 -11   7   -3.89    6.45
  -2 -11   6    7.89    6.94
  -2 -11   5   -1.00    3.84
  -2 -11   4    2.38    1.15
  -2 -11   3    2.15    4.12
  -2 -11   2    1.77    3.61
  -2 -11   1    7.37    7.52
  -2 -11   0   -4.89    2.17
  -2 -11  -1    5.80    6.66
  -2 -11  -1    7.83    6.85
  -2 -11  -2   -2.28    3.06
  -2 -11  -2    3.70    6.50
  -2 -11  -3    3.14    4.30
  -2 -11  -3    1.28    1.27
  -2 -11  -4    4.48    3.71
   3 -11   2    7.67    6.12
   3 -11   3    0.68    4.37
  -3  11  -4   -6.21    9.05
  -3  11  -5    4.22    4.82
  -3  11  -6   -1.17    3.19
  -3  10   9    2.12    1.72
   3 -10  -8    0.51    1.50
  -3  10   8   -0.14    1.00
   3 -10  -7    5.89    5.27
  -3  10   7    3.09    2.21
   3 -10  -6   -2.17    4.66
  -3  10   6    8.00    5.38
  -3  10   6    4.41    2.44
   3 -10  -5   -1.03    2.67
  -3  10   5   -1.91    2.84
   3 -10  -4    1.13    1.70
  -3  10   4    6.85    8.55
   3 -10  -3    0.05    1.49
  -3  10   3   -0.56    3.45
   3 -10  -2   -1.26    1.97
  -3  10   2    9.95    9.11
   3 -10  -1   27.24   10.24
  -3  10   1   49.50   19.10
   3 -10   0    3.11    2.70
  -3  10   0    6.62    6.24
   3 -10   1    5.30    7.68
  -3  10  -1   12.66    9.09
   3 -10   2    7.64    6.36
  -3  10  -2   12.97    8.68
  -3  10  -2   12.02    9.90
   3 -10   3    2.02    4.46
  -3  10  -3    2.63    2.82
  -3  10  -3   -3.14    4.91
   3 -10   4   -1.36    1.98
  -3  10  -4    1.04    3.46
  -3  10  -4    5.76    8.24
   3 -10   5   -0.17    4.36
  -3  10  -5    2.73    5.03
  -3  10  -5   12.52   10.95
   3 -10   6    1.91    1.45
  -3  10  -6   -1.42    1.79
  -3  10  -6    5.06    6.44
   3 -10   7    2.46    4.03
  -3  10  -7    6.03    5.41
   3 -10   8   25.37   13.43
  -3  10  -8   -2.11    4.22
  -3  10  -9    2.53    5.24
  -3  10 -10   -5.66    0.81
  -3  10 -11   -1.69    2.86
  -3   9  10   -0.74    3.24
  -3   9   9    6.31    5.50
  -3   9   9   -1.34    3.93
  -3   9   8    0.71    3.90
  -3   9   8   -1.06    4.40
  -3   9   7    1.37    2.14
  -3   9   7   -5.77    6.87
   3  -9  -6    0.63    1.41
  -3   9   6   -0.18    0.84
  -3   9   6    2.60    5.04
   3  -9  -5    9.19    4.24
  -3   9   5    7.73    4.17
  -3   9   5    9.54    6.97
  -3   9   4    4.00    6.11
   3  -9  -4    5.80    6.96
  -3   9   4    0.02    4.47
   3  -9  -3    3.04    4.90
  -3   9   3    3.68    3.38
   3  -9  -2    2.29    1.73
  -3   9   2    1.73    5.08
   3  -9  -1    3.06    3.07
  -3   9   1    3.98    5.91
   3  -9   0    1.39    2.46
  -3   9   0    8.67    7.86
  -3   9   0    7.70    5.36
   3  -9   1    3.29    4.10
  -3   9  -1   -1.80    4.15
   3  -9   2    3.66    2.97
  -3   9  -2    2.21    1.51
  -3   9  -2    5.27    5.97
   3  -9   3    2.63    2.78
  -3   9  -3    6.56    5.62
  -3   9  -3   -0.47    5.63
   3  -9   4   -0.33    1.37
  -3   9  -4    2.05    3.15
  -3   9  -4    1.14    2.70
   3  -9   5    6.98    6.13
  -3   9  -5   -1.51    3.87
  -3   9  -5    4.06    2.12
   3  -9   6    5.40    5.11
  -3   9  -6   10.27    7.10
   3  -9   7    0.62    3.70
  -3   9  -7   -1.77    5.42
   3  -9   8   -1.51    4.17
  -3   9  -8    0.11    1.52
   3  -9   9    1.64    2.49
  -3   9  -9   -2.49    1.56
  -3   9 -10    3.33    5.68
   3  -9  10   -9.31    7.89
  -3   9 -11    3.17    5.75
   3  -9  11    6.61    6.49
   3  -9  12   -4.19    6.95
  -3   8  12    5.99    5.59
  -3   8  11    2.25    1.90
  -3   8  10   -4.17    6.58
  -3   8  10    0.81    2.39
  -3   8   9   15.82   10.64
  -3   8   9    0.74    6.88
  -3   8   8    7.53    6.70
  -3   8   8   -2.45    3.09
  -3   8   7    8.51    6.29
  -3   8   7    6.43    5.82
  -3   8   6    3.26    5.01
  -3   8   6   -1.08    2.44
   3  -8  -5    2.70    6.40
  -3   8   5    2.88    3.41
  -3   8   5    3.53    5.98
   3  -8  -4    3.56    6.35
  -3   8   4    2.53    4.12
  -3   8   4    1.22    4.30
   3  -8  -3   -3.80    4.39
  -3   8   3    6.00    6.69
  -3   8   3    1.66    1.63
   3  -8  -2    0.28    2.96
  -3   8   2    4.94    5.03
  -3   8   2    1.05    1.20
   3  -8  -1   -2.19    3.36
  -3   8   1    3.47    3.94
  -3   8   1    0.51    1.31
   3  -8   0    2.40    1.88
  -3   8   0    2.17    6.36
  -3   8   0    2.42    4.25
   3  -8   1    0.81    0.77
  -3   8  -1   -2.10    3.14
  -3   8  -1    2.33    6.87
   3  -8   2   -0.95    1.33
  -3   8  -2   -0.27    2.33
  -3   8  -2   -1.56    3.95
   3  -8   3   -0.81    2.87
  -3   8  -3   -1.51    0.51
  -3   8  -3   -0.36    2.51
   3  -8   4   -1.32    4.20
  -3   8  -4   -2.85    2.11
  -3   8  -4    2.63    1.62
   3  -8   5   -3.21    4.92
  -3   8  -5   -6.29    6.36
  -3   8  -5    5.68    6.90
   3  -8   6    1.95    2.12
  -3   8  -6    3.01    3.15
   3  -8   7    3.09    5.00
  -3   8  -7   -2.64    5.02
   3  -8   8   -2.40    3.33
  -3   8  -8    5.98    3.31
  -3   8  -9    3.52    4.72
   3  -8   9    3.20    2.69
  -3   8 -10   -1.31    4.19
   3  -8  10   -5.60    7.24
   3  -8  11   -0.35    5.64
  -3   8 -11    2.91    4.19
   3  -8  12    1.61    4.76
   3  -8  13   -0.51    6.14
   3  -8  14   -4.97    4.29
  -3   7  14   29.19   13.13
  -3   7  13   -3.51    5.19
  -3   7  12    0.77    4.47
  -3   7  11   -3.10    4.58
  -3   7  11   -1.99    4.82
  -3   7  10    2.01    1.27
  -3   7  10    5.00    2.75
  -3   7   9    4.67    0.55
  -3   7   9   15.90    7.12
  -3   7   8   14.46    8.10
  -3   7   8    7.05    2.82
  -3   7   7    5.19    7.67
  -3   7   7   -0.85    0.15
  -3   7   6    3.24    4.71
  -3   7   6   -1.83    2.24
  -3   7   5    3.22    2.91
  -3   7   5    3.49    5.92
   3  -7  -4    3.51    4.57
  -3   7   4   -0.42    2.47
  -3   7   4    2.44    6.03
   3  -7  -3    3.55    3.40
  -3   7   3    2.54    4.34
  -3   7   3    2.20    2.71
  -3   7   3    3.22    2.76
   3  -7  -2    5.30    4.27
  -3   7   2    0.77    3.64
  -3   7   2    0.01    5.06
   3  -7  -1   -0.27    1.92
  -3   7   1    5.23    5.44
  -3   7   1   -1.03    1.48
   3  -7   0    7.49    4.12
  -3   7   0    5.41    1.40
  -3   7   0    3.60    4.49
   3  -7   1    1.83    2.42
  -3   7  -1    0.92    3.12
  -3   7  -1    0.16    2.89
   3  -7   2    4.07    4.13
  -3   7  -2   -1.52    3.01
  -3   7  -2    3.20    0.76
   3  -7   3   -1.71    1.83
  -3   7  -3   -1.00    4.07
  -3   7  -3   -0.23    1.07
   3  -7   4    3.17    3.73
  -3   7  -4   11.61    6.80
  -3   7  -4    4.93    6.51
   3  -7   5    4.62    5.93
  -3   7  -5   -3.17    2.20
  -3   7  -5   -1.50    2.88
   3  -7   6    3.52    5.02
  -3   7  -6   -5.64    6.91
  -3   7  -7    0.30    3.46
   3  -7   7    0.75    3.07
  -3   7  -8    1.93    2.98
   3  -7   8    5.08    6.80
  -3   7  -9   -0.08    1.60
   3  -7   9   -5.18    5.32
   3  -7  10   -1.50    2.16
  -3   7 -10    1.01    6.96
   3  -7  11   -6.51    5.07
  -3   7 -11   -1.40    2.95
   3  -7  12    1.29    3.51
   3  -7  13  -19.46   10.60
   3  -7  14   -3.94    5.57
   3  -7  15   10.15    8.89
   3  -7  16    3.36    8.11
   3  -6 -17   -1.03    2.85
   3  -6 -16    6.63    5.89
   3  -6 -15   10.36    5.79
  -3   6  15   18.43   11.06
   3  -6 -14    2.44    0.64
  -3   6  14    4.07    1.15
   3  -6 -13    1.44    2.88
  -3   6  13   -2.44    5.43
   3  -6 -12    5.34    4.07
  -3   6  12   -2.60    3.21
   3  -6 -11    2.18    2.54
  -3   6  11    0.67    2.11
  -3   6  11    4.74    5.28
   3  -6 -10   10.73    5.32
  -3   6  10   15.64    8.52
  -3   6  10   17.47    9.49
  -3   6   9   11.31    6.54
   3  -6  -9    4.37    3.29
  -3   6   9   13.57    7.07
  -3   6   8    7.97    6.55
   3  -6  -8    9.10    4.71
  -3   6   8    8.38    5.61
  -3   6   7   17.35    8.79
   3  -6  -7    4.64    2.62
  -3   6   7    4.39    5.34
  -3   6   6   -0.73    2.83
   3  -6  -6   -1.31    0.91
  -3   6   6   -0.30    4.23
  -3   6   5   16.60    7.58
   3  -6  -5    6.81    3.50
  -3   6   5    1.98    2.07
  -3   6   4   -2.83    2.78
   3  -6  -4    2.38    1.91
  -3   6   4    3.34    3.49
   3  -6  -3    5.26    2.41
   3  -6  -3    3.49    2.83
  -3   6   3    6.02    4.64
  -3   6   3    6.65    5.23
  -3   6   3   -0.86    0.87
   3  -6  -2    9.46    3.69
   3  -6  -2    7.37    4.08
  -3   6   2    4.12    2.47
  -3   6   2    8.44    5.79
  -3   6   2   14.02    7.96
   3  -6  -1   24.03    7.04
  -3   6   1   19.54    7.94
  -3   6   1   24.82    9.95
   3  -6   0   -1.13    1.35
  -3   6   0    0.79    1.51
  -3   6   0    8.51   12.04
   3  -6   1   25.47    7.33
  -3   6  -1   19.19    5.81
  -3   6  -1   17.93    8.55
  -3   6  -1   34.04   13.19
  -3   6  -2    0.64    2.17
   3  -6   2    1.39    2.63
  -3   6  -2    2.39    3.33
  -3   6  -2    4.72    4.95
   3  -6   3   -1.09    3.77
  -3   6  -3   -1.66    2.94
  -3   6  -3   -1.48    4.81
  -3   6  -3    4.86    2.88
  -3   6  -4   13.54    7.91
   3  -6   4    5.83    3.43
  -3   6  -4    6.90    5.03
  -3   6  -4    4.24    4.40
  -3   6  -5    1.97    5.39
   3  -6   5    2.21    4.82
  -3   6  -5    4.52    4.39
  -3   6  -5    7.83    8.30
  -3   6  -6   -2.09    2.64
   3  -6   6    4.78    5.01
  -3   6  -6   -0.02    2.07
  -3   6  -6   -2.53    5.86
  -3   6  -7    3.45    4.71
   3  -6   7   -3.56    4.16
  -3   6  -7    5.01    5.24
  -3   6  -7    9.53    9.65
   3  -6   8    1.61    3.55
  -3   6  -8    5.92    6.97
  -3   6  -8    2.50    3.40
   3  -6   9    5.36    7.87
  -3   6  -9    6.81    3.53
  -3   6  -9    1.01    2.37
   3  -6  10    5.29    6.72
  -3   6 -10   -0.24    3.69
  -3   6 -10    1.47    1.97
   3  -6  11    7.53    7.56
  -3   6 -11    2.77    3.80
  -3   6 -11    2.10    2.64
   3  -6  12    0.52    2.14
  -3   6 -12   -0.28    2.15
   3  -6  13   -5.97    6.54
  -3   6 -13    0.04    1.79
  -3   6 -14    0.77    2.89
  -3   6 -14   -0.36    6.37
   3  -6  14   13.04   10.41
  -3   6 -15   -0.41    3.56
   3  -6  15   -0.22    2.99
  -3   6 -16    0.16    2.57
  -3   6 -16   -0.60    3.61
  -3   6 -17    0.08    0.62
  -3   6 -17   13.45   13.33
   3  -5 -18    4.35    5.41
   3  -5 -17    3.81    4.13
  -3   5  17   14.99    9.65
   3  -5 -16   -1.44    4.32
  -3   5  16   -3.21   10.06
   3  -5 -15   -0.52    3.09
  -3   5  15   -3.51   32.32
   3  -5 -14    2.83    3.92
  -3   5  14    7.68    7.47
   3  -5 -13    5.95    5.38
  -3   5  13   -0.44    2.00
   3  -5 -12    1.62    2.73
  -3   5  12   -1.16    3.48
   3  -5 -11    5.03    2.85
  -3   5  11    3.62    3.94
  -3   5  11    4.28    4.89
   3  -5 -10    3.08    3.68
  -3   5  10    0.24    0.59
  -3   5  10   -0.77    2.88
   3  -5  -9    8.29    4.70
  -3   5   9    6.32    5.99
  -3   5   9    4.83    4.74
  -3   5   8   16.93    7.79
   3  -5  -8   14.64    6.13
  -3   5   8   16.84    7.33
  -3   5   7    0.42    3.10
   3  -5  -7    0.71    1.36
  -3   5   7    3.37    2.84
  -3   5   6   54.49   14.21
   3  -5  -6   24.13    6.74
  -3   5   6   34.97   10.48
  -3   5   5    1.24    2.97
   3  -5  -5   -1.59    2.39
  -3   5   5   -2.26    2.65
  -3   5   4    4.75    5.12
   3  -5  -4   -1.73    2.60
  -3   5   4    1.84    2.59
  -3   5   3  104.72   19.22
   3  -5  -3   70.92   11.07
  -3   5   3   77.40   14.04
  -3   5   2   33.90   11.49
   3  -5  -2   15.14    4.88
   3  -5  -2   19.68    5.59
  -3   5   2   22.64    7.65
  -3   5   2   21.76    8.20
   3  -5  -1   75.94   11.80
  -3   5   1  145.28   23.10
  -3   5   1  105.01   18.25
   3  -5  -1   92.20   12.29
   3  -5   0   92.04   12.75
  -3   5   0   97.01   13.26
  -3   5   0  164.19   24.63
  -3   5   0  147.67   22.12
   3  -5   0  105.93   13.12
  -3   5  -1    3.37    3.08
   3  -5   1   -0.92    2.39
   3  -5   1    2.41    2.99
  -3   5  -1    5.04    4.00
  -3   5  -1    0.15    3.79
  -3   5  -2   26.08   10.39
  -3   5  -2   12.10    5.09
   3  -5   2   18.72    6.38
  -3   5  -2   17.76    8.41
  -3   5  -3    6.68    4.41
   3  -5   3    6.18    5.44
  -3   5  -3    4.81    3.55
  -3   5  -3    6.65    3.74
  -3   5  -4   91.14   19.07
   3  -5   4   84.98   15.29
  -3   5  -4   71.65   14.34
  -3   5  -4   86.11   19.35
  -3   5  -5  171.66   22.77
  -3   5  -5  242.23   30.75
  -3   5  -5  213.85   30.03
   3  -5   5  216.70   24.84
   3  -5   6   99.05   17.11
  -3   5  -6  109.37   20.86
  -3   5  -6   64.64   13.90
  -3   5  -6  131.95   24.78
   3  -5   7   49.39   13.10
  -3   5  -7   69.66   16.75
  -3   5  -7   43.04   10.91
  -3   5  -7   67.38   19.48
   3  -5   8  114.15   20.46
  -3   5  -8  131.13   24.95
  -3   5  -8   71.98   14.37
  -3   5  -8  156.27   29.05
  -3   5  -9    2.19    5.57
  -3   5  -9    1.24    3.21
  -3   5  -9   -1.96    5.65
   3  -5  10    5.64    5.70
  -3   5 -10    6.54    3.59
  -3   5 -10    3.92    3.59
  -3   5 -10    9.16    6.31
   3  -5  11    0.84    5.93
  -3   5 -11    2.19    3.43
  -3   5 -11    2.38    4.56
  -3   5 -11   -0.88    4.48
   3  -5  12    0.51    2.03
  -3   5 -12   -1.32    3.03
  -3   5 -12   -0.23    3.34
  -3   5 -13    0.80    0.96
  -3   5 -13   -0.05    3.79
   3  -5  13   -2.35    5.62
  -3   5 -14   -2.36    2.96
  -3   5 -14    4.61    9.07
  -3   5 -15   -0.46    3.70
  -3   5 -15   -5.78    3.50
  -3   5 -16    3.51    3.56
  -3   5 -16   -2.34    5.52
  -3   5 -17    1.19    5.35
  -3   5 -17   -3.28    4.28
  -3   5 -18   -3.65    6.41
  -3   5 -18   -1.58    7.23
   3  -4 -19    0.56    0.66
   3  -4 -18    6.31    7.00
  -3   4  18   11.78    8.41
   3  -4 -17    1.97    2.11
  -3   4  17   -4.92    9.74
   3  -4 -16    3.63    4.22
  -3   4  16   -1.15    6.17
   3  -4 -15    8.98    7.33
  -3   4  15    0.20    5.48
   3  -4 -14    2.95    4.63
  -3   4  14   -0.05    2.71
   3  -4 -13    5.90    8.05
  -3   4  13    2.98    2.23
   3  -4 -12    4.55    4.56
  -3   4  12   -0.44    1.86
  -3   4  12    3.00    5.15
  -3   4  11    1.23    1.28
  -3   4  11    2.19    1.86
   3  -4 -11   -0.68    1.42
   3  -4 -10    0.80    1.23
  -3   4  10    1.76    2.54
  -3   4  10    0.60    0.75
   3  -4  -9   54.17   10.96
  -3   4   9   37.57    9.54
  -3   4   9   55.55   12.09
   3  -4  -8   -3.32    3.33
  -3   4   8    3.42    4.02
  -3   4   8    1.05    1.24
   3  -4  -7    2.78    2.91
  -3   4   7    4.57    4.27
  -3   4   7    6.73    4.77
   3  -4  -6   53.18   10.35
  -3   4   6   90.50   15.85
  -3   4   6   91.73   15.42
   3  -4  -5    0.28    0.44
  -3   4   5    0.86    1.32
  -3   4   5    0.15    3.86
  -3   4   4    6.83    4.62
   3  -4  -4    4.81    2.78
  -3   4   4    1.25    0.75
  -3   4   3    3.15    4.18
   3  -4  -3    3.27    2.65
  -3   4   3    3.11    4.13
  -3   4   2   37.90    9.99
   3  -4  -2   23.42    6.70
   3  -4  -2   31.26    6.56
  -3   4   2   24.10    7.68
  -3   4   2   32.43    9.26
  -3   4   1    9.94    5.32
   3  -4  -1   10.31    3.66
   3  -4  -1    9.61    4.20
  -3   4   1    4.07    3.18
  -3   4   1    7.66    5.07
  -3   4   1    9.40    5.32
  -3   4   0   24.52    9.22
   3  -4   0   17.80    4.74
  -3   4   0    8.58    4.08
  -3   4   0   16.01    6.04
  -3   4  -1   11.57    5.15
   3  -4   1   15.89    5.05
  -3   4  -1   16.59    7.32
  -3   4  -1   14.86    5.87
   3  -4   2   15.85    5.95
  -3   4  -2   16.59    6.57
  -3   4  -2   10.68    4.79
  -3   4  -2   14.98    7.43
   3  -4   3    1.59    2.53
  -3   4  -3    0.51    3.24
  -3   4  -3    3.12    3.12
  -3   4  -3   -0.92    1.12
  -3   4  -4  140.07   20.66
  -3   4  -4  144.13   20.61
  -3   4  -4  176.62   25.87
   3  -4   4  159.74   18.27
   3  -4   5    6.89    5.64
  -3   4  -5    5.56    6.48
  -3   4  -5    3.70    3.90
  -3   4  -5   -0.23    2.55
  -3   4  -6  549.05   40.45
  -3   4  -6  583.39   43.46
  -3   4  -6  715.51   55.43
   3  -4   6  581.97   37.41
  -3   4  -7  108.51   17.49
  -3   4  -7  146.45   22.57
  -3   4  -7  160.91   26.77
   3  -4   7  149.77   20.30
   3  -4   8    3.79    4.16
  -3   4  -8    3.66    3.04
  -3   4  -8    3.43    4.01
  -3   4  -8    7.11    6.66
   3  -4   9   18.12    7.09
  -3   4  -9    8.67    5.41
  -3   4  -9   14.18    9.75
  -3   4  -9   15.74    7.08
  -3   4 -10    0.90    1.70
  -3   4 -10    0.81    3.00
  -3   4 -10    3.24    6.38
   3  -4  10    6.54    4.87
  -3   4 -11    3.26    3.15
  -3   4 -11    2.55    3.40
  -3   4 -11    2.66    4.55
   3  -4  11    8.91    5.85
  -3   4 -12   11.05    5.40
  -3   4 -12   23.07   10.49
  -3   4 -13    2.20    3.05
  -3   4 -13   -2.49    5.59
  -3   4 -14   13.48    8.70
  -3   4 -14    7.22    7.13
  -3   4 -15    6.71    5.52
  -3   4 -15   15.33    9.42
  -3   4 -16   -3.78    4.87
  -3   4 -16   -1.75    2.24
  -3   4 -17    3.32    1.68
  -3   4 -17    1.58    3.11
  -3   4 -18   -6.55    6.22
  -3   4 -18   -2.56    5.57
  -3   4 -19    6.45   13.37
   3  -3 -19    0.00    4.13
  -3   3  19    8.34   10.17
   3  -3 -18    0.85    1.97
  -3   3  18   -1.99    1.53
   3  -3 -17    3.17    2.13
  -3   3  17   -0.92    6.24
   3  -3 -16    0.12    2.87
  -3   3  16   -2.92    6.11
   3  -3 -15    3.73    4.65
  -3   3  15    1.10    3.75
   3  -3 -14    8.82    8.58
  -3   3  14    2.50    4.89
   3  -3 -13    0.21    2.52
  -3   3  13    0.13    3.32
   3  -3 -12    5.14    4.54
  -3   3  12   -0.46    1.91
  -3   3  12   -3.47    4.22
  -3   3  11    0.86    2.05
   3  -3 -11    6.24    4.41
  -3   3  11    2.33    1.06
   3  -3 -10    0.27    0.65
  -3   3  10    0.50    0.50
  -3   3  10    6.50    4.74
   3  -3  -9    2.47    2.61
  -3   3   9    3.73    2.39
  -3   3   9    0.98    2.81
  -3   3   8   44.57    8.94
   3  -3  -8   40.24    8.82
  -3   3   8   40.00    9.08
   3  -3  -7  137.97   16.57
  -3   3   7  139.30   17.19
  -3   3   7  104.84   14.25
   3  -3  -6    7.44    4.50
  -3   3   6    8.79    3.71
  -3   3   6    6.54    2.96
   3  -3  -5    3.46    3.01
  -3   3   5    1.40    1.88
  -3   3   5   -1.80    1.95
   3  -3  -4   -0.21    2.43
  -3   3   4    2.73    2.90
  -3   3   4   -0.31    0.79
   3  -3  -3    2.59    3.49
  -3   3   3   -1.40    2.22
  -3   3   3    0.10    0.36
   3  -3  -2    8.38    3.82
   3  -3  -2    9.48    2.80
  -3   3   2    8.91    4.64
  -3   3   2   13.23    5.21
  -3   3   2   12.02    4.14
   3  -3  -1    7.42    3.17
  -3   3   1    6.39    1.01
  -3   3   1    4.28    2.19
  -3   3   1    6.48    4.11
   3  -3   0   37.02    6.25
  -3   3   0   19.19    6.33
  -3   3   0   27.11    7.51
  -3   3   0   25.48    7.64
   3  -3   1   18.32    4.51
  -3   3  -1   11.74    4.59
  -3   3  -1   13.07    5.67
  -3   3  -1   14.79    6.27
   3  -3   2    3.46    1.51
  -3   3  -2    3.52    2.84
  -3   3  -2    7.58    5.09
  -3   3  -2    4.03    4.43
   3  -3   3   30.13    5.79
  -3   3  -3   30.12    8.73
  -3   3  -3   25.31    7.54
  -3   3  -3   33.20   10.48
   3  -3   4   13.42    4.30
  -3   3  -4   15.37    7.40
  -3   3  -4   14.52    5.67
  -3   3  -4   15.13    7.25
   3  -3   5    0.64    1.54
  -3   3  -5    6.57    3.68
  -3   3  -5   -3.62    5.49
  -3   3  -5   -0.80    0.61
   3  -3   6    3.20    3.50
  -3   3  -6    0.58    3.32
  -3   3  -6    6.80    5.35
  -3   3  -6    8.62    6.32
  -3   3  -7    4.43    5.03
  -3   3  -7    1.39    3.99
  -3   3  -7   -1.41    2.87
   3  -3   7   -0.36    2.56
  -3   3  -8    6.84    4.84
  -3   3  -8    5.78    4.40
  -3   3  -8   16.58    6.74
  -3   3  -9    1.67    4.30
  -3   3  -9    3.40    3.29
  -3   3  -9    6.92    8.45
  -3   3 -10   -0.83    1.44
  -3   3 -10   -4.52    4.06
  -3   3 -10    1.08    3.00
  -3   3 -11   18.18    8.02
  -3   3 -11   13.52    5.08
  -3   3 -11   12.45    5.96
  -3   3 -12    1.58    2.56
  -3   3 -12   -2.78    3.01
  -3   3 -13   10.42    6.93
  -3   3 -13    3.80    6.48
  -3   3 -14   -0.68    3.50
  -3   3 -14    4.33    4.67
  -3   3 -15   -1.18    2.64
  -3   3 -15   -0.97    4.84
  -3   3 -16    0.61    3.17
  -3   3 -16    0.10    1.34
  -3   3 -17   -0.19   13.34
  -3   3 -17    4.56    5.04
  -3   3 -18    2.47    5.72
  -3   3 -18   -2.65    2.20
  -3   2  19   -6.22    6.21
   3  -2 -19    3.51    3.65
  -3   2  18   29.04   15.94
   3  -2 -18   11.42    7.53
  -3   2  17   -4.87    7.43
   3  -2 -17    4.40    4.52
  -3   2  16   46.95   19.08
   3  -2 -16   31.35   11.16
  -3   2  15    0.05    2.83
   3  -2 -15   -0.10    1.49
  -3   2  14   17.88   10.51
   3  -2 -14   11.44    5.35
  -3   2  13   21.78   10.47
   3  -2 -13    8.23    3.48
  -3   2  12   52.36   13.06
   3  -2 -12   38.20   10.19
   3  -2 -11  180.01   20.91
  -3   2  11  181.44   22.37
  -3   2  11  109.00   16.64
   3  -2 -10   27.29    8.06
  -3   2  10   11.75    5.41
  -3   2  10   33.13    8.84
   3  -2  -9    5.53    3.60
  -3   2   9    4.98    4.05
  -3   2   9    8.04    5.08
  -3   2   8   51.89    9.78
   3  -2  -8   59.94   11.19
  -3   2   8   57.24   10.67
   3  -2  -7   40.75    9.55
  -3   2   7   67.42   11.73
  -3   2   7   32.59    7.67
   3  -2  -6   39.31    9.09
  -3   2   6   30.62    7.08
  -3   2   6   35.15    7.45
   3  -2  -5    0.54    0.56
   3  -2  -5    0.63    1.81
  -3   2   5    2.17    1.42
  -3   2   5    0.57    1.16
  -3   2   4   -0.66    1.69
   3  -2  -4    0.04    1.86
  -3   2   4   -1.06    0.50
  -3   2   3   46.30    8.95
   3  -2  -3   62.73   11.99
  -3   2   3   47.81    9.81
  -3   2   3   52.10    8.62
   3  -2  -3   59.72    6.80
  -3   2   2   37.56    8.57
  -3   2   2   42.28    8.91
  -3   2   2   34.65    6.39
   3  -2  -2   48.82    4.92
   3  -2  -2   47.94    4.69
  -3   2   1    9.73    4.22
  -3   2   1   10.43    5.32
  -3   2   0  142.56   16.61
  -3   2   0  139.66   15.56
  -3   2  -1   24.09    6.34
  -3   2  -1   29.61    7.97
  -3   2  -1   15.25    5.25
  -3   2  -2    9.41    3.97
  -3   2  -2   11.59    5.73
  -3   2  -2   13.94    5.77
  -3   2  -3    0.26    1.84
  -3   2  -3    3.14    4.47
  -3   2  -3    1.15    2.65
  -3   2  -4   66.98   13.76
  -3   2  -4   46.93    9.61
  -3   2  -4   50.53   11.18
  -3   2  -5    0.14    2.37
  -3   2  -5    0.68    2.26
  -3   2  -5    0.77    1.38
  -3   2  -6    5.72    4.21
  -3   2  -6   11.98    5.62
  -3   2  -6    8.83    5.35
  -3   2  -7    1.05    2.87
  -3   2  -7   -0.95    2.98
  -3   2  -7    0.29    2.89
  -3   2  -8   -4.27    4.81
  -3   2  -8    2.92    3.13
  -3   2  -8    0.35    1.86
  -3   2  -9    8.22    4.47
  -3   2  -9    5.38    3.10
  -3   2  -9    4.02    4.41
  -3   2 -10    8.22    1.82
  -3   2 -10    7.76    6.69
  -3   2 -11    3.22    4.46
  -3   2 -11    3.43    4.06
  -3   2 -12    5.26    3.30
  -3   2 -12    3.22    3.28
  -3   2 -13   -0.07    3.89
  -3   2 -13    1.79    4.18
  -3   2 -14    5.34    5.18
  -3   2 -14   -0.23    3.92
  -3   2 -15   -1.70    3.51
  -3   2 -15    0.65    0.59
  -3   2 -16    2.88    4.44
  -3   2 -16   -1.17    3.50
  -3   2 -17    4.34    7.21
  -3   2 -17   -1.66    4.94
  -3   2 -18    3.34    9.03
  -3   1  20    4.03    2.30
  -3   1  19    2.07    4.79
   3  -1 -19    0.78    2.25
  -3   1  18   14.40   12.05
   3  -1 -18    3.39    4.43
  -3   1  17   20.49   13.13
   3  -1 -17   15.64    6.72
  -3   1  16   -0.82    8.14
   3  -1 -16   10.09    5.99
  -3   1  15   22.62   12.26
   3  -1 -15   17.72    7.49
  -3   1  14   -1.36    4.68
   3  -1 -14    1.38    2.58
  -3   1  13   41.89   13.89
   3  -1 -13   13.92    5.95
  -3   1  12    7.11    5.85
   3  -1 -12    9.51    4.90
  -3   1  11   19.43    8.28
   3  -1 -11   14.05    5.11
   3  -1 -10  273.78   24.19
  -3   1  10  307.69   26.94
   3  -1  -9  935.87   44.48
  -3   1   9  931.49   42.63
   3  -1  -8   -1.85    1.03
  -3   1   8    0.77    1.17
   3  -1  -7  171.98   19.53
  -3   1   7  130.40   14.00
  -3   1   7  127.75   17.24
  -3   1   6   14.63    5.64
   3  -1  -6   23.71    7.53
  -3   1   6   17.35    4.66
   3  -1  -5   -1.39    2.44
  -3   1   5    0.82    0.94
  -3   1   5   -0.75    0.99
   3  -1  -4  185.49   22.02
  -3   1   4  149.82   13.90
  -3   1   4  138.31   16.66
   3  -1  -4  132.96    9.96
   3  -1  -3    0.81    0.62
   3  -1  -3    1.53    3.21
  -3   1   3    0.96    1.74
  -3   1   3    0.69    0.50
  -3   1   3    3.50    3.16
  -3   1   2  113.94   14.32
  -3   1   2  114.37    9.88
  -3   1   2  123.57   15.14
  -3   1   1  458.29   28.77
  -3   1   1  477.31   29.97
  -3   1   0   44.39    9.00
  -3   1   0   48.26    9.64
  -3   1  -1    2.87    2.97
  -3   1  -1    5.59    3.36
  -3   1  -2    9.79    5.62
  -3   1  -2    5.12    2.73
  -3   1  -3   20.61    6.66
  -3   1  -3   19.60    5.79
  -3   1  -3   10.59    2.24
  -3   1  -4    0.32    1.51
  -3   1  -4    5.21    4.63
  -3   1  -4    0.21    1.12
  -3   1  -5    1.30    0.82
  -3   1  -5   -2.61    3.29
  -3   1  -5   -0.80    0.78
  -3   1  -6   12.72    5.27
  -3   1  -6    8.38    5.20
  -3   1  -7   -0.82    0.77
  -3   1  -7    1.18    1.58
  -3   1  -8   16.14    6.63
  -3   1  -8    2.25    4.34
  -3   1  -9   16.66    7.89
  -3   1  -9   10.14    5.94
  -3   1 -10    3.87    3.66
  -3   1 -10    0.43    2.50
  -3   1 -11    1.88    1.24
  -3   1 -11    0.18    2.15
  -3   1 -12    4.27    7.34
  -3   1 -12   -0.89    2.70
  -3   1 -13   -0.84    0.79
  -3   1 -13    1.75    4.32
  -3   1 -14    1.07    2.41
  -3   1 -14    3.44    4.61
  -3   1 -15   -0.65    3.98
  -3   1 -15    3.37    3.71
  -3   1 -16   -1.88    6.68
  -3   1 -16    1.75    3.96
  -3   1 -17    3.15    6.84
  -3   1 -18    1.26    4.83
  -3   0  20   -1.09    5.58
   3   0 -20    5.05    5.61
  -3   0  19   10.78    7.26
   3   0 -19   -2.50    3.31
  -3   0  18    4.41    1.10
   3   0 -18    6.53    5.47
  -3   0  17    9.90    9.52
   3   0 -17    1.46    1.44
  -3   0  16    1.69    6.42
   3   0 -16    2.22    2.28
  -3   0  15   22.23   12.06
   3   0 -15    9.85    5.76
  -3   0  14    8.63    4.75
   3   0 -14   11.36    5.60
  -3   0  13   51.36   15.65
   3   0 -13   35.89    9.54
  -3   0  12   15.74    8.02
   3   0 -12    7.12    4.39
  -3   0  11   78.40   15.81
   3   0 -11   60.60   11.69
  -3   0  10   22.66    7.73
   3   0 -10   15.26    6.26
  -3   0   9   66.34   11.13
   3   0  -9   66.32   12.43
   3   0  -8   92.07   15.17
  -3   0   8   85.75   11.73
  -3   0   7   20.91    5.00
   3   0  -7   31.29    9.20
  -3   0   7   18.56    3.37
   3   0  -6    0.36    1.05
  -3   0   6    0.69    0.46
  -3   0   6    3.02    2.54
   3   0  -5   40.41   10.62
  -3   0   5   26.30    5.00
  -3   0   5   29.03    5.68
   3   0  -4    4.51    4.64
  -3   0   4    3.92    1.88
  -3   0   4    1.20    0.68
  -3   0   3  409.28   22.20
  -3   0   3  405.31   27.60
  -3   0   3  346.64   16.03
  -3   0   2  337.00   20.85
  -3   0   2  348.73   25.02
  -3   0   2  270.56   12.19
  -3   0   1  151.59   14.49
  -3   0   1  146.66   16.24
  -3   0   0   30.95    7.57
  -3   0   0   25.95    6.70
   3   0   0   24.69    3.68
  -3   0  -1    3.11    2.58
  -3   0  -2    9.65    1.88
  -3   0  -2    9.17    4.58
  -3   0  -3   21.08    7.67
  -3   0  -4    3.33    3.29
  -3   0  -5   28.02    8.12
  -3   0  -6  177.38   22.08
  -3   0  -7   -0.42    1.35
  -3   0  -8   19.90    7.16
  -3   0  -9    4.90    5.21
  -3   0  -9    7.54    5.26
  -3   0 -10    2.93    3.28
  -3   0 -10    6.27    3.78
  -3   0 -11    3.34    2.10
  -3   0 -11    4.73    4.13
  -3   0 -12   10.17    4.44
  -3   0 -12    3.68    3.01
  -3   0 -13   -3.21    5.24
  -3   0 -13   -1.92    1.07
  -3   0 -14    9.48    5.70
  -3   0 -14    8.06    6.33
  -3   0 -15   -1.76    1.42
  -3   0 -16    1.87    2.43
  -3   0 -17    0.26    2.06
  -3   0 -18    3.73    3.33
  -3  -1  20    3.97    5.50
   3   1 -20   -1.09    0.71
  -3  -1  19   -0.80    1.85
   3   1 -19   -3.10    4.27
  -3  -1  18    7.07    5.09
   3   1 -18    1.73    2.37
   3   1 -17    1.19    3.22
   3   1 -16    3.01    3.80
   3   1 -15   37.52   10.56
   3   1 -14    1.36    3.35
   3   1 -13    0.35    2.89
   3   1 -12    3.28    3.39
   3   1 -11   14.41    5.59
   3   1 -10    8.81    5.59
  -3  -1   9   14.35    5.59
   3   1  -9   16.97    6.19
  -3  -1   9   17.68    4.88
  -3  -1   8    0.11    0.64
   3   1  -8    2.87    1.59
  -3  -1   8   -0.21    0.34
  -3  -1   7   37.53    7.16
   3   1  -7   43.36   11.72
  -3  -1   7   46.05    8.75
  -3  -1   7   44.75    8.04
  -3  -1   6   67.24   10.48
   3   1  -6   86.91   16.92
  -3  -1   6   50.62    7.38
  -3  -1   6   65.82    8.95
  -3  -1   5   78.84   11.15
   3   1  -5   59.05   15.47
  -3  -1   5   54.55    6.95
  -3  -1   5   55.00    7.27
  -3  -1   4   14.92    3.14
   3   1  -4   19.94    9.31
  -3  -1   4   16.98    5.40
  -3  -1   4   18.74    5.41
  -3  -1   4   17.01    3.41
  -3  -1   3   76.80   11.08
  -3  -1   3   63.31   10.72
  -3  -1   3   51.54    4.54
  -3  -1   3   66.28    6.09
  -3  -1   2   11.29    2.04
  -3  -1   2   10.25    3.95
  -3  -1   2    9.54    3.82
  -3  -1   1   -0.25    0.50
  -3  -1   1    2.90    2.84
  -3  -1   1    2.06    2.20
  -3  -1   0   33.48    8.41
  -3  -1   0   38.12    8.17
  -3  -1   0   32.55    3.61
  -3  -1  -1   95.72   13.11
  -3  -1  -1   88.08   13.31
  -3  -1  -1   99.08    7.29
   3   1   2   28.13    3.18
  -3  -1  -2   42.63    9.52
  -3  -1  -2   34.46    8.36
  -3  -1  -3    0.50    1.24
  -3  -1  -3    1.49    3.64
  -3  -1  -4  216.35   20.55
  -3  -1  -4  264.23   26.20
  -3  -1  -5  174.51   19.11
  -3  -1  -5  204.21   23.77
  -3  -1  -6   37.45   10.00
  -3  -1  -7   90.34   15.51
  -3  -1  -8    8.90    5.21
  -3  -1  -9    0.88    2.65
  -3  -1 -10    2.82    2.74
  -3  -1 -11   -3.20    2.56
  -3  -1 -12  165.61   23.99
  -3  -1 -13   92.87   18.62
  -3  -1 -14    0.75    1.18
  -3  -1 -15   21.49    8.39
  -3  -1 -16   -0.53    3.95
  -3  -1 -17   -1.67    6.17
  -3  -1 -18    0.80    4.45
   3   2 -20    2.80    4.31
   3   2 -19   -2.20    4.63
   3   2 -18   13.86    7.23
   3   2 -17    8.36    6.04
   3   2 -16    7.68    4.49
   3   2 -15   12.07    5.80
   3   2 -14    9.82    4.86
   3   2 -13    0.63    0.77
   3   2 -12    0.67    0.82
   3   2 -11   -1.32    2.94
  -3  -2  11    1.47    2.53
  -3  -2  10    2.92    1.59
   3   2 -10    2.65    1.83
  -3  -2   9    2.18    2.12
   3   2  -9    2.35    3.97
  -3  -2   8   38.48    7.30
  -3  -2   8   30.97    6.25
   3   2  -8   54.06   12.91
  -3  -2   7    2.82    2.40
  -3  -2   7    1.61    0.99
   3   2  -7    8.91    6.28
   3   2  -6  120.86   21.04
  -3  -2   6   62.59    9.35
  -3  -2   6   64.39    8.35
  -3  -2   5    0.32    0.59
  -3  -2   5   -1.28    1.86
  -3  -2   5    0.73    1.98
   3   2  -5    2.39    4.87
  -3  -2   4    2.21    1.50
  -3  -2   4    2.26    2.64
  -3  -2   4    1.04    0.84
  -3  -2   4    0.52    0.50
  -3  -2   3    0.85    1.11
  -3  -2   3    0.71    1.76
  -3  -2   3    1.77    2.15
  -3  -2   2   30.27    5.20
  -3  -2   2   33.17    7.16
  -3  -2   2   26.56    7.14
  -3  -2   1    7.92    2.48
  -3  -2   1    7.72    4.33
  -3  -2   0    3.09    1.25
  -3  -2   0    5.15    2.95
  -3  -2   0    2.54    3.13
  -3  -2  -1   36.36    5.89
  -3  -2  -1   38.48    8.40
  -3  -2  -1   37.32    8.69
  -3  -2  -2   53.29   10.93
  -3  -2  -2   53.55   10.07
  -3  -2  -3    0.08    3.11
  -3  -2  -3    2.87    3.43
   3   2   3    1.12    0.93
   3   2   4   36.19    5.88
  -3  -2  -4   39.40   10.28
  -3  -2  -4   30.53    7.75
  -3  -2  -5    7.25    4.10
  -3  -2  -5    4.04    2.59
  -3  -2  -6   14.75    7.20
  -3  -2  -6   14.44    6.03
  -3  -2  -7    9.76    5.57
  -3  -2  -7    5.85    4.44
  -3  -2  -8    2.07    3.46
  -3  -2  -8    2.53    3.82
  -3  -2  -9   10.68    5.41
  -3  -2 -10    1.49    2.01
  -3  -2 -11   56.32   12.88
  -3  -2 -12    5.63    4.38
  -3  -2 -13   40.41   11.85
  -3  -2 -14   38.07   11.84
  -3  -2 -15   -1.92    3.38
  -3  -2 -16    2.18    5.94
  -3  -2 -17    2.17    2.04
   3   3 -20   -6.00    7.15
   3   3 -19    2.35    3.29
   3   3 -18   21.64    9.26
   3   3 -17    0.08    0.98
   3   3 -16    9.98    5.50
   3   3 -15   13.13    6.60
   3   3 -14    1.54    2.99
  -3  -3  14   -0.82    2.74
  -3  -3  13    1.53    0.98
   3   3 -13    3.96    4.14
  -3  -3  12   -0.89    0.36
   3   3 -12    0.28    1.24
  -3  -3  11    0.89    2.25
   3   3 -11    1.62    1.82
  -3  -3  10   -0.57    1.56
   3   3 -10    3.08    4.10
  -3  -3   9    4.98    3.33
   3   3  -9    3.98    3.47
  -3  -3   8   13.28    4.81
   3   3  -8   16.34    7.48
  -3  -3   7   15.01    4.75
   3   3  -7   14.58    7.77
  -3  -3   6    2.44    2.10
   3   3  -6    1.72    2.98
  -3  -3   5   -2.43    2.05
  -3  -3   5    1.73    2.03
   3   3  -5    1.64    2.73
  -3  -3   4   11.63    3.96
  -3  -3   4   11.02    4.50
  -3  -3   3    2.10    1.48
  -3  -3   3    1.29    0.62
  -3  -3   3    1.63    2.57
  -3  -3   2    4.20    2.33
  -3  -3   2    2.58    2.64
  -3  -3   2    5.50    3.90
  -3  -3   1   28.67    5.33
  -3  -3   1   40.55    9.00
  -3  -3   1   40.18    8.68
  -3  -3   0    5.71    2.83
  -3  -3   0    6.70    4.20
  -3  -3   0    2.69    1.87
  -3  -3  -1   13.15    5.22
  -3  -3  -1   12.10    3.78
  -3  -3  -1   10.02    4.47
  -3  -3  -2    8.30    4.22
  -3  -3  -2    9.20    4.90
  -3  -3  -3    7.45    3.41
  -3  -3  -3   11.82    5.91
   3   3   3    6.49    1.89
  -3  -3  -4   13.34    5.85
  -3  -3  -4   18.48    6.83
   3   3   4    9.86    2.53
  -3  -3  -5    4.98    4.03
  -3  -3  -5    3.81    3.43
   3   3   5    2.15    1.14
   3   3   6    2.72    1.95
  -3  -3  -6    1.70    1.85
  -3  -3  -6    2.37    3.42
   3   3   7   -0.83    2.90
  -3  -3  -7    3.17    3.47
  -3  -3  -7    2.97    3.16
   3   3   8   17.41    6.81
  -3  -3  -8    2.27    1.51
  -3  -3  -8   17.91    7.70
   3   3   9    1.43    2.06
  -3  -3  -9   -1.42    1.60
  -3  -3  -9    0.01    2.90
   3   3  10    3.39    4.11
  -3  -3 -10    2.47    2.75
  -3  -3 -10   -2.12    4.21
   3   3  11    2.02    2.55
  -3  -3 -11   -0.08    3.74
   3   3  12    1.93    2.39
  -3  -3 -12   -4.25    5.70
   3   3  13    2.02    3.66
  -3  -3 -13    2.99    4.61
  -3  -3 -14   -0.12    3.99
  -3  -3 -15    0.54    2.75
  -3  -3 -16   -3.08    6.66
  -3  -3 -17   -3.33    4.89
   3   4 -20    1.77    3.49
   3   4 -19   -1.07    2.63
   3   4 -18    1.15    3.94
   3   4 -17    4.30    4.61
   3   4 -16    3.84    3.20
  -3  -4  16    1.10    2.58
  -3  -4  15   -0.86    1.04
   3   4 -15   -2.52    4.29
  -3  -4  14   10.03    5.26
   3   4 -14   11.25    6.05
  -3  -4  13    1.54    1.92
   3   4 -13    0.85    2.31
  -3  -4  12    3.66    3.25
   3   4 -12    5.45    4.28
  -3  -4  11   57.46   11.83
   3   4 -11   65.72   13.81
  -3  -4  10   16.78    6.23
   3   4 -10   17.47    7.82
  -3  -4   9   82.23   13.25
   3   4  -9   74.05   16.81
  -3  -4   8    1.63    1.84
   3   4  -8   -1.46    4.29
  -3  -4   7    1.80    1.81
   3   4  -7    1.62    3.53
  -3  -4   6    1.73    3.67
   3   4  -6    1.16    5.17
  -3  -4   5    0.86    1.75
   3   4  -5   -0.69    3.12
  -3  -4   4  387.67   27.87
  -3  -4   4  390.12   24.87
  -3  -4   3  261.22   23.52
  -3  -4   3  158.71   17.71
  -3  -4   3  227.95   17.86
  -3  -4   2  102.23   15.29
  -3  -4   2   63.91   10.98
  -3  -4   2   82.46   10.37
  -3  -4   1  146.01   18.67
  -3  -4   1   85.61   13.23
  -3  -4   1  112.88   12.52
  -3  -4   0   46.87   11.03
  -3  -4   0   38.73    7.44
  -3  -4   0   22.64    7.19
  -3  -4  -1    9.57    5.00
  -3  -4  -1    6.41    2.19
  -3  -4  -1   19.14   11.36
  -3  -4  -2    9.15    4.74
  -3  -4  -2   57.95   17.95
  -3  -4  -3   17.55    6.76
  -3  -4  -3   31.10    9.69
  -3  -4  -4   26.94    8.62
  -3  -4  -4   19.94    8.00
  -3  -4  -5   20.86    8.34
  -3  -4  -5   20.07    7.74
  -3  -4  -6   11.69    6.50
  -3  -4  -6    7.94    5.03
   3   4   6    8.03    3.66
  -3  -4  -7    4.45    3.31
  -3  -4  -7    9.62    4.93
   3   4   7    4.94    2.94
  -3  -4  -8    6.14    4.15
  -3  -4  -8    6.25    3.80
  -3  -4  -9    8.37    4.48
  -3  -4  -9    8.92    3.37
  -3  -4 -10   11.93    6.92
  -3  -4 -10   22.43    9.32
  -3  -4 -11   13.80    7.24
  -3  -4 -11   -0.84    1.86
  -3  -4 -12    4.87    5.34
  -3  -4 -13    1.12    4.88
  -3  -4 -14    0.48    2.23
  -3  -4 -15    0.35    2.30
  -3  -4 -16   -0.82    1.66
   3   5 -19   -0.03    2.98
   3   5 -18   -1.20    3.28
  -3  -5  18   -1.23    3.04
  -3  -5  17   33.89   10.99
   3   5 -17    9.29    6.39
  -3  -5  16    4.86    4.44
   3   5 -16    1.67    1.94
  -3  -5  15   -4.74    4.43
   3   5 -15   -0.42    4.14
  -3  -5  14   14.96    8.14
   3   5 -14    5.08    4.39
  -3  -5  13   -1.32    2.84
   3   5 -13   -0.11    2.92
  -3  -5  12    3.66    4.69
   3   5 -12    0.57    1.84
  -3  -5  11   11.77    4.66
   3   5 -11   23.04    8.96
  -3  -5  10   17.97    6.95
   3   5 -10   21.36    7.89
  -3  -5   9   -0.14    1.67
   3   5  -9   -0.79    3.17
  -3  -5   8   25.33    7.97
   3   5  -8   31.18   10.68
  -3  -5   7    2.47    1.25
   3   5  -7    4.46    4.84
  -3  -5   6    8.12    4.73
   3   5  -6   19.71    9.95
  -3  -5   5   17.78    5.84
   3   5  -5   11.45    8.96
  -3  -5   4  231.56   20.11
  -3  -5   3  115.74   17.07
  -3  -5   3   68.48   11.15
  -3  -5   3  106.25   13.01
  -3  -5   2  497.89   30.80
  -3  -5   2  704.47   33.94
  -3  -5   1   48.05   11.72
  -3  -5   1   35.85    7.42
  -3  -5   1   21.11    6.38
  -3  -5   0   44.71   12.50
  -3  -5   0   45.57    9.07
  -3  -5   0   30.25    7.94
  -3  -5  -1    8.76    6.27
  -3  -5  -1    5.54    4.13
  -3  -5  -1    2.19    2.49
  -3  -5  -2    1.40    1.44
  -3  -5  -2   -0.94    2.82
  -3  -5  -3   73.55   16.22
  -3  -5  -3   35.60    9.91
  -3  -5  -4   36.32   11.19
  -3  -5  -4   15.52    6.78
  -3  -5  -5    7.39    4.22
  -3  -5  -5    8.56    5.90
  -3  -5  -6   47.58   12.87
  -3  -5  -6   54.78   13.42
  -3  -5  -7   22.60    9.08
  -3  -5  -7   23.85    8.82
  -3  -5  -8    2.21    2.93
  -3  -5  -8    3.53    2.52
  -3  -5  -9   -1.81    3.61
  -3  -5  -9    4.93    4.83
  -3  -5 -10    8.22    6.25
  -3  -5 -10   10.68    6.96
  -3  -5 -11    0.38    2.25
  -3  -5 -11   -0.01    3.80
  -3  -5 -12    0.94    3.42
  -3  -5 -12    6.00    5.28
  -3  -5 -13    3.32    4.84
  -3  -5 -14   -2.10    3.55
  -3  -5 -15    0.10    1.48
  -3  -5 -16    0.73    3.79
   3   6 -19   -7.65    5.98
  -3  -6  18    1.18    2.34
   3   6 -18   -0.35    1.15
  -3  -6  17   -3.12    3.74
   3   6 -17   -1.03    3.78
  -3  -6  16    1.65    3.95
   3   6 -16   -0.21    1.49
  -3  -6  15   -2.14    4.64
   3   6 -15    6.39    4.68
  -3  -6  14    3.51    3.60
   3   6 -14   -8.68    5.26
  -3  -6  13   -2.70    4.87
   3   6 -13   -2.46    1.28
  -3  -6  12   -1.21    0.90
   3   6 -12    1.74    2.10
  -3  -6  11    2.79    3.26
   3   6 -11    0.01    1.24
  -3  -6  10   10.97    5.84
   3   6 -10    3.60    2.00
  -3  -6   9   -0.34    1.20
   3   6  -9   -0.94    2.84
  -3  -6   8    8.18    5.20
   3   6  -8   17.30    8.40
  -3  -6   7   29.95    8.39
   3   6  -7   40.23   12.32
  -3  -6   6   -3.00    3.00
   3   6  -6    1.25    2.11
  -3  -6   5   14.44    5.56
   3   6  -5   11.20    5.52
  -3  -6   4   31.15    7.64
   3   6  -4   26.85   10.63
  -3  -6   3    7.72    6.51
  -3  -6   2   10.16    5.18
  -3  -6   2    7.37    4.05
  -3  -6   2    4.74    3.02
  -3  -6   1   12.35    7.61
  -3  -6   1    4.20    3.23
  -3  -6   1    5.42    3.12
  -3  -6   0    6.05    3.64
  -3  -6   0    6.60    3.54
  -3  -6   0    6.80    3.73
  -3  -6  -1    0.72    4.59
  -3  -6  -1   -3.74    3.45
  -3  -6  -1    1.57    1.44
  -3  -6  -2   15.48    8.02
  -3  -6  -2    8.13    4.55
  -3  -6  -2    5.24    3.05
  -3  -6  -3   15.85    9.14
  -3  -6  -3    9.67    4.22
  -3  -6  -4   45.51   13.39
  -3  -6  -4   23.25    7.90
  -3  -6  -5   23.41    9.49
  -3  -6  -5   30.22    9.15
  -3  -6  -6    1.53    3.05
  -3  -6  -6    0.00    2.92
  -3  -6  -7    9.93    7.27
  -3  -6  -7    8.53    6.27
  -3  -6  -8   13.51    8.65
  -3  -6  -8    6.59    6.76
  -3  -6  -9   -1.44    4.71
  -3  -6  -9    0.49    2.08
  -3  -6 -10    5.08    5.03
  -3  -6 -10    1.53    6.51
  -3  -6 -11    4.24    5.13
  -3  -6 -11    0.79    3.20
  -3  -6 -12   -1.41    2.66
  -3  -6 -12    0.15    3.96
  -3  -6 -13    1.32    2.64
  -3  -6 -13   15.31    8.37
  -3  -6 -14   -0.07    1.29
  -3  -6 -15   -0.43    4.03
  -3  -7  17   -0.91    2.61
  -3  -7  16   -3.56    5.55
   3   7 -16    0.18    2.28
  -3  -7  15   -1.26    2.46
   3   7 -15    1.67    2.92
  -3  -7  14    3.64    5.57
   3   7 -14    2.37    2.40
  -3  -7  13    2.08    1.43
   3   7 -13   -0.61    0.36
  -3  -7  12    3.41    3.81
   3   7 -12   -1.78    3.76
  -3  -7  11   -4.44    3.26
   3   7 -11    0.05    2.28
  -3  -7  10   -3.15    4.39
   3   7 -10    0.42    2.66
  -3  -7   9    3.76    4.10
   3   7  -9    7.55    5.29
  -3  -7   8   12.44    5.70
   3   7  -8   17.52    7.20
  -3  -7   7   -0.88    2.31
   3   7  -7    1.37    2.76
  -3  -7   6    4.04    3.85
   3   7  -6   15.28    8.31
  -3  -7   5   10.57    5.18
   3   7  -5   20.57    8.82
  -3  -7   4   11.72    5.59
   3   7  -4    5.39    4.91
  -3  -7   3    0.57    2.13
  -3  -7   2    2.56    3.39
  -3  -7   2    4.72    4.06
  -3  -7   1   -1.94    3.30
  -3  -7   1    2.08    2.84
  -3  -7   0   -0.90    3.30
  -3  -7   0   -1.73    1.37
  -3  -7  -1    7.14    5.43
  -3  -7  -1    7.06    5.42
  -3  -7  -2    1.03    1.08
  -3  -7  -2    3.52    3.13
  -3  -7  -3    1.81    2.66
  -3  -7  -3    0.32    2.19
  -3  -7  -4    2.76    3.87
  -3  -7  -5   15.89    9.20
  -3  -7  -6    4.27    3.03
  -3  -7  -7    0.02    2.68
  -3  -7  -8   13.52    9.96
  -3  -7  -9    2.42    4.27
  -3  -7 -10    0.32    3.76
  -3  -7 -11   13.55    8.11
  -3  -7 -12    6.49    5.67
  -3  -7 -13   -4.59    5.33
  -3  -8  16   -2.87    2.55
  -3  -8  15    0.55    1.94
  -3  -8  14    1.24    1.15
  -3  -8  13   -0.37    3.46
  -3  -8  12    6.25    5.81
  -3  -8  11    0.96    0.89
  -3  -8  10    0.88    2.03
  -3  -8   9    9.41    5.99
  -3  -8   8    3.49    4.39
  -3  -8   7    4.10    4.02
  -3  -8   6    5.12    4.94
  -3  -8   5    3.65    4.34
  -3  -8   4   -4.32    3.52
  -3  -8   3    4.38    3.87
   3   8  -3   -0.05    0.90
  -3  -8   2   -0.22    1.69
  -3  -8   1    1.06    2.44
  -3  -8   1    3.62    4.77
  -3  -8   0    5.97    6.33
  -3  -8   0    6.33    2.55
  -3  -8  -1    8.00    4.83
  -3  -8  -1   15.98    7.99
  -3  -8  -2    3.26    4.31
  -3  -8  -2    0.39    3.00
  -3  -8  -3    1.95    4.14
  -3  -8  -3    2.40    2.38
  -3  -8  -4   -1.01    3.05
  -3  -8  -4   -1.39    0.82
  -3  -8  -5    3.57    5.18
  -3  -8  -6   -1.78    5.87
  -3  -8  -7   -1.04    2.06
  -3  -8  -8   -3.30    4.12
  -3  -8  -9    3.02    7.68
  -3  -8 -10   -0.28    4.02
  -3  -8 -11    5.42    8.46
  -3  -9  14    6.14    3.26
  -3  -9  13   -1.66    2.54
  -3  -9  12    3.40    3.56
  -3  -9  11   12.99    8.09
  -3  -9  10    0.85    2.68
  -3  -9   9    7.43    4.86
  -3  -9   8    8.77    6.13
  -3  -9   7   -2.87    4.14
  -3  -9   6   -1.78    3.08
  -3  -9   5    0.13    2.03
  -3  -9   4   -1.97    2.71
  -3  -9   3    4.01    4.18
  -3  -9   2    4.20    5.34
  -3  -9   2   10.31    6.58
  -3  -9   1    1.35    1.43
  -3  -9   1    5.06    4.43
  -3  -9   0   -3.89    4.43
  -3  -9   0    6.38    5.70
  -3  -9  -1    7.99    7.02
  -3  -9  -1    2.27    5.06
  -3  -9  -2   -1.53    2.57
  -3  -9  -2    1.77    1.48
  -3  -9  -3    3.17    9.34
  -3  -9  -3    5.71    5.97
  -3  -9  -4    0.88    2.36
  -3  -9  -4    1.22    2.47
  -3  -9  -5    2.25    5.16
  -3  -9  -5   -2.38    4.41
  -3  -9  -6   -4.79    6.08
  -3  -9  -7   -0.88    2.79
  -3  -9  -8    2.24    3.70
  -3 -10  11    0.63    2.45
  -3 -10  10   -1.24    3.66
  -3 -10   9    1.00    2.98
  -3 -10   8   -1.05    2.34
  -3 -10   7    3.35    4.92
  -3 -10   6    1.44    3.95
  -3 -10   5   16.10    8.39
  -3 -10   4   21.33   10.18
  -3 -10   3    8.25    4.88
  -3 -10   2   -1.41    3.19
  -3 -10   2    0.97    2.04
  -3 -10   1   -1.92    2.96
  -3 -10   1   -1.21    3.43
  -3 -10   0    0.13    3.98
  -3 -10   0    0.89    0.91
  -3 -10  -1   10.14    7.03
  -3 -10  -1    1.31    1.20
  -3 -10  -2    3.80    7.95
  -3 -10  -2    1.41    3.05
  -3 -10  -3   10.61    9.03
  -3 -10  -3   -1.83    4.54
  -3 -10  -4   41.97   17.11
  -3 -10  -4    8.86    6.39
  -3 -10  -5   12.14    7.80
  -3 -11   4   -3.42    5.02
  -3 -11   3   -1.98    4.66
  -3 -11   2    0.20    3.47
  -4  10  -2   -1.90    3.66
  -4  10  -3    1.18    2.40
  -4  10  -4    6.90    7.76
  -4  10  -5    1.22    2.54
  -4   9   9   -2.76    6.73
  -4   9   8    4.71    3.50
  -4   9   7   -0.87    5.44
  -4   9   7   -3.32    6.47
  -4   9   6   -1.02    3.04
  -4   9   6    1.26    1.91
  -4   9   5    0.88    3.30
  -4   9   4   -1.93    6.56
  -4   9   3    1.97    4.87
  -4   9   2    6.71    5.64
  -4   9   1   -2.88    4.09
  -4   9   0   -3.78    7.63
  -4   9   0   -0.02    5.02
  -4   9  -1   -2.13    4.02
  -4   9  -1    5.87    7.07
  -4   9  -2   -1.73    3.65
  -4   9  -2   -1.45    4.45
  -4   9  -3    0.52    4.74
  -4   9  -3   -1.27    0.31
  -4   9  -4    5.88    7.74
  -4   9  -4    2.87   17.41
  -4   9  -5   -3.45    5.15
  -4   9  -5   -0.18    3.77
  -4   9  -6   -1.45    6.67
  -4   9  -6   -5.64    6.58
  -4   9  -7   14.83   12.00
  -4   9  -7   -8.59    7.65
  -4   9  -8  -10.51    8.04
  -4   9  -8    1.07    6.40
  -4   9  -9   -9.17    6.34
  -4   9 -10   -5.13    6.96
  -4   8  10    3.06    4.36
  -4   8  10   -2.44    6.53
  -4   8   9    5.54    6.56
  -4   8   9    5.96    4.90
  -4   8   8    1.71    4.60
  -4   8   8    2.32    1.74
  -4   8   7   -1.43    4.32
  -4   8   7   -1.59    3.87
  -4   8   6   10.08    7.86
  -4   8   6    9.61    9.78
  -4   8   5    5.87    6.67
  -4   8   5    0.31    2.14
  -4   8   4    8.72   10.54
  -4   8   3   -4.03    2.59
  -4   8   2   -5.51    5.89
  -4   8   1   20.17   12.43
  -4   8   1    6.37    4.66
  -4   8   0    4.77    5.29
  -4   8   0    2.86    3.58
  -4   8  -1   -1.17    5.73
  -4   8  -1    3.80    6.49
  -4   8  -2    2.67    4.60
  -4   8  -2    1.29    3.23
  -4   8  -3   -4.08    5.74
  -4   8  -3    0.53    4.35
  -4   8  -4    0.42    4.96
  -4   8  -4   -0.16    2.19
  -4   8  -5    0.04    0.97
  -4   8  -5   -1.45    3.40
  -4   8  -6   -8.60    8.65
  -4   8  -6    2.16    4.71
  -4   8  -7    2.80    6.46
  -4   8  -7    1.57    2.68
  -4   8  -8   -3.73    5.56
  -4   8  -8   -2.16    5.96
  -4   8  -9    0.66    1.18
  -4   8  -9    2.49    6.45
  -4   8 -10   -0.34    3.87
  -4   8 -10    0.61    3.67
  -4   8 -11   -2.51    3.29
  -4   7  12   -1.25    2.62
  -4   7  11    0.83    5.04
  -4   7  11   -1.59    4.02
  -4   7  10   44.06   12.82
  -4   7  10   -2.05    4.69
  -4   7   9    7.85    6.09
  -4   7   9    3.06    0.65
  -4   7   8    1.25    3.23
  -4   7   8    3.72    5.56
  -4   7   7   25.57   16.39
  -4   7   7    6.43    7.26
  -4   7   6    3.59    5.50
  -4   7   6   -0.95    1.59
  -4   7   5    7.05   11.21
  -4   7   5    2.03    2.60
  -4   7   4   -3.14    8.74
  -4   7   4   -0.87    2.94
  -4   7   3   -0.76    3.63
  -4   7   2   10.76    8.71
  -4   7   1   -5.35   11.20
  -4   7   1   -4.14    2.72
  -4   7   0    3.06    2.99
  -4   7   0   -0.42    1.65
  -4   7  -1   30.96   15.19
  -4   7  -1   19.32   10.46
  -4   7  -2   -1.79    5.52
  -4   7  -2  -13.63    8.11
  -4   7  -3   14.17    9.42
  -4   7  -3    1.96    4.41
  -4   7  -4   10.52    9.98
  -4   7  -4  -11.22    7.48
  -4   7  -5    4.30   11.08
  -4   7  -5   -1.72    3.22
  -4   7  -6    6.73    4.16
  -4   7  -6   11.36    8.97
  -4   7  -7    6.32    5.03
  -4   7  -7   -3.41    6.31
  -4   7  -8    3.76    3.33
  -4   7  -8   -0.16    6.54
  -4   7  -9    6.76    6.56
  -4   7  -9    0.68    3.10
  -4   7 -10   -6.68    7.50
  -4   7 -10   -3.27    4.71
  -4   7 -11   -3.66    5.90
  -4   7 -11    1.14    1.47
  -4   7 -12    4.34    7.53
  -4   6  14  -11.77    7.68
  -4   6  13   -3.23    5.60
  -4   6  12   -0.49    4.22
  -4   6  11    5.55    4.59
  -4   6  11   -0.21    3.09
  -4   6  10    5.00    6.68
  -4   6  10   -0.93    3.98
  -4   6   9   -0.95    1.84
  -4   6   9   -1.07    1.18
  -4   6   8   -1.62    3.40
  -4   6   8   -3.01    4.49
  -4   6   7    2.76    2.38
  -4   6   7    1.08    2.54
  -4   6   6    4.49    2.75
  -4   6   6    1.98    0.28
  -4   6   5   16.26    9.42
  -4   6   5    0.19    3.29
  -4   6   4   -1.88    5.59
  -4   6   4    1.69    4.30
  -4   6   3   -4.29    0.28
  -4   6   2    3.83    6.69
  -4   6   1    7.40    6.44
  -4   6   1    4.33    4.71
  -4   6   0   19.29   11.41
  -4   6   0   16.65    9.33
  -4   6  -1   11.31    8.17
  -4   6  -1    0.75    1.83
  -4   6  -1    2.24    4.48
  -4   6  -2   14.81    8.80
  -4   6  -2   11.39    5.64
  -4   6  -2   17.75    9.85
  -4   6  -3    0.22    2.61
  -4   6  -3    7.09    5.59
  -4   6  -3    2.33    4.87
  -4   6  -4    1.88    2.23
  -4   6  -4   -2.86    5.51
  -4   6  -4   -1.17    4.05
  -4   6  -5   -2.39    3.31
  -4   6  -5    3.56    6.16
  -4   6  -5    3.49    7.96
  -4   6  -6   -2.03    4.66
  -4   6  -6    6.77    5.27
  -4   6  -6   -1.24    4.37
  -4   6  -7   32.67   10.97
  -4   6  -7   22.65   13.54
  -4   6  -7   50.48   19.27
  -4   6  -8   31.82   11.11
  -4   6  -8   59.84   18.69
  -4   6  -8   77.44   21.58
  -4   6  -9    1.38    4.40
  -4   6  -9   -2.47    9.76
  -4   6  -9    3.73    4.81
  -4   6 -10   19.92   11.97
  -4   6 -10    6.54    5.84
  -4   6 -10    5.94    3.30
  -4   6 -11    0.36    0.26
  -4   6 -11    1.46    3.20
  -4   6 -11   -1.31    2.48
  -4   6 -12    2.09    1.57
  -4   6 -12   -3.98    7.74
  -4   6 -13    3.48    5.84
  -4   6 -13   -1.31    5.80
  -4   6 -14   -2.15    2.88
  -4   6 -14   -3.13    7.35
  -4   6 -15    2.18    2.16
   4  -5 -17    4.46    5.08
   4  -5 -16   -1.13    3.87
   4  -5 -15    2.51    4.52
  -4   5  15    0.92    3.14
   4  -5 -14   -0.98    2.93
  -4   5  14    1.19    4.22
   4  -5 -13    0.15    2.74
  -4   5  13   -0.12   20.07
   4  -5 -12   -1.03    2.90
  -4   5  12    2.20    1.60
   4  -5 -11    1.82    3.68
  -4   5  11    0.08    2.42
  -4   5  11   -4.79    4.07
   4  -5 -10   -1.80    2.60
  -4   5  10    5.53    3.94
  -4   5  10   -0.66    1.18
  -4   5   9    1.31    3.32
   4  -5  -9    1.33    2.25
  -4   5   9    0.93    3.09
  -4   5   8    0.10    1.53
   4  -5  -8   -3.79    3.22
  -4   5   8   -0.67    2.33
   4  -5  -7   -1.21    2.18
  -4   5   7    1.10    4.01
  -4   5   7    2.23    1.72
   4  -5  -6    6.15    3.56
  -4   5   6    7.33    4.99
  -4   5   6    6.60    4.81
   4  -5  -5    1.45    0.74
  -4   5   5    1.66    3.58
  -4   5   5    2.63    5.44
   4  -5  -4    1.72    3.46
  -4   5   4    8.89    7.92
  -4   5   4    1.29    1.94
   4  -5  -3    1.82    1.34
  -4   5   3    0.38    1.56
  -4   5   3    2.89    3.55
   4  -5  -2    5.86    4.27
  -4   5   2    1.82    2.16
   4  -5  -1    0.44    2.50
  -4   5   1    4.96    4.46
  -4   5   1    4.97    4.43
   4  -5   0    3.11    2.99
  -4   5   0   -0.78    3.74
  -4   5   0   -2.06    3.77
  -4   5   0   -0.35    3.26
   4  -5   1   -2.15    3.40
  -4   5  -1   -1.34    2.51
  -4   5  -1   -1.83    4.43
  -4   5  -1   -0.52    0.22
  -4   5  -2   -2.06    1.68
  -4   5  -2   -4.66    5.27
  -4   5  -2    1.26    4.93
  -4   5  -3    1.57    3.58
  -4   5  -3    5.33    4.49
  -4   5  -3   -8.03    5.90
  -4   5  -4    4.77    3.61
  -4   5  -4    3.30    4.65
  -4   5  -4    4.42    7.03
  -4   5  -5    3.85    4.27
  -4   5  -5    4.58    4.49
  -4   5  -5    3.83    2.26
  -4   5  -6   17.03    9.16
  -4   5  -6    9.31    7.55
  -4   5  -6   14.59    8.10
  -4   5  -7    8.17    4.77
  -4   5  -7    8.02    6.17
  -4   5  -7    9.59    7.50
  -4   5  -8   21.49   10.13
  -4   5  -8   11.30    6.66
  -4   5  -8   11.76    8.97
  -4   5  -9   10.71    6.76
  -4   5  -9   15.69    9.25
  -4   5  -9   27.61   13.58
  -4   5 -10   -0.66    1.63
  -4   5 -10   10.71    6.37
  -4   5 -10    3.49    6.06
  -4   5 -11   -0.16    2.63
  -4   5 -11   -1.59    5.02
  -4   5 -11   -1.29    4.15
  -4   5 -12   -2.45    2.44
  -4   5 -12   -3.59    2.49
  -4   5 -13    0.78    2.52
  -4   5 -13   -1.25    2.48
  -4   5 -14   -2.20    3.48
  -4   5 -14   -0.63    6.13
  -4   5 -15   -2.85    5.80
  -4   5 -15   -5.57    6.09
  -4   5 -16   -1.60    0.52
   4  -4 -17    4.78    3.92
  -4   4  17   -4.38    6.65
   4  -4 -16    2.03    2.83
  -4   4  16   -1.22    2.64
   4  -4 -15   -1.81    2.69
  -4   4  15   -1.31    0.26
   4  -4 -14    5.29    4.21
  -4   4  14    7.64    7.90
   4  -4 -13    0.12    1.11
  -4   4  13   -0.28    2.79
   4  -4 -12    7.33    4.85
  -4   4  12    6.96    4.13
  -4   4  12   17.05    9.52
  -4   4  11    2.42    3.29
   4  -4 -11    3.82    3.58
  -4   4  11    7.21    4.99
   4  -4 -10    5.94    3.83
  -4   4  10   -1.13    1.81
  -4   4  10    4.77    2.88
   4  -4  -9    5.34    3.36
  -4   4   9    4.88    3.61
  -4   4   9    7.41    5.15
   4  -4  -8   -0.76    0.34
  -4   4   8   -0.14    1.99
  -4   4   8    2.18    4.54
  -4   4   7    0.06    2.15
   4  -4  -7    4.50    3.66
  -4   4   7    8.89    5.88
  -4   4   6   -0.10    2.28
   4  -4  -6    0.32    1.88
  -4   4   6    1.52    3.52
  -4   4   5    7.16    5.22
   4  -4  -5   -2.47    1.95
  -4   4   5   -0.22    1.51
  -4   4   4   20.47    6.79
   4  -4  -4    6.93    4.60
  -4   4   4    8.28    4.94
  -4   4   3    0.86    2.26
   4  -4  -3    5.66    5.90
  -4   4   3    2.09    1.40
  -4   4   2    2.29    4.66
   4  -4  -2    1.37    2.11
  -4   4   2    3.86    4.09
   4  -4  -1   -0.74    2.49
  -4   4   1   -0.42    0.82
  -4   4   1    4.73    4.61
  -4   4   0    3.49    3.26
  -4   4   0    4.10    3.02
  -4   4  -1    3.29    1.88
  -4   4  -1    2.03    1.65
  -4   4  -2    7.10    2.44
  -4   4  -2    3.66    2.54
  -4   4  -2    2.11    1.90
  -4   4  -3    4.62    2.48
  -4   4  -3    9.96    7.11
  -4   4  -3    3.06    2.65
  -4   4  -4    4.44    3.34
  -4   4  -4    2.35    3.53
  -4   4  -4   -0.62    4.25
  -4   4  -5   -1.29    2.47
  -4   4  -5   -1.80    3.48
  -4   4  -5   -2.51    2.40
  -4   4  -6    0.14    2.90
  -4   4  -6   -0.79    3.25
  -4   4  -6    7.17    5.72
  -4   4  -7    4.52    3.60
  -4   4  -7    1.71    3.32
  -4   4  -8    2.37    4.48
  -4   4  -8    0.90    6.22
  -4   4  -8   -5.28    5.07
  -4   4  -9    1.44    4.58
  -4   4  -9    4.71    4.51
  -4   4  -9    0.82    3.66
  -4   4 -10    1.62    1.04
  -4   4 -10    2.83    5.77
  -4   4 -10    0.62    6.23
  -4   4 -11   -4.84    4.10
  -4   4 -11    2.16    4.01
  -4   4 -11   -1.52    5.14
  -4   4 -12   -3.05    3.12
  -4   4 -12    8.98    8.60
  -4   4 -13    5.43    7.00
  -4   4 -13    1.33    3.02
  -4   4 -14    2.49    3.56
  -4   4 -14    1.34    4.70
  -4   4 -15   -2.23    5.16
  -4   4 -15   -3.35    2.93
  -4   4 -16   -2.74    6.10
  -4   4 -16    0.11    1.60
  -4   4 -17   -1.16    5.95
  -4   3  18   16.14   10.26
   4  -3 -17   -1.94    4.06
  -4   3  17   11.19   11.06
   4  -3 -16    6.34    5.76
  -4   3  16    3.86    2.37
   4  -3 -15    1.18    3.09
  -4   3  15    0.84    5.08
   4  -3 -14   22.02    8.65
  -4   3  14   24.54   10.54
   4  -3 -13    0.95    1.05
  -4   3  13    3.06    3.34
   4  -3 -12    2.48    2.87
  -4   3  12    4.34    5.27
   4  -3 -11    4.72    3.05
  -4   3  11    2.14    2.97
  -4   3  11    2.79    3.83
  -4   3  10    0.03    1.64
   4  -3 -10   -0.44    1.74
  -4   3  10    0.74    2.40
   4  -3  -9   82.98   14.67
  -4   3   9   67.03   12.71
  -4   3   9   76.82   14.56
   4  -3  -8  119.89   17.55
  -4   3   8   82.44   13.94
  -4   3   8  142.15   19.63
  -4   3   7   35.52    9.26
   4  -3  -7   42.38   10.82
  -4   3   7   57.72   12.89
   4  -3  -6   65.97   13.94
  -4   3   6   52.63   11.30
  -4   3   6   41.41    9.49
   4  -3  -5  125.07   20.62
  -4   3   5  104.92   14.96
  -4   3   5   70.33   12.68
   4  -3  -4   -0.86    2.64
  -4   3   4   -4.01    2.75
  -4   3   4   -0.72    1.28
   4  -3  -3    1.43    2.39
  -4   3   3    2.09    2.72
  -4   3   3    2.79    3.13
   4  -3  -2   -0.89    4.81
  -4   3   2    2.07    2.85
  -4   3   2    2.19    1.75
  -4   3   1   17.38    7.43
  -4   3   1    6.90    3.91
  -4   3   0   45.09   11.24
  -4   3   0   41.46   10.09
  -4   3  -1    6.03    2.42
  -4   3  -1    9.04    4.67
  -4   3  -2    2.72    2.50
  -4   3  -2    3.10    2.29
  -4   3  -3   10.95    5.48
  -4   3  -3    3.21    3.29
  -4   3  -3    6.45    4.88
  -4   3  -4    9.72    6.49
  -4   3  -4    2.79    3.54
  -4   3  -4   10.02    5.60
  -4   3  -5   -1.42    1.60
  -4   3  -5    4.16    7.51
  -4   3  -5    3.94    1.63
  -4   3  -6    1.54    1.98
  -4   3  -6    6.33    5.42
  -4   3  -6    6.30    4.24
  -4   3  -7   -1.16    2.27
  -4   3  -7   -1.94    6.82
  -4   3  -7    0.06    2.11
  -4   3  -8    8.53    5.78
  -4   3  -8   10.32    7.23
  -4   3  -8    7.85    5.18
  -4   3  -9    3.21    4.58
  -4   3  -9    2.52    0.72
  -4   3  -9    3.50    3.87
  -4   3 -10    0.32    3.45
  -4   3 -10    3.34    0.57
  -4   3 -11   -2.21    3.75
  -4   3 -11   -0.71    4.06
  -4   3 -12    1.03    2.16
  -4   3 -12   -1.25    4.27
  -4   3 -13   -0.02    2.25
  -4   3 -13    3.71    2.98
  -4   3 -14   -1.43    0.85
  -4   3 -14   -1.75    4.00
  -4   3 -15   -4.77    7.16
  -4   3 -15   -2.36    3.71
  -4   3 -16    0.88    2.98
  -4   3 -16   -2.95    5.50
  -4   3 -17    0.82    1.98
  -4   3 -18   -2.50    4.60
   4  -2 -18    0.26    2.98
  -4   2  18    1.07    3.88
   4  -2 -17    2.71    3.01
  -4   2  17    0.02    1.66
   4  -2 -16   -4.60    3.95
  -4   2  16   -0.11    4.05
   4  -2 -15    5.89    4.82
  -4   2  15    5.27    5.99
   4  -2 -14   -0.48    1.43
  -4   2  14    0.48    4.94
   4  -2 -13    4.39    3.22
  -4   2  13    8.53    5.65
   4  -2 -12    0.23    1.16
  -4   2  12    0.27   13.00
   4  -2 -11    9.82    5.94
  -4   2  11    4.09    2.26
   4  -2 -10    2.08    3.06
  -4   2  10   -1.49    3.80
   4  -2  -9   81.51   15.13
  -4   2   9   73.37   13.13
   4  -2  -8   -0.97    2.34
  -4   2   8   -0.75    1.67
  -4   2   8   -0.01    1.07
   4  -2  -7  406.06   36.51
  -4   2   7  371.96   28.76
  -4   2   7  281.17   26.12
   4  -2  -6   29.59   11.11
  -4   2   6   28.56    8.52
  -4   2   6   27.95    8.36
   4  -2  -5   31.81   11.04
  -4   2   5   24.56    6.84
  -4   2   5   24.05    7.73
   4  -2  -4    7.53    4.85
  -4   2   4    2.16    1.91
  -4   2   4    2.69    3.51
   4  -2  -3    0.98    3.78
  -4   2   3    0.06    1.42
  -4   2   3   -0.17    1.44
  -4   2   3    0.69    1.88
  -4   2   2   44.21   10.53
  -4   2   2   39.01    8.78
  -4   2   1   46.40   10.13
  -4   2   1   69.72   13.17
  -4   2   0    4.02    3.46
  -4   2   0    0.10    0.44
  -4   2  -1   73.20   13.94
  -4   2  -1   57.20   11.47
  -4   2  -2   42.05   11.56
  -4   2  -2   36.47    9.34
  -4   2  -3    1.53    2.26
  -4   2  -3   -0.61    3.06
  -4   2  -4   12.72    8.02
  -4   2  -4   11.09    5.26
  -4   2  -5    6.33    3.60
  -4   2  -5   11.18    8.28
  -4   2  -6    6.33    3.91
  -4   2  -6    2.61    0.10
  -4   2  -6   -0.16    1.63
  -4   2  -7   -1.09    6.02
  -4   2  -7    5.81    4.51
  -4   2  -8    2.82    3.94
  -4   2  -8    3.05    4.99
  -4   2  -9    2.69    4.37
  -4   2  -9    0.40    2.95
  -4   2 -10    4.57    5.40
  -4   2 -10    0.82    2.65
  -4   2 -11   -1.23    3.20
  -4   2 -11    2.81    2.27
  -4   2 -12    0.15    2.86
  -4   2 -12   -1.20    1.79
  -4   2 -13   -0.95    3.04
  -4   2 -13    2.78    3.48
  -4   2 -14   -2.11    4.20
  -4   2 -14    2.44    2.08
  -4   2 -15   -0.70    3.03
  -4   2 -15    1.18    2.26
  -4   2 -16    2.33    7.58
  -4   2 -16   -0.73    2.73
  -4   2 -17    2.28    3.73
  -4   1  19    2.46    2.62
   4  -1 -18   -0.59    2.07
  -4   1  18   -0.38    3.77
   4  -1 -17    3.57    4.99
  -4   1  17    2.09    4.50
   4  -1 -16    2.03    3.27
  -4   1  16    4.73    4.13
   4  -1 -15    9.65    5.39
  -4   1  15    3.01    3.70
   4  -1 -14   -0.06    3.63
  -4   1  14    4.57    3.08
   4  -1 -13    6.42    3.96
  -4   1  13    5.86    4.64
   4  -1 -12    8.24    5.24
  -4   1  12    5.44    4.40
   4  -1 -11    6.14    4.66
  -4   1  11    6.07    4.01
   4  -1 -10   18.74    7.47
  -4   1  10   15.79    5.90
   4  -1  -9   44.87   12.05
  -4   1   9   45.68    9.12
   4  -1  -8   -0.22    3.05
  -4   1   8    3.86    3.21
   4  -1  -7    6.15    5.93
  -4   1   7   -1.83    2.60
   4  -1  -6    4.97    6.14
  -4   1   6    1.48    2.01
   4  -1  -5   12.27    9.56
  -4   1   5    9.05    4.09
   4  -1  -4   13.36    8.05
  -4   1   4    8.87    3.31
   4  -1  -3    1.22    0.17
  -4   1   3    4.00    4.43
  -4   1   3    2.23    1.17
  -4   1   2   25.34    7.62
  -4   1   1   14.07    6.34
  -4   1   0   74.00   14.01
  -4   1  -1    6.79    5.24
  -4   1  -2   -1.63    1.65
  -4   1  -3   10.69    6.03
  -4   1  -4   -3.57    3.84
  -4   1  -5    1.78    3.42
  -4   1  -6   58.33   16.04
  -4   1  -7    3.36    5.03
  -4   1  -8   65.55   16.27
  -4   1  -9   10.64    7.02
  -4   1 -10    2.00    2.04
  -4   1 -11    4.38    3.42
  -4   1 -12    6.40    7.72
  -4   1 -13    8.32    8.42
  -4   1 -14   17.06   11.30
  -4   1 -15   -2.33    3.83
  -4   1 -16   -2.19    2.44
  -4   0  19    0.98    3.25
  -4   0  18    2.13    5.95
   4   0 -18    2.41    3.05
  -4   0  17    1.22    4.54
   4   0 -17   -0.14    2.02
  -4   0  16   12.31    8.85
   4   0 -16    7.61    5.23
  -4   0  15    5.13    1.27
   4   0 -15    1.27    1.48
  -4   0  14    4.10    4.26
   4   0 -14    4.91    4.88
  -4   0  13   23.78    8.55
   4   0 -13   24.70    9.12
   4   0 -12   12.05    6.36
  -4   0  12    9.76    5.28
   4   0 -11   27.61    9.65
  -4   0  11   18.02    6.11
   4   0 -10    1.72    4.28
  -4   0  10    2.15    1.63
   4   0  -9   17.76    7.89
  -4   0   9   10.36    4.07
   4   0  -8   -1.05    1.77
  -4   0   8    1.55    1.54
   4   0  -7    9.99    5.86
  -4   0   7    3.83    2.82
   4   0  -6   -2.78    4.97
  -4   0   6   -1.06    2.23
   4   0  -5    0.71    1.50
  -4   0   5    2.88    1.93
   4   0  -4   18.10    9.66
  -4   0   4   18.54    7.15
  -4   0   4   10.13    2.86
  -4   0   3    2.55    1.29
  -4   0   2   -0.10    0.87
  -4   0   1   11.29    5.55
  -4   0   0   13.89    4.78
  -4   0  -1   -2.45    1.28
  -4   0  -2    4.17    4.62
  -4   0  -3   53.05   13.38
  -4   0  -4    1.58    5.37
  -4   0  -5    0.11    3.92
  -4   0  -6    4.99    3.02
  -4   0  -7   19.79   10.08
  -4   0  -8    0.20    2.96
  -4   0  -9   18.61    9.55
  -4   0 -10    1.98    2.81
  -4   0 -11    2.68    2.27
  -4   0 -12    3.95    3.04
  -4   0 -13    6.27    2.89
  -4   0 -14   12.05    8.32
  -4   0 -15   38.05   14.29
  -4   0 -16   -0.02    3.29
   4   1 -18    2.32    2.55
  -4  -1  17    9.96    5.97
   4   1 -17   12.31    6.75
  -4  -1  16   -6.97    5.53
   4   1 -16    1.78    1.23
  -4  -1  15   10.21    7.06
   4   1 -15    4.59    3.61
  -4  -1  14   17.75    8.95
   4   1 -14    9.30    6.30
  -4  -1  13    5.91    3.23
   4   1 -13    8.00    5.63
  -4  -1  12   -0.62    3.97
   4   1 -12   -1.06    1.82
  -4  -1  11   -1.22    1.42
   4   1 -11    0.35    3.68
  -4  -1  10    4.47    3.07
   4   1 -10    6.43    5.20
   4   1  -9   -4.14    4.38
  -4  -1   9    1.47    2.13
   4   1  -8    3.66    2.29
  -4  -1   8   -1.77    1.11
   4   1  -7   -3.69    6.29
  -4  -1   7    1.93    3.18
   4   1  -6   -2.19    7.00
  -4  -1   6    0.63    1.10
   4   1  -5    4.28    5.62
  -4  -1   5   -1.03    2.95
   4   1  -4   30.52   10.74
  -4  -1   4   24.76    7.99
  -4  -1   4   40.10   10.72
  -4  -1   3    1.54    1.90
  -4  -1   3    3.53    3.72
  -4  -1   2    1.27    0.79
  -4  -1   2    3.05    1.83
  -4  -1   1    4.98    4.60
  -4  -1   1   -0.42    0.97
  -4  -1   0    2.07    3.50
  -4  -1   0    2.65    2.53
  -4  -1  -1    2.11    4.46
  -4  -1  -1    0.10    2.41
  -4  -1  -2   20.74    7.68
  -4  -1  -2   19.05    7.28
  -4  -1  -3    4.35    4.44
  -4  -1  -4   -1.90    3.59
  -4  -1  -5    6.20    4.02
  -4  -1  -6    1.49    2.98
  -4  -1  -7    4.97    5.23
  -4  -1  -8    1.42    2.58
  -4  -1  -9    5.59    4.92
  -4  -1 -10    2.33    4.40
  -4  -1 -11    6.97    6.67
  -4  -1 -12    2.25    2.98
  -4  -1 -13    3.70    5.34
  -4  -1 -14    5.41    4.36
  -4  -1 -15    6.73    8.42
   4   2 -18    2.03    1.17
   4   2 -17   -1.75    3.56
   4   2 -16   18.51    8.34
   4   2 -15    4.86    3.36
   4   2 -14    0.46    3.40
   4   2 -13    1.65    2.26
   4   2 -12    3.85    4.37
   4   2 -11    5.17    5.80
   4   2 -10   13.46    7.52
   4   2  -9   13.74    8.58
   4   2  -8    3.35    2.75
   4   2  -7   59.39   18.30
  -4  -2   7   50.09   11.97
   4   2  -6    8.16    8.79
  -4  -2   6   11.04    5.06
   4   2  -5    5.05    4.65
  -4  -2   5   14.51    5.16
  -4  -2   4    7.04    4.81
  -4  -2   4   11.15    5.19
  -4  -2   3   47.54   11.49
  -4  -2   3   69.81   13.44
  -4  -2   2   42.07   10.55
  -4  -2   2   61.55   12.17
  -4  -2   1    3.65    3.94
  -4  -2   1    3.09    3.25
  -4  -2   0    3.69    1.45
  -4  -2   0    7.02    3.15
  -4  -2  -1   14.57    7.98
  -4  -2  -1    1.65    1.61
  -4  -2  -2    0.89    1.20
  -4  -2  -2   -1.12    2.74
  -4  -2  -3   -0.89    4.41
  -4  -2  -3   -1.23    3.56
  -4  -2  -4    2.95    2.39
  -4  -2  -4   -1.87    2.43
  -4  -2  -5   -4.41    5.59
  -4  -2  -5    0.18    3.31
  -4  -2  -6    2.37    5.15
  -4  -2  -6    0.06    3.36
  -4  -2  -7    6.78    7.41
  -4  -2  -8    1.55    5.31
  -4  -2  -9    3.51    3.08
  -4  -2 -10    4.93    4.79
  -4  -2 -11   -0.33    3.40
  -4  -2 -12    3.23    3.14
  -4  -2 -13   -2.32    3.14
  -4  -2 -14    2.82    5.19
  -4  -2 -15   -2.77    4.88
   4   3 -18    0.00    3.40
   4   3 -17   -3.32    5.05
   4   3 -16   19.32   10.23
   4   3 -15    4.29    3.43
   4   3 -14    1.49    2.75
   4   3 -13   -0.35    2.74
   4   3 -12   11.88    7.95
  -4  -3  12    7.28    4.01
  -4  -3  11    1.89    3.33
   4   3 -11    4.75    4.91
  -4  -3  10    1.80    2.07
   4   3 -10   -2.78    1.81
  -4  -3   9   31.57    6.73
   4   3  -9   75.46   21.83
  -4  -3   8   24.07    5.32
  -4  -3   8   42.61   10.15
   4   3  -8   31.05   14.89
  -4  -3   7   13.84    4.06
  -4  -3   7   17.46    6.41
   4   3  -7   35.50   13.91
  -4  -3   6   14.05    3.96
   4   3  -6   27.51   13.54
  -4  -3   6   15.05    6.03
  -4  -3   5    2.26    2.22
   4   3  -5   -0.83    4.95
  -4  -3   5   -0.75    2.91
  -4  -3   4   -0.39    1.54
  -4  -3   4    0.31    2.13
  -4  -3   3   26.54    8.12
  -4  -3   3   38.69   10.53
  -4  -3   2   24.15    8.27
  -4  -3   2   23.29    6.97
  -4  -3   1  465.44   34.53
  -4  -3   1  389.09   32.56
  -4  -3   0  264.64   26.21
  -4  -3   0  225.76   25.08
  -4  -3  -1   13.71    6.90
  -4  -3  -1   14.32    5.53
  -4  -3  -2  101.35   18.44
  -4  -3  -2   84.64   15.18
  -4  -3  -3    3.19    4.61
  -4  -3  -3    1.49    3.43
  -4  -3  -4    1.95    4.96
  -4  -3  -4   -0.96    1.24
  -4  -3  -5   14.53    7.39
  -4  -3  -5   12.69    6.35
  -4  -3  -6    6.29    7.51
  -4  -3  -6   -0.91    2.59
  -4  -3  -7   24.18    9.87
  -4  -3  -7   21.40   10.37
  -4  -3  -8   12.39    6.23
  -4  -3  -8   10.69    6.91
  -4  -3  -9    0.88    1.25
  -4  -3 -10    7.20    5.44
  -4  -3 -11   -0.88    3.77
  -4  -3 -12    0.70    1.75
  -4  -3 -13    0.12    1.98
  -4  -3 -14   -2.28    2.29
  -4  -3 -15   -1.08    1.97
   4   4 -18    0.52    3.09
   4   4 -17    1.82    3.42
   4   4 -16   -1.79    1.87
   4   4 -15    3.28    4.78
  -4  -4  15   -0.13    1.29
   4   4 -14   -2.57    4.17
  -4  -4  14    1.93    1.37
  -4  -4  13    1.53    1.96
   4   4 -13    2.56    3.02
  -4  -4  12   -2.56    3.44
   4   4 -12    4.55    2.04
  -4  -4  11    0.95    1.57
   4   4 -11    5.24    5.48
  -4  -4  10    1.29    2.90
   4   4 -10    3.22    2.06
  -4  -4   9    2.30    0.54
  -4  -4   9    1.17    2.99
   4   4  -9    2.54    5.20
  -4  -4   8    1.20    1.76
  -4  -4   8   -1.59    2.24
   4   4  -8    4.60    7.54
  -4  -4   7    0.92    1.61
  -4  -4   7    1.57    2.09
   4   4  -7    2.93    3.96
  -4  -4   6   26.90    6.61
  -4  -4   6   37.33    9.17
   4   4  -6   50.54   18.30
  -4  -4   5    3.61    3.27
  -4  -4   5    2.92    3.09
   4   4  -5    0.92    4.74
  -4  -4   4   27.39    6.60
  -4  -4   4   32.35    9.82
  -4  -4   3    6.40    3.19
  -4  -4   3   11.16    4.77
  -4  -4   3    4.93    3.60
  -4  -4   2  126.76   18.88
  -4  -4   2   93.36   15.99
  -4  -4   2  113.04   13.22
  -4  -4   1    3.21    2.65
  -4  -4   1    4.66    5.04
  -4  -4   1    1.13    2.57
  -4  -4   0  135.38   19.92
  -4  -4   0  124.53   18.87
  -4  -4   0  120.18   13.37
  -4  -4  -1   44.23    8.55
  -4  -4  -1   34.57   11.03
  -4  -4  -1   44.49   11.72
  -4  -4  -2    7.38    3.90
  -4  -4  -2    6.63    5.46
  -4  -4  -2   10.34    6.60
  -4  -4  -3    8.05    4.61
  -4  -4  -3    7.15    4.19
  -4  -4  -3   14.25    7.38
  -4  -4  -4    3.80    3.45
  -4  -4  -4    8.07    5.03
  -4  -4  -5    7.55    5.57
  -4  -4  -5    8.17    5.87
  -4  -4  -6   43.33   14.36
  -4  -4  -6   40.88   12.63
  -4  -4  -7    9.41    6.78
  -4  -4  -7    6.06    4.86
  -4  -4  -8   13.11    7.15
  -4  -4  -8   11.56    8.52
  -4  -4  -9   11.17    4.93
  -4  -4  -9    6.46    5.91
  -4  -4 -10    2.13    4.00
  -4  -4 -10    1.92    4.44
  -4  -4 -11    1.78    5.79
  -4  -4 -12    0.49    1.21
  -4  -4 -13    5.54    4.93
  -4  -4 -14    1.31    3.80
   4   5 -17    0.09    0.99
   4   5 -16   -0.13    0.65
  -4  -5  15    0.05    4.65
   4   5 -15    1.13    1.93
  -4  -5  14    2.53    3.90
   4   5 -14    2.63    4.48
  -4  -5  13    0.04    2.40
   4   5 -13    5.35    4.95
  -4  -5  12    2.38    3.27
   4   5 -12   -2.28    4.02
  -4  -5  11    4.36    3.06
   4   5 -11    6.80    6.25
  -4  -5  10   -2.08    2.02
  -4  -5  10    0.83    2.63
   4   5 -10    0.17    1.69
  -4  -5   9   -2.20    2.35
   4   5  -9   -0.13    2.12
  -4  -5   8    1.69    2.64
  -4  -5   8    5.24    2.50
   4   5  -8   -1.95    3.78
  -4  -5   7    5.83    4.70
  -4  -5   7    4.18    1.98
   4   5  -7    1.48    5.82
  -4  -5   6    6.28    3.20
  -4  -5   6    6.37    2.71
   4   5  -6    9.77    9.39
  -4  -5   5    8.09    3.69
  -4  -5   5    3.01    3.84
   4   5  -5    6.34    8.03
  -4  -5   4   -0.96    2.14
  -4  -5   4    3.43    3.93
  -4  -5   3    1.18    1.41
  -4  -5   3    1.39    2.45
  -4  -5   3    3.08    3.25
  -4  -5   2    5.60    3.19
  -4  -5   2   15.80    7.68
  -4  -5   2    7.21    4.54
  -4  -5   1    0.17    0.79
  -4  -5   1    3.47    4.51
  -4  -5   1    0.10    0.95
  -4  -5   0    8.29    4.02
  -4  -5   0    9.61    5.23
  -4  -5   0    5.54    4.83
  -4  -5  -1    4.48    3.51
  -4  -5  -1   -2.69    2.39
  -4  -5  -1    1.24    4.26
  -4  -5  -2    5.13    2.78
  -4  -5  -2    2.50    3.89
  -4  -5  -2    3.64    4.05
  -4  -5  -3    2.72    0.72
  -4  -5  -3    6.38    5.11
  -4  -5  -3    3.27    0.58
  -4  -5  -4   -3.44    3.59
  -4  -5  -4   -2.07    1.75
  -4  -5  -5    3.28    4.98
  -4  -5  -5    7.36    7.73
  -4  -5  -6    5.12    5.16
  -4  -5  -6    0.37    2.60
  -4  -5  -7   12.33    8.80
  -4  -5  -7    2.36    2.64
  -4  -5  -8    2.13    3.29
  -4  -5  -8   -0.34    1.22
  -4  -5  -9   -3.14    5.49
  -4  -5  -9   -0.71    5.45
  -4  -5 -10   -3.01    6.18
  -4  -5 -10   -0.06    3.28
  -4  -5 -11    1.92    4.40
  -4  -5 -11   -4.20    4.56
  -4  -5 -12    1.66    4.85
  -4  -5 -13   -0.92    2.92
  -4  -5 -14   -3.96    7.07
   4   6 -17   16.87    8.89
   4   6 -16    7.38    6.09
  -4  -6  15    1.71    2.67
   4   6 -15    0.79    2.12
  -4  -6  14    3.90    3.91
   4   6 -14    1.38    4.07
  -4  -6  13    1.24    1.71
   4   6 -13    2.73    4.45
  -4  -6  12    3.18    3.41
   4   6 -12   -0.91    2.95
  -4  -6  11    3.21    4.15
   4   6 -11   -0.92    0.92
  -4  -6  10   -1.65    1.84
   4   6 -10   -3.22    4.90
  -4  -6   9    5.00    3.86
   4   6  -9    6.97    8.65
  -4  -6   8    0.41    2.93
  -4  -6   8    5.11    3.15
  -4  -6   7    4.14    1.27
  -4  -6   7    5.91    4.87
   4   6  -7    0.26    7.42
  -4  -6   6   11.57    4.44
  -4  -6   6   19.55    9.05
   4   6  -6    3.62    7.03
  -4  -6   5    4.62    3.08
  -4  -6   5    8.54    4.60
   4   6  -5    3.08    6.20
  -4  -6   4   11.69    5.69
  -4  -6   4    9.01    6.25
   4   6  -4    3.08    6.92
  -4  -6   3    1.93    2.82
  -4  -6   3    5.48    4.82
  -4  -6   2    3.19    2.39
  -4  -6   2    2.06    4.45
  -4  -6   2    5.74    4.31
  -4  -6   1   -0.14    1.35
  -4  -6   1   -1.46    3.21
  -4  -6   1    9.15    5.46
  -4  -6   0    2.51    3.28
  -4  -6   0    1.31    1.25
  -4  -6   0    8.34    8.07
  -4  -6  -1    5.49    4.48
  -4  -6  -1    2.11    1.39
  -4  -6  -1   13.70    7.57
  -4  -6  -2    1.84    0.80
  -4  -6  -2    1.85    3.25
  -4  -6  -2    0.77    1.10
  -4  -6  -3    1.56    2.84
  -4  -6  -3   11.66    8.00
  -4  -6  -3    2.48    4.18
  -4  -6  -4    1.01    4.85
  -4  -6  -4   -4.93    4.76
  -4  -6  -4    0.59    3.45
  -4  -6  -5   -1.64    3.39
  -4  -6  -5    5.15    6.36
  -4  -6  -6    0.14    1.89
  -4  -6  -6    2.91    4.41
  -4  -6  -7    4.23    5.36
  -4  -6  -7    5.10    7.72
  -4  -6  -8    1.89    3.96
  -4  -6  -8   -1.23    6.53
  -4  -6  -9   -0.26    2.62
  -4  -6  -9   -3.72    7.08
  -4  -6 -10    0.78    3.60
  -4  -6 -10    1.41    2.25
  -4  -6 -11   -0.59    2.18
  -4  -6 -11   -2.62    6.09
  -4  -6 -12   -2.82    4.75
  -4  -6 -13   -2.89    6.76
   4   7 -16    5.04    4.89
  -4  -7  15   14.87    7.73
   4   7 -15   16.17    8.31
  -4  -7  14   -3.50    4.22
   4   7 -14   -0.25    3.03
  -4  -7  13   -3.30    4.65
   4   7 -13    3.26    4.31
  -4  -7  12    1.52    3.03
   4   7 -12   -1.17    2.43
  -4  -7  11    0.22    2.06
   4   7 -11    1.09    2.59
  -4  -7  10   18.33    7.98
   4   7 -10   13.79    8.28
  -4  -7   9   -1.33    1.58
   4   7  -9    9.34    6.58
  -4  -7   8   -1.11    2.49
  -4  -7   8    2.00    2.96
   4   7  -8    4.79    4.24
  -4  -7   7   10.03    6.20
  -4  -7   7   12.60    6.32
   4   7  -7   21.56   12.61
  -4  -7   6    4.50    3.11
  -4  -7   6    7.25    4.80
   4   7  -6   12.23    9.31
  -4  -7   5    3.01    2.73
  -4  -7   5    3.61    4.00
   4   7  -5    6.74    6.84
  -4  -7   4    1.38    3.06
  -4  -7   4    0.60    2.60
   4   7  -4    3.95    4.45
  -4  -7   3    1.32    0.93
  -4  -7   3   11.21    6.17
  -4  -7   2    0.30    1.43
  -4  -7   2    2.23    1.16
  -4  -7   1    0.91    2.84
  -4  -7   1   -1.50    2.49
  -4  -7   0    0.51    2.21
  -4  -7   0   -6.64    5.41
  -4  -7  -1    6.15    6.29
  -4  -7  -1    3.59    3.70
  -4  -7  -2   -0.16    3.41
  -4  -7  -2   -3.54    1.29
  -4  -7  -3    0.01    2.69
  -4  -7  -3    5.83    5.68
  -4  -7  -4    5.88    5.97
  -4  -7  -4   -1.95    1.98
  -4  -7  -5   -0.17    3.88
  -4  -7  -5    2.82    2.83
  -4  -7  -6   -1.49    0.72
  -4  -7  -7  -10.43    7.71
  -4  -7  -8   -0.26    4.52
  -4  -7  -9    0.07    3.18
  -4  -8  14   -3.20    1.25
  -4  -8  13   10.74    7.77
  -4  -8  12    0.39    2.94
  -4  -8  11   -0.85    1.06
  -4  -8  10    3.30    4.71
  -4  -8   9    6.53    4.08
  -4  -8   8   10.21    6.65
  -4  -8   7    1.11    4.34
  -4  -8   7    3.26    0.64
  -4  -8   6   -1.92    4.30
  -4  -8   6    2.62    2.77
   4   8  -6    1.93    5.76
  -4  -8   5   -0.43    4.24
  -4  -8   5    1.86    7.12
   4   8  -5   -0.70    3.27
  -4  -8   4    3.15    3.11
  -4  -8   4   -1.64    5.07
   4   8  -4   -0.32    4.74
  -4  -8   3    6.20    4.71
  -4  -8   3    1.12    3.35
   4   8  -3    1.98    1.91
  -4  -8   2    7.04    4.42
  -4  -8   2   18.93    9.60
  -4  -8   1   28.73   11.80
  -4  -8   1    2.47    4.28
  -4  -8   0   77.99   18.71
  -4  -8   0   27.95   13.05
  -4  -8  -1    2.97    1.67
  -4  -8  -1    5.92    8.27
  -4  -8  -2   98.12   19.37
  -4  -8  -2   -2.59    3.85
  -4  -8  -3    2.83    1.24
  -4  -8  -3    0.95    5.47
  -4  -8  -4    2.33    3.54
  -4  -8  -4   -1.71    4.90
  -4  -8  -5    8.41    7.16
  -4  -8  -6    9.43    8.87
  -4  -9  12   -0.74    2.40
  -4  -9  11    1.35    2.00
  -4  -9  10   -3.28    1.83
  -4  -9   9   -5.58    5.40
  -4  -9   8   -0.70    3.71
  -4  -9   7   -1.90    3.72
  -4  -9   7   -0.72    2.97
  -4  -9   6    0.06    3.07
  -4  -9   6    9.92   10.92
  -4  -9   5    0.40    0.83
  -4  -9   5    3.16    5.50
  -4  -9   4    0.28    3.18
  -4  -9   4    4.32    3.40
  -4  -9   3    3.34    4.80
  -4  -9   3   -0.35    0.95
  -4  -9   2    9.66    5.03
  -4  -9   2    7.08    7.13
  -4  -9   1   -2.09    4.24
  -4  -9   1    1.51    5.80
  -4  -9   0   -6.72    4.97
  -4  -9   0    2.80    4.38
  -4  -9  -1   -0.21    1.70
  -4  -9  -1   -0.29    3.71
  -4  -9  -2   -3.22    6.52
  -4  -9  -2   -0.85    5.50
  -4  -9  -3   -0.24    3.97
  -4  -9  -3    2.70    6.18
  -4 -10   8    0.66    1.22
  -4 -10   7   -1.52    3.38
  -4 -10   6    0.34    2.17
  -4 -10   5    3.15    4.09
  -4 -10   4    1.04    3.52
  -4 -10   3   -3.88    5.39
  -4 -10   2    0.21    1.46
  -4 -10   1    0.92    2.36
  -4 -10   0    3.35    5.99
  -5   9  -2    1.92    7.14
  -5   8   6    0.87    4.65
  -5   8   5    3.90    4.74
  -5   8   4   -0.62    3.94
  -5   8   3   -3.01    7.71
  -5   8   2   -1.50    7.53
  -5   8   1   -1.03    7.71
  -5   8   0   -4.60    5.89
  -5   8  -1   10.39   10.56
  -5   8  -2   -0.08    4.83
  -5   8  -3    8.61    6.58
  -5   8  -3   -6.34    6.16
  -5   8  -4   -0.01    1.07
  -5   8  -4   14.83   11.42
  -5   8  -5   -6.28    8.86
  -5   8  -5    2.51    4.02
  -5   8  -6   -2.19    1.80
  -5   7  10   -3.26    6.70
  -5   7  10    4.25    3.15
  -5   7   9    8.08   11.46
  -5   7   9   -0.59    2.80
  -5   7   8   -1.85    3.21
  -5   7   8    0.72    3.33
  -5   7   7    2.92    2.50
  -5   7   7   -1.20    5.90
  -5   7   6   -0.28    3.11
  -5   7   5    2.00    4.96
  -5   7   4   -4.54    5.82
  -5   7   3    3.29    5.37
  -5   7   2    4.71    9.29
  -5   7   1    6.25    7.88
  -5   7   0   -5.75    8.82
  -5   7  -1   -5.01    3.19
  -5   7  -2   -5.29    6.75
  -5   7  -3  -12.57    8.45
  -5   7  -3   11.56    8.61
  -5   7  -4    1.36    3.19
  -5   7  -4    5.45    7.21
  -5   7  -5   -2.39    3.14
  -5   7  -5    2.11    6.37
  -5   7  -6   -3.20    4.17
  -5   7  -6    0.64    3.81
  -5   7  -7   -2.13    1.61
  -5   7  -7    2.94    5.89
  -5   7  -8   -0.76    4.15
  -5   7  -8    2.18    5.83
  -5   7  -9    4.23    5.37
  -5   7 -10   13.85   10.01
  -5   6  12   -5.51    4.82
  -5   6  11    0.32    2.18
  -5   6  11   -1.33    2.05
  -5   6  10   -2.79    4.78
  -5   6  10    6.18    6.99
  -5   6   9    2.49    4.46
  -5   6   9   -2.72    3.75
  -5   6   8   -4.68    4.30
  -5   6   8   -3.34    6.06
  -5   6   7    3.67    5.50
  -5   6   7    5.33    4.82
  -5   6   6    2.74    4.00
  -5   6   6    2.06    4.38
  -5   6   5   -4.23    6.22
  -5   6   4   -1.03    3.76
  -5   6   3    2.84    4.24
  -5   6   2    1.42    1.51
  -5   6   1   -0.91    2.16
  -5   6   0   -0.70    2.45
  -5   6  -1    5.05    5.05
  -5   6  -1    5.62    5.95
  -5   6  -2    3.13    3.06
  -5   6  -2   -0.47    1.71
  -5   6  -3   -5.34    5.77
  -5   6  -3   -1.34    4.06
  -5   6  -4    1.23    3.99
  -5   6  -4   -0.34    2.18
  -5   6  -4    4.03    4.75
  -5   6  -5   -3.53    6.12
  -5   6  -5    0.47    2.94
  -5   6  -5   -1.49    6.20
  -5   6  -6    0.50    1.67
  -5   6  -6    4.42    4.89
  -5   6  -6    5.50    7.26
  -5   6  -7   -0.81    3.50
  -5   6  -7    0.70    2.67
  -5   6  -7    2.76    5.53
  -5   6  -8    1.72    2.17
  -5   6  -8   -2.71    6.31
  -5   6  -8    1.08    3.56
  -5   6  -9    4.75    2.18
  -5   6  -9   -0.70    2.32
  -5   6  -9   -2.30    4.67
  -5   6 -10    5.15    6.65
  -5   6 -10    0.04    2.98
  -5   6 -10   -3.78    7.78
  -5   6 -11   -0.12    1.31
  -5   6 -12    3.12    3.72
   5  -5 -14   -0.87    2.77
  -5   5  14   -6.48    5.37
   5  -5 -13    1.67    1.13
  -5   5  13    3.44    5.87
   5  -5 -12    3.80    3.76
  -5   5  12    3.03    4.57
  -5   5  11   -0.04    2.04
   5  -5 -11    1.50    3.68
  -5   5  11    3.15    5.54
   5  -5 -10    1.55    2.47
  -5   5  10    0.86    0.48
  -5   5  10   -3.02    6.29
  -5   5   9    1.23    2.08
   5  -5  -9    1.86    3.37
  -5   5   9    6.71    5.97
  -5   5   8   17.55    8.26
   5  -5  -8    3.25    3.68
  -5   5   8    7.99    6.07
   5  -5  -7    5.08    3.85
  -5   5   7    4.15    1.75
  -5   5   7    9.24    5.37
   5  -5  -6    3.18    4.03
  -5   5   6    9.22    6.82
  -5   5   6    4.11    4.05
   5  -5  -5    1.51    2.54
  -5   5   5    5.90    5.64
   5  -5  -4   10.16    6.57
  -5   5   4   12.46    7.76
   5  -5  -3   -1.68    0.50
  -5   5   3   -1.75    1.50
   5  -5  -2   -1.69    3.73
  -5   5   2   -3.52    4.41
   5  -5  -1   -4.82    4.87
  -5   5   1    0.12    0.26
   5  -5   0   -3.42    7.51
  -5   5   0    1.30    2.86
  -5   5   0    1.53    4.78
   5  -5   1    3.38    1.50
  -5   5  -1   -0.31    0.38
  -5   5  -1    5.70    4.82
  -5   5  -2    0.70    2.13
  -5   5  -2   -3.55    5.62
  -5   5  -3    1.02    3.26
  -5   5  -3   17.37    8.15
  -5   5  -4   -2.55    0.13
  -5   5  -4    0.87    3.29
  -5   5  -5    4.32    4.74
  -5   5  -5   -3.06    4.87
  -5   5  -5    0.83    3.40
  -5   5  -6   -2.38    2.67
  -5   5  -6    0.21    3.41
  -5   5  -6    1.72    3.30
  -5   5  -7   -1.88    4.97
  -5   5  -7    2.41    5.75
  -5   5  -7   -1.39    3.13
  -5   5  -8   -0.12    2.11
  -5   5  -8   -1.25    2.36
  -5   5  -8   -0.58    1.62
  -5   5  -9    1.37    2.20
  -5   5  -9   -0.01    3.53
  -5   5  -9    3.25    1.69
  -5   5 -10   -1.11    3.36
  -5   5 -10    3.93    6.21
  -5   5 -10   -0.55    8.06
  -5   5 -11   -0.77    3.27
  -5   5 -11   -3.00    5.18
  -5   5 -12    2.72    4.70
   5  -4 -15    4.19    5.33
   5  -4 -14    1.85    1.13
   5  -4 -13   -0.41    1.86
  -5   4  13    3.70    2.21
   5  -4 -12    0.39    3.39
  -5   4  12    0.23    1.44
   5  -4 -11    2.88    1.64
  -5   4  11   16.69    8.96
  -5   4  11    1.73    2.26
  -5   4  10   -3.78    2.91
   5  -4 -10   -1.56    1.61
  -5   4  10   -0.02    2.26
   5  -4  -9    0.47    3.10
  -5   4   9    6.83    4.33
  -5   4   9   -3.39    3.34
   5  -4  -8    2.25    3.00
  -5   4   8    6.52    5.00
  -5   4   8   -2.53    3.54
   5  -4  -7   -3.57    3.60
  -5   4   7    2.05    3.11
  -5   4   7   -9.83    5.46
   5  -4  -6   66.80   16.62
  -5   4   6   49.73   12.48
  -5   4   6   50.03   12.58
  -5   4   5   39.59   11.57
   5  -4  -5   74.61   19.34
  -5   4   5   45.85   11.34
  -5   4   4   48.47   12.18
   5  -4  -4   -0.48    2.95
  -5   4   3   32.62   10.83
   5  -4  -3   50.00   18.11
  -5   4   2    4.39    3.23
   5  -4  -2   18.06   12.36
  -5   4   1    0.05    3.43
   5  -4  -1   10.58    8.30
  -5   4   1    0.37    2.99
  -5   4   0    1.78    1.03
  -5   4   0    1.12    1.82
  -5   4  -1   11.91    6.99
  -5   4  -1    3.09    5.51
  -5   4  -2    4.91    4.03
  -5   4  -2    6.13    5.09
  -5   4  -3    6.84    4.28
  -5   4  -3    9.94    8.19
  -5   4  -4    0.31    3.02
  -5   4  -4    2.87    6.60
  -5   4  -5   -0.27    4.48
  -5   4  -5   -1.26    3.80
  -5   4  -6    3.07    3.71
  -5   4  -6   -2.14    4.18
  -5   4  -7    3.01    1.98
  -5   4  -7    1.21    1.95
  -5   4  -8   -1.38    4.53
  -5   4  -8    2.60    2.72
  -5   4  -8    2.17    1.30
  -5   4  -9    1.79    5.24
  -5   4  -9   -4.08    4.51
  -5   4  -9    2.23    3.89
  -5   4 -10   -2.95    3.71
  -5   4 -10   -5.83    5.20
  -5   4 -11   -5.01    6.51
  -5   4 -11   -2.67    3.70
  -5   4 -12   -1.24    2.65
  -5   4 -12   -1.73    3.65
  -5   4 -13   -0.42    3.30
   5  -3 -15    0.88    3.15
   5  -3 -14   -0.97    2.54
   5  -3 -13    2.69    3.19
   5  -3 -12   -4.21    4.84
   5  -3 -11    3.13    3.71
   5  -3 -10   -2.37    2.88
   5  -3  -9    3.08    3.47
   5  -3  -8    0.54    1.85
  -5   3   8    6.72    5.19
   5  -3  -7   17.57    9.12
  -5   3   7    9.44    4.85
  -5   3   6    5.26    3.78
   5  -3  -6    0.79    2.82
   5  -3  -5   23.30   12.51
  -5   3   5   14.56    7.62
   5  -3  -4   18.18   11.02
  -5   3   4   10.78    5.28
  -5   3   3    0.22    1.64
   5  -3  -3   -7.58    8.45
  -5   3   2    1.00    1.80
   5  -3  -2    1.06    3.96
  -5   3   2    0.80    2.86
  -5   3   1    1.84    0.97
   5  -3  -1   -2.90    3.75
  -5   3   1    3.24    4.02
  -5   3   0    2.88    3.41
  -5   3   0    0.97    5.02
  -5   3  -1   14.38    6.86
  -5   3  -1   13.07    7.53
  -5   3  -2   14.49    7.24
  -5   3  -2   10.92    5.18
  -5   3  -3    0.44    2.24
  -5   3  -3    2.98    3.63
  -5   3  -4    7.43    6.25
  -5   3  -4    4.46    4.68
  -5   3  -5    3.24    4.20
  -5   3  -5    3.06    4.81
  -5   3  -6    2.62    2.77
  -5   3  -7    3.73    5.03
  -5   3  -8   -1.05    6.48
  -5   3  -9    1.61    4.81
  -5   3 -10   -3.11    4.73
  -5   3 -11   -4.75    5.11
  -5   3 -12    3.49    4.80
  -5   3 -13   -5.51    5.95
   5  -2 -15    3.87    4.57
   5  -2 -14    2.61    2.50
   5  -2 -13   -0.95    2.70
   5  -2 -12    4.54    4.42
   5  -2 -11    3.93    3.20
   5  -2 -10    3.50    1.38
   5  -2  -9    6.18    6.29
   5  -2  -8    2.36    4.38
   5  -2  -7    7.00    6.98
   5  -2  -6   -0.87    5.04
   5  -2  -5    4.49    6.22
   5  -2  -4    0.55    2.96
   5  -2  -3    5.13    6.82
  -5   2   3    5.53    4.76
   5  -2  -2    7.50    7.37
  -5   2   2    1.01    3.62
  -5   2   1   -0.21    1.71
  -5   2   0    1.15    3.06
  -5   2  -1   -1.33    2.46
  -5   2  -2    7.65    5.61
  -5   2  -3    2.49    3.32
  -5   2  -4    7.98    7.94
  -5   2  -5    6.31    7.60
  -5   2  -6   -0.60    4.89
  -5   2  -7   -1.28    4.18
  -5   2  -8    2.27    6.72
  -5   2  -9    0.27    4.54
  -5   2 -10    4.15    4.74
  -5   2 -11    5.99    7.46
  -5   2 -12   -3.10    4.84
  -5   2 -13    9.54    9.48
   5  -1 -16   -4.85    4.84
   5  -1 -15    3.41    4.85
   5  -1 -14    6.32    4.91
   5  -1 -13    2.43    1.62
   5  -1 -12    6.45    4.74
   5  -1 -11    0.99    1.76
   5  -1 -10    5.69    4.27
   5  -1  -9    7.18    7.20
   5  -1  -8   -2.11    1.20
   5  -1  -7   -2.73    6.88
   5  -1  -6    2.03    6.05
   5  -1  -5    7.43    7.42
   5  -1  -4    5.22    8.56
   5  -1  -3   -0.67    3.60
  -5   1   3    1.10    3.14
  -5   1   2    2.90    1.97
  -5   1   1    1.11    3.08
  -5   1   0    2.14    5.02
  -5   1  -1   -0.89    0.59
  -5   1  -2    2.41    3.52
  -5   1  -3    2.87    1.71
  -5   1  -4    5.17    4.95
  -5   1  -5    4.46    3.66
  -5   1  -6    8.15    8.79
  -5   1  -7   -5.88    6.39
  -5   1  -8   -2.26    7.35
  -5   1  -9   -6.02    8.68
  -5   1 -10   -3.55    4.34
  -5   1 -11    0.33    2.46
  -5   1 -12   -0.67    5.12
  -5   1 -13    6.09    6.92
   5   0 -16    1.94    2.59
   5   0 -15    3.88    4.58
   5   0 -14    7.43    5.57
   5   0 -13    1.85    6.15
   5   0 -12    5.41    7.12
   5   0 -11    9.93    8.39
   5   0 -10    7.85    5.94
   5   0  -9    2.95    7.48
   5   0  -8    4.23    6.09
   5   0  -7   -5.05    8.83
   5   0  -6   12.13   14.38
   5   0  -5    2.71    4.38
   5   0  -4   12.20    7.85
  -5   0   3    6.99    5.44
  -5   0   2    2.22    4.42
  -5   0   1   -0.08    3.97
  -5   0   0    4.30    4.39
  -5   0  -1    1.18    3.42
  -5   0  -2    4.06    5.17
  -5   0  -3    6.06    4.82
  -5   0  -4    9.43    6.53
  -5   0  -5    1.78    7.02
  -5   0  -6    6.03    6.68
  -5   0  -7   -4.68    7.77
  -5   0  -8    0.90    4.54
  -5   0  -9    6.81   10.57
  -5   0 -10    1.04    4.38
  -5   0 -11   -1.85    3.46
  -5   0 -12    5.65    7.02
  -5   0 -13    1.97    5.07
   5   1 -16   -0.37    1.25
   5   1 -15    3.12    3.88
   5   1 -14   11.73    7.08
   5   1 -13   10.56    5.38
   5   1 -12   -0.83    2.18
   5   1 -11    1.94    6.71
   5   1 -10    8.59    5.53
   5   1  -9   -8.06   10.18
   5   1  -8   20.49   14.20
   5   1  -7   33.74   19.96
   5   1  -6   -4.45    3.89
   5   1  -5   87.33   23.95
   5   1  -4    3.90    1.86
  -5  -1   4    1.25    3.45
  -5  -1   3    1.63    2.05
  -5  -1   2    0.30    1.51
  -5  -1   1   15.16    7.80
  -5  -1   0   70.91   15.30
  -5  -1  -1   37.05   11.02
  -5  -1  -2   -1.28    1.93
  -5  -1  -3   25.77    9.94
  -5  -1  -4   19.61   10.59
  -5  -1  -5    4.61    3.85
  -5  -1  -6    2.63    6.60
  -5  -1  -7   -0.33    7.02
  -5  -1  -8    2.20    4.36
  -5  -1  -9    3.95    3.20
  -5  -1 -10   -1.92    3.70
  -5  -1 -11   -1.14    6.18
  -5  -1 -12   -1.07    1.85
   5   2 -15   -1.75    3.01
   5   2 -14    7.41    7.29
   5   2 -13    4.77    3.51
   5   2 -12    0.65    1.74
   5   2 -11   -0.39    5.73
   5   2 -10   13.22   10.33
   5   2  -9   -1.22    3.27
   5   2  -8    0.75    6.39
   5   2  -7   14.22   10.88
   5   2  -6   11.03   12.26
   5   2  -5    1.73    1.20
  -5  -2   5    1.82    5.63
   5   2  -4    8.57    7.60
  -5  -2   4    6.63    3.50
  -5  -2   4   15.51    7.93
  -5  -2   3    5.38    5.08
  -5  -2   3    4.03    5.68
  -5  -2   2    1.03    3.34
  -5  -2   2    9.29    7.00
  -5  -2   1   18.89    8.22
  -5  -2   1   18.92    8.69
  -5  -2   0   21.60    8.49
  -5  -2   0   26.42    8.88
  -5  -2  -1   57.28   15.92
  -5  -2  -1   62.01   14.32
  -5  -2  -2  162.52   23.66
  -5  -2  -2  175.02   26.89
  -5  -2  -3    5.32    6.04
  -5  -2  -4   15.70    8.33
  -5  -2  -5   -3.73    2.53
  -5  -2  -6    0.97    1.53
  -5  -2  -7   14.35   10.07
  -5  -2  -8    7.83    6.58
  -5  -2  -9    1.91    2.63
  -5  -2 -10    6.58    5.98
  -5  -2 -11    1.25    1.94
  -5  -2 -12   -4.94    6.69
   5   3 -15    2.21    4.31
   5   3 -14    3.15    6.30
   5   3 -13   -1.84    2.73
   5   3 -12   -0.90    1.59
   5   3 -11    5.60    7.70
   5   3 -10   -0.92    2.60
   5   3  -9    2.98    7.66
   5   3  -8    4.46    5.39
   5   3  -7   -5.01    9.78
   5   3  -6    0.96    3.59
   5   3  -5    8.35   11.43
  -5  -3   5   -1.72    0.86
   5   3  -4    7.40    6.15
  -5  -3   4   13.00    5.38
  -5  -3   3    3.76    3.73
  -5  -3   3   -0.17    4.75
  -5  -3   2    2.38    2.53
  -5  -3   2    3.23    3.43
  -5  -3   1    3.80    0.78
  -5  -3   1    7.29    3.85
  -5  -3   0    9.46    5.30
  -5  -3   0    8.17    5.75
  -5  -3  -1    3.10    2.58
  -5  -3  -1    0.87    1.56
  -5  -3  -2    5.56    5.17
  -5  -3  -2    5.58    4.70
  -5  -3  -3    1.95    2.69
  -5  -3  -3    1.93    2.94
  -5  -3  -4    1.10    3.07
  -5  -3  -4   -1.04    2.83
  -5  -3  -5    4.24    6.17
  -5  -3  -5    0.26    1.96
  -5  -3  -6    7.19    7.97
  -5  -3  -7    3.69    6.48
  -5  -3  -8    4.71    7.21
  -5  -3  -9   10.37    8.98
  -5  -3 -10   -0.06    6.40
  -5  -3 -11    6.50    5.06
   5   4 -15    7.85    7.11
   5   4 -14    1.46    3.15
   5   4 -13    2.80    5.37
   5   4 -12    3.51    6.33
   5   4 -11   -2.37    8.18
   5   4 -10   -5.80    8.50
   5   4  -9    9.63   10.47
   5   4  -8    2.29    6.98
   5   4  -7   -1.01    3.44
   5   4  -6   -0.06    2.90
  -5  -4   6   -0.48    2.29
   5   4  -5   -3.15    5.63
  -5  -4   5    1.95    3.10
   5   4  -4    5.07    5.67
  -5  -4   4    5.39    4.69
  -5  -4   3    3.03    0.60
  -5  -4   3   -0.37    3.29
  -5  -4   2    3.79    2.72
  -5  -4   2   -0.90    2.14
  -5  -4   1    2.43    4.03
  -5  -4   1    6.93    5.82
  -5  -4   0    5.18    4.07
  -5  -4   0    7.41    3.63
  -5  -4  -1   -2.42    2.12
  -5  -4  -1    0.91    1.85
  -5  -4  -2   -0.67    4.82
  -5  -4  -2    2.95    1.27
  -5  -4  -3   -3.56    6.37
  -5  -4  -3   -6.99    4.98
  -5  -4  -4   -0.52    6.21
  -5  -4  -4    1.97    4.16
  -5  -4  -5   -2.36    2.06
  -5  -4  -5   -3.85    4.63
  -5  -4  -6   -2.35    7.33
  -5  -4  -6    0.86    2.52
  -5  -4  -7   -1.08    4.31
  -5  -4  -7   -3.18    1.26
  -5  -4  -8   -1.64    1.22
  -5  -4  -9   -4.14    7.40
  -5  -4 -10    0.83    4.32
  -5  -4 -11   -3.06    8.37
   5   5 -14   24.37   13.49
   5   5 -13   13.81    8.59
   5   5 -12   13.91   10.67
   5   5 -11    9.92    8.98
   5   5 -10    4.50    6.69
   5   5  -9    0.99    6.98
   5   5  -8   -0.92    6.46
   5   5  -7    2.34    4.13
  -5  -5   7    1.80    2.87
   5   5  -6    7.27   13.08
  -5  -5   6    5.49    3.50
   5   5  -5    8.35    5.54
  -5  -5   5    4.81    5.10
   5   5  -4   -1.99    3.41
  -5  -5   4    3.90    3.67
  -5  -5   3   -1.73    3.69
  -5  -5   3    0.42    2.12
  -5  -5   2   -2.73    3.97
  -5  -5   2    1.02    3.59
  -5  -5   1   -1.27    4.91
  -5  -5   1   10.48    8.93
  -5  -5   0    2.83    4.54
  -5  -5   0   -2.86    6.08
  -5  -5  -1   -1.05    2.75
  -5  -5  -1    2.67    3.81
  -5  -5  -2    0.43    2.26
  -5  -5  -2    0.07    4.68
  -5  -5  -3    0.21    3.85
  -5  -5  -3    4.87    5.10
  -5  -5  -4   -0.04    1.66
  -5  -5  -4    5.63    6.68
  -5  -5  -5    0.50    0.63
  -5  -5  -5    1.05    4.77
  -5  -5  -6   -1.85    3.33
  -5  -5  -6   -3.46    6.66
  -5  -5  -7    5.31    5.63
  -5  -5  -7    2.12    0.43
  -5  -5  -8   -0.68    2.07
  -5  -5  -8    5.64    6.07
  -5  -5  -9   -1.59    5.98
  -5  -5 -10    2.78    5.55
   5   6 -13    8.07    6.84
   5   6 -12    1.48    5.13
   5   6 -11    3.83    5.40
   5   6 -10   -3.88    7.47
   5   6  -9    5.44    7.15
   5   6  -8    9.68   11.28
   5   6  -7   24.18   13.21
  -5  -6   7   12.39    7.63
   5   6  -6    1.54    3.32
  -5  -6   6   -3.92    3.84
   5   6  -5    4.68    2.73
  -5  -6   5    3.84    4.46
   5   6  -4   -0.16    1.08
  -5  -6   4    6.08    2.96
  -5  -6   3    2.12    5.58
  -5  -6   2    1.67    2.76
  -5  -6   2    7.75    7.05
  -5  -6   1    1.44    1.98
  -5  -6   1    1.71    5.28
  -5  -6   0   -2.02    4.27
  -5  -6   0    2.52    2.42
  -5  -6  -1    1.18    3.35
  -5  -6  -1    6.57    5.87
  -5  -6  -2   -0.87    2.93
  -5  -6  -2    7.26    9.15
  -5  -6  -3  111.96   21.02
  -5  -6  -3   -0.67    4.75
  -5  -6  -4    1.67    4.46
  -5  -6  -4    2.14    5.28
  -5  -6  -5   -0.78    2.53
  -5  -6  -5   -0.06    4.33
  -5  -6  -6    7.09    6.08
  -5  -6  -6   -0.51    3.10
  -5  -6  -7    3.13    6.58
  -5  -6  -8   -2.97    5.12
  -5  -6  -9    1.20    1.63
   5   7 -12   -1.70    4.27
   5   7 -11   -3.81    4.83
   5   7 -10   -1.62    4.53
   5   7  -9   -1.33    3.19
  -5  -7   8   -1.12    5.34
   5   7  -8    0.19    3.09
  -5  -7   7    2.33    4.99
   5   7  -7   -4.81    6.02
   5   7  -6    0.77    3.20
  -5  -7   6    7.65    7.05
   5   7  -5    5.69    6.60
  -5  -7   5    0.59    3.17
   5   7  -4   -1.32    3.89
  -5  -7   4   -0.51    2.00
   5   7  -3    0.43    2.31
  -5  -7   3   -0.03    4.24
  -5  -7   2    0.74    2.49
  -5  -7   1   -2.92    6.73
  -5  -7   0   16.50   10.93
  -5  -7  -1    4.25    5.36
  -5  -7  -2   12.11    8.47
  -5  -7  -3    2.72    6.01
  -5  -7  -4   -2.34    6.06
  -5  -8   8    1.08    4.78
  -5  -8   7   -0.74    2.17
   5   8  -7   -1.16    2.24
  -5  -8   6   -1.14    3.17
   5   8  -6    5.32    8.61
   5   8  -5   -4.41    6.62
  -5  -8   5    1.18    1.29
   5   8  -4   -3.49    6.42
  -5  -8   4   -0.81    3.22
   5   8  -3    2.30    5.00
  -5  -8   3    4.65    5.96
  -5  -8   2    2.06    0.30
  -5  -8   1    7.65    7.94
  -5  -8   0    1.18    0.50
  -6   6  -2   -1.07    2.59
  -6   6  -3   48.02   14.32
  -6   6  -4    0.83    1.83
  -6   6  -5   -0.53    1.26
  -6   6  -6   -1.73    3.35
  -6   5   8   -2.70    5.09
  -6   5   7    1.13    2.29
  -6   5   6    1.17    3.50
  -6   5   5    5.29    4.55
  -6   5   4   -0.75    2.13
  -6   5   3   15.70    9.34
  -6   5   2   11.21    7.95
  -6   5   1    2.67    4.66
  -6   5   0   -1.61    4.38
  -6   5   0    1.64    3.27
  -6   5  -1    0.15    1.84
  -6   5  -1    3.38    5.25
  -6   5  -2   -0.62    3.46
  -6   5  -2   -0.26    4.06
  -6   5  -3   -0.67    5.05
  -6   5  -3    4.21    4.12
  -6   5  -4   -0.35    3.89
  -6   5  -4   -2.27    0.90
  -6   5  -5   -0.44    1.33
  -6   5  -5   -1.00    4.28
  -6   5  -6    1.64    1.37
  -6   5  -6   -2.51    3.56
  -6   5  -7    4.68    4.66
   6  -4 -11   -0.52    1.62
   6  -4 -10    0.75    3.54
   6  -4  -9   -8.45    6.46
   6  -4  -8    0.16    3.14
   6  -4  -7    1.43    2.29
   6  -4  -6   -0.41    2.80
   6  -4  -5    3.65    5.02
   6  -4  -4    4.82    7.67
  -6   4   4   -2.95    4.39
   6  -4  -3   -0.01    4.48
  -6   4   3    0.20    3.26
  -6   4   2    0.03    1.81
   6  -4  -2  -15.20   11.39
  -6   4   1    1.70    5.12
   6  -4  -1    9.69    5.63
  -6   4   1    0.23    4.58
   6  -4   0    0.52    0.94
  -6   4   0   -1.84    4.40
  -6   4   0    1.78    2.08
  -6   4  -1   -0.12    2.07
   6  -4   1   -1.01    2.39
  -6   4  -1    8.14    6.06
  -6   4  -2    1.07    2.22
  -6   4  -2   -4.92    5.73
  -6   4  -3    1.24    3.49
  -6   4  -4    4.35    3.81
  -6   4  -5   -3.43    7.07
  -6   4  -6    3.12    2.49
  -6   4  -7   -3.97    6.46
   6  -3 -12    1.97    1.35
   6  -3 -11   -1.80    4.81
   6  -3 -10    7.47    7.82
   6  -3  -9    0.97    3.76
   6  -3  -8    0.48    2.61
   6  -3  -7    3.03    2.67
   6  -3  -6   -9.54    9.12
   6  -3  -5   -5.55   10.49
   6  -3  -4   -5.96    7.79
   6  -3  -3   -0.86    2.87
   6  -3  -2    0.16    6.01
   6  -3  -1    2.40    4.19
  -6   3   1    1.02    0.19
   6  -3   0    3.96    7.07
  -6   3   0   -0.37    1.03
  -6   3  -1    1.26    2.36
  -6   3  -2   -3.43    4.98
  -6   3  -3   -2.66    6.85
  -6   3  -4   -4.89    4.09
  -6   3  -5    2.83    4.67
  -6   3  -6   -1.92    3.10
  -6   3  -7    0.74    2.40
  -6   3  -8   -5.07    6.70
   6  -2 -12    4.79    0.86
   6  -2 -11    2.43    4.29
   6  -2 -10   20.61   11.97
   6  -2  -9   -4.73    8.29
   6  -2  -8   -2.16    6.16
   6  -2  -7    4.35    3.25
   6  -2  -6   14.05   14.19
   6  -2  -5   -6.02    7.73
   6  -2  -4   -1.74    9.60
   6  -2  -3    0.15    2.41
   6  -2  -2    4.00    8.25
  -6   2   2    1.57    0.39
   6  -2  -1    0.40    2.72
  -6   2   1   -5.26    4.61
  -6   2   0   -2.80    5.77
  -6   2  -1    3.91    5.42
  -6   2  -2   -0.63    4.42
  -6   2  -3    0.48    1.94
  -6   2  -4   -0.34    3.25
  -6   2  -5   -1.30    5.33
  -6   2  -6   -2.58    4.23
  -6   2  -7    0.84    3.72
  -6   2  -8   -3.11    7.47
   6  -1 -12    6.51   10.47
   6  -1 -11    2.77    5.25
   6  -1 -10   -5.28    7.34
   6  -1  -9   -1.60    6.66
   6  -1  -8    8.48   12.27
   6  -1  -7   -0.08    3.89
   6  -1  -6    5.25    4.37
   6  -1  -5   -2.32    7.93
   6  -1  -4    2.39    2.44
   6  -1  -3   -1.72    6.11
  -6   1   3    1.05    3.18
   6  -1  -2    4.66    7.32
  -6   1   2   -1.32    1.72
  -6   1   1    7.63    6.32
  -6   1   0   -0.42    0.76
  -6   1  -1    0.31    1.11
  -6   1  -2    3.27    6.10
  -6   1  -3   -1.26    0.39
  -6   1  -4    3.36    5.80
  -6   1  -5    2.14    6.15
  -6   1  -6    0.49    2.71
  -6   1  -7   -4.26    8.08
  -6   1  -8   -3.71    4.98
   6   0 -12  -13.51    9.55
   6   0 -11   -4.97    5.07
   6   0 -10   -4.85    5.79
   6   0  -9    1.90    8.41
   6   0  -8   10.45   10.36
   6   0  -7   -4.28    8.48
   6   0  -6    1.61    7.90
   6   0  -5   26.81   17.75
   6   0  -4    2.95    6.35
   6   0  -3   14.55   11.26
  -6   0   3    5.62    6.54
  -6   0   2   12.36    7.00
  -6   0   1   -3.08    5.60
  -6   0   0   -1.99    4.64
  -6   0  -1   -1.67    1.42
  -6   0  -2   11.01    8.70
  -6   0  -3   39.57   15.01
  -6   0  -4   18.13   12.66
  -6   0  -5   10.08    6.88
  -6   0  -6   14.61    8.52
  -6   0  -7   -3.31    5.06
  -6   0  -8    3.03    1.77
   6   1 -11   -2.83    6.80
   6   1 -10   -1.45    5.81
   6   1  -9   13.63   13.13
   6   1  -8    8.55    8.66
   6   1  -7   -9.57    8.53
   6   1  -6    0.92    8.23
   6   1  -5    0.33    6.66
   6   1  -4    1.92    7.06
   6   1  -3   -0.38    4.08
  -6  -1   3   -1.47    4.33
  -6  -1   2   -0.56    3.66
  -6  -1   1    1.04    1.12
  -6  -1   0   13.16   10.97
  -6  -1  -1   -0.54    3.57
  -6  -1  -2   16.74    8.80
  -6  -1  -3   -2.30    4.08
  -6  -1  -4   12.50    8.72
  -6  -1  -5   -0.35    3.55
  -6  -1  -6    0.63    4.21
  -6  -1  -7   -0.20    4.22
  -6  -1  -8    1.92    3.10
   6   2 -11    1.15    5.04
   6   2 -10   -0.92    7.93
   6   2  -9   -4.37   10.58
   6   2  -8    2.35    6.42
   6   2  -7    3.69   11.19
   6   2  -6    0.46    5.27
   6   2  -5    1.91    7.32
   6   2  -4    5.81    8.13
   6   2  -3    3.50    6.90
  -6  -2   3    4.99    5.90
  -6  -2   2    0.59    2.08
  -6  -2   1    4.66    5.05
  -6  -2   0    3.07    5.13
  -6  -2  -1   -1.54    1.96
  -6  -2  -2    0.71    2.09
  -6  -2  -3    2.55    0.41
  -6  -2  -4   -2.39    6.70
  -6  -2  -5    3.26    6.11
  -6  -2  -6    0.60    5.69
  -6  -2  -7    2.25    2.20
   6   3 -10   18.80   13.38
   6   3  -9    0.01    4.44
   6   3  -8    1.19    4.78
   6   3  -7    3.63    4.85
   6   3  -6    4.29    6.96
   6   3  -5   11.81   11.21
   6   3  -4    0.33    2.00
  -6  -3   3    0.44    4.06
  -6  -3   2    1.04    3.13
  -6  -3   2    5.57    6.35
  -6  -3   1    1.54    2.85
  -6  -3   1    0.24    4.68
  -6  -3   0    1.23    2.82
  -6  -3   0    0.81    3.81
  -6  -3  -1   -1.96    3.84
  -6  -3  -2    0.10    3.03
  -6  -3  -3    1.21    3.86
  -6  -3  -4    2.01    6.08
  -6  -3  -5   -1.92    2.86
  -6  -3  -6   -0.09    5.48
  -6  -3  -7    3.05    6.13
   6   4  -9    4.15    9.45
   6   4  -8   -1.26    3.74
   6   4  -7    0.63    8.01
   6   4  -6    5.26    8.31
   6   4  -5   -4.16    2.26
   6   4  -4    4.33    6.20
  -6  -4   3    3.56    5.98
  -6  -4   2    2.88    0.84
  -6  -4   2    1.24    2.27
  -6  -4   1    3.62    5.44
  -6  -4   1   -0.39    2.88
  -6  -4   0    2.58    3.32
  -6  -4   0    1.59    2.98
  -6  -4  -1    6.93    5.84
  -6  -4  -1   -1.46    2.06
  -6  -4  -2    0.33    1.85
  -6  -4  -2   -0.24    0.81
  -6  -4  -3   -7.90    6.28
  -6  -4  -3    1.24    3.68
  -6  -4  -4    5.70    8.14
  -6  -4  -5   -2.17    4.42
  -6  -4  -6    0.34    3.17
   6   5  -7   -2.48    2.10
   6   5  -6    3.11    5.26
   6   5  -5    3.70    4.15
   6   5  -4   -0.66    2.11
   6   5  -3    1.74    2.28
  -6  -5   3   -2.18    3.08
  -6  -5   2   -1.77    3.59
  -6  -5   2    1.29    3.36
  -6  -5   1    0.09    1.21
  -6  -5   1    4.68    4.94
  -6  -5   0    1.60    2.82
  -6  -5   0    1.51    3.93
  -6  -5  -1   -1.66    5.20
  -6  -5  -1    1.88    3.89
  -6  -5  -2   -2.87    6.53
  -6  -5  -2    0.94    1.92
  -6  -5  -3    2.97    2.21
  -6  -5  -3    3.44    6.20
  -6  -5  -4    0.97    3.88
  -6  -5  -5    2.14    4.42
  -6  -6   4    1.68    4.78
  -6  -6   3    1.48    2.16
  -6  -6   2    2.54    3.41
  -6  -6   1    3.94    5.59
  -6  -6   0   -1.41    2.59
   7  -3  -3    0.92    4.10
   7  -3  -2    4.16    8.58
   7  -3  -1   -0.69    6.15
   7  -3   0   -0.59    3.80
   7  -3   1    0.23    3.49
   7  -2  -2    1.51    5.03
   7  -2  -1   -2.73    5.21
   7  -2   0   -3.83    5.94
   0   0   0    0.00    0.00


_computing_structure_solution     'SHELXT 2014/5 (Sheldrick, 2014)'
;
_shelx_hkl_checksum              53604
loop_
_space_group_symop_operation_xyz
'x, y, z'
'-x, -y, -z'
loop_
_atom_site_label
_atom_site_type_symbol
_atom_site_fract_x
_atom_site_fract_y
_atom_site_fract_z
_atom_site_U_iso_or_equiv
_atom_site_adp_type
_atom_site_occupancy
_atom_site_site_symmetry_order
_atom_site_calc_flag
_atom_site_refinement_flags_posn
_atom_site_refinement_flags_adp
O1 O 0.2757(4) 0.3562(2) 0.76143(12) 0.0555(6) Uani 1 1 d . .
O2 O 0.7423(4) 0.3298(3) 0.49995(14) 0.0703(7) Uani 1 1 d . .
N1 N 0.5844(5) 0.5525(3) 0.74705(16) 0.0576(7) Uani 1 1 d . .
N2 N 0.8788(5) 0.5255(3) 0.60645(17) 0.0624(8) Uani 1 1 d . .
H2NA H 1.001957 0.561643 0.576327 0.075 Uiso 1 1 calc R U
H2NB H 0.857303 0.570756 0.658067 0.075 Uiso 1 1 calc R U
C1 C 0.1326(6) 0.2176(3) 0.7303(2) 0.0501(8) Uani 1 1 d . .
C2 C -0.0531(7) 0.1623(4) 0.7825(2) 0.0606(9) Uani 1 1 d . .
H2 H -0.077785 0.217241 0.836765 0.073 Uiso 1 1 calc R U
C3 C -0.2032(7) 0.0242(4) 0.7538(2) 0.0691(10) Uani 1 1 d . .
H3 H -0.333835 -0.012776 0.787936 0.083 Uiso 1 1 calc R U
C4 C -0.1593(7) -0.0593(4) 0.6740(2) 0.0684(10) Uani 1 1 d . .
H4 H -0.259551 -0.152828 0.654922 0.082 Uiso 1 1 calc R U
C5 C 0.0313(6) -0.0046(3) 0.6231(2) 0.0579(9) Uani 1 1 d . .
H5 H 0.061921 -0.062342 0.570133 0.070 Uiso 1 1 calc R U
C6 C 0.1798(6) 0.1365(3) 0.6499(2) 0.0486(7) Uani 1 1 d . .
C7 C 0.3776(6) 0.2042(3) 0.60100(19) 0.0515(8) Uani 1 1 d . .
H7 H 0.411534 0.152205 0.546798 0.062 Uiso 1 1 calc R U
C8 C 0.5167(6) 0.3396(3) 0.62988(19) 0.0479(8) Uani 1 1 d . .
C9 C 0.4638(6) 0.4233(3) 0.71439(19) 0.0486(8) Uani 1 1 d . .
C10 C 0.7223(6) 0.4002(4) 0.5734(2) 0.0544(8) Uani 1 1 d . .
C11 C 0.5232(7) 0.6270(4) 0.8300(2) 0.0615(9) Uani 1 1 d . .
C12 C 0.3274(9) 0.7368(5) 0.8366(3) 0.0914(13) Uani 1 1 d . .
H12 H 0.219408 0.758001 0.786721 0.110 Uiso 1 1 calc R U
C13 C 0.2872(12) 0.8178(5) 0.9173(4) 0.1176(18) Uani 1 1 d . .
H13 H 0.152601 0.893387 0.920653 0.141 Uiso 1 1 calc R U
C14 C 0.4372(13) 0.7899(6) 0.9905(3) 0.112(2) Uani 1 1 d . .
H14 H 0.408325 0.844684 1.044413 0.134 Uiso 1 1 calc R U
C15 C 0.6331(13) 0.6792(7) 0.9837(3) 0.134(2) Uani 1 1 d . .
H15 H 0.738461 0.657005 1.033813 0.160 Uiso 1 1 calc R U
C16 C 0.6781(10) 0.5987(6) 0.9030(3) 0.1096(15) Uani 1 1 d . .
H16 H 0.815775 0.524934 0.899346 0.131 Uiso 1 1 calc R U
loop_
_atom_site_aniso_label
_atom_site_aniso_U_11
_atom_site_aniso_U_22
_atom_site_aniso_U_33
_atom_site_aniso_U_23
_atom_site_aniso_U_13
_atom_site_aniso_U_12
O1 0.0605(13) 0.0586(13) 0.0461(13) -0.0019(10) 0.0124(10) -0.0101(10)
O2 0.0782(16) 0.0780(16) 0.0520(15) -0.0083(11) 0.0166(12) -0.0100(12)
N1 0.0692(18) 0.0560(16) 0.0447(16) -0.0066(12) 0.0107(13) -0.0111(13)
N2 0.0705(18) 0.0665(18) 0.0499(17) 0.0001(13) 0.0161(14) -0.0087(14)
C1 0.0464(18) 0.0497(19) 0.054(2) 0.0082(14) -0.0012(15) -0.0009(14)
C2 0.065(2) 0.060(2) 0.056(2) 0.0050(16) 0.0073(17) -0.0047(16)
C3 0.068(2) 0.063(2) 0.079(3) 0.0148(18) 0.014(2) -0.0042(17)
C4 0.069(2) 0.050(2) 0.084(3) 0.0007(18) 0.006(2) -0.0040(16)
C5 0.065(2) 0.051(2) 0.055(2) -0.0028(15) 0.0039(17) 0.0013(15)
C6 0.0494(18) 0.0439(18) 0.0510(18) 0.0021(13) 0.0012(14) 0.0043(14)
C7 0.0535(19) 0.060(2) 0.0393(17) -0.0024(14) 0.0058(14) 0.0049(15)
C8 0.0507(19) 0.0513(19) 0.0415(16) 0.0023(13) 0.0067(14) 0.0031(14)
C9 0.0483(18) 0.0522(19) 0.0462(17) 0.0082(14) 0.0062(14) 0.0009(14)
C10 0.058(2) 0.054(2) 0.049(2) 0.0020(15) 0.0031(16) 0.0043(15)
C11 0.069(2) 0.063(2) 0.050(2) -0.0011(16) 0.0126(17) -0.0156(17)
C12 0.105(3) 0.096(3) 0.072(3) -0.007(2) 0.018(2) 0.015(2)
C13 0.158(5) 0.101(3) 0.096(4) -0.021(3) 0.060(4) 0.010(3)
C14 0.159(5) 0.100(4) 0.069(3) -0.036(3) 0.054(3) -0.056(3)
C15 0.174(6) 0.159(5) 0.055(3) -0.025(3) -0.010(3) -0.005(4)
C16 0.130(4) 0.129(4) 0.062(3) -0.013(3) -0.001(3) 0.025(3)
loop_
_atom_type_symbol
_atom_type_description
_atom_type_scat_dispersion_real
_atom_type_scat_dispersion_imag
_atom_type_scat_source
C C 0.0033 0.0016 'International Tables Vol C Tables 4.2.6.8 and 6.1.1.4'
H H 0.0000 0.0000 'International Tables Vol C Tables 4.2.6.8 and 6.1.1.4'
N N 0.0061 0.0033 'International Tables Vol C Tables 4.2.6.8 and 6.1.1.4'
O O 0.0106 0.0060 'International Tables Vol C Tables 4.2.6.8 and 6.1.1.4'
loop_
_geom_angle_atom_site_label_1
_geom_angle_atom_site_label_2
_geom_angle_atom_site_label_3
_geom_angle
C9 O1 C1 122.2(2)
C9 N1 C11 120.9(3)
C10 N2 H2NA 120.0
C10 N2 H2NB 120.0
H2NA N2 H2NB 120.0
C2 C1 O1 117.1(3)
C2 C1 C6 121.9(3)
O1 C1 C6 121.0(3)
C1 C2 C3 119.3(3)
C1 C2 H2 120.4
C3 C2 H2 120.4
C2 C3 C4 120.0(3)
C2 C3 H3 120.0
C4 C3 H3 120.0
C5 C4 C3 120.2(3)
C5 C4 H4 119.9
C3 C4 H4 119.9
C4 C5 C6 120.7(3)
C4 C5 H5 119.7
C6 C5 H5 119.7
C1 C6 C5 117.9(3)
C1 C6 C7 117.3(3)
C5 C6 C7 124.8(3)
C8 C7 C6 122.5(3)
C8 C7 H7 118.7
C6 C7 H7 118.7
C7 C8 C9 119.4(3)
C7 C8 C10 118.3(3)
C9 C8 C10 122.3(3)
N1 C9 O1 118.4(3)
N1 C9 C8 124.0(3)
O1 C9 C8 117.6(3)
O2 C10 N2 123.3(3)
O2 C10 C8 119.0(3)
N2 C10 C8 117.7(3)
C16 C11 C12 118.9(4)
C16 C11 N1 119.8(3)
C12 C11 N1 121.1(3)
C11 C12 C13 120.2(4)
C11 C12 H12 119.9
C13 C12 H12 119.9
C14 C13 C12 121.6(5)
C14 C13 H13 119.2
C12 C13 H13 119.2
C13 C14 C15 118.0(4)
C13 C14 H14 121.0
C15 C14 H14 121.0
C14 C15 C16 120.9(5)
C14 C15 H15 119.5
C16 C15 H15 119.5
C11 C16 C15 120.3(5)
C11 C16 H16 119.8
C15 C16 H16 119.8
loop_
_geom_bond_atom_site_label_1
_geom_bond_atom_site_label_2
_geom_bond_distance
O1 C9 1.368(3)
O1 C1 1.375(3)
O2 C10 1.233(3)
N1 C9 1.268(3)
N1 C11 1.420(4)
N2 C10 1.323(4)
N2 H2NA 0.8600
N2 H2NB 0.8600
C1 C2 1.369(4)
C1 C6 1.388(4)
C2 C3 1.380(4)
C2 H2 0.9300
C3 C4 1.385(5)
C3 H3 0.9300
C4 C5 1.370(4)
C4 H4 0.9300
C5 C6 1.392(4)
C5 H5 0.9300
C6 C7 1.422(4)
C7 C8 1.337(4)
C7 H7 0.9300
C8 C9 1.459(4)
C8 C10 1.500(4)
C11 C16 1.347(5)
C11 C12 1.353(5)
C12 C13 1.384(5)
C12 H12 0.9300
C13 C14 1.337(7)
C13 H13 0.9300
C14 C15 1.358(7)
C14 H14 0.9300
C15 C16 1.388(6)
C15 H15 0.9300
C16 H16 0.9300
loop_
_geom_hbond_atom_site_label_D
_geom_hbond_atom_site_label_H
_geom_hbond_atom_site_label_A
_geom_hbond_distance_DH
_geom_hbond_distance_HA
_geom_hbond_distance_DA
_geom_hbond_angle_DHA
_geom_hbond_site_symmetry_A
N2 H2NB N1 0.86 2.00 2.687(3) 136.0 .
N2 H2NA O2 0.86 2.06 2.912(3) 172.2 2_766
loop_
_geom_torsion_atom_site_label_1
_geom_torsion_atom_site_label_2
_geom_torsion_atom_site_label_3
_geom_torsion_atom_site_label_4
_geom_torsion
C9 O1 C1 C2 -179.2(2)
C9 O1 C1 C6 2.0(4)
O1 C1 C2 C3 179.5(3)
C6 C1 C2 C3 -1.7(5)
C1 C2 C3 C4 1.9(5)
C2 C3 C4 C5 -0.5(5)
C3 C4 C5 C6 -1.1(5)
C2 C1 C6 C5 0.1(5)
O1 C1 C6 C5 178.8(2)
C2 C1 C6 C7 -179.8(3)
O1 C1 C6 C7 -1.1(4)
C4 C5 C6 C1 1.3(5)
C4 C5 C6 C7 -178.8(3)
C1 C6 C7 C8 0.4(4)
C5 C6 C7 C8 -179.5(3)
C6 C7 C8 C9 -0.6(5)
C6 C7 C8 C10 179.6(3)
C11 N1 C9 O1 -0.8(5)
C11 N1 C9 C8 -179.7(3)
C1 O1 C9 N1 178.9(3)
C1 O1 C9 C8 -2.1(4)
C7 C8 C9 N1 -179.7(3)
C10 C8 C9 N1 0.1(5)
C7 C8 C9 O1 1.4(4)
C10 C8 C9 O1 -178.8(2)
C7 C8 C10 O2 5.1(4)
C9 C8 C10 O2 -174.7(3)
C7 C8 C10 N2 -173.2(3)
C9 C8 C10 N2 6.9(4)
C9 N1 C11 C16 92.6(4)
C9 N1 C11 C12 -93.2(4)
C16 C11 C12 C13 -0.3(6)
N1 C11 C12 C13 -174.5(4)
C11 C12 C13 C14 -0.4(7)
C12 C13 C14 C15 0.2(8)
C13 C14 C15 C16 0.7(8)
C12 C11 C16 C15 1.2(7)
N1 C11 C16 C15 175.4(4)
C14 C15 C16 C11 -1.4(8)

_cod_database_fobs_code 2108490
