#------------------------------------------------------------------------------
#$Date: 2016-12-06 02:19:15 +0200 (Tue, 06 Dec 2016) $
#$Revision: 188931 $
#$URL: file:///home/coder/svn-repositories/cod/cif/2/10/80/2108007.cif $
#------------------------------------------------------------------------------
#
# This file is available in the Crystallography Open Database (COD),
# http://www.crystallography.net/. The original data for this entry
# were provided by IUCr Journals, http://journals.iucr.org/.
#
# The file may be used within the scientific community so long as
# proper attribution is given to the journal article from which the
# data were obtained.
#
data_2108007
loop_
_publ_author_name
'Perdih, Franc'
_publ_section_title
;
 Cu^II^ and Zn^II^ \b-diketonate coordination polymers based on
 pyrimidin-2-amine, pyrazine and 1,2-bis(4-pyridyl)ethane
;
_journal_coeditor_code           EB5048
_journal_issue                   6
_journal_name_full               'Acta Crystallographica Section B'
_journal_page_first              828
_journal_page_last               835
_journal_paper_doi               10.1107/S2052520616014566
_journal_volume                  72
_journal_year                    2016
_chemical_formula_moiety         'C24 H16 F6 N2 O4 Zn'
_chemical_formula_sum            'C24 H16 F6 N2 O4 Zn'
_chemical_formula_weight         575.76
_space_group_crystal_system      triclinic
_space_group_IT_number           2
_space_group_name_Hall           '-P 1'
_space_group_name_H-M_alt        'P -1'
_symmetry_space_group_name_Hall  '-P 1'
_symmetry_space_group_name_H-M   'P -1'
_atom_sites_solution_hydrogens   geom
_audit_creation_method           SHELXL-2014/7
_cell_angle_alpha                92.223(7)
_cell_angle_beta                 106.931(7)
_cell_angle_gamma                113.347(7)
_cell_formula_units_Z            1
_cell_length_a                   7.2110(5)
_cell_length_b                   8.9713(7)
_cell_length_c                   10.9554(9)
_cell_measurement_reflns_used    2128
_cell_measurement_temperature    150(2)
_cell_measurement_theta_max      74.3390
_cell_measurement_theta_min      4.2370
_cell_volume                     612.83(10)
_computing_cell_refinement       'CrysAlis PRO (Agilent, 2013)'
_computing_data_collection       'CrysAlis PRO (Agilent, 2013)'
_computing_data_reduction        'CrysAlis PRO (Agilent, 2013)'
_computing_structure_refinement  'SHELXL-2014/7 (Sheldrick, 2015)'
_computing_structure_solution    'SHELXL-2014/7 (Sheldrick, 2015)'
_diffrn_ambient_temperature      150(2)
_diffrn_detector_area_resol_mean 10.4933
_diffrn_measured_fraction_theta_full 0.996
_diffrn_measured_fraction_theta_max 0.996
_diffrn_measurement_device_type  'SuperNova, Dual, Cu at zero, Atlas'
_diffrn_measurement_method       '\w scans'
_diffrn_radiation_monochromator  mirror
_diffrn_radiation_source         'SuperNova (Cu) X-ray Source'
_diffrn_radiation_type           CuK\a
_diffrn_radiation_wavelength     1.54184
_diffrn_reflns_av_R_equivalents  0.0512
_diffrn_reflns_limit_h_max       8
_diffrn_reflns_limit_h_min       -6
_diffrn_reflns_limit_k_max       10
_diffrn_reflns_limit_k_min       -10
_diffrn_reflns_limit_l_max       13
_diffrn_reflns_limit_l_min       -13
_diffrn_reflns_number            4001
_diffrn_reflns_theta_full        67.684
_diffrn_reflns_theta_max         70.056
_diffrn_reflns_theta_min         4.285
_exptl_absorpt_coefficient_mu    2.123
_exptl_absorpt_correction_T_max  1.00000
_exptl_absorpt_correction_T_min  0.52081
_exptl_absorpt_correction_type   multi-scan
_exptl_absorpt_process_details
;
CrysAlisPro, Agilent Technologies,
Version 1.171.36.28 (release 01-02-2013 CrysAlis171 .NET)
Empirical absorption correction using spherical harmonics,
 implemented in SCALE3 ABSPACK scaling algorithm.
;
_exptl_crystal_colour            colorless
_exptl_crystal_density_diffrn    1.560
_exptl_crystal_description       plate
_exptl_crystal_F_000             290
_exptl_crystal_size_max          0.400
_exptl_crystal_size_mid          0.080
_exptl_crystal_size_min          0.050
_refine_diff_density_max         0.577
_refine_diff_density_min         -0.848
_refine_ls_extinction_coef       0.020(2)
_refine_ls_extinction_expression Fc^*^=kFc[1+0.001xFc^2^\l^3^/sin(2\q)]^-1/4^
_refine_ls_extinction_method     'SHELXL-2014/7 (Sheldrick, 2015)'
_refine_ls_goodness_of_fit_ref   1.082
_refine_ls_hydrogen_treatment    constr
_refine_ls_matrix_type           full
_refine_ls_number_parameters     170
_refine_ls_number_reflns         2314
_refine_ls_number_restraints     6
_refine_ls_restrained_S_all      1.149
_refine_ls_R_factor_all          0.0546
_refine_ls_R_factor_gt           0.0500
_refine_ls_shift/su_max          0.000
_refine_ls_shift/su_mean         0.000
_refine_ls_structure_factor_coef Fsqd
_refine_ls_weighting_details
'w=1/[\s^2^(Fo^2^)+(0.0849P)^2^+0.0966P] where P=(Fo^2^+2Fc^2^)/3'
_refine_ls_weighting_scheme      calc
_refine_ls_wR_factor_gt          0.1297
_refine_ls_wR_factor_ref         0.1376
_reflns_number_gt                2102
_reflns_number_total             2314
_reflns_threshold_expression     'I > 2\s(I)'
_cod_data_source_file            eb5048sup1.cif
_cod_data_source_block           4b
_cod_depositor_comments
'Adding full bibliography for 2108003--2108008.cif.'
_cod_original_cell_volume        612.83(9)
_cod_database_code               2108007
_cod_database_fobs_code          2108007
_shelx_space_group_comment
;
The symmetry employed for this shelxl refinement is uniquely defined
by the following loop, which should always be used as a source of
symmetry information in preference to the above space-group names.
They are only intended as comments.
;
_shelx_estimated_absorpt_t_min   0.484
_shelx_estimated_absorpt_t_max   0.901
_shelx_hkl_file
;
  -6   2   3 29045.9 3094.85   3
  -6   2   4 11421.8 2017.43   3
  -6   3   4 7503.96 1469.93   3
  -5   1   6 23181.1 2892.63   3
  -5   1   7 33027.7 3270.38   3
  -5   2   4 33696.3 3356.56   3
  -5   2   5 9223.63 1827.99   3
  -5   2   6 10305.1 1827.34   3
  -5   2   7 30105.9 2850.07   3
  -5   3  -8 10490.3 561.310  19
  -5   3   2 134863. 5576.11   3
  -5   3   3 33164.6 3042.42   3
  -5   3   4 2960.70 991.493   3
  -5   3   5 1527.17 806.808   3
  -5   3   6 13828.6 1903.76   3
  -5   3   7 14728.2 1886.76   3
  -5   4  -7 634.014 184.176  19
  -5   4   0 8640.48 804.489   1
  -5   4   1 12496.2 937.054   1
  -5   4   2 7823.26 753.782   1
  -5   4   3 15826.0 1687.35   3
  -5   4   4 946.351 493.156   3
  -5   4   5 10145.0 1495.59   3
  -5   4   6 3777.45 881.618   3
  -5   5  -2 21145.8 1458.43   1
  -5   5  -1 221.637 187.263   1
  -5   5   0 855.056 295.247   1
  -5   5   1 95.9507 132.500   1
  -5   5   2 152.500 244.489   1
  -5   5   3 35023.3 1988.94   3
  -5   5   4-69.3754 243.424   3
  -5   5   5 11138.8 1280.03   3
  -5   6  -1 1131.37 350.062   1
  -5   6   0-33.0684 159.146   1
  -5   6   1 1396.50 386.558   1
  -5   6   2 1952.33 451.434   1
  -5   8   4 2708.43 481.678   6
  -5   9   3 4358.84 605.847   6
  -5   9   4 3038.32 497.024   6
  -5   9   5 13350.1 939.555   6
  -5  10   2 3704.65 524.440   6
  -5  10   3 8500.71 742.070   6
  -5  10   4 7437.33 597.174   6
  -4  -1   8 18160.8 2226.43   3
  -4   0   7 19026.4 2442.66   3
  -4   0   8 17475.5 2148.07   3
  -4   1   6 38675.7 3454.11   3
  -4   1   7 10993.6 1837.55   3
  -4   1   8 15536.5 1880.83   3
  -4   2   1 14814.2 748.087   1
  -4   2   4 2682.40 959.377   3
  -4   2   5 5979.86 1365.02   3
  -4   2   6 6578.18 1410.35   3
  -4   2   7 4206.61 1091.62   3
  -4   2   8 1322.36 564.922   3
  -4   3  -9 11894.4 794.511  19
  -4   3  -3 45842.3 2086.37   1
  -4   3  -2 18285.1 1159.65   1
  -4   3  -1 24238.2 1208.25   1
  -4   3   0 14870.6 870.977   1
  -4   3   1 30457.1 2180.24   3
  -4   3   1 32479.2 1275.70   1
  -4   3   2 226536. 6478.25   3
  -4   3   3 52612.1 3330.05   3
  -4   3   4 16177.9 1929.70   3
  -4   3   5 1393.81 726.992   3
  -4   3   6 1082.36 568.175   3
  -4   3   7 13620.8 1640.85   3
  -4   3   8 11586.0 1350.66   3
  -4   4  -9 8522.23 661.439  19
  -4   4  -8 6159.81 703.228  19
  -4   4  -4 19954.0 1543.28   1
  -4   4  -3 56458.3 2326.58   1
  -4   4  -2 84432.3 2567.29   1
  -4   4  -1 33974.5 1501.86   1
  -4   4   0 3745.39 494.167   1
  -4   4   1-51.7518 154.653   3
  -4   4   2 66426.7 2786.46   3
  -4   4   3 2525.09 705.169   3
  -4   4   4 67108.6 3229.34   3
  -4   4   5 14959.0 1600.44   3
  -4   4   6 1505.83 518.270   3
  -4   4   7 45092.2 2623.88   3
  -4   5  -9 11992.8 720.607  19
  -4   5  -8 13099.9 955.062  19
  -4   5  -7 36297.5 1784.55  19
  -4   5  -6 5252.60 709.831  19
  -4   5  -5 29735.9 1639.18  19
  -4   5  -4 21357.6 1564.06   1
  -4   5  -3 36215.3 1907.96   1
  -4   5  -2 44091.1 1968.32   1
  -4   5  -1 1177.01 339.142   1
  -4   5   0 12738.1 993.548   1
  -4   5   1 34809.7 1620.06   1
  -4   5   2 73268.5 2405.82   3
  -4   5   3 72027.2 2723.86   3
  -4   5   4 49363.1 2419.54   3
  -4   5   5 37388.9 2248.42   3
  -4   5   6 29645.1 2032.99   3
  -4   6  -9 5727.16 429.064  19
  -4   6  -8 13109.2 851.701  19
  -4   6  -7 13229.4 989.864  19
  -4   6  -6 2586.53 488.126  19
  -4   6  -5 5527.66 681.575  19
  -4   6  -3 11764.3 1132.63   1
  -4   6  -2 75941.5 2717.18   1
  -4   6  -1 9397.14 925.878   1
  -4   6   0 18909.2 1307.89   1
  -4   6   1 18821.8 1326.49   1
  -4   6   3 63207.0 2467.69   3
  -4   6   4 43881.5 2236.23   3
  -4   6   5 12596.9 1043.75   6
  -4   6   5 17541.7 1501.24   3
  -4   6   6 12175.6 1065.09   6
  -4   6   7 7872.39 869.165   6
  -4   6   8 12409.8 1053.37   6
  -4   6   9 10613.7 859.894   6
  -4   7  -8 3535.26 367.315  19
  -4   7  -7 553.332 187.353  19
  -4   7  -6 6569.14 670.192  19
  -4   7  -1 27104.0 1644.90   1
  -4   7   0 34550.5 1865.44   1
  -4   7   1 13649.6 1198.38   1
  -4   7   2 28972.7 1761.79   1
  -4   7   5 21581.0 1473.68   6
  -4   7   6 874.362 314.864   6
  -4   7   7 534.666 235.729   6
  -4   7   8 8868.53 838.750   6
  -4   7   9 18776.7 990.284   6
  -4   8   4 11377.9 1130.74   6
  -4   8   5 5954.63 789.857   6
  -4   8   6 213.847 202.072   6
  -4   8   7 11306.4 945.026   6
  -4   8   8 11561.1 794.213   6
  -4   9   3 1426.01 435.756   6
  -4   9   4 9484.34 994.441   6
  -4   9   5 12988.4 1080.92   6
  -4   9   6 1486.66 321.519   6
  -4   9   7 2306.10 334.642   6
  -4  10   2 1630.22 439.140   6
  -4  10   3 5662.49 705.805   6
  -4  10   4 2760.54 464.209   6
  -4  10   5 2605.53 370.838   6
  -4  11   0 9494.48 749.416   6
  -4  11   1 2112.57 368.080   6
  -3  -1   7 30993.0 2793.17   3
  -3  -1   8 8454.05 1399.85   3
  -3   0   6 118394. 5310.89   3
  -3   0   7 7609.98 1387.10   3
  -3   0   8 37247.5 2718.91   3
  -3   1  -3 6965.74 729.498   1
  -3   1  -2 70693.9 2006.54   1
  -3   1  -1 38510.0 1203.00   1
  -3   1   0 90407.7 1483.87   1
  -3   1   1 336141. 2642.97   1
  -3   1   5 111080. 5035.80   3
  -3   1   6 159376. 6036.18   3
  -3   1   7 17109.9 1901.46   3
  -3   1   8 23556.1 2063.94   3
  -3   1   9 9508.85 1093.70   3
  -3   2  -6 16046.2 1531.62   1
  -3   2  -5 42630.7 2250.36   1
  -3   2  -4 81800.8 2779.10   1
  -3   2  -3 138227. 3256.18   1
  -3   2  -2 123563. 2582.69   1
  -3   2  -1 20589.7 896.142   1
  -3   2   0 65423.3 1466.58   1
  -3   2   2 267096. 6619.71   3
  -3   2   3 74779.2 3792.22   3
  -3   2   4 31665.7 2559.28   3
  -3   2   5 20381.7 2060.36   3
  -3   2   6 23223.5 2105.22   3
  -3   2   7 25501.1 2093.37   3
  -3   2   8 40730.3 2392.45   3
  -3   3 -11 3213.91 292.543  19
  -3   3 -10 5534.53 573.353  19
  -3   3  -6 141284. 4366.65   1
  -3   3  -5 23274.7 1617.25   1
  -3   3  -4 50082.4 2195.72   1
  -3   3  -3 118442. 2911.48   1
  -3   3  -2 47871.6 1631.70   1
  -3   3  -1 76585.3 1847.53   1
  -3   3   0 133309. 2893.10   3
  -3   3   0 152080. 2504.48   1
  -3   3   1 7582.98 888.844   3
  -3   3   2 90027.8 3275.07   3
  -3   3   3 2409.14 682.669   3
  -3   3   4 48815.4 2796.99   3
  -3   3   5 64122.2 3163.65   3
  -3   3   6 14861.2 1479.72   3
  -3   3   7 68289.7 3032.92   3
  -3   3   8 50602.4 2117.13   6
  -3   3   8 54669.4 2603.34   3
  -3   3   9 21829.2 1437.26   6
  -3   3  10 12912.7 1065.68   6
  -3   3  11 23155.0 1259.88   6
  -3   4 -10 4754.36 528.674  19
  -3   4  -9 9114.93 881.648  19
  -3   4  -6 50192.4 2502.08   1
  -3   4  -5 7850.36 999.362   1
  -3   4  -4 44458.4 2046.66   1
  -3   4  -3 184880. 3730.13   1
  -3   4  -2 11153.4 830.590   1
  -3   4  -1-6.05783 125.807   1
  -3   4   0 210.002 108.428   3
  -3   4   0 308.105 177.837   1
  -3   4   1 9581.13 732.773   3
  -3   4   2 187601. 3872.13   3
  -3   4   3 85735.0 2923.34   3
  -3   4   4 34011.7 1973.47   3
  -3   4   5 25003.3 1739.59   3
  -3   4   6 11833.2 1270.66   3
  -3   4   7 86585.1 2817.90   6
  -3   4   7 112846. 3843.22   3
  -3   4   8 38123.1 1941.05   6
  -3   4   9 27923.1 1662.86   6
  -3   4  10-125.077 152.014   6
  -3   4  11 1105.21 260.864   6
  -3   5 -10 8489.69 640.854  19
  -3   5  -9 18670.6 1189.11  19
  -3   5  -8 18540.5 1348.37  19
  -3   5  -7 12067.1 1143.17  19
  -3   5  -6 13016.7 1173.91  19
  -3   5  -5 8577.50 905.751  19
  -3   5  -5 8056.60 1012.99   1
  -3   5  -4 11053.3 1064.85   1
  -3   5  -3 40134.2 1816.53   1
  -3   5  -2 7274.57 735.724   1
  -3   5  -1 47416.0 1757.89   1
  -3   5   0 13589.9 951.085   1
  -3   5   1 65733.7 1889.93   3
  -3   5   2 87631.3 2532.41   3
  -3   5   3 80365.5 2710.51   3
  -3   5   4 38046.4 2029.08   3
  -3   5   5 74506.3 3034.67   3
  -3   5   6 8451.81 1073.12   3
  -3   5   6 5088.81 706.947   6
  -3   5   7 27728.4 1705.85   6
  -3   5   8 6487.73 829.763   6
  -3   5   9 7048.71 835.727   6
  -3   5  10-82.3660 168.517   6
  -3   5  11 7036.52 574.075   6
  -3   6 -10 7653.50 523.766  19
  -3   6  -9 6205.42 632.787  19
  -3   6  -8 11121.9 971.145  19
  -3   6  -7 2417.31 504.388  19
  -3   6  -6 5112.74 741.505  19
  -3   6  -5 6871.65 804.369  19
  -3   6  -4 23621.6 1587.69   1
  -3   6  -4 24271.5 1403.06  19
  -3   6  -3 41184.6 1969.95   1
  -3   6  -2 52265.8 2081.94   1
  -3   6  -1 11441.6 956.857   1
  -3   6   0 23270.4 1366.91   1
  -3   6   1 100897. 2556.09   3
  -3   6   2 73907.6 2503.29   3
  -3   6   3 32212.9 1831.63   3
  -3   6   4 17054.5 1434.76   3
  -3   6   5 11618.6 1079.92   6
  -3   6   5 17216.1 1518.27   3
  -3   6   6 1657.22 429.087   6
  -3   6   7 3618.18 637.920   6
  -3   6   8 14815.6 1257.34   6
  -3   6   9 18506.3 1265.77   6
  -3   6  10 1212.87 266.390   6
  -3   7  -9 1602.61 284.767  19
  -3   7  -8 9770.29 811.149  19
  -3   7  -7 2829.43 511.942  19
  -3   7  -6 32912.1 1716.62  19
  -3   7  -5 4619.53 649.854  19
  -3   7  -4 5267.61 663.389  19
  -3   7  -3 40559.1 2042.05   1
  -3   7  -3 39225.2 1664.52  19
  -3   7  -2 61389.5 2418.84   1
  -3   7  -1 48367.6 2111.69   1
  -3   7   0 13349.5 1117.30   1
  -3   7   1 1390.32 394.589   1
  -3   7   2 10054.3 995.542   3
  -3   7   3 12164.2 1184.31   3
  -3   7   5 10325.8 1105.84   6
  -3   7   6 1257.35 449.699   6
  -3   7   7 18888.5 1436.10   6
  -3   7   8 22122.2 1420.39   6
  -3   7   9 13769.0 932.795   6
  -3   8  -8 11597.0 712.643  19
  -3   8  -7 7769.13 684.637  19
  -3   8  -6 17078.0 1113.54  19
  -3   8  -5 5871.18 667.181  19
  -3   8  -4 5130.04 630.383  19
  -3   8   4 10622.1 1142.83   6
  -3   8   5 19148.3 1494.14   6
  -3   8   6 2305.17 544.965   6
  -3   8   7 33358.7 1693.16   6
  -3   8   8 7178.47 667.368   6
  -3   9  -4 562.789 225.387  10
  -3   9   3 20501.6 1556.92   6
  -3   9   4 27902.5 1747.68   6
  -3   9   5 19559.6 1371.68   6
  -3   9   6 904.408 322.213   6
  -3   9   7 8741.20 656.096   6
  -3  10   2 6816.12 824.023   6
  -3  10   3 6721.26 773.089   6
  -3  10   4 5868.63 657.452   6
  -3  10   5 9498.71 700.910   6
  -3  11  -1 8932.05 747.813   6
  -3  11   0 2377.21 387.988   6
  -3  11   1 905.747 243.047   6
  -2  -2   7 17441.1 1858.08   3
  -2  -1   7 14872.9 1649.38   3
  -2   0  -5 23732.7 1620.44   1
  -2   0  -4 6608.63 795.986   1
  -2   0  -3 2318.27 438.807   1
  -2   0  -2 20733.4 978.682   1
  -2   0  -1 619.615 154.098   1
  -2   0   0 9717.50 342.595   1
  -2   0   5 87343.2 3916.20   3
  -2   0   6 56774.0 3217.23   3
  -2   0   7 24759.4 1960.67   3
  -2   0   8 30013.2 1873.29   3
  -2   0   9 1159.40 358.086   6
  -2   0  10 2136.68 465.646   6
  -2   0  11 11031.1 1025.23   6
  -2   0  12 20477.8 1192.58   6
  -2   1  -7 7680.38 1049.25   1
  -2   1  -6 100.658 303.528   1
  -2   1  -5 22111.9 1582.32   1
  -2   1  -4 71369.8 2415.56   1
  -2   1  -3 597.714 259.229   1
  -2   1  -2 97847.9 2001.25   1
  -2   1  -1 169.147 99.0620   1
  -2   1   0 451.522 111.390   1
  -2   1   4 66763.0 3267.53   3
  -2   1   5 8811.49 1257.26   3
  -2   1   6 18591.1 1680.61   3
  -2   1   7 11263.8 1223.66   3
  -2   1   8 474.380 225.623   3
  -2   1   9 12691.1 1146.51   6
  -2   1  10 619.596 272.537   6
  -2   1  11 33863.6 1781.90   6
  -2   1  12 10834.9 876.394   6
  -2   2 -11 602.328 191.816  19
  -2   2  -7 3811.49 820.009   1
  -2   2  -6 32581.5 2047.23   1
  -2   2  -5 40212.0 1975.07   1
  -2   2  -4 49278.8 2004.49   1
  -2   2  -3 73520.4 2015.33   1
  -2   2  -2 24498.2 971.512   1
  -2   2  -1 57190.4 1292.46   3
  -2   2  -1 65244.1 1348.12   1
  -2   2   0 25675.5 1272.80   3
  -2   2   1 483202. 6568.57   3
  -2   2   2 100058. 3276.20   3
  -2   2   3 32766.7 1985.74   3
  -2   2   4 754.352 474.442   3
  -2   2   5 165.757 344.085   3
  -2   2   6 33219.3 1964.14   3
  -2   2   7 36862.9 2030.18   3
  -2   2   8 31144.8 1797.38   3
  -2   2   8 30110.1 1707.10   6
  -2   2   9 10227.1 1055.08   6
  -2   2  10 1049.71 353.417   6
  -2   2  11 35140.4 1774.52   6
  -2   2  12 5249.12 578.145   6
  -2   3 -11 1018.75 243.599  19
  -2   3  -7 11865.8 1321.93   1
  -2   3  -6 17154.3 1418.01   1
  -2   3  -5 19374.8 1399.06   1
  -2   3  -4 52388.4 1965.66   1
  -2   3  -3 89295.5 2220.38   1
  -2   3  -2 21197.7 939.459   1
  -2   3  -1 6995.05 513.239   1
  -2   3  -1 8053.40 319.534   3
  -2   3   0 578.225 151.836   3
  -2   3   1 36196.1 1324.17   3
  -2   3   2 407.670 274.995   3
  -2   3   3 50355.4 2067.19   3
  -2   3   4 48037.0 2114.47   3
  -2   3   5 3664.84 650.677   3
  -2   3   6 64214.4 2624.58   3
  -2   3   7 38040.4 2075.57   3
  -2   3   8 27307.5 1710.21   6
  -2   3   8 30660.4 1861.34   3
  -2   3   9 22731.6 1601.18   6
  -2   3  10 1292.58 389.733   6
  -2   3  11 429.431 222.607   6
  -2   3  12 4711.84 490.609   6
  -2   4 -11 1757.85 302.294  19
  -2   4 -10 4352.53 609.320  19
  -2   4  -9 10095.9 1004.93  19
  -2   4  -7-306.295 303.125   1
  -2   4  -6 4544.37 768.434   1
  -2   4  -5 4843.71 716.917   1
  -2   4  -4 9670.15 882.998   1
  -2   4  -3 55279.3 1836.18   1
  -2   4  -2 39842.9 1394.75   1
  -2   4  -1 1168.43 163.370   3
  -2   4  -1 598.156 214.588   1
  -2   4   0 399.190 133.752   3
  -2   4   1 35217.7 1270.29   3
  -2   4   2 117726. 2696.53   3
  -2   4   3 25651.2 1422.26   3
  -2   4   4 1080.83 376.929   3
  -2   4   5 23584.2 1602.81   3
  -2   4   6 22509.8 1629.82   3
  -2   4   7 36533.0 2154.24   3
  -2   4   7 29974.4 1784.01   6
  -2   4   8 15890.2 1330.38   6
  -2   4   9 673.207 300.060   6
  -2   4  10 102.943 212.723   6
  -2   4  11 1812.87 380.722   6
  -2   4  12 5252.62 419.984   6
  -2   5 -11 5284.31 455.186  19
  -2   5 -10 2811.49 478.924  19
  -2   5  -9 9205.99 952.687  19
  -2   5  -8 3726.29 620.135  19
  -2   5  -7 985.281 372.452  19
  -2   5  -6 726.700 278.495  19
  -2   5  -6 1070.49 412.582   1
  -2   5  -5 8673.13 955.776   1
  -2   5  -5 9476.68 923.135  19
  -2   5  -4 2226.50 471.363   1
  -2   5  -3 33773.4 1535.56   1
  -2   5  -2 5590.34 583.574   1
  -2   5  -1 2465.92 394.666   1
  -2   5   0-129.959 116.229   3
  -2   5   1 130042. 2807.35   3
  -2   5   2 2687.31 469.529   3
  -2   5   3 47249.5 2091.70   3
  -2   5   4 13887.8 1242.76   3
  -2   5   5 69.9807 211.854   3
  -2   5   5 367.095 228.985   6
  -2   5   6 1375.81 447.211   3
  -2   5   6 1169.85 389.549   6
  -2   5   7-226.224 234.207   6
  -2   5   8 3892.29 682.480   6
  -2   5   9 5701.77 780.952   6
  -2   5  10-298.455 207.462   6
  -2   5  11 3871.70 440.896   6
  -2   6 -11 127.569 85.2288  19
  -2   6 -10 1192.45 277.582  19
  -2   6  -9 5658.69 703.028  19
  -2   6  -8 13.3680 126.856  19
  -2   6  -7 4199.57 673.311  19
  -2   6  -6 2768.17 574.535  19
  -2   6  -5 1769.68 419.894  19
  -2   6  -5 1887.67 500.016   1
  -2   6  -4 18804.0 1230.87  19
  -2   6  -4 15916.0 1234.40   1
  -2   6  -3 29689.8 1565.67   1
  -2   6  -2 21292.5 1236.89   1
  -2   6  -1 16230.1 1066.84   1
  -2   6   0 4010.13 500.332   3
  -2   6   0 3090.99 486.710   1
  -2   6   1 45532.9 1901.54   3
  -2   6   2-1.24075 169.999   3
  -2   6   3 3728.24 677.256   3
  -2   6   4 25270.9 1790.72   3
  -2   6   4 17648.9 1350.28   6
  -2   6   5 1675.70 495.507   6
  -2   6   5 2144.28 544.649   3
  -2   6   6-73.2368 258.672   6
  -2   6   7 7073.39 936.806   6
  -2   6   8 20538.3 1515.83   6
  -2   6   9 2308.95 470.562   6
  -2   6  10 1380.29 294.844   6
  -2   7 -10 680.697 184.288  19
  -2   7  -9 603.141 235.653  19
  -2   7  -8 10713.6 940.303  19
  -2   7  -7 14183.7 1157.65  19
  -2   7  -6 10801.2 1052.67  19
  -2   7  -5 17.4280 87.6540  19
  -2   7  -4 11338.8 1010.57  19
  -2   7  -4 11773.9 1095.23   1
  -2   7  -3 62658.8 2193.45  19
  -2   7  -3 63136.7 2417.51   1
  -2   7  -2 26165.2 1494.95   1
  -2   7  -1 382.605 214.119   1
  -2   7   0 212.153 202.036   1
  -2   7   1 1638.82 388.047   1
  -2   7   1 1641.74 401.149   3
  -2   7   2 5223.16 758.843   3
  -2   7   3 37062.4 2166.78   3
  -2   7   4 15522.4 1389.57   6
  -2   7   5 2651.73 623.035   6
  -2   7   6 13680.5 1322.17   6
  -2   7   7 12021.1 1189.69   6
  -2   7   8 11480.7 1006.06   6
  -2   7   9 5762.39 576.254   6
  -2   8  -8 9631.28 763.355  19
  -2   8  -7 4733.30 607.215  19
  -2   8  -6 4429.51 615.388  19
  -2   8  -5 6105.74 737.342  19
  -2   8  -2 3838.85 564.421  10
  -2   8  -1 11975.8 956.376  10
  -2   8   0 10995.9 916.609  10
  -2   8   3 7618.52 1026.27   6
  -2   8   4 22659.4 1707.50   6
  -2   8   5 10162.3 1125.43   6
  -2   8   6 5914.55 783.381   6
  -2   8   7 9273.69 879.639   6
  -2   8   8 1080.18 240.915   6
  -2   9  -8 5551.45 457.950  10
  -2   9  -5 482.979 224.775  10
  -2   9  -4 1250.34 354.133  10
  -2   9  -3 18898.1 1242.87  10
  -2   9  -2 3110.66 496.733  10
  -2   9  -1 13752.6 1027.69  10
  -2   9   0 6462.17 697.269  10
  -2   9   2 15883.3 1413.21   6
  -2   9   3 18258.3 1478.82   6
  -2   9   4 7173.62 902.495   6
  -2   9   5 3114.11 544.879   6
  -2   9   6 271.662 199.203   6
  -2  10  -6 783.521 177.849  10
  -2  10  -5 739.613 225.903  10
  -2  10  -4 954.272 241.071  10
  -2  10  -3 1969.84 347.358  10
  -2  10  -2 7479.84 660.377  10
  -2  10   1 204.466 207.092   6
  -2  10   2 602.709 276.733   6
  -2  10   3 736.230 270.868   6
  -2  10   4 7658.59 658.388   6
  -1  -6   0 136.307 112.097   4
  -1  -6   1 3393.45 518.224   4
  -1  -6   2 4134.59 561.974   4
  -1  -5   1 8047.80 699.700   4
  -1  -5   2 387.852 206.038   4
  -1  -4   1 38801.6 1294.61   4
  -1  -4   2 110608. 2178.77   4
  -1  -3   2 5518.58 410.504   4
  -1  -3   8 11175.6 1141.29   6
  -1  -3   9 12988.7 1282.55   6
  -1  -2   2 24762.6 714.579   4
  -1  -2   6 8169.68 1066.67   3
  -1  -2   8 22121.4 1567.27   6
  -1  -2   9 28333.9 1869.85   6
  -1  -2  10 42880.7 2326.27   6
  -1  -2  11 10492.6 1065.80   6
  -1  -1   5 317384. 6468.67   3
  -1  -1   6 15880.5 1355.52   3
  -1  -1   9 4626.46 750.490   6
  -1  -1  10 6017.81 889.308   6
  -1  -1  10 5422.98 663.714   5
  -1  -1  11 7940.02 953.275   6
  -1  -1  12 9893.97 900.394   6
  -1   0  -6 950.612 432.507   1
  -1   0  -5-132.886 270.735   1
  -1   0  -4 10608.1 966.948   1
  -1   0  -3 16509.2 997.031   1
  -1   0  -2 1567.43 273.747   1
  -1   0  -1 180508. 1923.64   1
  -1   0   0 46275.6 484.086   1
  -1   0   4 7473.69 940.983   3
  -1   0   5 13814.8 1241.37   3
  -1   0   6 2698.21 527.237   3
  -1   0   7 21914.9 1296.03   3
  -1   0   8 4131.75 582.055   5
  -1   0   8 5213.67 748.302   6
  -1   0   9 43530.9 1839.06   5
  -1   0   9 45206.1 2283.02   6
  -1   0  10 45244.5 2310.86   6
  -1   0  11 3289.54 635.884   6
  -1   0  12 5482.94 672.657   6
  -1   0  13 1105.63 215.507   6
  -1   1 -12 2194.20 265.701  19
  -1   1  -7 7977.50 1129.98   1
  -1   1  -6 40577.9 2256.64   1
  -1   1  -5 13358.0 1159.45   1
  -1   1  -4 650.326 296.890   1
  -1   1  -3 2790.55 404.182   1
  -1   1  -2 23033.1 838.379   1
  -1   1  -1 189225. 1737.09   1
  -1   1   1 12737.8 863.069   3
  -1   1   2 185210. 3750.56   3
  -1   1   3 305.253 331.625   3
  -1   1   4 3327.17 587.797   3
  -1   1   5 9506.02 879.222   3
  -1   1   6 124.005 106.346   5
  -1   1   6 229.361 185.310   3
  -1   1   7 220.209 155.552   5
  -1   1   7 176.975 197.682   3
  -1   1   8 15316.3 1075.68   5
  -1   1   8 13783.3 1209.19   6
  -1   1   9 3638.59 670.468   6
  -1   1  10 20497.6 1548.15   6
  -1   1  11 10841.9 1059.81   6
  -1   1  12 2199.24 422.645   6
  -1   2 -12 692.451 173.838  19
  -1   2 -11 6791.82 667.808  19
  -1   2  -8 16344.0 1628.35   1
  -1   2  -7 104981. 3829.82   1
  -1   2  -6 1075.82 427.530   1
  -1   2  -5 54043.2 2143.17   1
  -1   2  -4 388543. 5063.00   1
  -1   2  -3 40457.9 1334.61   1
  -1   2  -2 14225.0 648.040   1
  -1   2  -1 9361.08 274.929   3
  -1   2  -1 8325.15 437.227   1
  -1   2   0 56283.4 998.385   3
  -1   2   1 312887. 3181.72   3
  -1   2   2 60.0304 189.865   3
  -1   2   3 680.646 294.136   3
  -1   2   4 12038.7 591.447   5
  -1   2   4 11432.3 892.433   3
  -1   2   5 39615.7 1265.80   5
  -1   2   5 35995.2 1661.12   3
  -1   2   6 107285. 3022.05   3
  -1   2   6 120086. 2546.59   5
  -1   2   7 85264.3 2796.74   3
  -1   2   8 7801.64 945.457   6
  -1   2   9 7383.34 954.359   6
  -1   2  10 10642.1 1128.08   6
  -1   2  11 448.860 266.864   6
  -1   2  12 4125.87 509.867   6
  -1   3 -12 1071.69 203.147  19
  -1   3 -11 4520.78 552.001  19
  -1   3 -10 8048.91 859.261  19
  -1   3  -8 23792.4 1908.80   1
  -1   3  -7 64718.3 2936.29   1
  -1   3  -6 51945.8 2334.40   1
  -1   3  -5 9626.68 933.924   1
  -1   3  -4 216973. 3691.11   1
  -1   3  -3 15294.6 848.532   1
  -1   3  -2 17450.4 763.433   1
  -1   3  -1 41716.4 1091.58   1
  -1   3  -1 46289.0 953.361   3
  -1   3   0 40967.0 1066.06   3
  -1   3   1 1301.33 260.551   3
  -1   3   2 191210. 3080.99   3
  -1   3   3 65688.7 2037.48   3
  -1   3   3 61648.6 1277.34   5
  -1   3   4 102664. 1845.68   5
  -1   3   4 103362. 2793.04   3
  -1   3   5 35591.8 1767.69   3
  -1   3   6 101492. 3208.74   3
  -1   3   7 30703.6 1837.70   3
  -1   3   7 27456.5 1730.09   6
  -1   3   8 53925.0 2544.06   6
  -1   3   9-125.803 225.367   6
  -1   3  10 1237.60 399.929   6
  -1   3  11 2976.80 491.725   6
  -1   3  12 6420.13 539.380   6
  -1   4 -12 234.114 117.180  19
  -1   4 -11 14681.7 938.601  19
  -1   4 -10 32062.8 1670.50  19
  -1   4  -9 24356.1 1586.54  19
  -1   4  -8 18217.1 1395.60  19
  -1   4  -7 6870.25 953.953   1
  -1   4  -7 8816.69 954.464  19
  -1   4  -6 5815.11 839.411   1
  -1   4  -5 81545.5 2659.82   1
  -1   4  -4 96116.6 2537.99   1
  -1   4  -3 14338.4 871.947   1
  -1   4  -2 17931.7 866.181   1
  -1   4  -1 3756.40 392.410   1
  -1   4  -1 4020.66 369.168   3
  -1   4   0 177747. 2714.40   3
  -1   4   1 400819. 4579.06   3
  -1   4   2 183435. 3464.38   3
  -1   4   3 31583.0 1590.75   3
  -1   4   4 57981.0 2352.21   3
  -1   4   5 13984.8 1264.28   3
  -1   4   6 71681.8 2754.68   6
  -1   4   6 89001.0 3309.50   3
  -1   4   7 32487.0 2027.66   3
  -1   4   7 26653.4 1800.63   6
  -1   4   8 8290.76 1031.31   6
  -1   4   9 616.388 337.502   6
  -1   4  10 10392.9 998.063   6
  -1   4  11 6779.09 639.770   6
  -1   5 -12 307.436 85.9304  19
  -1   5 -11 4795.37 496.809  19
  -1   5 -10 2153.41 439.704  19
  -1   5  -9 23543.4 1529.40  19
  -1   5  -8 1489.10 432.328  19
  -1   5  -7 14905.5 1358.80   1
  -1   5  -7 16014.9 1326.55  19
  -1   5  -6 3496.73 654.354   1
  -1   5  -6 4592.87 672.074  19
  -1   5  -5 1407.15 409.195   1
  -1   5  -4 28824.6 1469.12   1
  -1   5  -3 103465. 2543.09   1
  -1   5  -2 50198.2 1610.04   1
  -1   5  -1 82822.7 1928.16   3
  -1   5  -1 81833.2 2010.94   1
  -1   5   0 51073.8 1752.99   3
  -1   5   1 29495.2 1473.53   3
  -1   5   2 52601.9 2151.23   3
  -1   5   3 75467.5 2771.77   3
  -1   5   4 51045.6 2471.12   3
  -1   5   5 4112.58 692.271   6
  -1   5   5 5090.24 857.049   3
  -1   5   6 17.8155 117.203   3
  -1   5   6 11.1930 150.208   6
  -1   5   7 18772.0 1558.33   6
  -1   5   8 42209.0 2272.54   6
  -1   5   9 2408.53 545.339   6
  -1   5  10 12084.3 923.283   6
  -1   6 -11 418.606 143.800  19
  -1   6 -10 428.951 211.867  19
  -1   6  -9 2210.97 470.007  19
  -1   6  -8 553.708 289.130  19
  -1   6  -7 16812.7 1338.90  19
  -1   6  -6 5450.50 794.174  19
  -1   6  -6 6706.79 873.436   1
  -1   6  -5 3836.73 627.705   1
  -1   6  -5 3372.39 591.920  19
  -1   6  -4 65742.5 2400.12   1
  -1   6  -4 70659.0 2400.01  19
  -1   6  -3 20659.5 1249.37   1
  -1   6  -2 27853.6 1354.04   1
  -1   6  -1 816.816 240.280   1
  -1   6   0 7005.46 731.859   3
  -1   6   0 7313.40 681.130   1
  -1   6   1 37491.8 1863.61   3
  -1   6   2 537.679 265.406   3
  -1   6   3 26049.1 1836.27   3
  -1   6   3 18831.5 1140.28  10
  -1   6   4 11945.2 1314.77   3
  -1   6   4 9321.09 1062.09   6
  -1   6   5 10904.3 1184.90   6
  -1   6   6 45913.7 2465.32   6
  -1   6   7 25771.5 1788.64   6
  -1   6   8 9140.64 988.155   6
  -1   6   9 8359.50 788.948   6
  -1   6  10 3118.38 342.331   6
  -1   7 -10 717.894 205.624  19
  -1   7  -9 6252.25 670.569  19
  -1   7  -8 6320.79 762.809  19
  -1   7  -7 7734.22 868.544  19
  -1   7  -6 66.4630 155.262  19
  -1   7  -5 5765.63 766.092  19
  -1   7  -4 72524.9 2607.84  19
  -1   7  -1 365.192 227.789  10
  -1   7   0 3121.58 489.868  10
  -1   7   1 863.745 269.671  10
  -1   7   1 743.688 279.205   3
  -1   7   2 21476.3 1585.61   3
  -1   7   2 19796.9 1269.27  10
  -1   7   3 6253.22 723.324  10
  -1   7   3 7372.84 992.901   6
  -1   7   4 18235.4 1561.05   6
  -1   7   5-52.8184 207.494   6
  -1   7   6 13679.7 1296.72   6
  -1   7   7 6756.11 833.584   6
  -1   7   8 2338.26 423.602   6
  -1   8  -3 424.928 264.805  10
  -1   8  -2 1313.12 373.732  10
  -1   8  -1 7634.06 860.082  10
  -1   8   0 3584.23 575.426  10
  -1   8   1 528.141 215.689  10
  -1   8   2 2824.85 490.130  10
  -1   8   2 2520.69 632.397   6
  -1   8   3 12567.0 1305.52   6
  -1   8   4 6063.22 876.776   6
  -1   8   5 214.686 277.490   6
  -1   8   6 4773.16 670.160   6
  -1   8   7 284.764 167.538   6
  -1   9  -8 7223.39 550.901  10
  -1   9  -7 460.811 201.292  10
  -1   9  -6 279.285 207.597  10
  -1   9  -5 224.579 219.270  10
  -1   9  -4 2132.23 455.895  10
  -1   9  -3 12127.1 1054.94  10
  -1   9  -2 6154.13 765.130  10
  -1   9  -1 5781.66 737.975  10
  -1   9   0 278.211 245.929  10
  -1   9   1 1366.65 356.729  10
  -1   9   1 1903.46 533.898   6
  -1   9   2 8950.50 1016.56   6
  -1   9   3 2806.28 554.907   6
  -1   9   4 5691.70 716.068   6
  -1   9   5-57.9142 123.378   6
  -1  10  -6 6312.70 483.539  10
  -1  10  -5 1061.40 254.124  10
  -1  10  -4 3009.23 421.270  10
  -1  10  -3 9316.41 759.483  10
  -1  10  -2 14186.8 946.492  10
  -1  10  -1 4008.87 564.838   6
  -1  10  -1 4127.59 503.050  10
  -1  10   0 4877.65 523.378  10
  -1  10   0 5285.73 642.670   6
  -1  10   1-26.0957 166.426   6
  -1  10   2 1317.34 274.016   6
   0  -8   0 5007.97 836.884  13
   0  -8   0 3213.06 533.959   4
   0  -8   1 41494.5 2012.01   4
   0  -8   1 55576.1 2725.29  13
   0  -8   2 38116.1 2258.50  13
   0  -8   3 23039.9 1748.01  13
   0  -8   4 16926.7 1494.30  13
   0  -8   5 111.504 122.105  13
   0  -8   6 3810.77 641.711  13
   0  -8   7 7958.82 867.469  13
   0  -8   8 9690.14 820.038  13
   0  -7  -2 37353.7 2004.12   4
   0  -7  -1 57561.4 2441.38   4
   0  -7  -1 77474.1 3253.36  13
   0  -7   0 23799.8 1782.51  13
   0  -7   0 18936.9 1377.07   4
   0  -7   1 11191.5 1037.97   4
   0  -7   1 12413.4 1286.03  13
   0  -7   2 28126.9 1911.37  13
   0  -7   2 22500.2 1479.23   4
   0  -7   3 1404.76 489.008  13
   0  -7   4 67174.3 3026.71  13
   0  -7   5 21858.5 1742.06  13
   0  -7   6 20394.5 1701.34  13
   0  -7   7 5784.81 863.816  13
   0  -7   8 13665.2 1284.87  13
   0  -7   9 20520.7 1368.51  13
   0  -7  10 12058.3 811.685  13
   0  -6  -2 40676.3 2222.09  13
   0  -6  -1 1988.43 525.242  13
   0  -6   0 17632.5 1208.20   4
   0  -6   1 58287.7 2141.00   4
   0  -6   2 18223.1 1214.37   4
   0  -6   3 42368.4 2161.64  13
   0  -6   4 110667. 3671.39  13
   0  -5   1 607.230 238.876   4
   0  -5   2 46626.7 1713.42   4
   0  -4   1 74340.5 1798.04   4
   0  -4   2 7071.31 585.519   4
   0  -3   2 20856.5 836.681   4
   0  -3   8 11815.1 1268.96   6
   0  -3   9 24440.8 1885.84   6
   0  -3  10 34432.5 2157.51   6
   0  -3  10 28015.6 1597.57   5
   0  -2 -10 3197.20 550.426  12
   0  -2   2 20352.7 723.405   4
   0  -2   8 19931.1 1369.23   8
   0  -2   8 17665.7 1483.61   6
   0  -2   9 25920.1 1922.26   6
   0  -2  10-75.4667 134.827   5
   0  -2  10 191.909 223.711   6
   0  -2  11 17922.1 1450.76   6
   0  -1 -10 50281.6 2200.53  12
   0  -1   3 369100. 4450.08   3
   0  -1   4 289050. 3756.02   3
   0  -1   5 97223.9 1934.97   3
   0  -1   8 15849.8 1376.91   6
   0  -1   9 518.702 255.080   5
   0  -1   9 567.643 316.470   6
   0  -1  10 42643.8 2363.72   6
   0  -1  10 35546.9 1809.53   5
   0  -1  11 27453.0 1785.34   6
   0  -1  12 3685.50 577.268   6
   0   0 -12 5006.08 407.971  19
   0   0 -10 66473.3 2528.58  12
   0   0  -9 4066.58 686.863  12
   0   0  -6 196166. 4841.65   1
   0   0  -5 317582. 5558.60   1
   0   0  -4 71791.9 2303.60   1
   0   0  -3 114129. 2433.38   1
   0   0  -2 48113.3 1249.46   1
   0   0  -1 46886.1 836.572   1
   0   0   1 53932.1 919.887   3
   0   0   2 56667.1 1207.42   3
   0   0   3 130773. 2052.03   3
   0   0   4 88696.4 1846.60   3
   0   0   5 359794. 3906.45   3
   0   0   7 10035.8 904.393   5
   0   0   8 42959.3 1978.23   5
   0   0   8 41904.5 2231.84   6
   0   0   9 5196.97 820.553   6
   0   0   9 5074.24 729.636   5
   0   0  10 76868.5 3117.41   6
   0   0  10 75647.9 2632.25   5
   0   0  11 45945.9 2218.05   6
   0   0  12 8709.59 811.316   6
   0   1 -12 2634.63 323.938  19
   0   1 -10 39370.1 1911.83  12
   0   1  -9 362.134 235.656  12
   0   1  -8 17413.1 1650.62   1
   0   1  -8 16799.1 1330.12  12
   0   1  -7 111338. 3927.29   1
   0   1  -6 42388.1 2202.56   1
   0   1  -5 113938. 3165.88   1
   0   1  -4 361568. 4661.38   1
   0   1  -4 360131. 2191.09   2
   0   1  -3 377651. 4082.72   1
   0   1  -2 473965. 3458.10   1
   0   1  -1 131476. 1193.40   1
   0   1   0 241138. 1621.86   3
   0   1   1 15014.6 513.691   3
   0   1   2 381493. 3203.60   3
   0   1   3 361004. 3626.39   3
   0   1   3 365560. 2345.18   2
   0   1   4 31024.9 1196.02   3
   0   1   4 29295.8 1074.48   5
   0   1   5 39547.8 1447.15   5
   0   1   5 41355.9 1532.82   3
   0   1   6 70060.1 2145.03   3
   0   1   6 70639.3 2184.22   5
   0   1   7 204789. 4134.27   5
   0   1   8 62746.5 2789.90   6
   0   1   8 73232.5 2707.81   5
   0   1   9 32752.4 2056.19   6
   0   1   9 33746.5 1770.68   5
   0   1  10 59571.2 2649.00   6
   0   1  11 21228.3 1436.56   6
   0   1  12 8987.81 753.184   6
   0   2 -12 4044.62 406.497  19
   0   2 -11 13073.9 958.756  19
   0   2 -10-461.640 229.019  12
   0   2  -9 26631.0 1617.82  12
   0   2  -8 21954.3 1858.40   1
   0   2  -8 18692.6 1340.24  12
   0   2  -7 47776.1 2521.38   1
   0   2  -6 140041. 3808.81   1
   0   2  -5 123658. 3053.71   1
   0   2  -4 177158. 3262.69   1
   0   2  -3 3615.20 391.966   1
   0   2  -2 19033.7 690.110   1
   0   2  -1 131084. 1453.86   1
   0   2  -1 130996. 1544.66   3
   0   2   0 364539. 2984.48   3
   0   2   1 20063.9 630.610   5
   0   2   1 18405.0 769.548   3
   0   2   2 3870.88 417.568   3
   0   2   2 4261.98 326.906   5
   0   2   3 26445.1 956.020   5
   0   2   3 25378.7 1148.04   3
   0   2   4 9076.88 768.800   3
   0   2   4 9351.38 667.156   5
   0   2   5 329190. 5001.79   3
   0   2   5 346319. 4561.11   5
   0   2   6 172585. 3571.33   5
   0   2   6 169523. 3769.10   3
   0   2   7 43153.7 2086.21  17
   0   2   7 43989.2 2243.56   6
   0   2   7 48087.5 2033.32   5
   0   2   8 41777.6 1920.01   5
   0   2   8 36818.7 2178.58   6
   0   2   9 11064.0 1217.61   6
   0   2  10 4364.44 719.127   6
   0   2  11 24659.2 1422.44   6
   0   2  12 5350.56 500.233   6
   0   3 -12 1657.10 272.160  19
   0   3 -11 6526.66 639.187   9
   0   3 -11 4687.43 573.858  19
   0   3 -10 29316.8 1606.74  19
   0   3  -9 26507.7 1598.90  19
   0   3  -9 29378.6 1645.75  12
   0   3  -8 12754.8 1085.69  12
   0   3  -8 14764.2 1500.43   1
   0   3  -7 576.689 343.958   1
   0   3  -6 4712.73 700.415   1
   0   3  -5 17052.1 1173.38   1
   0   3  -4 238848. 3720.82   1
   0   3  -3 357.117 150.380   1
   0   3  -2 19958.6 759.521   1
   0   3  -1 99133.0 1739.97   3
   0   3  -1 96042.7 1526.02   1
   0   3   0 2852.67 349.249   3
   0   3   1 290075. 3683.19   3
   0   3   2 275103. 3268.75   5
   0   3   2 281634. 4040.59   3
   0   3   3 47882.8 1467.80   5
   0   3   3 50499.6 1869.30   3
   0   3   4 27951.7 1248.21   5
   0   3   4 28764.5 1550.48   3
   0   3   5 787.777 245.907   5
   0   3   5 94.0792 165.244   3
   0   3   6 62380.8 2215.66   5
   0   3   6 52574.6 2190.53  17
   0   3   6 58876.5 2544.21   3
   0   3   6 54764.3 2448.53   6
   0   3   7 70185.0 2976.83   6
   0   3   7 71253.7 2756.17  17
   0   3   8 2070.28 551.363   6
   0   3   9-453.546 338.867   6
   0   3  10 4268.22 647.382   6
   0   3  11 8174.65 712.300   6
   0   4 -12 6750.55 480.786  19
   0   4 -11 4760.69 547.914  19
   0   4 -10 13667.3 1083.56  19
   0   4 -10 14865.8 1067.27   9
   0   4  -9 4712.93 687.078  19
   0   4  -9 5845.30 734.372   9
   0   4  -8 8554.26 923.176  19
   0   4  -8 8244.33 880.456   9
   0   4  -8 8715.97 1112.73   1
   0   4  -7 1596.84 391.049  19
   0   4  -7 1992.85 413.088   9
   0   4  -7 2096.75 522.785   1
   0   4  -6 45596.8 2130.25   1
   0   4  -5 1365.25 377.812   1
   0   4  -4 9902.67 797.229   1
   0   4  -3 16343.8 893.774   1
   0   4  -2 7228.31 521.625   1
   0   4  -1 73936.0 1540.29   1
   0   4  -1 68996.3 1757.42   3
   0   4   0 460219. 5011.24   3
   0   4   1 171.910 174.543   3
   0   4   2 7948.01 821.708   3
   0   4   3 36087.9 1871.03   3
   0   4   4 13141.2 1220.80   3
   0   4   5 53602.3 2151.85  17
   0   4   5 59216.6 2535.37   6
   0   4   6-312.632 228.757   3
   0   4   6-178.148 222.793   6
   0   4   7 1968.37 422.802  17
   0   4   7 1227.62 461.731   6
   0   4   8 11163.5 1192.19   6
   0   4   8 11113.7 1082.28  17
   0   4   9 688.863 328.486   6
   0   4  10 10909.9 895.028   6
   0   5 -12 620.689 123.891  19
   0   5 -11 6810.13 596.292  19
   0   5 -10 13586.7 1021.57  19
   0   5  -9 4049.63 625.480  19
   0   5  -9 3747.15 547.097   9
   0   5  -8 10243.8 1042.18  19
   0   5  -8 9906.80 932.203   9
   0   5  -7 11917.5 1102.90  19
   0   5  -7 11819.1 1192.16   1
   0   5  -7 10549.7 960.649   9
   0   5  -6-108.181 92.6637   9
   0   5  -6 196.285 189.568   1
   0   5  -6 395.599 189.182  19
   0   5  -5 76643.4 2671.34   1
   0   5  -4 122795. 2972.51   1
   0   5  -3 128017. 2719.89   1
   0   5  -2 53402.6 1594.08   1
   0   5  -1 714.894 176.254   1
   0   5   0 30463.6 1123.36   1
   0   5   0 26136.0 1362.11   3
   0   5   1 64159.9 2353.02   3
   0   5   2 55856.6 2419.26   3
   0   5   3 99914.9 3466.91   3
   0   5   4 10691.7 1213.40   3
   0   5   4 7457.47 823.953  17
   0   5   4 8972.47 1018.68   6
   0   5   5 3997.21 647.843  17
   0   5   5 3531.45 688.247   6
   0   5   5 4056.88 734.722   3
   0   5   6 22519.1 1560.58  17
   0   5   6 23334.2 1778.99   6
   0   5   7 63873.8 2563.60  17
   0   5   7 62847.3 2835.91   6
   0   5   8 9552.60 1027.11   6
   0   5   9 4984.01 642.040   6
   0   5  10 4043.01 410.362   6
   0   6 -11 2655.77 324.551  19
   0   6 -10 3174.43 464.040  19
   0   6 -10 3546.35 437.458  14
   0   6  -9 28574.6 1546.80  19
   0   6  -8 35541.8 1852.14  19
   0   6  -7 42961.8 2092.07  19
   0   6  -6 19300.7 1390.98  19
   0   6  -5 10917.5 1022.74  19
   0   6  -5 11424.2 958.873  14
   0   6  -5 11108.8 1280.23   2
   0   6  -4 115643. 2925.28  14
   0   6  -4 119346. 3162.11  19
   0   6  -3 37030.1 1603.31  14
   0   6  -3 39524.0 1730.47  19
   0   6  -1 59539.0 2106.32  10
   0   6   0 16326.7 1107.28  10
   0   6   1 1823.03 387.323  10
   0   6   1 1760.11 382.997  14
   0   6   1 2097.82 482.881   3
   0   6   2 34383.7 1792.87  14
   0   6   2 37049.0 2086.59   3
   0   6   2 34451.7 1704.43  10
   0   6   3 38271.0 2160.53   6
   0   6   3 34686.6 1779.18  10
   0   6   4 7062.01 866.148  17
   0   6   4 6111.00 927.452   6
   0   6   5 57481.8 2471.32  17
   0   6   5 52032.2 2656.32   6
   0   6   6 28975.5 1698.71  17
   0   6   6 26475.1 1829.29   6
   0   6   7 15532.9 1116.52  17
   0   6   7 14208.8 1235.84   6
   0   6   8 16213.4 1108.55   6
   0   6   9 7117.07 530.443   6
   0   7  -9 24365.0 1112.44  14
   0   7  -9 23502.5 1238.96  19
   0   7  -8 19631.7 1279.87  19
   0   7  -8 21127.7 1203.06  14
   0   7  -7 9642.16 876.945  14
   0   7  -7 9575.65 962.819  19
   0   7  -6 29880.9 1605.35  14
   0   7  -6 30120.3 1729.71  19
   0   7  -5 30313.6 1636.18  14
   0   7  -4 79503.4 2635.65  14
   0   7  -3 1128.49 390.640  10
   0   7  -3 1760.90 408.371  14
   0   7  -2 26647.5 1544.70  14
   0   7  -2 25181.4 1583.43  10
   0   7  -1 12478.9 1077.02  14
   0   7  -1 12035.3 1087.96  10
   0   7   0 20525.6 1420.18  14
   0   7   0 19794.2 1393.17  10
   0   7   1 66697.1 2575.63  10
   0   7   1 70792.5 2730.00  14
   0   7   2 50706.9 2559.66   6
   0   7   2 48636.1 2221.99  10
   0   7   3 53883.2 2670.52   6
   0   7   3 51747.0 2335.73  17
   0   7   3 48743.5 2222.65  10
   0   7   4 22280.6 1523.12  17
   0   7   4 18699.2 1593.73   6
   0   7   5 10687.6 1140.74   6
   0   7   5 10627.7 1015.18  17
   0   7   6 43530.6 1729.48  17
   0   7   6 37889.6 1906.21   6
   0   7   7 10634.0 831.119   6
   0   8  -9 15476.1 853.877  10
   0   8  -6 5439.79 751.865  10
   0   8  -6 6341.15 672.786  14
   0   8  -5 204.974 150.420  14
   0   8  -5 38.8512 276.273  10
   0   8  -4 24354.9 1458.61  14
   0   8  -4 23302.8 1595.30  10
   0   8  -3 31277.5 1705.89  14
   0   8  -3 28724.8 1760.25  10
   0   8  -2 45952.3 2111.46  14
   0   8  -2 41591.9 2106.32  10
   0   8  -1 62232.8 2508.00  14
   0   8  -1 56616.6 2437.24  10
   0   8   0 4901.01 751.997  14
   0   8   0 4110.38 698.481  10
   0   8   1 19828.2 1563.05   6
   0   8   1 18436.1 1373.64  10
   0   8   2 36761.4 1900.99  10
   0   8   2 39501.9 1999.96  17
   0   8   2 38867.0 2170.64   6
   0   8   3 34870.8 1789.35  17
   0   8   3 31303.6 1886.42   6
   0   8   4 28588.3 1665.58   6
   0   8   4 29994.4 1492.88  17
   0   8   5 13217.3 972.264   6
   0   9  -8 2518.54 311.043  10
   0   9  -7 1700.45 319.727  10
   0   9  -6 2642.60 452.725  10
   0   9  -5 10321.6 925.900  10
   0   9  -4 6613.50 783.103  10
   0   9  -3 19904.9 1345.53  10
   0   9  -2 13576.5 1011.80  14
   0   9  -2 11571.7 1046.25  10
   0   9  -1 7823.35 860.983  10
   0   9  -1 9071.44 921.408   6
   0   9   0 11166.8 1004.68   6
   0   9   0 9254.72 913.915  10
   0   9   1 11838.0 971.789  17
   0   9   1 11874.4 993.852   6
   0   9   2 5118.59 629.087   6
   0   9   2 5948.92 613.246  17
   0   9   3 16234.9 918.668   6
   0  10  -5 445.422 144.453  10
   0  10  -4 10726.3 722.727  10
   0  10  -3 2886.48 388.920  10
   0  10  -2 1906.33 354.966  10
   0  10  -2 1271.34 236.388  17
   1 -10   2 8299.26 838.299  13
   1 -10   3 4254.57 600.396  13
   1 -10   4 1858.62 351.242  13
   1 -10   5 773.254 207.148  13
   1  -9   0-6.94735 208.315  13
   1  -9   1 3115.41 732.483  13
   1  -9   2 3663.54 770.203  13
   1  -9   3 8158.07 1109.26  13
   1  -9   4 1619.18 479.597  13
   1  -9   5 239.188 240.700  13
   1  -9   6 39.4712 190.078  13
   1  -9   7 18.8144 173.737  13
   1  -9   8 4462.67 444.359  13
   1  -8  -3 8504.42 995.272   4
   1  -8  -2 1907.54 474.625   4
   1  -8  -1 635.904 284.047   4
   1  -8  -1 1177.55 448.849  13
   1  -8   0 3175.13 619.390   4
   1  -8   0 4498.49 832.540  13
   1  -8   1 7012.45 906.052   4
   1  -8   1 8251.81 1143.41  13
   1  -8   2 2202.55 592.215  13
   1  -8   3 33.4496 149.533  13
   1  -8   4-311.153 288.126  13
   1  -8   5 26.9894 197.763  13
   1  -8   6 591.827 330.630  13
   1  -8   7 954.747 440.279  13
   1  -8   8 2484.12 500.847  13
   1  -8   9-227.594 178.657  13
   1  -7  -2 24547.7 1856.40  13
   1  -7  -1 674.838 352.447  13
   1  -7  -1 857.623 359.244   4
   1  -7   0 3176.58 601.500   4
   1  -7   0 4043.42 740.281  13
   1  -7   1 252.412 239.634   4
   1  -7   1 845.367 338.655  13
   1  -7   2 522.107 313.422  13
   1  -7   2 612.530 310.683   4
   1  -7   3 1236.21 481.477  13
   1  -7   4 67611.8 3220.65  13
   1  -7  10 778.264 273.912  13
   1  -6  -3 24354.5 1701.89  13
   1  -6  -2 371.844 272.323  13
   1  -6   0 8024.69 830.242   4
   1  -6   1 1026.90 325.408   4
   1  -6   2 28902.2 1574.73   4
   1  -5   1 87883.8 2324.09   4
   1  -5   2 52699.0 1858.48   4
   1  -4 -11 5428.69 539.812  12
   1  -4   1 3989.47 436.221   4
   1  -4   2 19047.3 982.166   4
   1  -4   7 4710.87 844.751   6
   1  -4   8 13417.4 1449.90   6
   1  -3 -11 2446.57 452.499  12
   1  -3   1 46561.0 1204.41   4
   1  -3   2 18637.2 870.649   4
   1  -3   7 61085.9 2603.03   8
   1  -3   7 48144.3 2531.20   6
   1  -3   8 22488.5 1662.02   8
   1  -3   8 18042.1 1664.92   6
   1  -3   9 40833.7 2068.18   5
   1  -3   9 47165.6 2695.98   6
   1  -3  10 7794.54 1066.10   6
   1  -2 -12 3272.94 399.543  12
   1  -2 -11 29.3008 154.422  12
   1  -2   1 9886.09 481.956   4
   1  -2   7 87365.9 3226.68   6
   1  -2   8 15526.2 1318.27   8
   1  -2   8 15402.1 1494.02   6
   1  -2   8 14945.6 1269.81   5
   1  -2   9 21115.6 1527.95   8
   1  -2   9 16381.5 1300.14   5
   1  -2   9 19038.6 1691.36   6
   1  -2  10 9229.05 1146.06   6
   1  -2  10 8599.89 900.031   5
   1  -2  11 8972.77 1004.08   6
   1  -1 -12 1460.47 313.745  12
   1  -1 -11 8436.59 903.643  12
   1  -1 -10 17589.2 1452.37  12
   1  -1  -9 3844.37 656.957  20
   1  -1  -8 14000.7 1204.05  20
   1  -1  -2 175368. 2650.12   2
   1  -1  -1 9705.77 632.086   2
   1  -1   0 287146. 3290.72   2
   1  -1   1 171425. 2467.11   2
   1  -1   3 2081.90 139.473   3
   1  -1   7 7534.20 939.039   6
   1  -1   7 8340.77 913.808   5
   1  -1   8 43194.3 2411.59   6
   1  -1   8 45360.8 2178.31   8
   1  -1   8 44401.1 2154.91   5
   1  -1   9 25306.7 1608.66   8
   1  -1   9 24715.5 1860.10   6
   1  -1   9 23920.8 1622.17   5
   1  -1  10 7620.54 806.066   8
   1  -1  10 7947.55 1019.28   6
   1  -1  11 4073.11 670.157   6
   1  -1  12 3462.23 472.274   6
   1   0 -12 3805.43 478.846  12
   1   0 -11 2544.56 473.620  12
   1   0 -10 39029.2 2152.02  12
   1   0  -9 45269.1 2228.85  20
   1   0  -9 38742.6 2198.76  12
   1   0  -5 13014.1 1095.37   1
   1   0  -4 6745.57 706.495   1
   1   0  -4 7548.50 501.649   2
   1   0  -3 44169.1 1483.04   1
   1   0  -3 45784.5 1290.12   2
   1   0  -2 220401. 2866.00   2
   1   0  -2 229365. 2530.25   1
   1   0  -1 234237. 2922.05   2
   1   0   0 44901.1 1258.74   2
   1   0   1 193487. 2536.24   2
   1   0   1 202369. 1722.08   3
   1   0   2 2738.51 273.973   5
   1   0   2 2306.75 224.397   3
   1   0   2 1996.40 255.470   2
   1   0   3 21510.5 675.144   2
   1   0   3 22982.1 949.408   5
   1   0   4 10504.2 605.968   3
   1   0   4 13781.1 844.445   5
   1   0   5 78.8872 194.130   5
   1   0   6 1460.40 408.501   5
   1   0   7 8138.49 995.391   6
   1   0   7 7649.62 831.226   8
   1   0   7 9354.75 993.374   5
   1   0   8 560.382 282.172   5
   1   0   8 331.404 264.703   6
   1   0   8 200.683 159.537   8
   1   0   9 20982.7 1696.55   6
   1   0   9 18651.7 1422.83   5
   1   0   9 20471.0 1405.17   8
   1   0  10 17118.9 1140.70   8
   1   0  10 18490.1 1511.26   6
   1   0  11 1024.87 336.689   6
   1   0  12 4654.29 489.650   6
   1   1 -13 664.648 156.437   9
   1   1 -12 7411.35 667.265  12
   1   1 -11 6548.58 628.185  19
   1   1 -11 6119.66 762.051  12
   1   1 -10 5888.81 853.255  12
   1   1  -9 5389.13 833.590  20
   1   1  -9 5592.95 830.784  12
   1   1  -8 76873.9 2952.81  12
   1   1  -8 81921.6 2962.66  20
   1   1  -7 18202.6 1558.57   1
   1   1  -6 21757.8 1560.80   1
   1   1  -5 341328. 3846.62   2
   1   1  -5 337901. 5391.10   1
   1   1  -4 20824.5 1159.37   1
   1   1  -4 22481.9 1071.45   2
   1   1  -3 50165.2 1593.53   2
   1   1  -3 43380.1 1367.57   1
   1   1  -2 214.807 119.647   1
   1   1  -2 132.906 181.838   2
   1   1  -1 8918.19 278.638   1
   1   1  -1 11677.0 756.731   2
   1   1   0 204297. 3157.52   2
   1   1   0 199004. 1947.32   5
   1   1   1 44781.0 1019.39   5
   1   1   1 42896.3 1135.70   3
   1   1   1 44683.3 1488.17   2
   1   1   2 10418.9 704.498   2
   1   1   2 10141.5 616.442   3
   1   1   2 11449.0 625.786   5
   1   1   3 4838.28 484.228   3
   1   1   3 5267.41 478.471   2
   1   1   3 6514.65 561.958   5
   1   1   4 73919.3 2022.08   3
   1   1   4 92204.4 2346.63   5
   1   1   5 166275. 3664.53   5
   1   1   5 146408. 3069.77   3
   1   1   6 123911. 3432.07   5
   1   1   7 14262.2 1309.68  17
   1   1   7 13755.8 1315.65   6
   1   1   7 15077.7 1279.55   5
   1   1   8 5150.10 694.258   8
   1   1   8 4944.28 823.222   6
   1   1   8 4488.50 700.738   5
   1   1   9 9036.62 922.647   5
   1   1   9 9898.19 932.057   8
   1   1   9 9547.49 1122.12   6
   1   1  10 1021.24 382.305   6
   1   1  11 7126.82 744.026   6
   1   2 -13 398.837 111.185   9
   1   2 -12 3623.47 485.618   9
   1   2 -11 8864.50 738.255  19
   1   2 -11 9439.07 913.370  12
   1   2 -10 42840.4 2139.28  12
   1   2 -10 41062.0 1793.81  19
   1   2  -9 32427.4 1640.40  19
   1   2  -9 32891.3 1928.22  12
   1   2  -8 31443.9 1556.34  19
   1   2  -8 32770.5 1882.23  12
   1   2  -8 32052.4 2157.99   1
   1   2  -8 34701.7 1976.09  20
   1   2  -7 50739.3 2536.55   1
   1   2  -6 11243.2 1090.05   1
   1   2  -5 246637. 4049.47   2
   1   2  -5 258387. 4515.60   1
   1   2  -4 50218.9 1853.02   2
   1   2  -4 48959.4 1652.30   1
   1   2  -3 7059.17 547.430   1
   1   2  -3 7023.77 711.313   2
   1   2  -2 28130.7 825.464   1
   1   2  -1 94808.9 1039.38   1
   1   2   0 9092.96 576.169   3
   1   2   1 187528. 2903.89   3
   1   2   1 184321. 2582.64   5
   1   2   2 75378.1 2313.33   2
   1   2   2 71835.8 1738.08   5
   1   2   3 105589. 2651.66   3
   1   2   3 108519. 2651.57   2
   1   2   3 109908. 2432.12   5
   1   2   4 65096.2 2248.88   3
   1   2   4 70924.7 2175.63   5
   1   2   5 55089.1 2199.11   3
   1   2   5 54052.4 2121.18   5
   1   2   6 25247.1 1715.66   6
   1   2   6 25419.4 1642.12  17
   1   2   6 27205.2 1626.97   5
   1   2   7 76063.6 2837.33   5
   1   2   7 71108.0 2939.54  17
   1   2   7 76551.8 3158.09   6
   1   2   8 667.081 268.917   5
   1   2   8 315.166 180.581   8
   1   2   9 2974.65 500.194   8
   1   2   9 3998.36 708.502   6
   1   2  10 3774.50 610.103   6
   1   2  11 4206.43 486.174   6
   1   3 -12 15805.5 908.516   9
   1   3 -11 20809.2 1317.63   9
   1   3 -11 19539.3 1091.77  19
   1   3 -10 21673.1 1308.95  19
   1   3  -9 17000.7 1374.96  12
   1   3  -9 17305.0 1227.60  19
   1   3  -8 19492.0 1665.83   1
   1   3  -8 19206.8 1443.67  12
   1   3  -8 16540.4 1183.76  19
   1   3  -7 7156.28 979.786   1
   1   3  -6 93724.0 3068.22   1
   1   3  -5 61290.7 2166.54   1
   1   3  -5 54908.3 2243.06   2
   1   3  -4 29565.4 1318.89   1
   1   3  -4 28335.8 1663.17   2
   1   3  -3 36676.2 1262.12   1
   1   3  -2 6678.56 433.202   1
   1   3  -1 128316. 1489.08   1
   1   3   0 417503. 4709.20   3
   1   3   0 406905. 2501.58   1
   1   3   1 151560. 3101.39   3
   1   3   1 161325. 4139.80   2
   1   3   2 46662.6 2195.03   2
   1   3   2 47187.2 1666.46   5
   1   3   2 40859.5 1758.46   3
   1   3   3 25121.8 1341.68   5
   1   3   3 25856.7 1566.52   2
   1   3   3 22733.3 1427.12   3
   1   3   4 15545.1 1254.01   3
   1   3   4 18951.3 1241.52   5
   1   3   5 102262. 3131.98   5
   1   3   5 91585.8 3011.07  17
   1   3   5 103079. 3392.09   6
   1   3   5 94133.1 3162.54   3
   1   3   6 49728.3 2529.57   6
   1   3   6 45437.7 2319.85  17
   1   3   6 51426.7 2328.77   5
   1   3   7 8023.09 1048.26   6
   1   3   7 8860.73 976.787   5
   1   3   7 6389.56 911.406  17
   1   3   8-155.225 125.295   8
   1   3   8-364.563 243.399   6
   1   3   9 6811.61 841.085   6
   1   3  10 11470.8 876.873   6
   1   4 -12 3066.50 294.498  19
   1   4 -12 3889.46 395.936   9
   1   4 -11 2776.03 393.875  19
   1   4 -11 3836.71 536.509   9
   1   4 -10 28826.0 1483.90  19
   1   4 -10 29764.8 1646.54   9
   1   4  -9 402.297 215.471  19
   1   4  -9 9.45879 214.722   9
   1   4  -8 10294.5 988.410  19
   1   4  -8 10719.7 1051.90   9
   1   4  -7 6808.43 757.336  19
   1   4  -7 5947.87 771.428   9
   1   4  -7 8174.40 987.156   1
   1   4  -6 265.880 184.757   1
   1   4  -5 77534.5 2466.48   1
   1   4  -5 64321.0 2806.27   2
   1   4  -4 83347.8 3245.22   2
   1   4   1 37846.2 1786.99   3
   1   4   1 48878.5 2660.46   2
   1   4   2 69725.9 2540.47   3
   1   4   2 82029.8 3410.41   2
   1   4   3 82024.4 3001.71   3
   1   4   4 2602.06 525.181  17
   1   4   4 3057.95 601.088   6
   1   4   4 2190.13 516.405   3
   1   4   5 2286.40 566.876  17
   1   4   5 3459.35 664.531   6
   1   4   5 2046.74 518.790   3
   1   4   6 16074.5 1412.22  17
   1   4   6 16334.1 1481.88   6
   1   4   7 50658.4 2434.02  17
   1   4   7 54163.1 2616.29   6
   1   4   8 7027.86 690.926   8
   1   4   8 7464.03 903.423   6
   1   4   9 12199.2 935.427   6
   1   5 -12 34.2487 72.9069  14
   1   5 -11 196.893 134.917  19
   1   5 -11 210.403 122.240   9
   1   5 -10 831.292 263.241  19
   1   5 -10 980.411 319.397   9
   1   5  -9 1039.40 341.706  19
   1   5  -9 1232.14 374.646   9
   1   5  -8 14855.7 1184.27  19
   1   5  -8 15769.0 1266.77   9
   1   5  -7 12887.1 1164.59   9
   1   5  -7 12963.7 1100.61  19
   1   5  -6 207.605 238.165   9
   1   5  -6 33.3395 108.658  19
   1   5  -5 76806.0 2488.13  19
   1   5  -5 76469.0 2557.66   9
   1   5  -5 71773.6 3361.17   2
   1   5  -4 26421.1 2097.18   2
   1   5  -3 48291.0 2899.55   2
   1   5  -2 426.708 368.996   2
   1   5  -1 10448.0 1440.58   2
   1   5   0 44510.2 2951.21   2
   1   5   1 3688.96 544.587  14
   1   5   1 4558.07 938.483   2
   1   5   1 4274.49 580.685  10
   1   5   2 18769.5 1812.91   2
   1   5   2 14548.9 1164.18  14
   1   5   2 15996.0 1281.22   6
   1   5   2 14643.6 1152.87  10
   1   5   3 9962.58 1042.32  17
   1   5   3 10600.4 1125.06   6
   1   5   3 9300.14 978.689  10
   1   5   4 16682.0 1405.36  17
   1   5   4 20278.8 1625.24   6
   1   5   5 71556.6 2948.50  17
   1   5   5 77585.0 3208.35   6
   1   5   6 35133.6 2041.46  17
   1   5   6 36851.2 2143.92   6
   1   5   7 6049.26 819.197  17
   1   5   7 6051.75 811.624   6
   1   5   8 10039.5 849.507   6
   1   6 -11 817.130 186.519  14
   1   6 -10 4356.34 533.352  14
   1   6 -10 4188.54 489.476  19
   1   6  -9 5073.51 617.157  19
   1   6  -9 6408.53 727.172  14
   1   6  -8 4871.39 649.253  19
   1   6  -8 4871.76 688.778  14
   1   6  -7 143.676 208.762  19
   1   6  -7 505.163 241.940  14
   1   6  -6 2683.41 521.645  19
   1   6  -6 2471.13 507.399  14
   1   6  -5 66298.7 3479.84   2
   1   6  -5 68640.5 2599.78  14
   1   6  -4 4191.90 616.374  14
   1   6  -4 4408.63 968.327   2
   1   6  -3 222.749 168.204  10
   1   6  -3 477.100 218.605  14
   1   6  -2 3375.05 544.685  14
   1   6  -2 4776.29 1024.25   2
   1   6  -2 4587.25 676.571  10
   1   6  -1 3795.26 962.733   2
   1   6  -1 3273.18 551.622  14
   1   6  -1 2696.96 531.266  10
   1   6   0 464.194 280.552  14
   1   6   0 175.392 134.689  10
   1   6   1 20593.1 1501.17  14
   1   6   1 23816.3 1613.00   6
   1   6   1 21187.5 1497.73  10
   1   6   2 11220.1 1174.08   6
   1   6   2 9395.77 1044.87  10
   1   6   3 24905.0 1725.86  17
   1   6   3 29964.4 1953.51   6
   1   6   4 441.434 296.921  17
   1   6   4 396.175 293.496   6
   1   6   5 4524.16 743.483  17
   1   6   5 5271.59 753.733   6
   1   6   6 11509.6 1064.94  17
   1   6   6 10789.5 993.283   6
   1   6   7 2983.57 442.720   6
   1   7 -10 51.4228 76.6851  10
   1   7 -10 27.4726 31.9505  14
   1   7  -9 6206.16 613.220  14
   1   7  -8 2321.12 440.893  14
   1   7  -7 521.251 243.084  14
   1   7  -6 983.712 380.903  14
   1   7  -5 2578.44 546.987  10
   1   7  -5 2777.42 547.835  14
   1   7  -4 151.505 214.769  10
   1   7  -4 781.932 339.227  14
   1   7  -3 1605.81 456.562  10
   1   7  -3 1455.18 415.202  14
   1   7  -2 4577.02 715.766  14
   1   7  -2 5129.23 768.071  10
   1   7  -1 6172.90 861.081  14
   1   7  -1 6121.04 846.790  10
   1   7   0 1208.25 423.216  14
   1   7   0 1199.97 414.314  10
   1   7   1 2844.04 627.612  10
   1   7   2 16173.6 1372.83   6
   1   7   2 14112.0 1290.81  17
   1   7   2 13080.6 1240.23  10
   1   7   3 2575.45 600.461  17
   1   7   3 3672.54 666.152   6
   1   7   4 2159.87 502.619  17
   1   7   4 2911.00 528.610   6
   1   7   5 6467.76 734.265  17
   1   7   6 65.8628 115.512  17
   1   8  -9 5158.36 418.214  10
   1   8  -8 355.894 161.544  14
   1   8  -8 481.576 197.242  10
   1   8  -7 27.1159 137.289  14
   1   8  -7 72.1379 150.538  10
   1   8  -6-25.9316 184.484  10
   1   8  -6-191.870 178.586  14
   1   8  -5 3045.09 554.254  14
   1   8  -5 3344.45 615.668  10
   1   8  -4 4871.84 719.793  14
   1   8  -4 6034.78 806.060  10
   1   8  -3 9352.12 1001.08  14
   1   8  -3 11799.1 1149.89  10
   1   8  -2 7101.14 878.496  14
   1   8  -2 7720.60 951.256  10
   1   8  -1 603.340 328.199  10
   1   8  -1 100.307 202.996  14
   1   8   0 1106.07 417.188  10
   1   8   1 10958.7 1071.77  17
   1   8   1 9343.27 1007.19  10
   1   8   2 3581.22 601.015  17
   1   8   3 12366.1 995.288  17
   1   8   4 51.2194 129.451  17
   1   9  -7 6403.50 488.969  10
   1   9  -6 376.208 165.323  10
   1   9  -5 3739.61 427.397  14
   1   9  -5 4379.37 542.717  10
   1   9  -4 9664.62 777.235  14
   1   9  -4 9440.44 841.937  10
   1   9  -3 14641.6 1007.08  14
   1   9  -3 14609.2 1086.90  10
   1   9  -2 3740.57 570.380  10
   1   9  -1 6477.65 729.521  10
   1   9   0 299.751 198.343  17
   1   9   1 879.100 278.304  17
   2 -10   0 5046.57 795.229  13
   2 -10   1 6510.16 888.384  13
   2 -10   2 4586.27 745.084  13
   2 -10   3 1348.14 434.810  13
   2 -10   4 221.368 273.609  13
   2 -10   5 570.734 256.305  13
   2 -10   6 528.723 247.763  13
   2  -9  -1 120.855 384.688  13
   2  -9   0 6326.41 1019.94  13
   2  -9   1 12702.4 1420.51  13
   2  -9   2 3525.29 760.977  13
   2  -9   3 15092.6 1517.41  13
   2  -9   4 854.413 482.484  13
   2  -9   5 868.301 423.144  13
   2  -9   6 688.793 359.192  13
   2  -9   7 2587.88 510.509  13
   2  -9   8 5389.54 571.859  13
   2  -8  -4 16826.2 1426.51   4
   2  -8  -3 7452.44 984.914   4
   2  -8  -2 9369.78 1205.62  13
   2  -8  -2 7112.91 946.191   4
   2  -8  -1 4505.95 784.873   4
   2  -8  -1 5992.63 996.046  13
   2  -8   0 11887.9 1208.17   4
   2  -8   0 11721.9 1382.61  13
   2  -8   1 10409.7 1145.79   4
   2  -8   1 11376.0 1362.20  13
   2  -8   2 3787.95 810.253  13
   2  -8   3 17433.6 1699.76  13
   2  -8   4 5210.85 928.282  13
   2  -8   5 4748.37 921.121  13
   2  -8   6 2394.68 632.090  13
   2  -8   7 4277.96 806.848  13
   2  -8   8 9235.32 995.982  13
   2  -8   9 3957.11 523.345  13
   2  -7  -3 32554.1 2095.98  13
   2  -7  -2 4952.31 801.895  13
   2  -7  -1 1193.72 430.706   4
   2  -7  -1 1642.84 493.157  13
   2  -7   0 328.123 316.873   4
   2  -7   0 391.493 304.839  13
   2  -7   1-374.874 343.937  13
   2  -7   1 524.650 318.644   4
   2  -7   2 30223.4 2031.40  13
   2  -7   3 64206.4 3090.11  13
   2  -7   9 1160.91 313.897  11
   2  -7  10 1102.93 292.435  13
   2  -6  -4 21387.0 1587.98  13
   2  -6  -3 3827.74 645.291  13
   2  -6   0 3393.32 556.017   4
   2  -6   1 17242.5 1251.52   4
   2  -6   2 24592.3 1528.93   4
   2  -5 -11 3151.33 427.533  12
   2  -5   0 368.106 229.786   4
   2  -5   1 2646.87 442.366   4
   2  -5   2 5713.58 669.962   4
   2  -4 -12 4419.57 404.437  12
   2  -4 -11 1893.98 402.579  12
   2  -4   0 466.482 193.855   4
   2  -4   1 680.334 204.923   4
   2  -4   6 2940.68 592.965   8
   2  -4   6 2813.28 640.159   6
   2  -4   7 525.811 313.531   6
   2  -4   7 300.793 255.485   8
   2  -4   8 20762.2 1845.29   6
   2  -4   8 23665.4 1611.35   5
   2  -4   9 10318.5 1002.60   5
   2  -3 -12 3693.35 461.172  12
   2  -3 -11 573.747 287.376  12
   2  -3  -8 26395.9 1786.49  20
   2  -3   0 657.355 157.894   4
   2  -3   1 7979.75 575.994   4
   2  -3   7 10919.4 1202.50   8
   2  -3   7 9166.33 1199.50   6
   2  -3   7 10365.8 1085.94   5
   2  -3   8 13504.1 1330.78   8
   2  -3   8 11440.6 1325.48   6
   2  -3   8 12155.1 1153.55   5
   2  -3   9 188.474 156.305   5
   2  -3   9 280.737 252.121   8
   2  -3   9 37.6393 215.292   6
   2  -3  10 10268.2 1143.52   6
   2  -2 -12 3556.47 522.926  12
   2  -2 -11 31449.2 1844.03  12
   2  -2 -10 919.732 307.562  20
   2  -2  -9 9250.66 1048.30  20
   2  -2  -8 28173.9 1861.56  20
   2  -2  -2 100699. 2906.04   2
   2  -2  -1 472883. 6242.11   2
   2  -2   0 29517.9 824.661   4
   2  -2   0 25303.3 1448.46   2
   2  -2   1 69201.3 2255.31   2
   2  -2   5 42591.9 1886.38   5
   2  -2   6 32807.6 1790.41   5
   2  -2   7 4390.34 735.957   8
   2  -2   7 4298.91 777.559   6
   2  -2   7 4208.20 700.224   5
   2  -2   8 8770.31 1029.59   8
   2  -2   8 9402.93 1218.61   6
   2  -2   8 8869.96 1028.66   5
   2  -2   9 15981.7 1343.93   8
   2  -2   9 16047.9 1520.58   6
   2  -2   9 17349.6 1389.58   5
   2  -2  10 14250.2 1105.07   8
   2  -2  10 15733.8 1388.32   6
   2  -1 -13 645.807 170.434  12
   2  -1 -12 8345.35 808.965  12
   2  -1 -11 27406.6 1753.78  12
   2  -1 -10 630.191 316.970  12
   2  -1 -10 317.040 267.127  20
   2  -1  -9 11574.7 1204.01  20
   2  -1  -8 26.9358 135.034  20
   2  -1  -5 14204.5 966.950   2
   2  -1  -4 69187.8 2283.06   2
   2  -1  -3 21265.0 1261.75   2
   2  -1  -2 25494.7 1382.37   2
   2  -1  -1 999999. 8406.77   2
   2  -1   0 276.814 251.452   2
   2  -1   1 106.702 72.7490   5
   2  -1   1 103.462 194.045   2
   2  -1   2 92136.2 2388.73   2
   2  -1   2 90168.0 1787.17   5
   2  -1   3 903.423 237.277   5
   2  -1   3 1197.70 267.184   2
   2  -1   4 75532.7 2195.75   5
   2  -1   5 23496.0 1395.69   5
   2  -1   6 543.064 320.147   5
   2  -1   7 7765.66 1027.98   6
   2  -1   7 9005.52 1047.57   5
   2  -1   7 8638.01 1014.78   8
   2  -1   8 453.444 237.764   5
   2  -1   8 424.937 259.295   8
   2  -1   8 766.668 335.648   6
   2  -1   9 30242.2 1784.71   8
   2  -1   9 34296.4 2165.13   6
   2  -1   9 30550.5 1800.77   5
   2  -1  10 24739.7 1382.85   8
   2  -1  10 24831.8 1670.21   6
   2  -1  11 251.398 196.486   6
   2   0 -13 550.377 184.403  12
   2   0 -12 15298.9 1083.17  12
   2   0 -11 9199.49 1013.32  12
   2   0 -10 2231.79 551.760  20
   2   0 -10 1465.07 472.330  12
   2   0  -9 775.484 422.140  12
   2   0  -9 1588.63 539.462  20
   2   0  -8 33207.8 2009.65  12
   2   0  -8 37144.5 2111.29  20
   2   0  -5 88501.8 2532.41   2
   2   0  -4 3706.68 568.091   2
   2   0  -3 36772.9 1699.87   2
   2   0  -2 127472. 3174.40   2
   2   0  -1 137615. 3280.48   2
   2   0   0 11580.3 957.629   2
   2   0   0 12334.1 521.441   5
   2   0   1 827.962 170.537   5
   2   0   1 788.518 305.695   2
   2   0   2 27690.1 1355.41   2
   2   0   2 33251.9 1217.83   5
   2   0   3 3824.68 463.179   2
   2   0   3 4738.13 540.284   5
   2   0   4 11166.5 918.681   5
   2   0   5 32950.1 1769.50   5
   2   0   6 82087.4 3122.24  17
   2   0   6 79084.3 3019.57   6
   2   0   6 86427.1 3147.30   5
   2   0   7 6717.30 899.589   8
   2   0   7 7366.73 993.076   6
   2   0   7 7572.11 967.588   5
   2   0   8 12947.3 1214.77   8
   2   0   8 13197.4 1357.37   6
   2   0   8 11834.2 1183.92   5
   2   0   9 14056.2 1165.13   8
   2   0   9 14859.4 1366.18   6
   2   0  10 12480.7 905.392   8
   2   0  10 13111.9 1121.23   6
   2   0  11 2599.80 385.058   6
   2   1 -13 858.546 213.025   9
   2   1 -12 2685.10 471.968  12
   2   1 -11-52.9603 193.347  12
   2   1 -10 15094.9 1360.59  12
   2   1 -10 14497.7 1349.95  20
   2   1  -9 21560.1 1674.02  12
   2   1  -9 22900.6 1710.70  20
   2   1  -8 6266.46 858.501  12
   2   1  -8 5123.92 813.878  20
   2   1  -5 196172. 4194.18   2
   2   1  -4 44441.6 2075.53   2
   2   1  -3 2161.81 529.659   2
   2   1  -2 1903.15 479.399   2
   2   1  -1 20882.4 1438.32   2
   2   1   0 438.595 131.751   5
   2   1   0-75.0557 208.221   2
   2   1   1 40813.0 1962.38   2
   2   1   1 40618.5 1265.99   5
   2   1   2 17421.5 944.277   5
   2   1   2 17703.0 1239.53   2
   2   1   3 405.154 198.100   5
   2   1   4 68836.4 2369.24   5
   2   1   5 56675.6 2347.55   5
   2   1   6 29453.0 1917.26  17
   2   1   6 29455.8 1899.57   6
   2   1   6 29585.7 1824.49   5
   2   1   7 23240.2 1785.05  17
   2   1   7 22727.0 1748.04   6
   2   1   7 23057.8 1643.49   5
   2   1   8 4784.61 732.482   5
   2   1   8 5028.04 738.224   8
   2   1   8 5230.67 838.318   6
   2   1   9 923.137 302.984   8
   2   1   9 810.298 375.174   6
   2   1  10 8672.53 660.699   8
   2   1  10 9032.92 821.304   6
   2   2 -13 933.529 206.340   9
   2   2 -12 2234.97 434.888   9
   2   2 -11 20760.9 1438.06  12
   2   2 -10 2964.38 604.424  12
   2   2  -9 6618.40 928.006  20
   2   2  -9 7059.33 953.730  12
   2   2  -8 100.727 217.224  12
   2   2  -8 366.764 262.113  20
   2   2  -6 25031.7 1602.26   2
   2   2  -6 25749.3 1562.05   1
   2   2  -5 25685.5 1727.23   2
   2   2  -5 27031.4 1424.69   1
   2   2  -4 43989.3 2270.17   2
   2   2  -4 41152.1 1485.70   1
   2   2  -3 1206.96 433.482   2
   2   2  -2 34806.7 2033.15   2
   2   2  -1 77470.1 3069.40   2
   2   2   0 99030.0 3475.08   2
   2   2   1 37184.7 2132.45   2
   2   2   1 37589.8 1434.74   5
   2   2   2 9088.47 772.806   5
   2   2   2 8658.46 1017.04   2
   2   2   3 8299.78 816.588   5
   2   2   4 11175.6 1025.97   5
   2   2   5 43435.2 2247.74  17
   2   2   5 44439.9 2190.15   5
   2   2   5 47276.9 2308.61   6
   2   2   6 38200.4 2114.26   5
   2   2   6 39641.6 2240.46   6
   2   2   6 35973.9 2190.63  17
   2   2   7 24.9196 137.868   5
   2   2   7-101.298 230.836  17
   2   2   7 178.558 284.781   6
   2   2   8 1931.35 442.008   8
   2   2   8 1626.08 454.879   6
   2   2   9 1234.24 308.357   8
   2   2   9 1069.10 333.321   6
   2   2  10 5448.98 506.538   6
   2   3 -13 1317.30 201.843   9
   2   3 -12 1935.80 375.538   9
   2   3 -11 7815.48 849.627   9
   2   3 -10 5521.96 784.306   9
   2   3  -9 2920.61 604.177   9
   2   3  -8 499.937 246.534   9
   2   3  -7-183.473 148.741   9
   2   3  -6 323.528 233.905   2
   2   3  -5 13980.5 1411.08   2
   2   3  -4 48388.9 2629.16   2
   2   3  -3 485.063 356.873   2
   2   3  -2 772.030 391.058   2
   2   3  -1 118975. 4318.27   2
   2   3   0 5246.58 939.831   2
   2   3   1 18183.6 1686.23   2
   2   3   2 52135.1 2790.03   2
   2   3   3 90.6990 169.572   5
   2   3   4 17042.1 1388.19   5
   2   3   4 15832.0 1344.01  17
   2   3   5 3574.60 639.889   5
   2   3   5 4936.20 777.538   6
   2   3   5 3208.28 704.064  17
   2   3   6 2036.91 499.791   5
   2   3   6 2021.27 560.577  17
   2   3   6 2868.55 614.325   6
   2   3   7 9228.92 1092.68  17
   2   3   7 10555.9 1099.13   6
   2   3   8 395.343 233.151   8
   2   3   8 126.997 140.361   6
   2   3   9 5138.88 459.826   8
   2   3   9 5011.20 521.124   6
   2   4 -12 2409.28 337.620   9
   2   4 -11 2165.79 423.516   9
   2   4 -10-512.160 306.265   9
   2   4  -9 1398.96 314.878  19
   2   4  -9 980.849 319.981   9
   2   4  -8 11533.3 1146.90   9
   2   4  -8 11120.1 931.595  19
   2   4  -7 1040.45 306.657  19
   2   4  -7 962.684 351.038   9
   2   4  -6 12364.7 946.536  19
   2   4  -6 13932.4 1172.24   9
   2   4  -6 12081.2 1359.06   2
   2   4  -5 17542.3 1771.82   2
   2   4  -4 17369.6 1759.53   2
   2   4  -3 34100.0 2544.54   2
   2   4  -2 8185.96 1297.72   2
   2   4  -1 17968.6 1907.18   2
   2   4   0 10354.2 1498.25   2
   2   4   1 497.562 307.738   2
   2   4   2 42122.1 1997.60  14
   2   4   2 46167.6 2094.00  10
   2   4   3 6828.74 916.947  17
   2   4   4 3696.21 750.370  17
   2   4   5 16632.5 1504.47  17
   2   4   5 19316.2 1505.74   6
   2   4   6 30245.0 1968.09  17
   2   4   6 32282.0 1854.88   6
   2   4   7 3636.10 631.794  17
   2   4   7 4394.14 607.744   6
   2   4   8 2610.99 366.572   8
   2   5 -12 58.4094 75.2121  14
   2   5 -11 730.574 225.077  14
   2   5 -10 12831.9 1020.76   9
   2   5  -9 12430.6 1121.49   9
   2   5  -8 3820.19 556.843  19
   2   5  -8 4171.29 694.661   9
   2   5  -7 1563.75 466.260   9
   2   5  -6 751.009 325.180  14
   2   5  -5 141599. 5333.62   2
   2   5  -5 140546. 3721.93  14
   2   5  -4 22373.1 2219.65   2
   2   5  -4 22468.5 1445.43  14
   2   5  -4 23752.2 1468.58  10
   2   5  -3-102.956 127.188  10
   2   5  -3-140.235 201.157  14
   2   5  -3 243.686 267.689   2
   2   5  -2 2244.51 452.673  10
   2   5  -2 2518.94 498.470  14
   2   5  -2 2280.78 800.517   2
   2   5  -1-188.448 189.240  10
   2   5  -1-77.8131 148.710  14
   2   5  -1 249.414 329.831   2
   2   5   0 3425.62 605.407  14
   2   5   0 2741.53 870.743   2
   2   5   0 3874.85 657.136  10
   2   5   1 32252.0 1878.77  14
   2   5   1 36280.2 2894.23   2
   2   5   1 33408.8 1911.19  10
   2   5   2 13807.0 1276.38  10
   2   5   3 99.8659 225.676  17
   2   5   4 11189.2 1231.31  17
   2   5   5 16095.2 1428.51  17
   2   5   6 9843.65 1031.00  17
   2   5   7 8384.20 646.444   8
   2   6 -11 1123.43 216.890  14
   2   6 -10 6832.22 652.881  14
   2   6 -10 6183.98 486.784  10
   2   6  -9 9647.60 895.524  14
   2   6  -9 9407.14 767.149  10
   2   6  -8 4279.31 641.789  14
   2   6  -7 14266.6 1224.79  14
   2   6  -7 13620.7 1133.99  10
   2   6  -6 4212.44 689.996  14
   2   6  -6 3927.35 654.786  10
   2   6  -5 8567.07 983.721  14
   2   6  -5 8202.75 953.199  10
   2   6  -4 754.005 343.699  10
   2   6  -4 1007.18 348.244  14
   2   6  -3 11689.4 1139.92  14
   2   6  -3 11496.0 1136.65  10
   2   6  -2 15807.0 1344.04  14
   2   6  -2 16311.8 1362.39  10
   2   6  -1 3177.17 644.546  10
   2   6  -1 3201.80 627.290  14
   2   6   0 11356.8 1177.72  14
   2   6   0 12452.4 1228.40  10
   2   6   1 9312.93 1088.39  14
   2   6   1 10250.5 1139.33  10
   2   6   2 29072.4 1936.18  17
   2   6   3 10668.3 1171.23  17
   2   6   4 7642.72 961.575  17
   2   6   5 16046.4 1232.71  17
   2   6   6 2390.11 404.852  17
   2   7 -10 4851.71 395.947  14
   2   7  -9 3345.59 439.310  14
   2   7  -9 2729.98 333.607  10
   2   7  -8 1285.81 302.910  10
   2   7  -8 1797.21 372.679  14
   2   7  -7-44.1381 65.5271  10
   2   7  -7 55.8890 201.145  14
   2   7  -6 131.751 162.694  10
   2   7  -6-122.034 237.747  14
   2   7  -5 7318.35 890.098  14
   2   7  -5 7143.70 846.582  10
   2   7  -4 12998.8 1207.78  14
   2   7  -4 12291.8 1156.96  10
   2   7  -3 4533.41 774.665  14
   2   7  -3 4994.92 789.222  10
   2   7  -2 13063.9 1252.71  14
   2   7  -2 13914.5 1290.36  10
   2   7  -1 311.378 277.263  14
   2   7  -1 147.926 253.074  10
   2   7   0 15550.8 1381.82  10
   2   7   1 22984.8 1672.33  17
   2   7   2 12939.6 1221.62  17
   2   7   3 6765.27 832.662  17
   2   7   4 2563.38 450.469  17
   2   8  -8 711.365 185.210  14
   2   8  -7 260.623 175.777  14
   2   8  -7 560.721 162.428  10
   2   8  -6 577.816 244.191  10
   2   8  -6 587.305 219.027  14
   2   8  -5 538.977 253.527  10
   2   8  -5 723.323 306.643  14
   2   8  -4 9598.12 924.550  14
   2   8  -4 9454.17 922.244  10
   2   8  -3 15012.2 1180.74  14
   2   8  -3 15544.6 1211.36  10
   2   8  -2 4252.32 645.880  14
   2   8  -2 4376.15 669.055  10
   2   8  -1 2620.83 523.269  10
   2   8   0 358.511 287.667  17
   2   8   1 603.852 261.048  17
   2   8   2 15136.0 993.965  17
   2   9  -3-40.3010 114.932  17
   2   9  -2 889.845 238.840  17
   3 -11   2 8280.49 737.720  13
   3 -11   3 2030.28 353.979  13
   3 -10  -5 6255.26 905.940  16
   3 -10  -1 8391.51 1035.15  13
   3 -10   0 15161.2 1401.46  13
   3 -10   1 6249.84 924.797  13
   3 -10   2 7092.04 961.470  13
   3 -10   3 2157.82 542.004  13
   3 -10   4 1354.06 444.429  13
   3 -10   5 989.911 315.372  13
   3 -10   6 1455.29 311.413  13
   3  -9  -7 7266.92 947.858  16
   3  -9  -2 6911.80 1044.22  13
   3  -9  -1 3677.59 669.639   4
   3  -9  -1 3020.78 751.746  13
   3  -9   0 16490.7 1607.99  13
   3  -9   1 22175.6 1887.24  13
   3  -9   2 4466.03 859.183  13
   3  -9   3 11826.5 1324.28  13
   3  -9   4 469.613 441.855  13
   3  -9   5 1996.67 589.783  13
   3  -9   6 5956.65 832.343  13
   3  -9   7 8676.26 848.624  13
   3  -9   8 3541.16 415.252  13
   3  -8  -8 5801.83 888.573  16
   3  -8  -4 9308.59 1086.70   4
   3  -8  -3 11683.5 1194.13   4
   3  -8  -3 13068.5 1378.81  13
   3  -8  -2 24142.7 1747.86   4
   3  -8  -2 26170.4 1946.02  13
   3  -8  -1 11677.1 1227.84   4
   3  -8  -1 13693.9 1429.82  13
   3  -8  -1 12667.0 1368.02  20
   3  -8   0 4445.40 787.885   4
   3  -8   0 6284.28 971.395  13
   3  -8   1 2956.89 701.789  13
   3  -8   2 1818.46 623.433  13
   3  -8   3 69931.8 3356.29  13
   3  -8   4 3503.54 774.965  13
   3  -8   5 3888.05 848.151  13
   3  -8   6 12599.8 1399.07  13
   3  -8   7 6762.46 932.251  13
   3  -8   8 12271.5 1052.72  13
   3  -8   9 4265.00 466.179  13
   3  -7  -9 10986.9 1145.75  16
   3  -7  -8 21222.2 2172.89  16
   3  -7  -4 47025.8 2496.86  13
   3  -7  -3 10461.0 1169.73  13
   3  -7  -2 8695.21 1010.26   4
   3  -7  -2 10360.3 1177.31  20
   3  -7  -2 11806.9 1217.06  13
   3  -7  -1 1608.05 445.712   4
   3  -7  -1 1539.77 432.629  13
   3  -7   0 14302.9 1270.15   4
   3  -7   0 16277.2 1412.61  13
   3  -7   1 51833.0 2451.73   4
   3  -7   1 57978.7 2729.60  13
   3  -7   2 67952.6 3054.09  13
   3  -7   3 40301.2 2494.84  13
   3  -7   5 3778.15 745.652  11
   3  -7   6 23899.9 1875.70  11
   3  -7   7 2333.77 637.063  11
   3  -7   8 9388.48 1047.13  11
   3  -7   9 1622.24 351.475  11
   3  -6 -11 4240.34 430.741  12
   3  -6  -9 17540.9 1759.99  16
   3  -6  -4 15365.2 1416.71  20
   3  -6  -4 14679.2 1253.00  13
   3  -6  -3 33835.6 1806.56  13
   3  -6  -1 100382. 2968.37   4
   3  -6   0 26513.0 1539.77   4
   3  -6   1 13039.1 1130.77   4
   3  -6   7 2245.02 453.615   5
   3  -6  10 9076.76 810.829  11
   3  -5 -11 5793.25 653.328  12
   3  -5  -9 7573.29 1249.01  16
   3  -5  -7 27725.3 2006.10  20
   3  -5  -6 5195.30 878.669  20
   3  -5  -1 64140.3 2061.22   4
   3  -5   0 14763.4 1023.68   4
   3  -5   6 11893.4 1127.54   5
   3  -5   7 11571.3 1087.37   5
   3  -4 -12 3082.54 412.115  12
   3  -4 -11 1090.81 353.346  12
   3  -4  -9 27157.6 1798.20  20
   3  -4  -8 35221.1 2263.78  20
   3  -4  -8 40402.0 3188.95  16
   3  -4  -7 78384.3 3418.08  20
   3  -4  -1 11590.8 747.299   4
   3  -4   0 476.408 183.513   4
   3  -4   5 6719.71 924.918   8
   3  -4   5 7034.55 838.722   5
   3  -4   6 52083.7 2736.26   8
   3  -4   6 54533.7 2385.12   5
   3  -4   7 4197.68 790.862   8
   3  -4   7 3718.69 633.155   5
   3  -4   8 48753.7 2527.28   8
   3  -4   8 43828.3 2128.24   5
   3  -3 -12 4524.65 564.839  12
   3  -3 -11 22235.9 1274.30  20
   3  -3 -11 19678.1 1469.30  12
   3  -3 -10 12961.5 1189.30  20
   3  -3  -9 20182.0 1659.09  20
   3  -3  -8 41933.7 2505.85  20
   3  -3  -8 53607.4 3478.26  16
   3  -3  -7 57149.7 2858.18  20
   3  -3  -1 10074.8 588.899   4
   3  -3   1 75325.6 1503.26   5
   3  -3   2 46216.2 1445.21   5
   3  -3   3 112923. 2644.95   5
   3  -3   4 44972.9 1874.36   5
   3  -3   5 22435.8 1655.96   8
   3  -3   5 22908.8 1462.54   5
   3  -3   6 141519. 4403.30   8
   3  -3   6 138617. 3832.01   5
   3  -3   7 3542.87 656.227   5
   3  -3   7 4123.20 782.751   8
   3  -3   7 3541.78 761.092   6
   3  -3   8 19557.2 1610.06   8
   3  -3   8 18862.3 1678.75   6
   3  -3   8 18980.1 1478.03   5
   3  -3   9 9860.59 1043.91   8
   3  -2 -13 7753.89 554.628  12
   3  -2 -12 9104.44 851.425  12
   3  -2 -11 43982.2 2259.31  12
   3  -2 -11 46445.1 2068.64  20
   3  -2 -10 651.072 378.988  20
   3  -2 -10 193.409 263.292  12
   3  -2  -9 37011.7 2277.77  20
   3  -2  -8 37892.0 2361.36  20
   3  -2  -5 32640.6 1959.38   2
   3  -2  -4 37900.6 2233.71   2
   3  -2  -3 66469.8 2950.91   2
   3  -2  -2 220012. 5333.71   2
   3  -2  -1 447941. 7466.62   2
   3  -2   0 68239.9 2882.08   2
   3  -2   0 67427.5 1204.57   5
   3  -2   1 22814.2 1631.12   2
   3  -2   1 20683.8 845.791   5
   3  -2   2 128809. 3636.89   2
   3  -2   2 119232. 2378.50   5
   3  -2   3 122365. 2779.83   5
   3  -2   4 80930.0 2549.99   5
   3  -2   5 45600.6 2305.49   8
   3  -2   5 46083.9 2150.95   5
   3  -2   6 19253.0 1607.45   8
   3  -2   6 16216.7 1466.22   6
   3  -2   6 20615.9 1558.14   5
   3  -2   7 3456.91 698.880   5
   3  -2   7 2581.70 617.889   8
   3  -2   7 3012.86 649.964   6
   3  -2   8 29219.9 1919.90   8
   3  -2   8 29151.2 2035.33   6
   3  -2   8 28899.2 1813.36   5
   3  -2   9 35337.0 1875.88   8
   3  -2   9 37511.8 2083.43   6
   3  -2  10 8297.96 737.655   8
   3  -1 -13 8340.32 622.152  12
   3  -1 -12 10738.9 950.029  12
   3  -1 -11 50487.9 2424.28  12
   3  -1 -11 51052.5 2284.01  20
   3  -1 -10 5757.66 866.373  20
   3  -1 -10 5850.03 922.541  12
   3  -1  -9 8740.21 1143.54  12
   3  -1  -9 10260.9 1213.62  20
   3  -1  -8 29665.5 2057.21  20
   3  -1  -8 31116.7 2001.91  12
   3  -1  -5 124579. 3828.05   2
   3  -1  -4 9789.45 1082.29   2
   3  -1  -3 109785. 3643.02   2
   3  -1  -2 224197. 5189.15   2
   3  -1  -1 325189. 6195.72   2
   3  -1  -1 334372. 2667.73   5
   3  -1   0 86456.0 3147.41   2
   3  -1   0 86257.8 1563.21   5
   3  -1   1 37265.0 2007.63   2
   3  -1   1 37784.3 1221.18   5
   3  -1   2 76419.1 2784.77   2
   3  -1   2 76867.0 2049.70   5
   3  -1   3 8761.45 812.061   5
   3  -1   4 45696.3 2062.92   5
   3  -1   5 58606.9 2659.33  17
   3  -1   5 57945.7 2520.43   5
   3  -1   6 50096.7 2556.28   8
   3  -1   6 44377.8 2352.05   6
   3  -1   6 48944.0 2430.29   5
   3  -1   7 9501.21 1115.27   6
   3  -1   7 8312.03 1063.93   8
   3  -1   7 9067.72 1058.83   5
   3  -1   8 34197.6 2024.70   8
   3  -1   8 35362.9 2135.00   6
   3  -1   8 32503.5 1881.88   5
   3  -1   9 29828.3 1654.92   8
   3  -1   9 30728.3 1768.95   6
   3  -1  10 9027.63 706.458   8
   3   0 -13 6743.01 575.901   9
   3   0 -12 5231.49 667.449  12
   3   0 -11 4329.82 728.213  20
   3   0 -11 3803.83 703.919  12
   3   0 -10 1194.52 477.457  20
   3   0 -10 883.583 401.904  12
   3   0  -9 55878.2 2758.09  20
   3   0  -9 54373.9 2748.56  12
   3   0  -8 62827.9 2894.83  20
   3   0  -8 65376.2 2865.31  12
   3   0  -6 142694. 3991.46   2
   3   0  -5 41198.2 2287.27   2
   3   0  -4 134855. 4187.67   2
   3   0  -3 84123.5 3309.60   2
   3   0  -2 101340. 3658.75   2
   3   0  -1 16010.8 1463.30   2
   3   0   0 21826.6 918.922   5
   3   0   0 23062.5 1717.19   2
   3   0   1 15368.3 858.761   5
   3   0   1 14686.5 1346.50   2
   3   0   2 90947.6 3141.87   2
   3   0   2 90965.0 2363.10   5
   3   0   3 4603.96 615.751   5
   3   0   4 120180. 3388.05   5
   3   0   5 67815.6 2737.32   5
   3   0   5 67362.3 2917.76  17
   3   0   6 42483.7 2454.00  17
   3   0   6 45249.5 2339.79   6
   3   0   6 42670.4 2279.21   5
   3   0   7 17640.1 1501.28   8
   3   0   7 18362.9 1500.18   6
   3   0   7 16326.9 1401.23   5
   3   0   8 28383.4 1759.12   8
   3   0   8 29884.7 1810.25   6
   3   0   9 9508.67 867.835   8
   3   0   9 9725.19 873.663   6
   3   0  10 10292.9 629.208   8
   3   1 -13 2980.78 375.822   9
   3   1 -12 7625.80 780.976   9
   3   1 -12 8458.93 827.010  12
   3   1 -11 25073.4 1647.56  12
   3   1 -10 19972.8 1572.66  12
   3   1 -10 19004.5 1519.52  20
   3   1  -9 12007.0 1267.33  12
   3   1  -9 12006.4 1269.41  20
   3   1  -8 13836.7 1292.48  12
   3   1  -8 12760.7 1295.23  20
   3   1  -6 194205. 5031.80   2
   3   1  -5 65288.0 3060.01   2
   3   1  -4 1552.22 532.537   2
   3   1  -3 9323.87 1226.51   2
   3   1  -2 42375.3 2620.22   2
   3   1  -1 67684.0 3256.93   2
   3   1   0 190536. 3221.15   5
   3   1   0 206374. 5573.22   2
   3   1   1 41670.9 1618.36   5
   3   1   1 42024.9 2457.20   2
   3   1   2 13334.5 1009.01   5
   3   1   2 12721.2 1287.74   2
   3   1   3 29434.4 1622.71   5
   3   1   4 62534.8 2578.42   5
   3   1   4 68337.3 2818.00  17
   3   1   5 72879.7 2947.59   5
   3   1   5 74750.5 3199.66  17
   3   1   6 76258.9 3308.84  17
   3   1   6 72845.4 2990.41   5
   3   1   7 914.330 346.844   5
   3   1   7 635.463 307.891   8
   3   1   7 624.669 291.848   6
   3   1   8 3004.08 568.625   8
   3   1   8 3159.43 539.378   6
   3   1   9 6103.85 622.629   8
   3   2 -13 7332.65 535.211   9
   3   2 -12 7340.53 717.295   9
   3   2 -11 22758.2 1507.15   9
   3   2 -10 11820.6 1162.98   9
   3   2 -10 11528.0 1175.66  12
   3   2  -9 21103.2 1588.26   9
   3   2  -9 19995.4 1575.65  20
   3   2  -9 21470.6 1636.51  12
   3   2  -8 8827.91 1036.32  12
   3   2  -8 8104.45 985.793   9
   3   2  -8 8393.71 1005.73  20
   3   2  -7 12965.1 1157.14   9
   3   2  -7 12542.4 1163.36  12
   3   2  -7 12047.3 1150.46  20
   3   2  -6 10427.1 1281.89   2
   3   2  -5 23475.3 2000.96   2
   3   2  -4 63572.5 3370.12   2
   3   2  -3 17962.4 1824.49   2
   3   2  -2 40657.8 2788.68   2
   3   2  -1 113177. 4617.67   2
   3   2   0 44432.8 2881.00   2
   3   2   1 72402.4 3572.58   2
   3   2   2 69044.2 2568.96   5
   3   2   2 65059.4 3136.59   2
   3   2   3 31812.9 1897.18  17
   3   2   3 31420.5 1849.87   5
   3   2   4 31814.2 2055.39  17
   3   2   4 31557.3 1959.35   5
   3   2   5 14201.1 1350.94   5
   3   2   5 12546.9 1366.33  17
   3   2   6 11979.5 1215.15   5
   3   2   6 10890.2 1241.22  17
   3   2   7 1112.45 411.718   8
   3   2   8 5021.06 624.583   8
   3   2   9 13024.1 672.098   8
   3   3 -13 3795.48 330.607   9
   3   3 -13 3218.92 303.621  14
   3   3 -12 5223.60 554.421   9
   3   3 -11 18622.3 1267.08   9
   3   3 -10-69.4582 252.206   9
   3   3  -9 4292.94 729.260   9
   3   3  -8 15910.6 1369.35   9
   3   3  -7 2061.92 476.624   9
   3   3  -6 95811.5 4175.85   2
   3   3  -6 102273. 3142.28   9
   3   3  -5 28491.2 2416.43   2
   3   3  -5 29622.5 1577.60   9
   3   3  -4 12843.8 1653.96   2
   3   3  -3 32880.9 2695.86   2
   3   3  -2 55810.6 3576.20   2
   3   3  -1 100633. 4814.68   2
   3   3   0 47973.9 3290.87   2
   3   3   1 18562.0 1973.00   2
   3   3   1 16112.0 1167.05  14
   3   3   1 17655.9 1294.18  10
   3   3   2 45786.5 2296.57  17
   3   3   3-10.0791 196.749  17
   3   3   4 2280.18 600.688  17
   3   3   5 26956.0 1937.09  17
   3   3   6 27872.0 1883.84  17
   3   3   7 5637.92 695.409   8
   3   3   8 6689.68 558.944   8
   3   4 -12 1468.58 264.222  14
   3   4 -11 4137.64 543.081   9
   3   4 -10 8887.93 937.390   9
   3   4  -9 22773.2 1561.76   9
   3   4  -8 18065.2 1426.47   9
   3   4  -7 3293.92 631.874   9
   3   4  -6 54199.4 3285.36   2
   3   4  -6 56159.5 2470.07   9
   3   4  -6 55715.9 2444.22  14
   3   4  -5 67100.1 3908.05   2
   3   4  -5 65630.9 2530.98  14
   3   4  -5 66035.3 2290.88  10
   3   4  -4 84447.4 4592.91   2
   3   4  -4 82592.7 2748.78  14
   3   4  -4 84282.0 2617.14  10
   3   4  -3 19934.6 2271.90   2
   3   4  -3 20350.7 1360.84  14
   3   4  -3 21052.8 1327.54  10
   3   4  -2 3162.80 557.806  14
   3   4  -2 2392.09 910.557   2
   3   4  -2 3179.86 542.140  10
   3   4  -1 2360.22 482.414  14
   3   4  -1 2182.75 755.481   2
   3   4  -1 1888.07 457.781  10
   3   4   0 16457.2 2058.83   2
   3   4   0 14146.7 1207.63  14
   3   4   0 16678.8 1340.05  10
   3   4   1 43101.8 2171.74  14
   3   4   1 46667.8 2331.20  10
   3   4   2 39264.7 2292.07  17
   3   4   3 4627.20 851.541  17
   3   4   4 30743.2 2069.95  17
   3   4   5 30063.6 1940.61  17
   3   4   6 10932.3 1042.97  17
   3   4   7 16760.3 909.967   8
   3   5 -11 5880.59 536.990  14
   3   5 -10 11793.5 924.911  14
   3   5  -9 13674.6 1114.07  14
   3   5  -8 8412.27 939.370  14
   3   5  -7 12907.7 1196.31  14
   3   5  -7 13601.3 1045.82  10
   3   5  -6 66441.4 2699.70  14
   3   5  -6 68037.2 2442.91  10
   3   5  -5 11526.0 1136.22  14
   3   5  -5 11629.8 1058.53  10
   3   5  -4 271.068 199.677  10
   3   5  -4 81.9875 173.644  14
   3   5  -3 11610.6 1164.36  14
   3   5  -3 13455.8 1183.70  10
   3   5  -2 14203.5 1272.74  14
   3   5  -2 14845.6 1289.13  10
   3   5  -1 17974.2 1456.19  14
   3   5  -1 18528.4 1495.18  10
   3   5   0 23459.1 1695.27  14
   3   5   0 24652.0 1773.74  10
   3   5   1 11376.9 1260.37  17
   3   5   2 21761.7 1717.99  17
   3   5   3 11648.9 1265.84  17
   3   5   4 25396.3 1723.18  17
   3   5   5 27718.4 1583.04  17
   3   5   6 3937.99 426.583   8
   3   6 -10 16669.0 889.275  14
   3   6  -9 8927.63 772.625  14
   3   6  -8 3487.71 562.557  14
   3   6  -7 3347.98 593.880  14
   3   6  -7 3261.58 493.790  10
   3   6  -6 1866.96 484.046  14
   3   6  -6 1549.77 369.441  10
   3   6  -5 14276.0 1298.98  14
   3   6  -5 14385.3 1178.13  10
   3   6  -4 24444.2 1694.15  14
   3   6  -4 23637.8 1590.59  10
   3   6  -3 17843.0 1464.67  14
   3   6  -3 17200.2 1400.02  10
   3   6  -2 6567.89 933.550  14
   3   6  -2 7112.10 928.798  10
   3   6  -1 1685.13 542.613  14
   3   6  -1 1964.38 517.581  10
   3   6   0 28138.4 1926.71  17
   3   6   1 54357.8 2616.66  17
   3   6   2 25547.3 1733.45  17
   3   6   3 12612.1 1135.41  17
   3   6   4 7818.62 777.518  17
   3   7  -9 2870.34 322.315  14
   3   7  -8 4061.56 480.420  14
   3   7  -7 2138.02 427.311  14
   3   7  -7 1228.15 254.929  10
   3   7  -6 7275.52 789.711  14
   3   7  -6 6500.64 641.941  10
   3   7  -5 1889.58 447.351  14
   3   7  -5 2867.08 472.124  10
   3   7  -4 15963.2 1267.63  14
   3   7  -4 15157.4 1150.24  10
   3   7  -3 19747.6 1433.40  14
   3   7  -3 19727.0 1366.57  10
   3   7  -2 16374.7 1318.09  14
   3   7  -2 16455.7 1271.72  10
   3   7  -1 13062.0 1188.55  17
   3   7   0 8970.00 965.285  17
   3   7   1 7200.22 811.160  17
   3   7   2 20621.8 1206.76  17
   3   8  -6 6985.27 533.086  14
   3   8  -5 17357.1 939.752  14
   3   8  -3 4747.79 534.630  17
   3   8  -2 1211.46 287.791  17
   3   8  -1 962.725 254.541  17
   4 -11   1 3906.12 512.530  13
   4 -11   2 4977.23 540.278  13
   4 -10  -5 1637.90 493.593  16
   4 -10  -4 2050.27 623.807  16
   4 -10  -3 3176.72 822.529  16
   4 -10  -2 1041.84 505.494  16
   4 -10  -1 3232.15 612.781  13
   4 -10   0 6113.01 866.894  13
   4 -10   0 5732.96 800.910  20
   4 -10   1 170.052 235.695  20
   4 -10   1-1.44012 192.767  13
   4 -10   2 6145.68 894.481  20
   4 -10   2 6793.79 896.394  13
   4 -10   3 48.5262 201.609  13
   4 -10   4-23.2406 129.659  13
   4 -10   5 198.679 124.425  13
   4  -9  -7 1803.36 610.092  16
   4  -9  -6 626.693 555.436  16
   4  -9  -5 11527.9 1844.13  16
   4  -9  -2 574.653 303.189  20
   4  -9  -2 321.389 310.503  13
   4  -9  -1 2990.16 694.801  20
   4  -9  -1 2701.76 618.818  13
   4  -9   0 3552.91 851.039  20
   4  -9   0 4378.87 814.765  13
   4  -9   1 557.810 352.117  13
   4  -9   2 5509.71 911.621  13
   4  -9   3 834.885 425.126  13
   4  -9   4-314.520 272.931  13
   4  -9   5 2078.05 489.222  13
   4  -9   6 1572.55 396.323  13
   4  -9   7 4184.53 464.230  13
   4  -8  -8 10160.2 1318.80  16
   4  -8  -7 13267.7 1881.34  16
   4  -8  -4 14693.1 1485.26  20
   4  -8  -4 10899.7 1118.80   4
   4  -8  -3 5016.44 772.741   4
   4  -8  -3 6086.79 990.404  20
   4  -8  -3 3526.66 704.395  13
   4  -8  -2 9918.71 1109.46   4
   4  -8  -2 10783.6 1382.27  20
   4  -8  -2 11537.2 1220.51  13
   4  -8  -1-268.057 264.700   4
   4  -8  -1 337.020 280.698  13
   4  -8   0 302.629 250.318  13
   4  -8   1 8157.87 1100.53  13
   4  -8   2 31019.4 2134.52  13
   4  -8   3 13642.9 1413.86  13
   4  -8   4 78.8423 209.418  13
   4  -8   5 1789.62 534.357  13
   4  -8   6 3919.64 710.711  13
   4  -8   6 5112.50 730.592  11
   4  -8   7 2803.30 506.142  13
   4  -8   7 2670.26 452.710  11
   4  -8   8 1109.15 262.051  13
   4  -7 -10 3984.68 430.212  12
   4  -7  -9 20306.8 1770.57  16
   4  -7  -8 8719.59 1466.69  16
   4  -7  -7 530.237 462.932  16
   4  -7  -6 1259.91 478.488  20
   4  -7  -5 22064.6 1578.77   4
   4  -7  -5 24663.4 2009.42  20
   4  -7  -4 25955.9 2090.21  20
   4  -7  -4 27714.5 1782.67   4
   4  -7  -4 24480.9 1718.72  13
   4  -7  -3-204.143 201.989   4
   4  -7  -3 230.227 278.446  13
   4  -7  -2 28014.2 2132.34  20
   4  -7  -2 30290.2 1842.32   4
   4  -7  -2 30090.2 1855.85  13
   4  -7  -1 13562.8 1252.83   4
   4  -7  -1 16247.7 1369.05  13
   4  -7   0 40239.3 2191.38  13
   4  -7   1 32064.4 2001.86  13
   4  -7   2 41905.4 2391.42  13
   4  -7   2 38863.0 2300.54  11
   4  -7   3 5864.23 913.407  13
   4  -7   3 4856.64 874.897  11
   4  -7   4 6787.41 1089.20  11
   4  -7   5 4916.12 893.640  11
   4  -7   6 4224.84 913.846  11
   4  -7   7 875.232 403.361  11
   4  -7   8 4668.37 603.521  13
   4  -7   8 4384.57 651.578  11
   4  -6 -11 1792.53 288.558  12
   4  -6 -10 3803.75 656.052  16
   4  -6  -9 9798.54 1476.51  16
   4  -6  -8 10025.6 1133.54  20
   4  -6  -8 12139.9 1872.08  16
   4  -6  -7 6213.70 1004.07  20
   4  -6  -7 6454.82 1537.40  16
   4  -6  -6 12506.4 1455.84  20
   4  -6  -5 15918.8 1593.83  20
   4  -6  -4 37991.0 1926.61  13
   4  -6  -4 40620.1 2480.22  20
   4  -6  -3 67820.8 2515.77   4
   4  -6  -3 63188.5 2381.94  13
   4  -6  -3 62371.1 2992.58  20
   4  -6  -2 131191. 3435.22   4
   4  -6  -1 22778.6 1467.16   4
   4  -6   1 12387.9 1129.43  13
   4  -6   1 12181.3 1213.36  11
   4  -6   2 76405.6 3271.38  11
   4  -6   3 9527.44 1281.73  11
   4  -6   4 10551.6 1413.19  11
   4  -6   5 3773.88 869.847  11
   4  -6   6 1972.90 647.681  11
   4  -6   7 13852.3 1553.45  11
   4  -6   8 14924.7 1423.75  11
   4  -6   9 8491.98 849.690  11
   4  -5 -11 222.774 196.383  12
   4  -5 -10 1734.74 374.347  20
   4  -5 -10 780.853 384.761  16
   4  -5  -9 14808.4 1364.87  20
   4  -5  -9 19140.6 2101.75  16
   4  -5  -8 20285.4 1806.65  20
   4  -5  -8 28044.5 2909.64  16
   4  -5  -7 28813.0 2261.27  20
   4  -5  -7 33918.3 3413.00  16
   4  -5  -6 21285.7 1860.55  20
   4  -5  -5 30670.4 2134.14  20
   4  -5  -3 76245.5 2317.12   4
   4  -5  -2 77203.7 2313.36   4
   4  -5  -1 42626.5 1767.78   4
   4  -5   2 44877.9 2068.60  18
   4  -5   3 27404.1 1763.92   8
   4  -5   3 40421.4 1996.73  18
   4  -5   4 15510.8 1449.74   8
   4  -5   5 23336.5 1840.19   8
   4  -5   6 5792.26 729.254   5
   4  -5   8 16434.9 1614.29  11
   4  -5   9 14298.3 1227.17  11
   4  -4 -12 3701.53 444.983  12
   4  -4 -11 144.203 143.188  20
   4  -4 -11-130.710 180.477  12
   4  -4 -10 10084.6 1035.21  20
   4  -4  -9 18764.8 1670.93  20
   4  -4  -9 24271.0 2406.85  16
   4  -4  -8 23475.6 2002.70  20
   4  -4  -8 32165.4 3059.84  16
   4  -4  -7 33562.3 2397.22  20
   4  -4  -7 47400.1 3798.73  16
   4  -4  -6 1223.95 486.557  20
   4  -4  -6 2018.49 815.345  16
   4  -4   3 62593.4 2387.50  18
   4  -4   3 56922.3 1969.94   5
   4  -4   4 19972.9 1354.44  18
   4  -4   4 18420.6 1263.74   5
   4  -4   5 30689.3 1618.97  18
   4  -4   5 29534.1 1728.87   5
   4  -4   6 30196.1 2106.14   8
   4  -4   6 27489.1 1716.87   5
   4  -4   7 12771.6 1321.33   8
   4  -4   8 7213.81 914.525   8
   4  -4   9 10327.2 1060.73  11
   4  -3 -13 608.427 136.689  12
   4  -3 -12 15303.2 997.398  12
   4  -3 -12 15949.2 903.930  20
   4  -3 -11 36.5397 177.802  20
   4  -3 -11 241.862 256.852  12
   4  -3 -10 7180.68 962.428  20
   4  -3 -10 7852.07 1009.42  12
   4  -3  -9 7324.46 1049.30  20
   4  -3  -9 11190.5 1572.53  16
   4  -3  -8 9113.90 1252.90  20
   4  -3  -8 12625.7 1856.00  16
   4  -3  -7 16500.7 2142.32  16
   4  -3  -7 12612.4 1453.65  20
   4  -3  -3 65969.3 3528.97   2
   4  -3  -2 266946. 7100.68   2
   4  -3  -1 38099.8 2690.13   2
   4  -3   0 16309.8 1697.37   2
   4  -3   2 19517.2 1085.94   5
   4  -3   3 43900.8 1876.58   5
   4  -3   4 47212.9 2032.68  18
   4  -3   4 46439.8 2150.68   5
   4  -3   5 15443.7 1493.26   8
   4  -3   5 16821.6 1167.74  18
   4  -3   5 16668.9 1386.32   5
   4  -3   6 3982.06 662.078   5
   4  -3   6 4721.37 853.501   8
   4  -3   7 4502.92 803.536   8
   4  -3   7 4565.49 693.403   5
   4  -3   8 9445.27 1023.98   8
   4  -3   8 8764.30 1108.96  11
   4  -3   9 14774.6 1170.12  11
   4  -2 -13 3338.11 339.972   9
   4  -2 -13 4323.45 411.167  12
   4  -2 -12 13917.2 1005.18  12
   4  -2 -12 13868.5 969.123  20
   4  -2 -11 211.888 227.485  20
   4  -2 -11-457.215 308.364  12
   4  -2 -10 326.812 368.590  20
   4  -2 -10 80.0863 291.346  12
   4  -2  -9 1244.90 504.200  20
   4  -2  -9 1069.03 423.943  12
   4  -2  -8 2794.87 632.578  12
   4  -2  -8 857.960 427.436  20
   4  -2  -7 6559.24 1027.62  20
   4  -2  -7 7017.02 894.124  12
   4  -2  -6 9342.33 1228.32   2
   4  -2  -5 8980.77 1297.70   2
   4  -2  -4 4039.58 943.833   2
   4  -2  -3 448.225 415.641   2
   4  -2  -2 252527. 6763.40   2
   4  -2  -1 15704.1 1711.64   2
   4  -2   0-6.57028 421.689   2
   4  -2   1 48639.0 2816.59   2
   4  -2   1 40360.4 1381.62   5
   4  -2   2 520.561 196.304   5
   4  -2   2 320.126 286.298   2
   4  -2   3 16952.8 1183.61   5
   4  -2   4 2642.10 516.672   5
   4  -2   4 2849.12 635.634   8
   4  -2   4 3008.77 527.104  18
   4  -2   5 2422.04 550.072   5
   4  -2   5 2144.73 585.475   8
   4  -2   5 2767.15 479.115  18
   4  -2   6 240.634 168.508   5
   4  -2   6 891.162 389.030   8
   4  -2   7 572.322 365.749   8
   4  -2   8 10712.4 1078.47   8
   4  -2   8 10624.5 1118.54  11
   4  -2   9 13302.7 947.217   8
   4  -1 -13 8076.86 560.662   9
   4  -1 -12 3699.00 555.892  20
   4  -1 -12 4077.40 561.432  12
   4  -1 -11 318.010 325.896  20
   4  -1 -11-160.832 230.106  12
   4  -1 -10 300.268 343.810  20
   4  -1 -10-406.543 273.210  12
   4  -1  -9 12547.6 1321.38  12
   4  -1  -9 11142.2 1310.15  20
   4  -1  -8 20463.9 1777.79  20
   4  -1  -8 25863.0 1823.35  12
   4  -1  -7 15867.8 1548.25  20
   4  -1  -7 19728.7 1473.04  12
   4  -1  -6 51554.7 2891.73   2
   4  -1  -5 9476.42 1295.21   2
   4  -1  -4 14705.7 1644.51   2
   4  -1  -3 56851.9 3202.19   2
   4  -1  -2 82577.9 3872.90   2
   4  -1  -1 8129.99 1212.99   2
   4  -1   0 1.22034 79.4007   5
   4  -1   0-36.9900 212.126   2
   4  -1   1 7868.36 675.177   5
   4  -1   1 9728.78 1249.48   2
   4  -1   2 144.851 134.397   5
   4  -1   2-157.042 219.143   2
   4  -1   3 8384.46 862.035   5
   4  -1   3 8307.59 874.122  18
   4  -1   4 19931.2 1442.87   5
   4  -1   4 21905.0 1393.81  18
   4  -1   4 20766.6 1616.50  17
   4  -1   5 21786.0 1584.39   5
   4  -1   5 24631.7 1894.24   8
   4  -1   5 23992.4 1366.97  18
   4  -1   6 1564.44 423.501   5
   4  -1   6 2180.28 580.101   8
   4  -1   7 10446.7 1144.57   8
   4  -1   8 5573.56 731.196   8
   4  -1   9 8484.06 687.490   8
   4   0 -13 2713.72 337.980   9
   4   0 -12 5000.63 594.559   9
   4   0 -12 4999.78 616.503  12
   4   0 -11 7510.80 858.389  12
   4   0 -11 7576.33 919.628  20
   4   0 -10 26877.9 1793.05  12
   4   0 -10 25669.8 1797.45  20
   4   0  -9 9807.09 1103.07  12
   4   0  -9 10687.6 1219.82  20
   4   0  -8 23076.8 1822.86  20
   4   0  -8 25698.7 1757.40  12
   4   0  -7 22525.6 1795.43  20
   4   0  -7 25930.1 1650.95  12
   4   0  -6 142697. 4900.07   2
   4   0  -5 38733.4 2683.38   2
   4   0  -4 13449.9 1634.64   2
   4   0  -3-255.476 342.939   2
   4   0  -2 28348.8 2379.05   2
   4   0  -1 20473.2 2015.31   2
   4   0   0 64239.5 3471.09   2
   4   0   1 24740.3 2069.65   2
   4   0   1 22611.8 1275.37   5
   4   0   2 3267.94 555.798   5
   4   0   3 25364.9 1549.54  18
   4   0   3 26815.5 1772.18  17
   4   0   3 22952.1 1523.18   5
   4   0   4 37510.5 2073.30   5
   4   0   4 40483.6 1913.07  18
   4   0   4 41726.7 2367.19  17
   4   0   5 48239.6 2412.52   5
   4   0   5 52856.9 2731.28  17
   4   0   6 23314.6 1639.01   5
   4   0   6 24082.0 1789.90   8
   4   0   7 3154.13 636.912   8
   4   0   8 1413.61 381.532   8
   4   0   9 4429.27 413.957   8
   4   1 -13 4136.01 389.530   9
   4   1 -12 20635.6 1147.82   9
   4   1 -11 11372.9 1014.61   9
   4   1 -10 23703.4 1598.88   9
   4   1 -10 24660.3 1663.12  12
   4   1 -10 24593.1 1673.20  20
   4   1  -9 10837.1 1119.32   9
   4   1  -9 11576.2 1191.72  12
   4   1  -9 11114.8 1176.89  20
   4   1  -8 23055.3 1605.16   9
   4   1  -8 23895.3 1670.79  12
   4   1  -8 25113.7 1786.88  20
   4   1  -7 44489.3 2399.39  15
   4   1  -7 47008.4 2210.70  12
   4   1  -7 45720.2 2106.48   9
   4   1  -7 47100.1 2355.23  20
   4   1  -6 29862.7 2356.71   2
   4   1  -6 31040.2 2053.02  15
   4   1  -5 6084.75 1123.43   2
   4   1  -4 26025.0 2369.44   2
   4   1  -3 2633.33 787.163   2
   4   1  -2 116251. 5062.87   2
   4   1  -1 67357.6 3850.08   2
   4   1   0 34420.9 2683.17   2
   4   1   1 59713.0 2065.37   7
   4   1   1 61005.3 3427.21   2
   4   1   2 23006.2 1547.96   5
   4   1   2 22688.5 1360.45   7
   4   1   3 58954.3 2615.08   5
   4   1   3 67302.3 2966.56  17
   4   1   4 41103.5 2253.75   5
   4   1   4 41179.5 1908.71  18
   4   1   4 45257.8 2534.00  17
   4   1   5 30859.8 1951.98   5
   4   1   5 31123.3 2122.39  17
   4   1   6 7058.67 983.858   8
   4   1   7 193.639 232.226   8
   4   1   8 5530.20 565.517   8
   4   2 -13 5402.57 388.458   9
   4   2 -12 12760.3 842.682   9
   4   2 -11 8736.70 843.218   9
   4   2 -10 4890.32 710.887   9
   4   2  -9 6435.37 856.738   9
   4   2  -8 3271.75 604.142   9
   4   2  -8 3752.46 633.587  20
   4   2  -7 22319.5 1530.43   9
   4   2  -7 24849.5 1790.14  15
   4   2  -6 40645.9 1924.61   9
   4   2  -6 42377.1 2934.87   2
   4   2  -6 41573.9 2422.74  15
   4   2  -5 42744.7 3134.90   2
   4   2  -5 40419.3 1785.80   9
   4   2  -5 46932.6 2608.57  15
   4   2  -5 40571.1 1763.43  14
   4   2  -4 12661.9 1738.06   2
   4   2  -4 15181.1 1483.19  15
   4   2  -3 10081.1 1623.46   2
   4   2  -3 12113.7 975.210   7
   4   2  -2 102432. 5075.58   2
   4   2  -2 100030. 2713.39   7
   4   2  -1 79919.1 4449.19   2
   4   2  -1 79547.1 2394.76   7
   4   2   0 36067.3 1630.18   7
   4   2   0 37590.6 2977.41   2
   4   2   0 33173.5 1614.55  14
   4   2   1 76092.1 2445.62   7
   4   2   1 79027.0 4038.99   2
   4   2   2 5173.00 838.133  17
   4   2   3 20313.1 1692.02  17
   4   2   4 6139.42 716.423  18
   4   2   4 6579.91 987.513  17
   4   2   5 23342.3 1756.05  17
   4   2   6 16738.3 1313.21   8
   4   2   7 3694.22 524.839   8
   4   3 -12 930.839 203.913  14
   4   3 -11 2021.52 401.059   9
   4   3 -11 1644.59 345.684  14
   4   3 -10 4659.44 665.731   9
   4   3 -10 4141.11 588.590  14
   4   3  -9 11900.1 1101.39   9
   4   3  -8 5614.98 785.486   9
   4   3  -8 5593.46 741.133  14
   4   3  -7 1328.97 407.361   9
   4   3  -7 1189.53 362.847  14
   4   3  -6 30886.2 1753.36  14
   4   3  -5 37553.9 3047.88   2
   4   3  -5 34235.6 1798.52  14
   4   3  -4 47972.0 3578.36   2
   4   3  -4 45453.4 2024.54  14
   4   3  -3 28882.9 2830.13   2
   4   3  -3 31855.5 1647.56   7
   4   3  -3 30757.6 1660.46  14
   4   3  -2 18047.5 2256.18   2
   4   3  -2 18085.8 1212.58   7
   4   3  -2 17783.9 1265.78  14
   4   3  -1 5491.82 655.313   7
   4   3  -1 4982.58 688.186  14
   4   3  -1 5535.05 1286.60   2
   4   3  -1 5195.90 722.841  10
   4   3   0 9810.24 867.390   7
   4   3   0 9977.28 1082.65  17
   4   3   0 10001.5 1017.02  14
   4   3   1 74574.3 3142.10  17
   4   3   2 2606.91 592.790  17
   4   3   3 491.041 320.616  17
   4   3   4 17738.8 1084.82  18
   4   3   4 18841.1 1577.53  17
   4   3   5 20472.9 1485.73  17
   4   3   6 13223.6 988.167   8
   4   4 -11 3663.82 414.280  14
   4   4 -10 5275.80 602.582  14
   4   4  -9 1108.93 336.740  14
   4   4  -8 2108.31 477.146  14
   4   4  -7 2324.05 524.782  14
   4   4  -6 74023.8 2801.59  14
   4   4  -5 7382.72 837.384   7
   4   4  -5 6909.24 877.805  14
   4   4  -4 184.184 171.116   7
   4   4  -4 277.707 283.219  14
   4   4  -3 2250.99 439.688   7
   4   4  -3 1833.85 452.415  14
   4   4  -2 1535.01 438.526  14
   4   4  -2 1296.54 436.573  10
   4   4  -1 12782.3 1227.86  14
   4   4  -1 14698.7 1286.19  10
   4   4   0 19738.4 1627.19  17
   4   4   0 17375.9 1419.12  14
   4   4   1 6139.59 922.406  17
   4   4   2 249.909 347.326  17
   4   4   3 5781.09 663.513  18
   4   4   3 5735.05 852.312  17
   4   4   4 24233.5 1576.73  17
   4   5 -10 5224.65 458.041   7
   4   5 -10 4674.46 476.330  14
   4   5  -9 990.441 277.724  14
   4   5  -8 944.975 260.297   7
   4   5  -8 849.018 293.399  14
   4   5  -7 532.610 236.616   7
   4   5  -7 722.224 295.886  14
   4   5  -6 1748.70 369.763   7
   4   5  -6 1006.39 351.577  14
   4   5  -5 301.464 265.111  14
   4   5  -4 3897.69 664.338  14
   4   5  -3 8923.48 1015.09  14
   4   5  -3 10659.4 1038.15  10
   4   5  -2 153.918 219.931  14
   4   5  -2 15.7280 72.3714  10
   4   5  -1 441.486 234.922  17
   4   5  -1 282.680 337.894  14
   4   5   0 7317.59 983.959  17
   4   5   1 25156.9 1738.42  17
   4   5   2 6295.49 829.765  17
   4   5   3 6590.89 770.880  17
   4   5   4 2483.52 380.130  17
   4   6  -9 1030.17 218.603  14
   4   6  -8 133.686 136.703  14
   4   6  -7 637.098 225.191  14
   4   6  -6 910.006 324.463  14
   4   6  -5 1477.55 399.066  14
   4   6  -4 1924.93 451.902  14
   4   6  -4 2386.33 410.337  10
   4   6  -3 6039.20 787.243  14
   4   6  -2 3047.60 569.968  17
   4   6  -2 2197.52 500.487  14
   4   6  -1 11664.4 1083.46  17
   4   6   0 5876.76 738.145  17
   4   6   1 5643.18 684.662  17
   4   6   2 2410.92 371.889  17
   4   7  -6 5070.98 479.930  14
   4   7  -5 12432.9 818.542  14
   4   7  -4 13007.7 811.288  17
   4   7  -3 4276.66 489.719  17
   4   7  -2 553.429 186.603  17
   5 -10  -5 5359.18 803.017  16
   5 -10  -4 4280.13 777.435  16
   5 -10  -2 2522.37 519.023  20
   5 -10  -1 3503.29 710.549  20
   5 -10  -1 3740.38 586.532  13
   5 -10   0 4419.60 792.515  20
   5 -10   0 4745.50 647.016  13
   5 -10   1 961.382 409.418  20
   5 -10   1 527.637 226.336  13
   5 -10   2 8832.39 1034.60  20
   5 -10   2 7880.32 788.917  13
   5 -10   3 308.567 253.364  20
   5 -10   3 231.024 157.078  13
   5 -10   4 848.817 283.076  20
   5  -9  -7 1211.37 455.547  16
   5  -9  -6 7899.39 1308.02  16
   5  -9  -5 11016.3 1057.17  20
   5  -9  -5 13118.1 1877.34  16
   5  -9  -4 2479.37 607.066  20
   5  -9  -4 2382.76 808.997  16
   5  -9  -3 5230.45 912.678  20
   5  -9  -3 4790.92 1177.75  16
   5  -9  -2 2289.82 670.881  20
   5  -9  -2 2063.29 498.794  13
   5  -9  -1 3255.62 870.179  20
   5  -9  -1 3453.11 637.696  13
   5  -9   0 3558.33 855.906  20
   5  -9   0 2655.58 571.574  13
   5  -9   1 2966.10 602.883  13
   5  -9   2 19281.0 1453.44  13
   5  -9   3 2849.21 552.043  13
   5  -9   4 1048.76 336.737  13
   5  -9   5 10490.5 792.631  13
   5  -8  -8 5271.58 977.055  16
   5  -8  -7 702.494 256.096  20
   5  -8  -7 1757.45 837.292  16
   5  -8  -6-221.580 252.074  20
   5  -8  -6-263.665 291.612  16
   5  -8  -5 6348.70 1531.39  16
   5  -8  -5 6009.64 982.725  20
   5  -8  -4 3049.70 755.370  20
   5  -8  -4 4079.88 1202.02  16
   5  -8  -3 3676.93 863.210  20
   5  -8  -3 3540.14 1159.04  16
   5  -8  -3 3438.35 664.173  13
   5  -8  -2 514.468 381.113  20
   5  -8  -2 142.175 332.131  16
   5  -8  -2 688.011 283.060  13
   5  -8  -1 627.333 439.126  20
   5  -8  -1 364.288 229.905  13
   5  -8   0 3790.10 670.450  13
   5  -8   1 28198.2 1830.43  13
   5  -8   2 17608.6 1439.05  13
   5  -8   2 13890.7 1360.88  11
   5  -8   3 2552.18 550.343  13
   5  -8   3 1607.84 466.998  11
   5  -8   4 160.324 173.858  13
   5  -8   4 147.449 251.717  11
   5  -8   5 6099.22 719.664  13
   5  -8   5 5110.84 749.318  11
   5  -8   6 687.404 201.369  13
   5  -8   6 491.003 231.861  11
   5  -7  -9-89.2498 328.276  16
   5  -7  -9 213.791 152.102  12
   5  -7  -8 122.069 225.674  20
   5  -7  -8-128.184 395.454  16
   5  -7  -7 1850.41 831.489  16
   5  -7  -7 1722.66 509.052  20
   5  -7  -6 1836.75 628.076  20
   5  -7  -6 3437.51 1217.51  16
   5  -7  -5 1828.57 961.490  16
   5  -7  -5 1700.79 617.095  20
   5  -7  -4-25.9877 206.630  20
   5  -7  -4-766.910 733.101  16
   5  -7  -3 1045.59 543.127  20
   5  -7  -3 2142.97 877.761  16
   5  -7  -2 12035.6 1499.41  20
   5  -7  -2 13628.5 2125.87  16
   5  -7  -1 2454.39 567.759  11
   5  -7   0 2615.47 635.441  11
   5  -7   1 4126.08 836.418  11
   5  -7   2 3286.53 758.255  11
   5  -7   3 205.414 224.648  13
   5  -7   3 824.191 415.919  11
   5  -7   4 37.9628 102.307  13
   5  -7   4 574.379 373.365  11
   5  -7   5-213.475 208.178  13
   5  -7   5-110.005 312.650  11
   5  -7   6 400.301 311.946  11
   5  -7   7 306.740 274.817  11
   5  -6 -10 529.454 200.167  20
   5  -6 -10 327.754 149.202  12
   5  -6  -9 330.113 238.748  20
   5  -6  -9-281.100 407.635  16
   5  -6  -9 3.46236 128.156  12
   5  -6  -8 4167.37 863.341  20
   5  -6  -8 4907.01 1219.14  16
   5  -6  -7 633.782 497.893  20
   5  -6  -7 1572.82 851.458  16
   5  -6  -6 796.591 538.196  16
   5  -6  -6 1031.77 477.219  20
   5  -6  -5 595.095 355.241  20
   5  -6  -5 689.157 647.172  16
   5  -6  -4 5902.56 1054.49  20
   5  -6  -4 6139.41 1503.13  16
   5  -6  -4 5278.45 792.362  11
   5  -6  -3 31447.9 3354.22  16
   5  -6  -3 27233.0 2175.03  20
   5  -6  -3 27652.3 1804.82  11
   5  -6  -2 1445.45 516.568  20
   5  -6  -2 1669.95 500.264  11
   5  -6  -1 1363.30 463.660  11
   5  -6   0-27.4460 376.302  11
   5  -6   1 806.948 385.726  11
   5  -6   2 6628.30 1108.64  11
   5  -6   3 126.652 384.237  11
   5  -6   4 1392.53 548.662  11
   5  -6   5 229.361 341.692  11
   5  -6   6 564.963 432.031  11
   5  -6   7 3308.92 676.627  11
   5  -6   8 2301.21 439.100  11
   5  -5 -11 22.1613 98.6783  20
   5  -5 -11 173.423 111.652  12
   5  -5 -10 1724.64 454.682  20
   5  -5 -10 1962.60 444.782  12
   5  -5  -9 4272.18 827.462  20
   5  -5  -9 5236.70 1215.22  16
   5  -5  -9 5395.04 745.610  12
   5  -5  -8 16115.3 1668.78  20
   5  -5  -8 24695.3 2809.66  16
   5  -5  -7 752.811 484.768  20
   5  -5  -7-84.5772 393.082  16
   5  -5  -6 3354.68 842.585  20
   5  -5  -6 4069.87 1349.34  16
   5  -5  -5 9631.34 1310.14  20
   5  -5  -5 10734.0 2130.05  16
   5  -5  -4 165.815 305.399  20
   5  -5  -4-52.5183 530.706  16
   5  -5  -4 378.948 223.368  11
   5  -5  -3 39174.9 2451.47  20
   5  -5  -3 37155.1 2069.47  11
   5  -5  -2 118.219 170.419  20
   5  -5  -2 401.894 245.733  11
   5  -5  -1-188.732 245.773  18
   5  -5  -1 780.636 339.064  11
   5  -5   0 653.365 323.792  18
   5  -5   0 1375.75 533.957  11
   5  -5   1 112.012 212.736  18
   5  -5   1 614.663 363.164  11
   5  -5   2 20461.7 1573.71  18
   5  -5   2 21481.6 1952.11  11
   5  -5   3 7083.14 908.939  18
   5  -5   3 5202.20 1047.06  11
   5  -5   4 1136.43 378.115   8
   5  -5   4 2614.16 558.446  18
   5  -5   4 1452.59 526.968  11
   5  -5   5 18941.8 1949.30  11
   5  -5   6 1354.79 695.857  11
   5  -5   7 7029.60 1014.49  11
   5  -5   8 1091.03 328.565  11
   5  -4 -12 6301.38 477.246  12
   5  -4 -12 6711.64 486.944  20
   5  -4 -11 991.333 310.794  20
   5  -4 -11 1055.03 295.780  12
   5  -4 -10 9376.94 1062.20  20
   5  -4 -10 10304.7 999.684  12
   5  -4  -9 16824.6 1630.42  20
   5  -4  -9 20348.4 1537.84  12
   5  -4  -8 13294.6 1552.29  20
   5  -4  -8 18385.6 2440.28  16
   5  -4  -8 17347.5 1432.93  12
   5  -4  -7 2569.67 759.062  20
   5  -4  -7 3007.37 1016.44  16
   5  -4  -6 3648.47 845.703  20
   5  -4  -6 5095.46 1365.87  16
   5  -4  -5 14050.7 1511.94  20
   5  -4  -5 17116.6 2421.42  16
   5  -4  -5 15193.2 1334.32  11
   5  -4  -4 1007.87 468.143  20
   5  -4  -4 1059.40 752.899  16
   5  -4  -4 118.059 162.268  11
   5  -4   0 7332.52 892.122  18
   5  -4   0 9361.96 1142.49  11
   5  -4   1 14300.5 1277.13  18
   5  -4   1 15242.5 1520.74  11
   5  -4   2 38280.8 2104.72  18
   5  -4   2 36085.6 2441.41  11
   5  -4   3 9634.66 1105.71   8
   5  -4   3 11938.3 1520.20  11
   5  -4   4 5346.38 846.429   8
   5  -4   4 5717.58 791.975  18
   5  -4   4 4758.85 977.848  11
   5  -4   5 34995.5 2177.83   8
   5  -4   5 38820.6 1822.36  18
   5  -4   6 3508.02 703.931   8
   5  -4   6 3557.10 849.777  11
   5  -4   7 1013.79 343.549   8
   5  -4   7 799.028 406.205  11
   5  -4   8 3632.97 540.899  11
   5  -3 -12 22953.6 1039.56  12
   5  -3 -12 24267.1 1130.55  20
   5  -3 -11 355.514 255.251  20
   5  -3 -11-37.0451 136.975  12
   5  -3 -10 7054.82 974.962  20
   5  -3 -10 8523.04 931.311  12
   5  -3  -9 12247.7 1429.13  20
   5  -3  -9 14328.3 1306.04  12
   5  -3  -8 5343.90 1018.44  20
   5  -3  -8 5558.23 809.067  12
   5  -3  -7 16859.4 1768.46  20
   5  -3  -6 28766.4 3031.89  16
   5  -3  -6 17198.3 1714.68  20
   5  -3  -5 2976.89 727.213  20
   5  -3  -5 4905.40 1309.71  16
   5  -3  -5 2953.66 591.501  11
   5  -3  -4 4145.41 1043.39   2
   5  -3  -3 45288.3 3388.10   2
   5  -3  -2 155994. 6245.80   2
   5  -3  -1 39594.7 3095.29   2
   5  -3   0 11646.5 1677.29   2
   5  -3   1 36295.4 2037.84  18
   5  -3   1 34576.3 2188.87  11
   5  -3   2 28268.1 1827.22  18
   5  -3   2 26093.9 2026.71  11
   5  -3   3 20945.9 1661.91   8
   5  -3   3 26793.1 1754.97  18
   5  -3   3 22175.7 1954.81  11
   5  -3   4 15003.0 1464.35   8
   5  -3   4 16293.9 1296.66  18
   5  -3   4 11715.1 1480.12  11
   5  -3   5 9110.61 1142.80   8
   5  -3   5 9804.89 913.152  18
   5  -3   5 8273.70 1229.68  11
   5  -3   6 418.952 194.330  18
   5  -3   6 554.712 343.861   8
   5  -3   6 317.020 330.224  11
   5  -3   7 4771.66 686.513   8
   5  -3   7 4095.76 704.619  11
   5  -3   8 10041.8 746.272  11
   5  -2 -12 9118.97 622.270   9
   5  -2 -12 9590.64 718.471  12
   5  -2 -12 10218.9 802.962  20
   5  -2 -11 1969.09 470.288  20
   5  -2 -11 1856.75 387.052  12
   5  -2 -10 3084.16 684.242  20
   5  -2 -10 2779.87 555.772  12
   5  -2  -9 15743.2 1569.11  20
   5  -2  -9 20854.0 1533.10  12
   5  -2  -8 3092.85 758.629  20
   5  -2  -8 3038.92 570.751  12
   5  -2  -7 33938.6 2438.35  20
   5  -2  -6 11487.9 1381.27  20
   5  -2  -6 17454.6 1948.70   2
   5  -2  -5 11849.3 1736.50   2
   5  -2  -4 37416.2 3079.54   2
   5  -2  -3 111200. 5324.40   2
   5  -2  -2 79643.9 4497.80   2
   5  -2  -1 21158.8 2306.82   2
   5  -2   0 3302.64 616.637  18
   5  -2   0 3246.78 509.161   7
   5  -2   0 2999.86 884.877   2
   5  -2   1 40796.5 2183.64  18
   5  -2   1 38938.9 1851.69   7
   5  -2   1 42020.2 2972.27   2
   5  -2   1 35043.4 2125.22  11
   5  -2   2 2888.23 474.961   5
   5  -2   2 2465.98 575.297   8
   5  -2   2 3647.01 654.219  18
   5  -2   2 1881.63 531.540  11
   5  -2   3 18806.7 1298.82   5
   5  -2   3 19199.8 1611.24   8
   5  -2   3 22344.4 1599.41  18
   5  -2   3 18865.9 1739.87  11
   5  -2   4 16371.3 1271.51   5
   5  -2   4 19051.0 1647.65   8
   5  -2   4 19484.9 1425.95  18
   5  -2   4 17017.8 1666.15  11
   5  -2   5 11649.4 1080.85   5
   5  -2   5 15410.0 1460.78   8
   5  -2   5 16058.7 1121.44  18
   5  -2   5 12905.4 1405.69  11
   5  -2   6 1544.14 496.164   8
   5  -2   6 935.465 347.457  11
   5  -2   7 16331.3 1220.71   8
   5  -2   8 13361.2 852.620   8
   5  -1 -12 119.417 105.996   9
   5  -1 -12 268.389 177.215  20
   5  -1 -11 53.3535 207.529  20
   5  -1 -11-145.043 144.517   9
   5  -1 -11 42.1179 65.6245  12
   5  -1 -10 5239.36 671.017   9
   5  -1 -10 5904.35 773.024  12
   5  -1 -10 4754.83 798.427  20
   5  -1  -9 10142.0 1206.55  20
   5  -1  -9 11521.4 1029.54   9
   5  -1  -9 9340.34 1080.92  15
   5  -1  -9 10953.3 1081.25  12
   5  -1  -8 1923.54 573.785  20
   5  -1  -8 2955.29 556.016  12
   5  -1  -7 32415.0 2262.52  20
   5  -1  -6 21600.4 1828.10  20
   5  -1  -6 27041.7 2440.69   2
   5  -1  -5 19119.4 2129.63   2
   5  -1  -4 1441.77 688.089   2
   5  -1  -3 27630.3 2636.16   2
   5  -1  -2 2338.27 901.783   2
   5  -1  -1 14270.3 1252.43  18
   5  -1  -1 13536.3 1028.84   7
   5  -1  -1 14281.3 1878.49   2
   5  -1   0 10593.7 1132.43  18
   5  -1   0 10215.6 924.522   7
   5  -1   0 10017.6 1503.04   2
   5  -1   1 9623.19 868.083   5
   5  -1   1 10632.3 1153.45  18
   5  -1   1 9143.42 938.686   7
   5  -1   1 9900.77 1475.46   2
   5  -1   2 880.474 298.485   5
   5  -1   2 785.941 365.111  18
   5  -1   3 22217.6 1497.20   5
   5  -1   3 22556.5 1783.90   8
   5  -1   3 24009.2 1663.68  18
   5  -1   4 21574.1 1775.29   8
   5  -1   4 22813.9 1505.50  18
   5  -1   4 18783.7 1422.82   5
   5  -1   5 36691.4 2210.96   8
   5  -1   5 34921.9 1581.39  18
   5  -1   6 5257.03 776.470   8
   5  -1   7 8672.58 827.903   8
   5  -1   8 4474.25 429.254   8
   5   0 -12 1748.55 305.777   9
   5   0 -11 1273.00 364.655  20
   5   0 -11 1140.54 297.397   9
   5   0 -10 2407.55 544.886  20
   5   0 -10 2562.54 467.213   9
   5   0  -9 65.8030 207.186  20
   5   0  -9 182.512 153.935   9
   5   0  -8 2001.64 514.378  20
   5   0  -8 2087.40 438.035   9
   5   0  -8 2134.00 575.393  15
   5   0  -7 16364.3 1464.56  20
   5   0  -7 14042.3 1508.56  15
   5   0  -6 3350.80 774.192  15
   5   0  -6 5029.71 1059.01   2
   5   0  -5-264.578 299.592  15
   5   0  -5-166.801 281.053   2
   5   0  -4 3608.71 567.450   7
   5   0  -4 3725.52 789.773  15
   5   0  -4 3627.74 997.667   2
   5   0  -3 790.034 265.004   7
   5   0  -3 525.121 362.204  15
   5   0  -3 810.010 491.068   2
   5   0  -2 6890.43 774.022   7
   5   0  -2 8441.72 1489.06   2
   5   0  -2 8393.99 1115.14  15
   5   0  -1 11180.6 985.491   7
   5   0  -1 9923.84 1147.35  15
   5   0  -1 10470.0 1648.38   2
   5   0   0 5013.20 678.487   7
   5   0   0 4467.30 1058.87   2
   5   0   1 1881.48 501.396  18
   5   0   1 1540.72 413.923   7
   5   0   2 5812.63 884.064  18
   5   0   3 17291.8 1416.37  18
   5   0   4 18711.7 1615.69   8
   5   0   4 18591.4 1324.87  18
   5   0   5 16966.9 1445.73   8
   5   0   5 15310.3 962.740  18
   5   0   6 353.683 266.680   8
   5   0   7 66.7036 127.911   8
   5   1 -12 4303.36 413.634   9
   5   1 -11 156.885 125.699   9
   5   1 -11-241.969 149.784  14
   5   1 -10-43.4017 172.202   9
   5   1 -10-277.879 203.156  20
   5   1  -9-318.458 184.503  20
   5   1  -9 22.3753 101.212   9
   5   1  -8 930.768 291.521   9
   5   1  -8 1548.17 451.676  15
   5   1  -7 4996.31 645.344   9
   5   1  -7 3948.89 794.912  15
   5   1  -6 453.715 334.411  15
   5   1  -5 282.827 324.902  15
   5   1  -5-389.847 509.538   2
   5   1  -4 3643.33 615.025   7
   5   1  -4 3452.92 776.508  15
   5   1  -4 3171.94 953.342   2
   5   1  -3-196.047 196.844   7
   5   1  -3 358.566 271.228  15
   5   1  -3 445.882 339.743   2
   5   1  -2 16954.6 1265.75   7
   5   1  -2 15808.8 2146.31   2
   5   1  -1 9026.00 930.846   7
   5   1  -1 7884.76 1472.33   2
   5   1   0 5151.18 727.519   7
   5   1   1 5837.95 748.009   7
   5   1   2 17.1348 201.443  18
   5   1   3 836.163 317.502  18
   5   1   3 1053.84 364.057  17
   5   1   4 730.221 283.982  18
   5   1   4 1043.60 349.364  17
   5   1   5 1553.09 435.274   8
   5   1   6 681.385 263.793   8
   5   2 -11 19.8887 89.9700  14
   5   2 -10-98.1772 126.280   9
   5   2 -10-57.2168 117.684  14
   5   2  -9 3458.89 528.727   9
   5   2  -9 3358.46 510.630  14
   5   2  -8 6934.52 754.622  14
   5   2  -7 7158.62 792.644  14
   5   2  -6-109.090 115.613  14
   5   2  -5 4193.31 685.807   7
   5   2  -4 7705.23 916.302   7
   5   2  -3 7573.86 892.387   7
   5   2  -2 5885.35 770.272   7
   5   2  -1 305.279 202.212   7
   5   2   0-346.410 199.065   7
   5   2   1 20511.3 1642.97  17
   5   2   2 8079.84 958.060  18
   5   2   2 8867.70 1067.88  17
   5   2   3 468.096 231.500  18
   5   2   3 395.234 278.070  17
   5   2   4 1402.25 280.948  18
   5   2   5 969.914 308.394   8
   5   3 -11 1556.68 284.163   7
   5   3 -11 1219.94 204.343  14
   5   3 -10 3122.36 415.136  14
   5   3  -9 3206.53 480.256  14
   5   3  -8 986.604 296.795  14
   5   3  -7 23892.9 1448.27  14
   5   3  -6 33463.0 1868.81   7
   5   3  -6 29185.1 1629.04  14
   5   3  -5 8333.94 934.545   7
   5   3  -5 7157.74 824.463  14
   5   3  -4 2236.08 483.038   7
   5   3  -4 2221.57 451.678  14
   5   3  -3 214.043 153.141   7
   5   3  -3 146.988 200.195  14
   5   3  -2 967.500 351.050   7
   5   3  -2 1024.57 362.230  14
   5   3  -1 10070.8 942.894   7
   5   3  -1 11038.8 1137.96  17
   5   3   0 13090.4 1268.88  17
   5   3   1 2695.43 591.873  17
   5   3   2 7374.44 850.027  18
   5   3   2 7387.06 913.283  17
   5   3   3 2168.84 391.411  18
   5   3   3 2543.95 510.869  17
   5   3   4 16105.2 1086.73   8
   5   4 -10 9079.37 611.719   7
   5   4 -10 6936.59 487.578  14
   5   4  -9 2684.22 395.755   7
   5   4  -9 2164.60 352.961  14
   5   4  -8 4147.93 541.565   7
   5   4  -8 3753.92 509.779  14
   5   4  -7 16618.5 1143.41   7
   5   4  -7 14113.9 1070.50  14
   5   4  -6 8820.91 856.068   7
   5   4  -6 8427.40 871.169  14
   5   4  -5 1460.99 352.604   7
   5   4  -5 1580.21 395.195  14
   5   4  -4 10489.9 905.426   7
   5   4  -4 9399.06 960.276  14
   5   4  -3 7784.48 760.756   7
   5   4  -3 6045.44 794.924  14
   5   4  -2 1390.34 414.819  17
   5   4  -2 1971.27 468.869  14
   5   4  -1 4654.01 690.645  17
   5   4   0 11931.4 1123.26  17
   5   4   1 14210.7 1138.80  17
   5   4   2 7452.29 666.890  18
   5   4   2 7100.90 716.836  17
   5   5  -8 1809.14 297.641  14
   5   5  -7 4609.98 523.796  14
   5   5  -6 2050.88 387.875  14
   5   5  -5 3339.89 521.721  14
   5   5  -4 5367.33 663.797  14
   5   5  -2 5338.98 623.997  17
   5   5  -1 18284.6 1127.19  17
   5   5   0 18773.7 1099.21  18
   5   5   0 16437.8 984.986  17
   5   5   1 9675.79 626.143  18
   6 -10  -3 906.692 306.077  20
   6 -10  -2 1137.79 386.545  20
   6 -10  -1 301.867 262.814  20
   6 -10   0-278.155 273.439  20
   6 -10   1 1592.56 487.566  20
   6 -10   2 1373.63 373.601  20
   6  -9  -6 3215.20 499.507  20
   6  -9  -5 6343.82 878.553  20
   6  -9  -5 6047.63 1093.11  16
   6  -9  -4 397.832 311.494  20
   6  -9  -4-64.6658 216.512  16
   6  -9  -3 3257.61 726.672  20
   6  -9  -2 337.600 414.026  20
   6  -9  -1 866.050 473.239  20
   6  -9   0 2046.51 674.587  20
   6  -9   1 11256.8 1394.25  20
   6  -9   2 4419.15 827.709  20
   6  -9   3 875.364 391.964  20
   6  -9   4 1597.57 357.458  20
   6  -8  -8 983.094 263.337  20
   6  -8  -7 1497.24 429.042  20
   6  -8  -7 979.717 515.587  16
   6  -8  -6 6187.47 964.393  20
   6  -8  -6 9878.59 1616.85  16
   6  -8  -5 15328.7 1582.75  20
   6  -8  -5 12570.5 1948.95  16
   6  -8  -4 4096.62 884.789  20
   6  -8  -4 3413.66 1070.82  16
   6  -8  -3 17783.6 1862.77  20
   6  -8  -3 18775.5 2183.56  16
   6  -8  -2 6873.10 1246.70  20
   6  -8  -1 17439.7 1867.11  20
   6  -8  -1 13344.8 1242.70  11
   6  -8   0 12711.2 1595.84  20
   6  -8   0 9785.01 1108.88  11
   6  -8   1 29692.5 1963.01  11
   6  -8   2 4287.02 755.408  11
   6  -8   3 4113.18 732.569  11
   6  -8   4 3779.63 642.941  11
   6  -8   5 2461.42 419.704  20
   6  -8   5 1823.62 378.178  11
   6  -7  -9 6144.60 645.222  20
   6  -7  -8 5311.71 789.429  20
   6  -7  -7 9086.84 1186.54  20
   6  -7  -7 13115.2 2027.59  16
   6  -7  -6 13113.6 1513.43  20
   6  -7  -6 14189.9 2207.08  16
   6  -7  -5 15787.4 1745.26  20
   6  -7  -5 14314.2 2205.82  16
   6  -7  -4 29094.9 2409.54  20
   6  -7  -4 26664.6 3075.11  16
   6  -7  -3 48950.0 3147.43  20
   6  -7  -3 59268.9 4241.82  16
   6  -7  -3 52492.1 2603.28  11
   6  -7  -2 31929.8 2538.92  20
   6  -7  -2 29593.2 2018.28  11
   6  -7  -1 23506.0 2196.03  20
   6  -7  -1 22272.2 1814.73  11
   6  -7   0 8000.86 1256.33  20
   6  -7   0 8126.40 1181.28  11
   6  -7   1 31943.2 2280.00  11
   6  -7   2 13452.0 1514.70  11
   6  -7   3 5339.88 958.888  11
   6  -7   4 9944.43 1195.30  11
   6  -7   5 510.854 311.431  11
   6  -7   6 10103.4 872.615  11
   6  -6 -10 8650.26 717.004  20
   6  -6  -9 10314.9 1055.91  20
   6  -6  -8 15656.2 1550.87  20
   6  -6  -7 8664.14 1272.31  20
   6  -6  -7 10843.1 1993.12  16
   6  -6  -6 13613.7 1609.60  20
   6  -6  -6 17259.0 2545.65  16
   6  -6  -5 33788.3 2586.89  20
   6  -6  -5 41611.4 3984.58  16
   6  -6  -4 31342.7 2488.38  20
   6  -6  -4 37665.3 3718.53  16
   6  -6  -4 31035.7 2083.44  11
   6  -6  -3 47523.4 3037.24  20
   6  -6  -3 49732.6 2667.86  11
   6  -6  -2 14938.9 1737.99  20
   6  -6  -2 13844.4 1461.36  11
   6  -6  -1 7587.38 1195.04  20
   6  -6  -1 7536.60 1118.18  11
   6  -6   0 7360.98 1124.72  11
   6  -6   1 30648.5 2354.78  11
   6  -6   2 26580.8 2224.68  11
   6  -6   3 9730.49 1377.31  11
   6  -6   4 13858.5 1571.40  11
   6  -6   5 6185.32 959.439  11
   6  -6   6 17965.2 1343.19  11
   6  -5 -11 4464.49 465.748  20
   6  -5 -10 9033.49 896.045  20
   6  -5  -9 10516.7 1203.03  20
   6  -5  -8 17176.6 1737.22  20
   6  -5  -7 4263.30 925.880  20
   6  -5  -6 6220.73 1124.07  20
   6  -5  -5 32190.1 2488.33  20
   6  -5  -4-233.769 406.251  20
   6  -5  -4-50.3209 213.275  11
   6  -5  -3 45011.0 2879.87  20
   6  -5  -3 45887.5 2567.87  11
   6  -5  -2 4453.50 977.016  20
   6  -5  -2 4085.69 645.079  18
   6  -5  -2 4544.90 883.722  11
   6  -5  -1 4596.03 922.461  20
   6  -5  -1 3300.88 619.929  18
   6  -5  -1 4394.47 886.547  11
   6  -5   0 17527.4 1718.08  20
   6  -5   0 14680.1 1361.63  18
   6  -5   0 16756.4 1726.65  11
   6  -5   1 26594.1 1844.13  18
   6  -5   1 27490.1 2240.93  11
   6  -5   2 34939.6 2069.94  18
   6  -5   2 26579.4 2252.25  11
   6  -5   3 18849.0 1446.35  18
   6  -5   3 15514.1 1754.08  11
   6  -5   4 11227.8 1407.99  11
   6  -5   5 15443.4 1536.48  11
   6  -5   6 3341.46 631.673  11
   6  -4 -11 2680.67 439.639  20
   6  -4 -10 4682.21 709.062  20
   6  -4  -9 3121.00 703.481  20
   6  -4  -8 5350.89 1032.09  20
   6  -4  -7 2334.70 775.554  20
   6  -4  -6 2862.14 782.425  20
   6  -4  -5 11021.1 1433.30  20
   6  -4  -5 11188.7 1276.51  11
   6  -4  -4 4547.91 904.390  20
   6  -4  -4 4400.70 806.166  11
   6  -4  -3 58947.3 3164.22  20
   6  -4  -3 60929.6 2956.69  11
   6  -4  -2 21772.6 1884.77  20
   6  -4  -2 18633.4 1422.58  18
   6  -4  -2 20471.0 1709.02  11
   6  -4  -1 5256.52 686.785   7
   6  -4  -1 4247.52 720.231  18
   6  -4  -1 4842.23 918.609  11
   6  -4   0 23182.5 1746.15  18
   6  -4   0 25912.8 2112.95  11
   6  -4   1 11852.5 1255.39  18
   6  -4   1 10506.8 1388.43  11
   6  -4   2 24893.5 1770.03  18
   6  -4   2 19089.7 1881.51  11
   6  -4   3 18553.2 1450.10  18
   6  -4   3 12007.7 1510.12  11
   6  -4   4 8442.59 941.412   8
   6  -4   4 10674.4 989.526  18
   6  -4   4 7739.21 1163.66  11
   6  -4   5 2911.17 537.697   8
   6  -4   5 2431.01 645.104  11
   6  -4   6 159.301 159.008  11
   6  -3 -12 529.349 160.808  20
   6  -3 -11-237.265 207.308  20
   6  -3 -10 1463.13 450.302  20
   6  -3 -10 1411.43 380.647  15
   6  -3  -9 2069.60 610.417  20
   6  -3  -8 2845.26 701.813  20
   6  -3  -7 6898.00 1143.92  20
   6  -3  -6 2115.23 650.670  20
   6  -3  -5 253.045 244.715  20
   6  -3  -4 8531.87 1205.39  20
   6  -3  -4 7583.01 798.888   7
   6  -3  -4 8192.91 1073.01  11
   6  -3  -4 9822.38 1684.64   2
   6  -3  -3 71243.8 2660.38  18
   6  -3  -3 74096.2 2530.16   7
   6  -3  -3 72279.7 3139.29  11
   6  -3  -2 22502.9 1643.10  18
   6  -3  -2 28373.8 1604.57   7
   6  -3  -2 26539.2 1986.40  15
   6  -3  -2 27089.1 1967.54  11
   6  -3  -1 1073.28 390.144  18
   6  -3  -1 646.256 256.960   7
   6  -3  -1 1021.39 467.042  11
   6  -3  -1-176.304 511.343   2
   6  -3   0 12827.6 1316.61  18
   6  -3   0 14831.3 1261.27   7
   6  -3   0 14240.1 1519.56  11
   6  -3   1 2320.71 600.092  18
   6  -3   1 2133.73 600.798  11
   6  -3   2 10006.5 1136.62  18
   6  -3   2 6567.64 1095.45  11
   6  -3   3 4982.69 756.903  18
   6  -3   3 3735.65 801.612  11
   6  -3   4 5165.71 778.412   8
   6  -3   4 6174.83 755.300  18
   6  -3   4 6015.10 944.191  11
   6  -3   5 309.990 223.878   8
   6  -3   5 138.925 127.163  18
   6  -3   5-117.157 184.414  11
   6  -3   6 659.494 246.410   8
   6  -2 -12 44.1736 102.680  20
   6  -2 -11 754.287 273.250  20
   6  -2 -10 3863.73 597.977  15
   6  -2 -10 3599.57 626.918  20
   6  -2  -9 8798.92 1070.33  20
   6  -2  -9 7257.22 968.968  15
   6  -2  -8 4476.21 856.946  20
   6  -2  -8 4448.48 603.170   7
   6  -2  -7 20691.1 1856.52  20
   6  -2  -7 20209.2 1335.99   7
   6  -2  -6 10117.2 1302.55  20
   6  -2  -6 10537.9 991.439   7
   6  -2  -5 11220.1 1041.30   7
   6  -2  -4 15361.5 1213.85   7
   6  -2  -4 15602.9 1719.05  15
   6  -2  -4 20067.2 2481.99   2
   6  -2  -4 17110.4 1498.60  11
   6  -2  -3 30899.2 1826.38  18
   6  -2  -3 33519.9 1802.47   7
   6  -2  -3 32091.6 2373.74  15
   6  -2  -3 38165.6 3479.03   2
   6  -2  -3 34194.5 2089.23  11
   6  -2  -2 5026.85 818.441  18
   6  -2  -2 5500.87 739.111   7
   6  -2  -2 5392.70 899.495  15
   6  -2  -2 4834.86 836.397  11
   6  -2  -2 5877.11 1324.42   2
   6  -2  -1 2650.90 630.211  18
   6  -2  -1 2769.27 587.122   7
   6  -2  -1 2832.87 597.807  15
   6  -2  -1 3087.44 645.395  11
   6  -2   0 11963.8 1307.34  18
   6  -2   0 10340.6 1080.13   7
   6  -2   0 11446.5 1270.91  11
   6  -2   1 739.448 406.207  18
   6  -2   1 985.805 407.718  11
   6  -2   2 4655.56 823.646  18
   6  -2   2 3984.37 789.043  11
   6  -2   3 7722.00 951.933   8
   6  -2   3 8193.43 956.691  18
   6  -2   4 13052.5 1197.52   8
   6  -2   4 12659.3 1026.67  18
   6  -2   5 3522.06 582.169   8
   6  -2   5 4150.56 467.815  18
   6  -2   6 5569.04 569.636   8
   6  -1 -11 10587.9 827.273  20
   6  -1 -10 8191.83 710.929   7
   6  -1 -10 8939.06 857.243  15
   6  -1 -10 8938.91 890.238  20
   6  -1  -9 6588.00 740.478   7
   6  -1  -9 7957.21 994.365  15
   6  -1  -9 9507.15 1030.10  20
   6  -1  -8 15849.8 1390.14  20
   6  -1  -8 12542.8 1094.73   7
   6  -1  -8 16575.4 1610.79  15
   6  -1  -7 37775.6 1978.21   7
   6  -1  -7 41856.7 2738.84  15
   6  -1  -6 12126.0 1132.18   7
   6  -1  -6 13290.9 1605.05  15
   6  -1  -5 12760.6 1174.47   7
   6  -1  -5 11884.6 1529.42  15
   6  -1  -4 1943.85 504.637   7
   6  -1  -4 1684.17 586.142  15
   6  -1  -3 21059.7 1584.19  18
   6  -1  -3 23003.8 1557.43   7
   6  -1  -3 22627.4 2026.52  15
   6  -1  -3 26889.8 1776.73  11
   6  -1  -2 13085.5 1304.47  18
   6  -1  -2 14019.3 1231.85   7
   6  -1  -2 12691.2 1427.33  15
   6  -1  -1 17157.3 1551.66  18
   6  -1  -1 17150.4 1377.65   7
   6  -1   0 17724.0 1601.65  18
   6  -1   0 17285.7 1404.21   7
   6  -1   1 3824.02 788.336  18
   6  -1   2 20413.6 1602.88  18
   6  -1   3 25786.2 1709.53   8
   6  -1   3 23562.8 1550.29  18
   6  -1   4 32933.7 1816.19   8
   6  -1   4 32285.2 1523.78  18
   6  -1   5 12475.7 977.484   8
   6  -1   5 10913.4 628.739  18
   6   0 -11 9026.01 625.269   7
   6   0 -10 7200.77 717.897   7
   6   0 -10 9352.70 787.565  20
   6   0  -9 4953.51 662.421   7
   6   0  -9 6344.57 857.025  15
   6   0  -9 6990.85 763.525  20
   6   0  -8 20436.7 1441.84   7
   6   0  -8 27201.9 1965.15  15
   6   0  -7 24469.6 1642.12   7
   6   0  -7 25153.1 2052.91  15
   6   0  -6 15711.3 1332.55   7
   6   0  -6 16571.8 1764.74  15
   6   0  -5 11610.6 1149.34   7
   6   0  -5 12748.8 1554.52  15
   6   0  -4 2011.65 459.974  18
   6   0  -4 2107.26 489.779   7
   6   0  -4 1594.95 620.915  15
   6   0  -3 39658.5 2241.30  18
   6   0  -3 44737.7 2214.84   7
   6   0  -3 41158.0 2725.60  15
   6   0  -2 48816.0 2594.74  18
   6   0  -2 47656.8 2284.61   7
   6   0  -1 24933.1 1896.63  18
   6   0  -1 23023.4 1591.37   7
   6   0   0 66394.2 3058.49  18
   6   0   0 56710.0 2529.76   7
   6   0   1 11534.9 1270.92  18
   6   0   2 37869.4 2064.49   8
   6   0   2 39018.1 2121.76  18
   6   0   3 24602.9 1596.34   8
   6   0   3 23103.0 1426.07  18
   6   0   4 21096.3 1326.85   8
   6   0   4 19773.6 1031.09  18
   6   0   5 8990.12 690.056   8
   6   1 -11 2827.87 348.708   7
   6   1 -10 7639.94 714.969   7
   6   1  -9 4980.82 654.578   7
   6   1  -8 9630.58 983.126   7
   6   1  -7 19234.0 1455.48   7
   6   1  -6 17230.0 1362.96   7
   6   1  -5 18025.2 1447.32   7
   6   1  -4 24206.6 1657.31   7
   6   1  -3 57295.8 2513.73   7
   6   1  -2 46618.3 2259.20   7
   6   1  -1 15271.1 1491.00  18
   6   1  -1 13085.2 1199.66   7
   6   1   0 63349.7 2920.43  18
   6   1   0 58106.8 2448.49   7
   6   1   1 12820.5 1255.60  18
   6   1   2 12452.6 1117.61   8
   6   1   2 10981.1 1047.81  18
   6   1   3 11362.7 948.961   8
   6   1   3 11151.0 860.755  18
   6   1   4 13466.3 871.440   8
   6   2 -11 2747.82 291.850   7
   6   2 -10 3576.61 446.757   7
   6   2  -9 3838.42 545.204   7
   6   2  -8 645.541 297.936   7
   6   2  -7 33876.6 1810.50   7
   6   2  -6 25944.8 1638.51   7
   6   2  -5 17224.8 1343.22   7
   6   2  -4 16386.3 1314.23   7
   6   2  -3 10571.4 1028.18   7
   6   2  -2 9301.15 969.568   7
   6   2  -1 18214.6 1537.87  18
   6   2  -1 18041.5 1304.73   7
   6   2   0 41493.9 2186.12  18
   6   2   1 2415.04 525.059  18
   6   2   2 15.5640 142.023   8
   6   2   2 195.042 170.203  18
   6   2   3 9128.63 669.440   8
   6   2   3 9755.73 580.968  18
   6   3 -10 2065.54 259.009   7
   6   3  -9 989.095 223.695   7
   6   3  -8 1289.95 321.881   7
   6   3  -7 21032.2 1235.89   7
   6   3  -6 4724.25 632.649   7
   6   3  -5 735.728 291.747   7
   6   3  -4 5807.28 696.690   7
   6   3  -3 976.183 297.477   7
   6   3  -2 3572.04 511.548   7
   6   3  -1 5048.28 732.555  18
   6   3   0 8889.85 859.029  18
   6   3   1 1014.84 275.367  18
   6   4  -7 1354.53 232.398   7
   6   4  -6 231.148 113.538   7
   6   4  -5 68.6665 56.0778  18
   6   4  -5 157.363 89.8239   7
   6   4  -4 2206.71 365.664  18
   6   4  -3 257.590 164.325  18
   6   4  -2 1521.26 343.262  18
   6   4  -1 6134.88 586.810  18
   7  -9  -5 1860.41 451.156  20
   7  -9  -4 2506.80 545.428  20
   7  -9  -3 2963.37 620.279  20
   7  -9  -2 2912.54 670.458  20
   7  -9  -1 3675.68 737.066  20
   7  -9   0 10987.8 1172.02  20
   7  -9   1 9766.56 995.617  20
   7  -8  -7 2131.11 439.856  20
   7  -8  -6 3415.49 642.062  20
   7  -8  -5 1940.25 605.834  20
   7  -8  -4 7258.22 1102.78  20
   7  -8  -3 9018.46 1266.15  20
   7  -8  -2 4284.55 844.361  20
   7  -8  -2 4414.37 681.877  11
   7  -8  -1 6313.55 1019.86  20
   7  -8  -1 5850.43 793.921  11
   7  -8   0 5412.18 918.810  20
   7  -8   0 5057.21 773.053  11
   7  -8   1 6305.20 934.067  20
   7  -8   1 7658.72 895.393  11
   7  -8   2 2312.00 516.003  20
   7  -8   2 1681.36 418.731  11
   7  -8   3 880.754 258.244  11
   7  -7  -9 4265.02 441.485  20
   7  -7  -8 382.684 239.577  20
   7  -7  -7 2826.79 632.825  20
   7  -7  -6 6172.87 1021.09  20
   7  -7  -5 1936.58 657.648  20
   7  -7  -4 23842.1 2082.30  20
   7  -7  -3 8687.73 1280.81  20
   7  -7  -3 8309.75 1038.15  11
   7  -7  -2 2275.46 740.467  20
   7  -7  -2 2282.45 608.234  11
   7  -7  -1 1030.44 551.664  20
   7  -7  -1 2009.27 579.950  11
   7  -7   0 472.227 372.676  20
   7  -7   0 906.762 400.133  11
   7  -7   1 5869.33 927.759  20
   7  -7   1 9017.52 1130.97  11
   7  -7   2 3529.99 626.617  20
   7  -7   2 4697.86 806.634  11
   7  -7   3-178.238 228.868  11
   7  -7   4 5434.88 653.598  11
   7  -6 -10 5808.74 478.788  20
   7  -6  -9 9631.26 866.549  20
   7  -6  -8 2736.90 613.229  20
   7  -6  -7 3214.92 722.322  20
   7  -6  -6 12610.9 1493.70  20
   7  -6  -5 2535.10 768.722  20
   7  -6  -4 21516.8 2012.54  20
   7  -6  -4 28120.8 1984.53  11
   7  -6  -3 3792.23 852.218  20
   7  -6  -3 3368.54 760.726  11
   7  -6  -2 1034.04 517.967  20
   7  -6  -2 1105.13 477.559  11
   7  -6  -1 1984.61 593.476  20
   7  -6  -1 2405.60 681.666  11
   7  -6   0 2728.57 692.243  20
   7  -6   0 3418.76 796.465  11
   7  -6   1 15936.3 1619.47  11
   7  -6   2 7791.00 1101.21  11
   7  -6   3 416.409 383.689  11
   7  -6   4 17320.7 1275.65  11
   7  -5 -10 9548.86 746.582  20
   7  -5 -10 6336.84 589.543  15
   7  -5  -9 6429.91 806.289  20
   7  -5  -8 4265.74 794.661  20
   7  -5  -7 5421.16 967.294  20
   7  -5  -6 7746.11 1219.08  20
   7  -5  -5 1358.26 601.947  20
   7  -5  -4 6194.09 1080.50  20
   7  -5  -4 8469.06 1146.47  11
   7  -5  -3 18805.8 1825.27  20
   7  -5  -3 17953.0 1674.68  11
   7  -5  -2 11236.5 1363.42  20
   7  -5  -2 7889.36 895.980  18
   7  -5  -2 10301.0 1272.85  11
   7  -5  -1 7236.16 898.964  18
   7  -5  -1 9048.19 1266.06  11
   7  -5   0 12151.2 1180.68  18
   7  -5   0 13135.9 1503.32  11
   7  -5   1 19412.3 1478.20  18
   7  -5   1 17280.0 1683.04  11
   7  -5   2 15305.5 1232.80  18
   7  -5   2 10399.7 1290.51  11
   7  -5   3 6570.99 937.343  11
   7  -5   4 16332.5 1246.24  11
   7  -4 -11 2459.89 305.976  20
   7  -4 -10 7688.18 721.009  15
   7  -4 -10 9119.43 797.765  20
   7  -4  -9 2179.76 509.326  20
   7  -4  -9 3012.91 581.204  15
   7  -4  -8 8987.84 1104.10  20
   7  -4  -7 6949.79 1064.56  20
   7  -4  -6 3839.55 830.970  20
   7  -4  -5 3409.90 784.638  20
   7  -4  -4 22533.4 1962.12  20
   7  -4  -4 21784.9 1998.20  15
   7  -4  -4 25049.4 1941.67  11
   7  -4  -3 50825.3 2148.11  18
   7  -4  -3 46021.4 2685.65  15
   7  -4  -3 53636.1 2833.19  11
   7  -4  -2 19509.4 1471.66  18
   7  -4  -2 19720.5 1757.53  11
   7  -4  -1 7197.09 947.042  18
   7  -4  -1 8126.91 1166.44  11
   7  -4   0 23149.6 1686.74  18
   7  -4   0 23793.1 1954.77  11
   7  -4   1 14683.5 1323.68  18
   7  -4   1 12158.2 1403.03  11
   7  -4   2 18167.7 1364.43  18
   7  -4   2 12696.0 1342.13  11
   7  -4   3 12947.1 1003.01  18
   7  -4   3 8724.86 1018.95  11
   7  -4   4 6576.27 731.093  11
   7  -3 -11 1354.85 239.317  20
   7  -3 -10 7815.39 724.337  15
   7  -3 -10 8643.94 757.677  20
   7  -3  -9 2303.56 483.000  20
   7  -3  -9 2933.26 591.098  15
   7  -3  -8 15487.6 1349.89  20
   7  -3  -8 15856.5 1547.89  15
   7  -3  -7 10363.6 1216.86  20
   7  -3  -7 9628.21 1326.84  15
   7  -3  -6 10693.4 1247.26  20
   7  -3  -6 10417.2 1416.44  15
   7  -3  -5 9202.47 920.159   7
   7  -3  -5 8272.77 1264.44  15
   7  -3  -4 45598.8 2102.33   7
   7  -3  -4 43933.0 2844.61  15
   7  -3  -4 49269.1 2647.88  11
   7  -3  -3 33255.5 1831.19  18
   7  -3  -3 34678.3 1903.88   7
   7  -3  -3 29265.4 2158.57  15
   7  -3  -3 32422.5 2156.46  11
   7  -3  -2 13339.2 1273.86  18
   7  -3  -2 15977.2 1344.67   7
   7  -3  -2 14840.8 1403.22  15
   7  -3  -2 15550.7 1521.80  11
   7  -3  -1 6102.86 888.144  18
   7  -3  -1 7375.02 1043.58  11
   7  -3   0 19273.8 1580.07  18
   7  -3   0 17673.6 1580.22  11
   7  -3   1 5747.50 879.272  18
   7  -3   1 4879.21 829.719  11
   7  -3   2 12817.0 1125.36  18
   7  -3   2 10873.0 1116.24  11
   7  -3   3 10667.8 892.875  18
   7  -2 -10 5590.77 597.811  15
   7  -2 -10 6454.94 589.756  20
   7  -2  -9 3652.33 645.411  15
   7  -2  -9 4126.10 561.912  20
   7  -2  -8 12448.1 921.042   7
   7  -2  -8 15099.1 1461.54  15
   7  -2  -8 16120.3 1188.30  20
   7  -2  -7 13598.0 1044.68   7
   7  -2  -7 15502.4 1644.06  15
   7  -2  -6 14294.2 1158.38   7
   7  -2  -6 15560.6 1732.02  15
   7  -2  -5 4737.34 682.427   7
   7  -2  -5 4320.43 970.287  15
   7  -2  -4 18913.8 1433.99   7
   7  -2  -4 16691.9 1752.25  15
   7  -2  -3 8580.85 987.302  18
   7  -2  -3 9683.93 1014.35   7
   7  -2  -3 8365.20 1179.17  15
   7  -2  -3 9202.34 1067.98  11
   7  -2  -2 7434.77 1003.81  18
   7  -2  -2 9326.68 1049.07   7
   7  -2  -2 7742.85 1027.73  15
   7  -2  -2 8330.49 1029.08  11
   7  -2  -1 11035.9 1216.74  18
   7  -2  -1 12589.0 1223.00   7
   7  -2  -1 13029.0 1266.47  11
   7  -2   0 8318.10 1072.78  18
   7  -2   1 5651.62 854.382  18
   7  -2   2 13901.2 1139.44  18
   7  -2   3 15640.1 999.787  18
   7  -2   4 20340.0 805.349  18
   7  -1 -10 1494.81 231.604   7
   7  -1  -9 1613.14 331.817   7
   7  -1  -9 1877.99 439.962  15
   7  -1  -8 10524.8 893.125   7
   7  -1  -8 16003.5 1394.09  15
   7  -1  -7 8237.99 858.391   7
   7  -1  -7 9357.47 1227.98  15
   7  -1  -6 2949.04 565.671   7
   7  -1  -6 4821.85 929.138  15
   7  -1  -5 476.096 233.785   7
   7  -1  -5 557.224 416.219  15
   7  -1  -4 2881.50 526.644  18
   7  -1  -4 2205.48 547.669   7
   7  -1  -4 2339.12 657.013  15
   7  -1  -3 13169.7 1225.71  18
   7  -1  -3 14680.4 1289.85   7
   7  -1  -2 12527.2 1253.52  18
   7  -1  -2 12125.5 1197.06   7
   7  -1  -1 14057.7 1334.25  18
   7  -1  -1 14263.4 1297.29   7
   7  -1   0 7707.51 1002.76  18
   7  -1   1 7129.46 884.546  18
   7  -1   2 15906.9 1125.55  18
   7  -1   3 15949.7 876.201  18
   7   0 -10 2825.80 323.865   7
   7   0  -9-160.563 118.972   7
   7   0  -8 7224.47 736.452   7
   7   0  -7 1941.73 447.268   7
   7   0  -6 1039.18 338.447   7
   7   0  -5 1939.09 500.061   7
   7   0  -4 6708.21 778.215  18
   7   0  -4 5519.95 790.535   7
   7   0  -3 18524.2 1415.09  18
   7   0  -3 20933.7 1511.03   7
   7   0  -2 11708.0 1159.38  18
   7   0  -2 12068.0 1170.03   7
   7   0  -1 6529.39 890.835  18
   7   0   0 18644.8 1394.48  18
   7   0   1 2468.05 478.741  18
   7   0   2 5750.51 592.717  18
   7   1  -9 41.0401 85.3540   7
   7   1  -8 6643.91 667.086   7
   7   1  -7 7057.98 755.265   7
   7   1  -6 6910.65 784.885   7
   7   1  -5 9279.77 943.648   7
   7   1  -4 6918.73 751.106  18
   7   1  -4 8515.74 902.871   7
   7   1  -3 6252.37 772.348  18
   7   1  -3 9129.76 929.431   7
   7   1  -2 5067.79 703.457  18
   7   1  -2 5927.67 735.348   7
   7   1  -1 8045.37 862.906  18
   7   1   0 17422.4 1174.39  18
   7   1   1-80.1546 151.973  18
   7   2  -8 9749.13 655.910   7
   7   2  -7 18168.5 997.850   7
   7   2  -6 6443.69 652.269   7
   7   2  -5 7031.28 696.447   7
   7   2  -4 3572.88 448.298  18
   7   2  -4 4245.50 551.299   7
   7   2  -3 2910.61 431.316   7
   7   2  -3 2117.89 394.107  18
   7   2  -2 5154.08 603.036  18
   7   2  -1 9480.13 754.307  18
   7   2   0 5333.25 481.281  18
   8  -8  -5 960.393 310.247  20
   8  -8  -4 3986.02 614.479  20
   8  -8  -3 1112.76 339.649  20
   8  -8  -2 451.326 223.249  20
   8  -7  -7 763.998 249.036  20
   8  -7  -7 25.7079 59.5176  15
   8  -7  -6 3299.08 559.972  20
   8  -7  -6 1243.79 318.815  15
   8  -7  -5 947.988 350.587  20
   8  -7  -5 448.296 193.642  15
   8  -7  -4 6949.65 899.728  20
   8  -7  -3 167.430 200.895  20
   8  -7  -2 550.202 278.377  20
   8  -7  -2-58.4397 218.757  11
   8  -7  -1 307.157 191.704  11
   8  -7   0 1825.81 405.698  11
   8  -7   1 1961.46 396.883  11
   8  -6  -8 477.945 175.286  20
   8  -6  -8 327.276 199.291  15
   8  -6  -7 51.5819 156.432  20
   8  -6  -7 235.937 147.483  15
   8  -6  -6 4656.48 720.041  20
   8  -6  -6 3588.56 604.575  15
   8  -6  -5 490.877 294.741  20
   8  -6  -5 81.6799 134.664  15
   8  -6  -4 5277.28 800.075  20
   8  -6  -4 4008.55 590.599  15
   8  -6  -2 74.4130 248.390  11
   8  -6  -1 2849.08 576.932  11
   8  -6   0 2445.37 529.869  11
   8  -6   1 3361.27 556.802  11
   8  -6   2 1086.54 278.937  11
   8  -5  -9 1075.06 244.225  15
   8  -5  -8 910.892 265.929  20
   8  -5  -8 991.612 301.875  15
   8  -5  -7 555.829 249.827  20
   8  -5  -7 949.486 351.271  15
   8  -5  -6 776.054 333.182  20
   8  -5  -6 1031.38 397.399  15
   8  -5  -5 283.035 262.515  15
   8  -5  -4 8915.15 949.257  15
   8  -5  -2 851.943 373.009  11
   8  -5  -1 6396.72 889.028  11
   8  -5   0 2052.81 490.404  11
   8  -5   1 4162.57 608.445  11
   8  -5   2 2274.54 384.445  11
   8  -4  -9 816.400 229.784  15
   8  -4  -8 1691.06 309.087  20
   8  -4  -8 2937.79 500.156  15
   8  -4  -7 1100.20 375.100  15
   8  -4  -6 791.066 353.332  15
   8  -4  -5 2104.33 590.684  15
   8  -4  -4 15871.2 1335.86  15
   8  -4  -3 8926.17 726.419  18
   8  -4  -2 752.105 238.557  18
   8  -4  -2 930.481 365.958  11
   8  -4  -1 4136.12 589.365  18
   8  -4  -1 3835.36 671.491  11
   8  -4   0 1868.31 382.154  18
   8  -4   0 1358.86 392.420  11
   8  -4   1 2801.78 439.616  18
   8  -4   1 1600.37 346.071  11
   8  -3  -9 1205.68 292.033  15
   8  -3  -8 5633.49 690.671  15
   8  -3  -7 1621.88 455.296  15
   8  -3  -6 3332.47 656.996  15
   8  -3  -5 2201.33 395.495   7
   8  -3  -5 2190.56 563.868  15
   8  -3  -4 9128.01 1035.02  15
   8  -3  -3 1831.07 359.639  18
   8  -3  -2 461.348 238.278  18
   8  -3  -1 3114.09 498.105  18
   8  -3   0 195.972 204.670  18
   8  -3   1 1364.65 303.500  18
   8  -2  -7 984.065 249.826   7
   8  -2  -7 2706.03 554.575  15
   8  -2  -6 1137.50 275.043   7
   8  -2  -5-10.7201 152.485   7
   8  -2  -4 1894.35 417.265   7
   8  -2  -3 1737.41 354.212  18
   8  -2  -2 410.727 200.514  18
   8  -2  -1 5603.79 636.859  18
   8  -2   0 197.969 179.183  18
   8  -2   1 2600.33 354.835  18
   8  -1  -8 778.798 176.782   7
   8  -1  -7 62.6011 95.1125   7
   8  -1  -6-225.843 141.552   7
   8  -1  -5-45.0912 152.550   7
   8  -1  -4 3823.56 554.093   7
   8  -1  -3 6160.46 592.547  18
   8  -1  -2 559.398 196.549  18
   8  -1  -1 7074.58 646.416  18
   8  -1   0 449.072 177.281  18
   8   0  -7 342.903 133.038   7
   8   0  -6 368.601 167.985   7
   8   0  -5 1309.39 316.550   7
   8   0  -3 2800.02 326.929  18
   8   0  -2 365.537 142.410  18
   0   0   0    0.00    0.00   0
TITL cu523 in P1
REM P1 (#1 in standard setting)
CELL 1.54184   7.210987   8.971348  10.955371  92.2225 106.9314 113.3474
ZERR    1.00   0.000465   0.000681   0.000912   0.0065   0.0070   0.0070
LATT -1
SFAC C H N O F Zn
UNIT 24.00 16.00 2.00 4.00 6.00 1.00
TREF
HKLF 4
END
;
_shelx_hkl_checksum              57872
_shelx_res_file
;
    shelx.res created by SHELXL-2014/7
TITL cu523 in P-1
CELL  1.54184   7.2110   8.9713  10.9554   92.223  106.931  113.347
ZERR     1.00   0.0005   0.0007   0.0009    0.007    0.007    0.007
LATT   1
SFAC  C    H    F    N    O    ZN
UNIT  24 16 6 2 4 1
MERG   2
SHEL 22.1 0.82
FMAP   2
PLAN   20
SIZE     0.050   0.080   0.400
ACTA
ISOR 0.03 0.01 F1
BOND   $H
CONF
L.S.  10
TEMP  -123.00
WGHT    0.084900    0.096600
EXTI    0.020283
FVAR      10.86958
ZN1   6    0.000000    0.500000    0.000000    10.50000    0.01762    0.02571 =
         0.02148   -0.00298    0.00019    0.00470
F1    3    0.462478    1.042931    0.357370    11.00000    0.20858    0.03670 =
         0.04706   -0.01556    0.00824   -0.01929
F2    3    0.497271    1.043005    0.172309    11.00000    0.11579    0.06498 =
         0.07845    0.00935    0.01772   -0.04967
F3    3    0.216044    1.044722    0.191906    11.00000    0.21851    0.04753 =
         0.12400    0.00669    0.04919    0.06825
O1    5    0.156723    0.743839    0.080809    11.00000    0.02410    0.02441 =
         0.02537   -0.00308    0.00174    0.00429
O2    5    0.050616    0.440486    0.181590    11.00000    0.02921    0.02835 =
         0.02404    0.00006    0.00150    0.00908
N1    4    0.307388    0.499514    0.000053    11.00000    0.01743    0.03006 =
         0.02328    0.00172    0.00237    0.00730
C1    1    0.355598    0.982161    0.232746    11.00000    0.11665    0.03242 =
         0.04080   -0.00653    0.00891   -0.00786
C2    1    0.247767    0.795011    0.201501    11.00000    0.02796    0.02624 =
         0.03315   -0.00430    0.00740   -0.00072
C3    1    0.258736    0.707978    0.301919    11.00000    0.04175    0.03627 =
         0.02149   -0.00648    0.00031    0.00059
AFIX  43
H3    2    0.341173    0.769380    0.386937    11.00000   -1.20000
AFIX   0
C4    1    0.157193    0.534530    0.288747    11.00000    0.01954    0.03552 =
         0.02346   -0.00232    0.00254    0.00952
C5    1    0.165708    0.455912    0.405703    11.00000    0.03299    0.04409 =
         0.02734    0.00329    0.00602    0.02009
C6    1    0.310268    0.538663    0.529048    11.00000    0.04785    0.06444 =
         0.02296   -0.00107    0.00330    0.02549
AFIX  43
H6    2    0.406641    0.651519    0.541735    11.00000   -1.20000
AFIX   0
C7    1    0.312076    0.454252    0.633595    11.00000    0.07176    0.09435 =
         0.02443    0.00777    0.00673    0.04944
AFIX  43
H7    2    0.412492    0.510483    0.716962    11.00000   -1.20000
AFIX   0
C8    1    0.173896    0.293927    0.618934    11.00000    0.09202    0.08903 =
         0.04122    0.03120    0.02602    0.05970
AFIX  43
H8    2    0.178821    0.238267    0.691014    11.00000   -1.20000
AFIX   0
C9    1    0.025357    0.212084    0.497658    11.00000    0.08336    0.06291 =
         0.05812    0.03161    0.02781    0.03705
AFIX  43
H9    2   -0.075407    0.101029    0.487169    11.00000   -1.20000
AFIX   0
C10   1    0.023421    0.291759    0.391719    11.00000    0.05630    0.04702 =
         0.03877    0.01315    0.01182    0.02413
AFIX  43
H10   2   -0.076175    0.233672    0.308579    11.00000   -1.20000
AFIX   0
C11   1    0.468245    0.636210   -0.006399    11.00000    0.02500    0.02880 =
         0.03190    0.00308    0.00744    0.00895
AFIX  43
H11   2    0.450285    0.735379   -0.011599    11.00000   -1.20000
AFIX   0
C12   1    0.338743    0.363454    0.005672    11.00000    0.02293    0.02649 =
         0.02970    0.00243    0.00616    0.00678
AFIX  43
H12   2    0.226772    0.263744    0.009274    11.00000   -1.20000
AFIX   0
HKLF 4
REM  cu523 in P-1
REM R1 =  0.0500 for    2102 Fo > 4sig(Fo)  and  0.0546 for all    2314 data
REM    170 parameters refined using      6 restraints
END
WGHT      0.0884      0.1037
REM Highest difference peak  0.577,  deepest hole -0.848,  1-sigma level  0.090
Q1    1   0.3189  1.0341  0.3531  11.00000  0.05    0.58
Q2    1   0.1061  0.6775  0.1168  11.00000  0.05    0.45
Q3    1   0.1766  0.4975 -0.0001  11.00000  0.05    0.44
Q4    1   0.5345  1.0043  0.3467  11.00000  0.05    0.41
Q5    1   0.1232  1.0168  0.1700  11.00000  0.05    0.36
Q6    1   0.1610  0.6018  0.2925  11.00000  0.05    0.32
Q7    1   0.2258  0.8045  0.1015  11.00000  0.05    0.32
Q8    1   0.3738  1.0464  0.1626  11.00000  0.05    0.31
Q9    1   0.5614  0.9810  0.2032  11.00000  0.05    0.30
Q10   1  -0.1521  1.0154  0.0975  11.00000  0.05    0.29
Q11   1   0.1647  0.3073  0.3931  11.00000  0.05    0.28
Q12   1   0.1057  0.5894 -0.0163  11.00000  0.05    0.26
Q13   1   0.3316  0.8571  0.2128  11.00000  0.05    0.26
Q14   1   0.2049  0.4002  0.1600  11.00000  0.05    0.25
Q15   1   0.1205  0.7822 -0.0689  11.00000  0.05    0.24
Q16   1   0.2188  0.5123  0.4610  11.00000  0.05    0.24
Q17   1  -0.0001  0.7797  0.1215  11.00000  0.05    0.22
Q18   1   0.2035  0.3189 -0.1331  11.00000  0.05    0.22
Q19   1   0.2859  0.6875  0.1395  11.00000  0.05    0.22
Q20   1   0.3257  0.4907  0.5950  11.00000  0.05    0.22
;
_shelx_res_checksum              56289
loop_
_space_group_symop_operation_xyz
'x, y, z'
'-x, -y, -z'
loop_
_atom_site_type_symbol
_atom_site_label
_atom_site_fract_x
_atom_site_fract_y
_atom_site_fract_z
_atom_site_U_iso_or_equiv
_atom_site_adp_type
_atom_site_calc_flag
_atom_site_occupancy
Zn Zn1 0.0000 0.5000 0.0000 0.0249(2) Uani d 1
F F1 0.4625(7) 1.0429(3) 0.3574(3) 0.1305(18) Uani d 1
F F2 0.4973(6) 1.0430(4) 0.1723(3) 0.1198(16) Uani d 1
F F3 0.2160(9) 1.0447(4) 0.1919(4) 0.1283(16) Uani d 1
O O1 0.1567(3) 0.7438(2) 0.08081(18) 0.0285(4) Uani d 1
O O2 0.0506(3) 0.4405(2) 0.18159(18) 0.0302(4) Uani d 1
N N1 0.3074(3) 0.4995(3) 0.0001(2) 0.0257(5) Uani d 1
C C1 0.3556(10) 0.9822(5) 0.2327(4) 0.0812(18) Uani d 1
C C2 0.2478(5) 0.7950(3) 0.2015(3) 0.0342(6) Uani d 1
C C3 0.2587(5) 0.7080(4) 0.3019(3) 0.0414(8) Uani d 1
H H3 0.3412 0.7694 0.3869 0.050 Uiso calc 1
C C4 0.1572(4) 0.5345(3) 0.2887(3) 0.0283(6) Uani d 1
C C5 0.1657(5) 0.4559(4) 0.4057(3) 0.0346(6) Uani d 1
C C6 0.3103(6) 0.5387(5) 0.5290(3) 0.0469(8) Uani d 1
H H6 0.4066 0.6515 0.5417 0.056 Uiso calc 1
C C7 0.3121(7) 0.4543(6) 0.6336(3) 0.0611(11) Uani d 1
H H7 0.4125 0.5105 0.7170 0.073 Uiso calc 1
C C8 0.1739(8) 0.2939(6) 0.6189(4) 0.0655(12) Uani d 1
H H8 0.1788 0.2383 0.6910 0.079 Uiso calc 1
C C9 0.0254(8) 0.2121(6) 0.4977(4) 0.0645(11) Uani d 1
H H9 -0.0754 0.1010 0.4872 0.077 Uiso calc 1
C C10 0.0234(6) 0.2918(4) 0.3917(3) 0.0475(8) Uani d 1
H H10 -0.0762 0.2337 0.3086 0.057 Uiso calc 1
C C11 0.4682(4) 0.6362(3) -0.0064(3) 0.0300(6) Uani d 1
H H11 0.4503 0.7354 -0.0116 0.036 Uiso calc 1
C C12 0.3387(4) 0.3635(3) 0.0057(3) 0.0283(6) Uani d 1
H H12 0.2268 0.2637 0.0093 0.034 Uiso calc 1
loop_
_atom_site_aniso_label
_atom_site_aniso_U_11
_atom_site_aniso_U_22
_atom_site_aniso_U_33
_atom_site_aniso_U_12
_atom_site_aniso_U_13
_atom_site_aniso_U_23
Zn1 0.0176(3) 0.0257(3) 0.0215(3) 0.0047(2) 0.00019(19) -0.00298(19)
F1 0.209(4) 0.0367(13) 0.0471(15) -0.0193(18) 0.0082(19) -0.0156(11)
F2 0.116(3) 0.0650(17) 0.0784(19) -0.0497(18) 0.0177(19) 0.0093(15)
F3 0.219(5) 0.0475(16) 0.124(3) 0.068(3) 0.049(3) 0.0067(18)
O1 0.0241(9) 0.0244(9) 0.0254(9) 0.0043(8) 0.0017(7) -0.0031(7)
O2 0.0292(10) 0.0284(10) 0.0240(9) 0.0091(8) 0.0015(7) 0.0001(7)
N1 0.0174(10) 0.0301(12) 0.0233(10) 0.0073(9) 0.0024(8) 0.0017(9)
C1 0.117(4) 0.032(2) 0.041(2) -0.008(2) 0.009(2) -0.0065(16)
C2 0.0280(14) 0.0262(14) 0.0331(14) -0.0007(11) 0.0074(11) -0.0043(11)
C3 0.0418(17) 0.0363(16) 0.0215(13) 0.0006(14) 0.0003(12) -0.0065(11)
C4 0.0195(12) 0.0355(14) 0.0235(12) 0.0095(11) 0.0025(10) -0.0023(11)
C5 0.0330(15) 0.0441(17) 0.0273(14) 0.0201(13) 0.0060(12) 0.0033(12)
C6 0.0479(19) 0.064(2) 0.0230(14) 0.0255(17) 0.0033(13) -0.0011(14)
C7 0.072(3) 0.094(3) 0.0244(15) 0.049(3) 0.0067(16) 0.0078(18)
C8 0.092(3) 0.089(3) 0.0412(19) 0.060(3) 0.026(2) 0.031(2)
C9 0.083(3) 0.063(2) 0.058(2) 0.037(2) 0.028(2) 0.032(2)
C10 0.056(2) 0.0470(19) 0.0388(17) 0.0241(17) 0.0118(15) 0.0132(15)
C11 0.0250(13) 0.0288(13) 0.0319(13) 0.0089(11) 0.0074(11) 0.0031(11)
C12 0.0229(12) 0.0265(13) 0.0297(13) 0.0068(10) 0.0062(10) 0.0024(10)
loop_
_atom_type_symbol
_atom_type_description
_atom_type_scat_dispersion_real
_atom_type_scat_dispersion_imag
_atom_type_scat_source
C C 0.0181 0.0091 'International Tables Vol C Tables 4.2.6.8 and 6.1.1.4'
H H 0.0000 0.0000 'International Tables Vol C Tables 4.2.6.8 and 6.1.1.4'
F F 0.0727 0.0534 'International Tables Vol C Tables 4.2.6.8 and 6.1.1.4'
N N 0.0311 0.0180 'International Tables Vol C Tables 4.2.6.8 and 6.1.1.4'
O O 0.0492 0.0322 'International Tables Vol C Tables 4.2.6.8 and 6.1.1.4'
Zn Zn -1.5491 0.6778 'International Tables Vol C Tables 4.2.6.8 and 6.1.1.4'
loop_
_geom_angle_atom_site_label_1
_geom_angle_atom_site_label_2
_geom_angle_atom_site_label_3
_geom_angle_site_symmetry_1
_geom_angle_site_symmetry_3
_geom_angle
O1 Zn1 O1 2_565 . 180.00(6)
O1 Zn1 O2 2_565 2_565 89.60(8)
O1 Zn1 O2 . 2_565 90.40(8)
O1 Zn1 O2 2_565 . 90.40(8)
O1 Zn1 O2 . . 89.60(8)
O2 Zn1 O2 2_565 . 180.0
O1 Zn1 N1 2_565 2_565 89.94(8)
O1 Zn1 N1 . 2_565 90.06(8)
O2 Zn1 N1 2_565 2_565 90.02(8)
O2 Zn1 N1 . 2_565 89.98(8)
O1 Zn1 N1 2_565 . 90.06(8)
O1 Zn1 N1 . . 89.94(8)
O2 Zn1 N1 2_565 . 89.98(8)
O2 Zn1 N1 . . 90.02(8)
N1 Zn1 N1 2_565 . 180.0
C2 O1 Zn1 . . 123.16(19)
C4 O2 Zn1 . . 128.54(18)
C12 N1 C11 . . 117.2(2)
C12 N1 Zn1 . . 121.53(17)
C11 N1 Zn1 . . 121.25(19)
F3 C1 F1 . . 108.5(5)
F3 C1 F2 . . 105.7(4)
F1 C1 F2 . . 105.8(4)
F3 C1 C2 . . 111.3(4)
F1 C1 C2 . . 114.0(4)
F2 C1 C2 . . 110.9(5)
O1 C2 C3 . . 130.0(3)
O1 C2 C1 . . 111.3(3)
C3 C2 C1 . . 118.7(3)
C2 C3 C4 . . 125.2(3)
C2 C3 H3 . . 117.4
C4 C3 H3 . . 117.4
O2 C4 C3 . . 123.2(3)
O2 C4 C5 . . 116.7(2)
C3 C4 C5 . . 120.1(3)
C10 C5 C6 . . 118.5(3)
C10 C5 C4 . . 118.4(3)
C6 C5 C4 . . 123.1(3)
C7 C6 C5 . . 119.5(4)
C7 C6 H6 . . 120.2
C5 C6 H6 . . 120.2
C8 C7 C6 . . 121.6(4)
C8 C7 H7 . . 119.2
C6 C7 H7 . . 119.2
C7 C8 C9 . . 119.3(4)
C7 C8 H8 . . 120.3
C9 C8 H8 . . 120.3
C10 C9 C8 . . 120.2(4)
C10 C9 H9 . . 119.9
C8 C9 H9 . . 119.9
C9 C10 C5 . . 120.8(4)
C9 C10 H10 . . 119.6
C5 C10 H10 . . 119.6
N1 C11 C12 . 2_665 121.4(3)
N1 C11 H11 . . 119.3
C12 C11 H11 2_665 . 119.3
N1 C12 C11 . 2_665 121.4(2)
N1 C12 H12 . . 119.3
C11 C12 H12 2_665 . 119.3
loop_
_geom_bond_atom_site_label_1
_geom_bond_atom_site_label_2
_geom_bond_site_symmetry_2
_geom_bond_distance
Zn1 O1 2_565 2.0381(18)
Zn1 O1 . 2.0381(18)
Zn1 O2 2_565 2.0469(19)
Zn1 O2 . 2.0469(19)
Zn1 N1 2_565 2.218(2)
Zn1 N1 . 2.218(2)
F1 C1 . 1.323(5)
F2 C1 . 1.327(7)
F3 C1 . 1.316(8)
O1 C2 . 1.264(3)
O2 C4 . 1.251(3)
N1 C12 . 1.327(4)
N1 C11 . 1.335(4)
C1 C2 . 1.519(5)
C2 C3 . 1.375(4)
C3 C4 . 1.413(4)
C3 H3 . 0.9500
C4 C5 . 1.484(4)
C5 C10 . 1.392(5)
C5 C6 . 1.397(4)
C6 C7 . 1.397(5)
C6 H6 . 0.9500
C7 C8 . 1.357(7)
C7 H7 . 0.9500
C8 C9 . 1.387(6)
C8 H8 . 0.9500
C9 C10 . 1.386(5)
C9 H9 . 0.9500
C10 H10 . 0.9500
C11 C12 2_665 1.388(4)
C11 H11 . 0.9500
C12 C11 2_665 1.388(4)
C12 H12 . 0.9500
loop_
_geom_torsion_atom_site_label_1
_geom_torsion_atom_site_label_2
_geom_torsion_atom_site_label_3
_geom_torsion_atom_site_label_4
_geom_torsion_site_symmetry_4
_geom_torsion
Zn1 O1 C2 C3 . -2.2(5)
Zn1 O1 C2 C1 . 178.6(3)
F3 C1 C2 O1 . 59.8(5)
F1 C1 C2 O1 . -176.9(5)
F2 C1 C2 O1 . -57.5(5)
F3 C1 C2 C3 . -119.5(4)
F1 C1 C2 C3 . 3.8(7)
F2 C1 C2 C3 . 123.1(4)
O1 C2 C3 C4 . -2.8(6)
C1 C2 C3 C4 . 176.4(4)
Zn1 O2 C4 C3 . 2.7(4)
Zn1 O2 C4 C5 . 179.95(18)
C2 C3 C4 O2 . 2.5(5)
C2 C3 C4 C5 . -174.7(3)
O2 C4 C5 C10 . -12.9(4)
C3 C4 C5 C10 . 164.5(3)
O2 C4 C5 C6 . 166.9(3)
C3 C4 C5 C6 . -15.8(5)
C10 C5 C6 C7 . 1.6(5)
C4 C5 C6 C7 . -178.1(3)
C5 C6 C7 C8 . -1.2(6)
C6 C7 C8 C9 . -0.8(7)
C7 C8 C9 C10 . 2.3(7)
C8 C9 C10 C5 . -1.8(7)
C6 C5 C10 C9 . -0.1(6)
C4 C5 C10 C9 . 179.6(3)
C12 N1 C11 C12 2_665 -0.8(4)
Zn1 N1 C11 C12 2_665 179.64(19)
C11 N1 C12 C11 2_665 0.8(4)
Zn1 N1 C12 C11 2_665 -179.65(19)
