#------------------------------------------------------------------------------
#$Date: 2022-09-02 04:49:51 +0300 (Fri, 02 Sep 2022) $
#$Revision: 277573 $
#$URL: file:///home/coder/svn-repositories/cod/cif/2/10/90/2109040.cif $
#------------------------------------------------------------------------------
#
# This file is available in the Crystallography Open Database (COD),
# http://www.crystallography.net/. The original data for this entry
# were provided by IUCr Journals, http://journals.iucr.org/.
#
# The file may be used within the scientific community so long as
# proper attribution is given to the journal article from which the
# data were obtained.
#
data_2109040
loop_
_publ_author_name
'Bogdanov, Nikita E.'
'Korabel'nikov, Dmitry V.'
'Fedorov, Igor A.'
'Zakharov, Boris A.'
'Boldyreva, Elena V.'
_publ_section_title
;
 The effect of hydrostatic compression on the crystal structure of
 glycinium phosphite
;
_journal_issue                   5
_journal_name_full               'Acta Crystallographica Section B'
_journal_page_first
;
;
_journal_paper_doi               10.1107/S2052520622008289
_journal_volume                  78
_journal_year                    2022
_chemical_formula_moiety         'C2 H6 N O2, H2 O3 P'
_chemical_formula_sum            'C2 H8 N O5 P'
_chemical_formula_weight         157.06
_space_group_crystal_system      monoclinic
_space_group_IT_number           14
_space_group_name_Hall           '-P 2yab'
_space_group_name_H-M_alt        'P 1 21/a 1'
_atom_sites_solution_hydrogens   geom
_atom_sites_solution_primary     direct
_atom_sites_solution_secondary   difmap
_audit_creation_method           SHELXL-2018/3
_cell_angle_alpha                90
_cell_angle_beta                 101.01(3)
_cell_angle_gamma                90
_cell_formula_units_Z            4
_cell_length_a                   9.1703(10)
_cell_length_b                   8.4987(5)
_cell_length_c                   6.695(6)
_cell_measurement_pressure       5000000
_cell_measurement_reflns_used    553
_cell_measurement_temperature    293(2)
_cell_measurement_theta_max      24.9530
_cell_measurement_theta_min      3.2850
_cell_volume                     512.2(5)
_computing_cell_refinement       'CrysAlisPro 1.171.40.53 (Rigaku OD, 2019)'
_computing_data_collection       'CrysAlisPro 1.171.40.53 (Rigaku OD, 2019)'
_computing_data_reduction        'CrysAlisPro 1.171.40.53 (Rigaku OD, 2019)'
_computing_structure_refinement  'SHELXL-2018/3 (Sheldrick, 2018)'
_diffrn_ambient_pressure         5000000
_diffrn_ambient_temperature      293(2)
_diffrn_detector                 'CCD plate'
_diffrn_detector_area_resol_mean 10.3457
_diffrn_detector_type            Ruby
_diffrn_measured_fraction_theta_full 0.360
_diffrn_measured_fraction_theta_max 0.322
_diffrn_measurement_device       'four-circle diffractometer'
_diffrn_measurement_device_type  'Xcalibur, Ruby, Gemini ultra'
_diffrn_radiation_monochromator  graphite
_diffrn_radiation_probe          x-ray
_diffrn_radiation_type           'Mo K\a'
_diffrn_radiation_wavelength     0.71073
_diffrn_reflns_av_R_equivalents  0.1119
_diffrn_reflns_av_unetI/netI     0.0776
_diffrn_reflns_Laue_measured_fraction_full 0.360
_diffrn_reflns_Laue_measured_fraction_max 0.322
_diffrn_reflns_limit_h_max       11
_diffrn_reflns_limit_h_min       -12
_diffrn_reflns_limit_k_max       11
_diffrn_reflns_limit_k_min       -11
_diffrn_reflns_limit_l_max       3
_diffrn_reflns_limit_l_min       -3
_diffrn_reflns_number            2612
_diffrn_reflns_point_group_measured_fraction_full 0.360
_diffrn_reflns_point_group_measured_fraction_max 0.322
_diffrn_reflns_theta_full        25.242
_diffrn_reflns_theta_max         28.028
_diffrn_reflns_theta_min         3.297
_diffrn_source                   'fine-focus sealed X-ray tube'
_diffrn_source_type              'Enhance (Mo) X-ray Source'
_exptl_absorpt_coefficient_mu    0.484
_exptl_absorpt_correction_T_max  1.00000
_exptl_absorpt_correction_T_min  0.11654
_exptl_absorpt_correction_type   multi-scan
_exptl_absorpt_process_details
;
CrysAlisPro 1.171.40.53 (Rigaku Oxford Diffraction, 2019)
Empirical absorption correction using spherical harmonics,
 implemented in SCALE3 ABSPACK scaling algorithm.
;
_exptl_crystal_colour            white
_exptl_crystal_density_diffrn    2.037
_exptl_crystal_description       plates
_exptl_crystal_F_000             328
_exptl_crystal_size_max          0.21
_exptl_crystal_size_mid          0.10
_exptl_crystal_size_min          0.05
_refine_diff_density_max         0.248
_refine_diff_density_min         -0.301
_refine_diff_density_rms         0.075
_refine_ls_extinction_method     none
_refine_ls_goodness_of_fit_ref   1.039
_refine_ls_hydrogen_treatment    constr
_refine_ls_matrix_type           full
_refine_ls_number_parameters     86
_refine_ls_number_reflns         400
_refine_ls_number_restraints     2
_refine_ls_restrained_S_all      1.037
_refine_ls_R_factor_all          0.0993
_refine_ls_R_factor_gt           0.0570
_refine_ls_shift/su_max          0.000
_refine_ls_shift/su_mean         0.000
_refine_ls_structure_factor_coef Fsqd
_refine_ls_weighting_details
'w=1/[\s^2^(Fo^2^)+(0.0841P)^2^+0.3053P] where P=(Fo^2^+2Fc^2^)/3'
_refine_ls_weighting_scheme      calc
_refine_ls_wR_factor_gt          0.1252
_refine_ls_wR_factor_ref         0.1490
_reflns_Friedel_coverage         0.000
_reflns_number_gt                265
_reflns_number_total             400
_reflns_threshold_expression     'I > 2\s(I)'
_cod_data_source_file            xk5096sup1.cif
_cod_data_source_block           5.00
_cod_original_cell_volume        512.2(4)
_cod_original_sg_symbol_H-M      'P 21/a'
_cod_database_code               2109040
_shelx_shelxl_version_number     2018/3
_shelx_space_group_comment
;
The symmetry employed for this shelxl refinement is uniquely defined
by the following loop, which should always be used as a source of
symmetry information in preference to the above space-group names.
They are only intended as comments.
;
_oxdiff_exptl_absorpt_empirical_full_min 0.663
_oxdiff_exptl_absorpt_empirical_full_max 5.375
_oxdiff_exptl_absorpt_empirical_details
;
Empirical correction (ABSPACK) includes:
- Absorption correction using spherical harmonics
- Frame scaling
;
_shelx_res_file
;
TITL GPI_5 in P2(1)/c
    5.00.res
    created by SHELXL-2018/3 at 18:28:41 on 10-Aug-2022
REM  transformed to space group : P21/a:b3
REM P2(1)/c (#14 in standard setting)
CELL   0.71073  9.1703  8.4987  6.6953   90.000  101.006   90.000
ZERR   4        0.0010  0.0005  0.0057    0.000    0.030    0.000
LATT    1
SYMM   1/2-X,1/2+Y,-Z
SFAC C H N O P
UNIT 8 32 4 20 4
LIST 4 ! automatically inserted. Change 6 to 4 for CHECKCIF!!
PLAN 30
FMAP 2
L.S. 20
BOND
BOND $H
CONF
ACTA
EQIV $1 1-X, 1-Y,1-Z
EQIV $2 1/2+X, 3/2-Y,Z
EQIV $3 1-X, 2-Y, 2-Z
EQIV $4 1-X, 2-Y, 1-Z
EQIV $5 1/2+X, 1/2-Y, Z
HTAB N1 O2_$1
HTAB N1 O3_$2
HTAB N1 O2
HTAB O1 O1_$3
HTAB O3 O3_$4
HTAB O5 O2_$5
DFIX 1.66  H1 O1_$3
DFIX 1.70  H3 O3_$4
WGHT    0.084100    0.305300
FVAR       1.81413
C1    1    0.676294    0.283252    0.790669    11.00000    0.02050    0.01571 =
         0.04578    0.00416   -0.00341    0.00083
AFIX  23
H1D   2    0.698812    0.312599    0.933252    11.00000   -1.20000
H1E   2    0.578782    0.234712    0.762817    11.00000   -1.20000
AFIX   0
C2    1    0.788757    0.170923    0.745973    11.00000    0.01601    0.01337 =
         0.01016   -0.00034   -0.00202   -0.00244
N1    3    0.676952    0.424568    0.662271    11.00000    0.02083    0.01697 =
         0.08338    0.01555    0.02355    0.00398
AFIX 137
H1A   2    0.639132    0.400536    0.533411    11.00000   -1.20000
H1B   2    0.769793    0.458607    0.671629    11.00000   -1.20000
H1C   2    0.622326    0.499677    0.704439    11.00000   -1.20000
AFIX   0
O1    4    0.530867    0.864641    0.981431    11.00000    0.04157    0.01852 =
         0.02673   -0.00091    0.01998    0.00695
AFIX 147
H1    2    0.536500    0.960937    0.983994    10.50000   -1.20000
AFIX   0
O2    4    0.461789    0.645383    0.728638    11.00000    0.02559    0.01552 =
         0.03270   -0.00201    0.01042   -0.00662
O3    4    0.444457    0.927089    0.622387    11.00000    0.02651    0.02172 =
         0.05626    0.01629    0.00055    0.00377
AFIX 147
H3    2    0.488329    0.940221    0.527827    10.50000   -1.20000
AFIX   0
O4    4    0.853490    0.180947    0.608929    11.00000    0.02612    0.01770 =
         0.04141    0.00512    0.01618    0.00439
O5    4    0.807778    0.053753    0.886016    11.00000    0.03766    0.01905 =
         0.00706    0.00397    0.01065    0.00561
AFIX 147
H5    2    0.869362   -0.009065    0.859856    11.00000   -1.20000
AFIX   0
P1    5    0.528880    0.807990    0.771539    11.00000    0.02007    0.01220 =
         0.09534    0.00189    0.01872    0.00039
AFIX  13
H1P   2    0.631670    0.804220    0.750431    11.00000   -1.20000
AFIX   0
HKLF 4




REM  GPI_5 in P2(1)/c
REM wR2 = 0.1490, GooF = S = 1.039, Restrained GooF = 1.037 for all data
REM R1 = 0.0570 for 265 Fo > 4sig(Fo) and 0.0993 for all 400 data
REM 86 parameters refined using 2 restraints

END

WGHT      0.0840      0.3055

REM Highest difference peak  0.248,  deepest hole -0.301,  1-sigma level  0.075
Q1    1   0.8608  0.3050  0.5048  11.00000  0.05    0.25
Q2    1   0.3955  0.6236  0.7891  11.00000  0.05    0.24
Q3    1   0.6601  0.2048  1.0820  11.00000  0.05    0.22
Q4    1   0.9048  0.1792  0.5627  11.00000  0.05    0.22
Q5    1   0.6983  0.9747  0.6757  11.00000  0.05    0.22
Q6    1   0.6760  0.2216  1.1440  11.00000  0.05    0.22
Q7    1   0.8068  0.4569  0.4182  11.00000  0.05    0.21
Q8    1   0.7349  0.8447  0.7943  11.00000  0.05    0.21
Q9    1   0.7600  0.5243  0.8491  11.00000  0.05    0.20
Q10   1   0.8779  0.1787  1.0267  11.00000  0.05    0.20
Q11   1   0.5786  0.3294  0.8248  11.00000  0.05    0.20
Q12   1   0.6585  0.9208  1.0038  11.00000  0.05    0.19
Q13   1   0.7452  0.2391  0.7064  11.00000  0.05    0.19
Q14   1   0.6630  0.7465  0.7800  11.00000  0.05    0.19
Q15   1   0.7131  0.7539  0.6676  11.00000  0.05    0.19
Q16   1   0.4259  0.8281  0.5344  11.00000  0.05    0.19
Q17   1   0.8813  0.1914  0.9431  11.00000  0.05    0.19
Q18   1   0.8399  0.4322  0.5202  11.00000  0.05    0.19
Q19   1   0.8399  0.3467  0.7709  11.00000  0.05    0.19
Q20   1   1.0212 -0.0360  0.8916  11.00000  0.05    0.18
Q21   1   0.5560  0.2992  0.4451  11.00000  0.05    0.18
Q22   1   0.5624  0.3400  0.7446  11.00000  0.05    0.18
Q23   1   0.3230  0.9270  0.4947  11.00000  0.05    0.18
Q24   1   0.5848  0.6422  0.8131  11.00000  0.05    0.18
Q25   1   0.5575  0.6343  0.7665  11.00000  0.05    0.18
Q26   1   0.3360  0.8722  0.7267  11.00000  0.05    0.17
Q27   1   0.9538  0.1455  0.7243  11.00000  0.05    0.17
Q28   1   0.5464  0.2517  0.7556  11.00000  0.05    0.16
Q29   1   0.6777  0.3459  0.6816  11.00000  0.05    0.16
Q30   1   0.6538  0.6220  0.6883  11.00000  0.05    0.16
;
_shelx_res_checksum              1199
_shelx_hkl_file
;
   1   0   0 2.68104 6.14653   7 0.03939 0.03940-0.01398 0.01398 0.98819-0.97312
  -1   0   0 7.59713 6.22021   8-0.03939-0.03939 0.04275-0.04275-0.98738 0.97230
  -2   0   0 6862.60 158.865   9-0.07877-0.07877-0.34642 0.34654-0.93268 0.90249
   2   0   0 7076.01 154.756   6 0.07887 0.07886-0.32487 0.32499 0.94003-0.90980
  -2   0   0 6932.09 213.095   8-0.07878-0.07877 0.02768-0.02767-0.99316 0.96301
   2   0   0 6802.18 221.061   7 0.07879 0.07880-0.00675 0.00675 0.99352-0.96336
   3   0   0 7.00630 11.1408   6 0.11828 0.11827-0.23070 0.23089 0.97052-0.92520
  -3   0   0 -13.968 12.3096   9-0.11815-0.11816-0.25768 0.25785-0.96395 0.91869
   3   0   0 15.7413 23.8733   7 0.11819 0.11821 0.00051-0.00052 0.99726-0.95201
  -3   0   0 -7.9480 20.3667   8-0.11818-0.11816 0.01250-0.01249-0.99717 0.95195
   3   0   0 -7.7515 8.90637   4 0.11821 0.11823-0.23159 0.23119 0.97030-0.92514
   4   0   0 4168.80 161.829   4 0.15764 0.15764-0.13148 0.13093 0.99074-0.93047
   4   0   0 3900.86 157.948   6 0.15769 0.15768-0.13063 0.13089 0.99086-0.93047
   4   0   0 3922.11 248.552   7 0.15757 0.15761 0.00781-0.00782 0.99938-0.93906
  -4   0   0 4185.66 238.845   8-0.15758-0.15754-0.00278 0.00279-0.99941 0.93911
  -5   0   0 27.2113 55.8017   8-0.19698-0.19692-0.01817 0.01818-0.99982 0.92445
   5   0   0 65.3763 32.4374   6 0.19708 0.19707-0.02385 0.02419 0.99969-0.92425
  -5   0   0 55.0579 19.9438   1-0.19684-0.19688 0.04525-0.04543-0.99894 0.92358
   5   0   0 94.4687 61.1827   7 0.19696 0.19701 0.01515-0.01516 0.99987-0.92447
   6   0   0 6287.46 235.679   6 0.23646 0.23646 0.09093-0.09052 0.99478-0.90432
  -6   0   0 6121.88 367.146   8-0.23640-0.23631-0.03367 0.03368-0.99838 0.90794
   6   0   0 6530.81 412.684   7 0.23634 0.23642 0.02253-0.02254 0.99869-0.90820
  -7   0   0 5.30885 53.9372   2-0.27577-0.27571 0.04797-0.04815-0.99504 0.88951
  -7   0   0 143.153 78.0595   8-0.27580-0.27568-0.04929 0.04928-0.99500 0.88950
   7   0   0 96.8496 100.925   7 0.27572 0.27584 0.02994-0.02995 0.99579-0.89021
  -8   0   0 1179.72 173.148   2-0.31520-0.31512 0.09688-0.09709-0.98691 0.86629
   8   0   0 1094.59 195.711   3 0.31528 0.31542-0.08133 0.08072 0.98834-0.86765
  -8   0   0 1298.83 217.749   8-0.31522-0.31506-0.06502 0.06501-0.98963 0.86907
   8   0   0 1487.76 261.257   7 0.31510 0.31524 0.03739-0.03741 0.99111-0.87043
   9   0   0 -22.694 117.736   7 0.35448 0.35465 0.04488-0.04491 0.98458-0.84880
   9   0   0 134.763 123.553   3 0.35466 0.35484-0.11650 0.11584 0.97840-0.84263
  -9   0   0 -135.60 123.152   8-0.35463-0.35444-0.08088 0.08085-0.98218 0.84656
  10   0   0 543.524 263.195   7 0.39385 0.39406 0.05241-0.05245 0.97611-0.82523
 -10   0   0 912.049 263.186   8-0.39405-0.39382-0.09685 0.09683-0.97252 0.82185
 -11   0   0 89.1786 185.462   8-0.43348-0.43320-0.11298 0.11293-0.96052 0.79480
 -11   0   0 -17.563 134.104   5-0.43334-0.43302 0.14027-0.14038-0.95668 0.79101
  11   0   0 -245.71 195.098   7 0.43322 0.43347 0.05999-0.06003 0.96559-0.79962
   0   1   0 2.90209 4.78352   6 0.21996-0.21990 0.04174 0.04174 0.99871-0.99868
   0  -1   0 -1.4022 4.87845   1-0.21137 0.21137-0.04174-0.04174-0.99893 0.99890
   0   1   0 0.87108 3.64492   4 0.22018-0.22031 0.04174 0.04174 0.99870-0.99867
   0  -1   0 -3.2598 4.65540   9-0.20495 0.20499-0.04172-0.04172-0.99904 0.99902
   1  -1   0 384.253 32.6524   7 0.07587 0.00292-0.00729-0.07617 0.99318-0.97813
   1  -1   0 395.849 31.0921   6 0.26103-0.18228 0.16764-0.25100 0.98310-0.96806
  -1  -1   0 456.657 45.8214   1-0.18731 0.10855 0.09775-0.18132-0.99517 0.98006
  -1   1   0 387.114 32.5808   6 0.32206-0.40081 0.38297-0.29965 0.91155-0.92657
  -1  -1   0 411.407 41.7557   7-0.05130-0.02750-0.03050-0.05295 0.96994-0.98505
   1   1   0 392.468 40.7059   7 0.08880-0.01000-0.00491 0.08838 0.99462-0.97951
   1   1   0 446.766 48.5596   4 0.17468-0.09600-0.08616 0.16946 0.99612-0.98104
   1   1   0 345.892 41.7155   8 0.01601 0.06276 0.06378 0.01962-0.97631 0.99141
   1  -1   0 412.688 31.9911   4 0.26122-0.18223 0.16758-0.25124 0.98309-0.96800
  -1  -1   0 383.932 42.6655   8-0.10299 0.02420 0.01837-0.10176-0.99584 0.98073
  -1  -1   0 423.456 34.0929   9-0.28490 0.20623 0.19006-0.27341-0.97662 0.96154
   1   1   0 386.503 46.1503   6 0.17455-0.09565-0.08580 0.16937 0.99615-0.98102
  -1   1   0 385.407 33.9102   7-0.13114 0.05234-0.04488 0.12835 0.94693-0.96198
   1   1   0 424.041 44.9641   1-0.16058 0.23933 0.23040-0.14681-0.97267 0.98779
  -1   1   0 399.451 36.1858   1-0.22493 0.14624-0.13335 0.21673-0.99046 0.97543
   1  -1   0 380.292 43.1924   9-0.13851 0.21730-0.20966 0.12613-0.97660 0.99166
  -2   1   0 988.799 56.0191   1-0.24122 0.08389-0.26496 0.34829-0.96259 0.93254
   2   1   0 991.638 90.1292   7 0.10218 0.05540-0.00244 0.08591 0.99593-0.96574
  -2  -1   0 933.624 88.3744   8-0.10929-0.04827 0.01593-0.09932-0.99642 0.96624
  -2   1   0 993.396 71.9241   8-0.08811-0.06946 0.02410 0.05932-0.99427 0.96414
  -2  -1   0 1015.47 85.2845   4 0.07561-0.23307-0.33311 0.24995 0.93684-0.96694
   2  -1   0 866.665 79.3446   9-0.08055 0.23811-0.34253 0.25893-0.93427 0.96444
   2  -1   0 926.376 78.9437   7 0.09932 0.05827-0.00297-0.08049 0.99567-0.96554
  -2  -1   0 1064.74 80.0636   1-0.17811 0.02056 0.14559-0.22922-0.98923 0.95903
   2   1   0 956.077 82.2775   6 0.16291-0.00515-0.11689 0.20053 0.99272-0.96248
  -3   1   0 20271.2 416.274   8-0.13012-0.10623 0.00788 0.07554-0.99804 0.95284
   3  -1   0 21989.4 452.643   9-0.02752 0.26388-0.45435 0.37067-0.87936 0.92465
   3   1   0 20627.2 494.574   7 0.13184 0.10455 0.00304 0.08042 0.99818-0.95291
   3   1   0 20700.5 425.757   6 0.16880 0.06780-0.10123 0.18493 0.99459-0.94925
  -3  -1   0 20103.0 482.829   8-0.13501-0.10133 0.00598-0.08937-0.99835 0.95310
   3  -1   0 20380.8 464.365   7 0.13414 0.10224 0.00347-0.08692 0.99831-0.95310
  -3  -1   0 22109.4 458.229   4 0.02469-0.26091-0.44613 0.36309 0.88267-0.92776
  -4  -1   0 187.332 62.6621   8-0.16692-0.14819-0.00642-0.07696-0.99967 0.93935
   4  -1   0 104.425 48.7583   7 0.17137 0.14380 0.01038-0.09385 0.99974-0.93945
   4   1   0 108.894 40.7043   6 0.18441 0.13101-0.05899 0.14275 0.99822-0.93780
  -4   1   0 114.977 45.7188   8-0.17072-0.14442-0.00790 0.09131-0.99975 0.93948
  -4  -1   0 31.2760 15.6250   9-0.07404-0.24100-0.35675 0.27350-0.92833 0.86796
   4  -1   0 71.9751 37.3782   9 0.02250 0.29266-0.55179 0.46805-0.81415 0.87457
  -4  -1   0 65.8199 38.3921   4-0.02395-0.29102-0.54601 0.46305 0.81719-0.87727
   4   1   0 38.9876 33.3926   7 0.16612 0.14905 0.00941 0.07406 0.99963-0.93928
   5  -1   0 911.432 141.182   7 0.20951 0.18446 0.01750-0.10097 0.99968-0.92431
  -5  -1   0 796.304 128.527   8-0.20158-0.19231-0.01998-0.06341-0.99975 0.92436
   5   1   0 843.897 101.566   6 0.20581 0.18842 0.00084 0.08299 0.99989-0.92440
   5   1   0 910.869 144.642   7 0.20237 0.19161 0.01616 0.06730 0.99981-0.92437
  -5   1   0 969.877 128.404   8-0.21082-0.18311-0.02360 0.10701-0.99953 0.92418
   6   1   0 706.816 103.663   6 0.23084 0.24218 0.07400 0.00988 0.99644-0.90590
   6  -1   0 600.320 130.631   7 0.24806 0.22467 0.02473-0.10821 0.99801-0.90755
   6   1   0 662.059 132.082   7 0.23962 0.23315 0.02314 0.06032 0.99852-0.90799
  -6   1   0 507.619 106.902   8-0.25070-0.22203-0.03932 0.12273-0.99738 0.90696
  -6  -1   0 687.654 132.668   8-0.23772-0.23496-0.03419-0.04919-0.99829 0.90784
   7  -1   0 -29.723 76.5142   7 0.28688 0.26465 0.03205-0.11553 0.99465-0.88910
   7   1   0 102.293 71.5107   6 0.25823 0.29356 0.15863-0.07470 0.98483-0.87925
  -7   1   0 138.113 92.3373   8-0.29046-0.26107-0.05512 0.13852-0.99325 0.88776
   7   1   0 38.3983 78.8047   7 0.27746 0.27411 0.03027 0.05319 0.99562-0.89000
  -7   1   0 95.6506 78.5801   2-0.27495-0.27647 0.04696 0.03627-0.99516 0.88969
  -7  -1   0 115.550 84.1181   8-0.27472-0.27674-0.04886-0.03454-0.99512 0.88960
  -7  -1   0 51.1939 54.0217   2-0.29250-0.25908 0.06856-0.15219-0.99213 0.88653
  -8   1   0 721.615 149.583   2-0.30891-0.32133 0.08899-0.00577-0.98851 0.86795
  -8  -1   0 878.161 187.364   8-0.31229-0.31797-0.06384-0.01955-0.99011 0.86952
   8   1   0 656.967 147.937   3 0.33363 0.29693-0.09764 0.18055 0.98412-0.86345
   8  -1   0 983.996 219.741   7 0.32584 0.30447 0.03943-0.12291 0.98951-0.86888
   8  -1   0 755.262 181.136   3 0.31066 0.32013-0.07725-0.00686 0.98930-0.86858
   8   1   0 1048.91 231.296   7 0.31566 0.31470 0.03750 0.04596 0.99103-0.87032
  -8   1   0 905.648 176.670   8-0.33014-0.30018-0.07101 0.15439-0.98706 0.86652
  -9  -1   0 -100.79 130.582   8-0.35023-0.35881-0.07910-0.00432-0.98312 0.84748
  -9   1   0 -12.583 76.8093   2-0.34383-0.36524 0.13321-0.04999-0.97811 0.84248
   9   1   0 -35.483 105.409   7 0.35411 0.35503 0.04481 0.03864 0.98465-0.84884
   9  -1   0 46.3529 106.092   3 0.34678 0.36283-0.10942 0.02524 0.98065-0.84485
   9  -1   0 4.19867 122.825   7 0.36490 0.34420 0.04687-0.13037 0.98253-0.84679
  -9   1   0 16.7589 106.245   8-0.36979-0.33934-0.08700 0.17038-0.97873 0.84313
  10   1   0 1986.35 384.855   7 0.39274 0.39519 0.05220 0.03124 0.97637-0.82546
 -10  -1   0 1828.08 331.890   8-0.38845-0.39938-0.09457 0.01116-0.97403 0.82335
 -10   1   0 1760.03 302.573   8-0.40939-0.37853-0.10312 0.18648-0.96814 0.81748
  10  -1   0 2551.61 451.709   7 0.40403 0.38386 0.05437-0.13787 0.97359-0.82276
  10  -1   0 2006.41 343.997   3 0.38345 0.40498-0.14261 0.05839 0.96896-0.81807
 -11  -1   0 36.4490 164.645   8-0.42687-0.43976-0.11027 0.02684-0.96270 0.79697
 -11   1   0 -110.49 169.449   8-0.44899-0.41775-0.11936 0.20272-0.95512 0.78942
  11   1   0 562.222 265.432   7 0.43149 0.43522 0.05966 0.02378 0.96610-0.80008
  11  -1   0 325.357 225.366   7 0.44320 0.42346 0.06192-0.14544 0.96259-0.79665
   0   2   0 4625.04 159.759   2-0.30447 0.30444 0.08345 0.08342-0.98956 0.98962
   0  -2   0 4857.76 187.678   9-0.18911 0.18920-0.08345-0.08343-0.99654 0.99649
   0   2   0 4518.90 181.670   6 0.23399-0.23390 0.08347 0.08348 0.99555-0.99550
   0  -2   0 4708.57 147.764   3 0.31769-0.31758-0.08348-0.08349 0.98783-0.98789
  -1   2   0 172.140 36.3603   1-0.20359 0.12490 0.00599 0.16087-0.99990 0.98490
  -1  -2   0 180.985 30.5016   7-0.12388 0.04507-0.04358-0.12333 0.94929-0.96443
   1   2   0 158.005 27.2576   7 0.18771-0.10895 0.01343 0.15348 0.99991-0.98477
   1   2   0 235.680 32.8654   2-0.49129 0.57006 0.33409-0.16707-0.88343 0.89861
  -1   2   0 182.798 34.3323   6 0.28140-0.36014 0.23484-0.06804 0.96714-0.98216
   1   2   0 155.341 39.7940   6 0.20705-0.12811 0.00439 0.16267 0.99986-0.98471
   1  -2   0 197.556 35.7165   4 0.20363-0.12453-0.00607-0.16105 0.99990-0.98485
  -1  -2   0 213.970 37.7969   8-0.18636 0.10755-0.01401-0.15279-0.99989 0.98476
  -1  -2   0 170.010 32.8338   9-0.22122 0.14257 0.00242-0.16923-0.99953 0.98442
   1  -2   0 159.817 37.6665   9-0.15310 0.23193-0.17433 0.00736-0.98409 0.99911
   2  -2   0 2512.20 115.802   4 0.22419-0.06623 0.05351-0.22079 0.99801-0.96783
   2   2   0 2395.08 160.471   6 0.19596-0.03816-0.02699 0.19413 0.99962-0.96935
  -2   2   0 2730.53 129.705   6 0.34612-0.50362 0.48451-0.31788 0.85494-0.88494
   2   2   0 2381.69 145.064   7 0.15867-0.00111 0.00802 0.15891 0.99942-0.96920
   2  -2   0 2675.29 118.632   6 0.22406-0.06655 0.05383-0.22057 0.99800-0.96792
  -2  -2   0 2397.92 113.639   9-0.24711 0.08974 0.07556-0.24231-0.99545 0.96528
  -2  -2   0 2575.78 167.257   4 0.10709-0.26446-0.25873 0.09214 0.96266-0.99282
   2  -2   0 2468.88 119.701   7 0.17984-0.02227 0.01196-0.17885 0.99986-0.96977
  -2   2   0 2490.49 130.424   1-0.21136 0.05398-0.04171 0.20851-0.99893 0.96888
  -2  -2   0 2455.17 152.124   8-0.16224 0.00466-0.00460-0.16219-0.99955 0.96935
   2  -2   0 2486.02 162.516   9-0.11455 0.27214-0.26600 0.09895-0.96146 0.99158
  -2   2   0 2423.11 97.6292   8-0.17884 0.02125-0.01107 0.17792-0.99986 0.96976
  -3  -2   0 2221.82 99.5118   9-0.26261 0.02653 0.12129-0.28798-0.98977 0.94456
   3   2   0 2366.87 171.054   6 0.19610 0.04055-0.02659 0.19380 0.99963-0.95426
   3  -2   0 2281.68 101.445   6 0.23226 0.00405 0.07827-0.24494 0.99605-0.95092
   3   2   0 2202.07 167.495   7 0.16995 0.06642 0.01012 0.15682 0.99972-0.95442
  -3   2   0 2300.41 122.620   1-0.21275-0.02332-0.05058 0.21735-0.99849 0.95339
  -3  -2   0 2264.39 170.621   4 0.06901-0.30516-0.34824 0.18181 0.93068-0.97585
   3  -2   0 2348.81 178.207   9-0.07433 0.31069-0.35610 0.18896-0.92861 0.97384
  -3   2   0 2332.52 130.967   8-0.18719-0.04919-0.01434 0.18118-0.99989 0.95471
  -3  -2   0 2296.94 173.960   8-0.17132-0.06503-0.00814-0.15864-0.99976 0.95449
   3  -2   0 2294.78 101.115   4 0.23227 0.00455 0.07761-0.24502 0.99611-0.95080
   3  -2   0 2311.68 152.803   7 0.18641 0.04994 0.01318-0.18009 0.99990-0.95473
  -5  -2   0 2678.68 238.580   8-0.22068-0.17322-0.02748-0.13929-0.99918 0.92377
   5  -2   0 2654.14 227.346   7 0.24233 0.15161 0.02365-0.19057 0.99836-0.92302
   5  -2   0 2317.24 209.004   9 0.00921 0.38473-0.52667 0.35937-0.83273 0.90822
   5   2   0 2381.67 198.164   6 0.21769 0.17661 0.03512 0.13220 0.99903-0.92349
  -5  -2   0 2371.96 215.049   4-0.01138-0.38226-0.52095 0.35475 0.83538-0.91052
  -5   2   0 2535.41 194.961   8-0.24864-0.14533-0.03851 0.20534-0.99754 0.92221
   5   2   0 2489.14 234.445   7 0.22376 0.17021 0.02017 0.14677 0.99925-0.92378
   6   2   0 747.208 126.838   6 0.23525 0.23785 0.08729 0.08008 0.99516-0.90456
   6  -2   0 783.986 151.255   7 0.27641 0.19630 0.03007-0.19700 0.99572-0.90530
  -6  -2   0 589.621 137.416   8-0.25180-0.22088-0.03976-0.12701-0.99729 0.90681
   6   2   0 794.933 157.813   7 0.25650 0.21626 0.02632 0.14062 0.99742-0.90686
  -6  -2   0 550.430 81.6667   2-0.28824-0.18460 0.06330-0.23036-0.99295 0.90237
  -6   2   0 728.617 119.302   8-0.28446-0.18831-0.05274 0.21956-0.99400 0.90360
   6  -2   0 29.9586 42.8274   9 0.05201 0.42073-0.60566 0.43830-0.76960 0.86025
  -7   2   0 2511.97 260.663   2-0.28356-0.26781 0.05753 0.10910-0.99378 0.88837
   7  -2   0 2860.84 300.204   7 0.31210 0.23939 0.03682-0.20376 0.99153-0.88602
  -7  -2   0 2589.98 283.916   8-0.28501-0.26644-0.05296-0.11382-0.99393 0.88839
  -7   2   0 3191.13 275.282   8-0.32149-0.23008-0.06753 0.23435-0.98859 0.88313
   7   2   0 2987.50 252.108   6 0.25568 0.29620 0.15056 0.01685 0.98629-0.88064
   7   2   0 2709.44 303.123   7 0.29103 0.26053 0.03283 0.13410 0.99418-0.88853
   7   2   0 2593.09 218.646   3 0.32932 0.22228-0.09381 0.26027 0.98517-0.87960
  -8  -2   0 144.012 126.522   8-0.31962-0.31062-0.06678-0.10000-0.98891 0.86831
  -8   2   0 286.625 121.577   8-0.35921-0.27116-0.08273 0.24954-0.98117 0.86064
   8  -2   0 374.966 152.037   3 0.31586 0.31501-0.08186-0.08577 0.98822-0.86748
   8   2   0 181.392 121.774   7 0.32671 0.30365 0.03960 0.12734 0.98938-0.86863
   8  -2   0 138.076 100.448   7 0.34878 0.28149 0.04379-0.21074 0.98564-0.86504
  -8   2   0 223.450 106.828   2-0.31249-0.31770 0.09347 0.07316-0.98761 0.86712
  -9   2   0 1043.39 190.029   8-0.39740-0.31179-0.09821 0.26501-0.97159 0.83601
  -9   2   0 1402.10 254.214   2-0.34308-0.36591 0.13225 0.03438-0.97838 0.84281
   9   2   0 1037.14 236.997   7 0.36315 0.34599 0.04653 0.12039 0.98288-0.84703
  -9  -2   0 1102.64 234.595   8-0.35518-0.35384-0.08110-0.08570-0.98206 0.84641
   9  -2   0 1213.06 251.930   3 0.34839 0.36132-0.11085-0.05683 0.98021-0.84438
   9  -2   0 1238.19 254.601   7 0.38609 0.32297 0.05092-0.21788 0.97793-0.84224
  10  -2   0 133.349 136.981   7 0.42385 0.36401 0.05818-0.22514 0.96829-0.81749
 -10   2   0 348.877 146.787   8-0.43587-0.35211-0.11396 0.28074-0.95971 0.80908
  10   2   0 220.895 181.020   7 0.40016 0.38778 0.05362 0.11330 0.97456-0.82360
 -10   2   0 0.48967 120.954   2-0.37493-0.41289 0.17350-0.00687-0.96554 0.81490
  10  -2   0 151.578 110.660   3 0.38197 0.40656-0.14127-0.02647 0.96949-0.81857
 -10  -2   0 41.3357 126.780   8-0.39143-0.39638-0.09579-0.07102-0.97323 0.82254
 -11  -2   0 651.323 237.621   8-0.42820-0.43841-0.11081-0.05600-0.96227 0.79653
  11  -2   0 442.246 176.163   3 0.41637 0.45098-0.17293 0.00514 0.95573-0.78972
  11   2   0 575.142 278.730   7 0.43757 0.42916 0.06083 0.10609 0.96430-0.79823
  11  -2   0 4.50517 125.420   7 0.46190 0.40472 0.06555-0.23252 0.95657-0.79067
   0   3   0 1.21479 18.2122   2-0.33755 0.33750 0.12517 0.12512-0.98026 0.98036
   0  -3   0 -2.6024 12.2715   8-0.46305 0.46297-0.12517-0.12514-0.94988 0.94984
   0  -3   0 17.0972 16.5379   3 0.36430-0.36414-0.12520-0.12523 0.97545-0.97555
   0  -3   0 -11.490 22.6127   4 0.16003-0.15965-0.12519-0.12523 0.99163-0.99169
   0  -3   0 -17.717 23.5726   9-0.17284 0.17297-0.12518-0.12515-0.99202 0.99195
   0   3   0 13.7173 26.3114   6 0.24760-0.24748 0.12519 0.12524 0.99041-0.99033
  -1  -3   0 791.254 78.7859   8-0.27780 0.19895-0.05009-0.20015-0.99478 0.97963
  -1  -3   0 784.766 66.4543   3 0.56200-0.64068-0.31436 0.06415 0.85840-0.87357
  -1   3   0 808.727 90.7283   6 0.27853-0.35726 0.22518 0.02510 0.96977-0.98477
   1   3   0 870.633 78.5078   2-0.45392 0.53262 0.28053-0.03007-0.91689 0.93211
  -1   3   0 717.051 91.3497   1-0.19106 0.11236 0.07751 0.17283-0.99697 0.98200
   1  -3   0 834.139 92.8854   4 0.17611-0.09688-0.08229-0.16829 0.99647-0.98143
  -1   3   0 806.221 92.5109   2-0.27757 0.19877 0.05016 0.20003-0.99477 0.97979
  -1  -3   0 965.658 99.5662   9-0.19148 0.11289-0.07728-0.17299-0.99703 0.98190
   1   3   0 849.936 67.7410   7 0.31707-0.23835 0.03777 0.21259 0.99082-0.97566
   1   3   0 731.449 97.7420   6 0.22812-0.14913 0.06586 0.18467 0.99713-0.98194
   1  -3   0 713.160 97.9761   9-0.14894 0.22781-0.18448-0.06593-0.98209 0.99709
  -2  -3   0 1041.40 96.8804   9-0.20302 0.04568-0.04688-0.20332-0.99884 0.96865
  -2   3   0 962.553 93.6338   6 0.32036-0.47788 0.37629-0.12619 0.91471-0.94474
   2   3   0 1046.83 99.7672   7 0.24058-0.08304 0.02332 0.22706 0.99846-0.96822
  -2  -3   0 990.717 104.188   8-0.22879 0.07119-0.03068-0.21952-0.99880 0.96857
  -2   3   0 985.072 107.154   1-0.19572 0.03834 0.05160 0.19869-0.99864 0.96862
   2  -3   0 1097.14 126.671   9-0.12102 0.27864-0.25099 0.00049-0.96589 0.99597
   2  -3   0 998.673 68.2566   7 0.34649-0.18894 0.04335-0.29365 0.98605-0.95599
  -2  -3   0 1079.19 128.648   4 0.11258-0.26984-0.24539-0.00467 0.96653-0.99674
   2  -3   0 1074.73 102.799   4 0.18474-0.02666-0.05878-0.19195 0.99823-0.96808
   2   3   0 1006.86 122.757   6 0.21848-0.06064 0.03742 0.21320 0.99892-0.96864
   3   3   0 6376.01 332.508   6 0.21675 0.01995 0.03238 0.21831 0.99915-0.95375
  -3   3   0 6640.40 201.260   8-0.32274 0.08633-0.06804 0.31835-0.98838 0.94321
  -3  -3   0 6283.28 314.924   8-0.22131-0.01506-0.02773-0.22244-0.99915 0.95385
  -3  -3   0 6371.96 227.297   9-0.20417-0.03190-0.04380-0.20634-0.99897 0.95371
  -3  -3   0 5975.07 323.138   4 0.08337-0.31942-0.31511 0.06522 0.94376-0.98900
   3  -3   0 5764.89 243.721   7 0.28411-0.04779 0.03153-0.28185 0.99494-0.94980
  -3   3   0 7326.14 286.266   6 0.36555-0.60179 0.58168-0.33175 0.78335-0.82832
  -3   3   0 6261.06 265.472   1-0.19565-0.04044 0.05199 0.19828-0.99862 0.95354
   3  -3   0 5750.18 227.282   4 0.18250 0.05442-0.06491-0.18595 0.99783-0.95257
   3   3   0 5886.28 288.898   7 0.22845 0.00789 0.02105 0.22936 0.99906-0.95373
   3  -3   0 6077.05 338.210   9-0.08995 0.32633-0.32175 0.07116-0.94244 0.98762
   4  -3   0 2231.31 126.938   4 0.16182 0.15394-0.12048-0.13049 0.99226-0.93191
  -4  -3   0 2314.02 215.884   4 0.05145-0.36627-0.38783 0.13811 0.91300-0.97325
   4  -3   0 2453.50 218.736   9-0.05638 0.37154-0.39460 0.14392-0.91109 0.97139
   4   3   0 2274.56 202.626   7 0.23874 0.07641 0.02298 0.22743 0.99856-0.93815
   4  -3   0 2552.88 190.488   7 0.28166 0.03346 0.03106-0.28140 0.99520-0.93498
  -4   3   0 2382.65 153.749   8-0.30553-0.00968-0.06115 0.31143-0.99114 0.93091
  -4  -3   0 2412.26 217.313   8-0.23168-0.08346-0.03181-0.21834-0.99865 0.93828
  -4   3   0 2202.88 149.538   1-0.18977-0.12505 0.08450 0.16577-0.99640 0.93625
  -4  -3   0 2181.06 116.783   9-0.18783-0.12700-0.08681-0.16331-0.99625 0.93592
   4   3   0 2289.04 209.831   6 0.22121 0.09432 0.04544 0.20531 0.99851-0.93801
  -5  -3   0 523.812 114.533   8-0.25134-0.14257-0.03958-0.21058-0.99733 0.92189
   5  -3   0 448.211 103.683   9-0.02078 0.41472-0.46793 0.21716-0.87133 0.94676
  -5  -3   0 578.510 125.587   4 0.01731-0.41089-0.46178 0.21219 0.87360-0.94883
  -5   3   0 410.704 74.4157   8-0.31871-0.07531-0.06642 0.31670-0.98906 0.91375
   5  -3   0 452.031 98.1414   7 0.29821 0.09569 0.03419-0.28454 0.99334-0.91803
   5   3   0 504.462 112.651   7 0.25941 0.13454 0.02687 0.22355 0.99720-0.92170
   5   3   0 392.416 90.3657   6 0.23048 0.16389 0.07293 0.17787 0.99654-0.92095
  -5  -3   0 375.615 45.4976   9-0.12969-0.26394-0.23064-0.01947-0.97143 0.89600
   5   3   0 397.299 54.1343   3 0.34464 0.04918-0.10750 0.35754 0.98124-0.90583
  -5   3   0 462.264 68.6310   1-0.17550-0.21811 0.15872 0.09159-0.98718 0.91195
   5  -3   0 362.641 45.0812   4 0.09661 0.29796-0.28389 0.03289 0.95474-0.87935
   6  -3   0 423.115 110.606   9 0.01649 0.45624-0.54050 0.28964-0.82267 0.91325
  -6   3   0 319.875 82.1694   8-0.34300-0.12982-0.07618 0.32645-0.98460 0.89422
  -6  -3   0 438.871 129.260   8-0.27642-0.19626-0.04954-0.20062-0.99494 0.90444
  -6   3   0 300.931 98.1301   2-0.27661-0.19594 0.04900 0.20104-0.99491 0.90462
   6   3   0 302.697 103.525   7 0.28575 0.18699 0.03183 0.21859 0.99477-0.90417
  -6  -3   0 216.450 78.6624   4-0.01867-0.45365-0.53554 0.28608 0.82494-0.91515
   6   3   0 190.086 52.2749   3 0.37290 0.09973-0.13300 0.38299 0.97264-0.88216
   6  -3   0 413.180 112.624   7 0.32322 0.14946 0.03893-0.28930 0.98991-0.89952
   6   3   0 326.445 98.5302   6 0.24346 0.22972 0.11236 0.13849 0.99220-0.90154
   7  -3   0 162.061 89.7271   9 0.05518 0.49635-0.61126 0.36035-0.76456 0.87030
  -7  -3   0 368.485 150.953   8-0.30495-0.24651-0.06091-0.18925-0.99123 0.88567
  -7   3   0 -24.388 93.5486   2-0.29818-0.25315 0.07561 0.17440-0.99096 0.88561
  -7   3   0 395.223 113.086   8-0.37262-0.17901-0.08815 0.33841-0.97805 0.87260
   7   3   0 290.529 137.584   7 0.31551 0.23604 0.03747 0.21295 0.99105-0.88535
   7   3   0 207.251 111.089   6 0.25931 0.29267 0.16208 0.08880 0.98418-0.87844
   7  -3   0 231.781 113.328   7 0.35274 0.19872 0.04454-0.29493 0.98490-0.87943
   7  -3   0 88.6852 99.8839   3 0.30155 0.25058-0.06921-0.18187 0.99105-0.88539
   8   3   0 739.765 201.214   7 0.34750 0.28284 0.04355 0.20687 0.98587-0.86508
   8  -3   0 568.528 188.120   3 0.32834 0.30263-0.09292-0.15821 0.98541-0.86466
  -8  -3   0 796.729 193.550   8-0.33581-0.29443-0.07328-0.17687-0.98601 0.86540
  -8   3   0 582.053 125.479   8-0.40520-0.22524-0.10141 0.35164-0.96937 0.84886
  -8   3   0 531.239 158.924   2-0.32264-0.30750 0.10625 0.14378-0.98487 0.86444
   8  -3   0 535.094 151.529   7 0.38493 0.24531 0.05070-0.30108 0.97820-0.85764
   9   3   0 40.7866 102.899   7 0.38102 0.32813 0.04995 0.20046 0.97909-0.84319
   9  -3   0 -139.16 128.141   3 0.35718 0.35261-0.11877-0.13243 0.97765-0.84180
   9  -3   0 -44.818 124.452   7 0.41885 0.29017 0.05722-0.30761 0.96968-0.83402
  -9   3   0 -113.99 95.4963   8-0.43960-0.26965-0.11549 0.36573-0.95844 0.82287
  -9  -3   0 179.848 128.351   8-0.36831-0.34071-0.08640-0.16376-0.97908 0.84342
  -9   3   0 -55.545 95.0594   2-0.34925-0.35968 0.14016 0.10986-0.97616 0.84067
 -10   3   0 -20.526 135.102   2-0.37754-0.41022 0.17693 0.07312-0.96433 0.81377
 -10  -3   0 206.010 172.567   8-0.40201-0.38579-0.10009-0.15008-0.97029 0.81959
  10  -3   0 137.376 135.392   7 0.45394 0.33386 0.06400-0.31441 0.95920-0.80844
  10  -3   0 186.912 150.430   3 0.38757 0.40105-0.14638-0.10488 0.96745-0.81650
  10   3   0 157.518 204.656   7 0.41562 0.37232 0.05660 0.19381 0.97055-0.81955
  11  -3   0 331.507 244.899   3 0.41914 0.44830-0.17551-0.07579 0.95449-0.78844
  11  -3   0 12.2404 96.2098   7 0.48986 0.37672 0.07098-0.32140 0.94661-0.78076
   0  -4   0 3250.51 218.379   4 0.14397-0.14344-0.16690-0.16698 0.98488-0.98495
   0  -4   0 2992.51 172.168   3 0.40987-0.40970-0.16691-0.16698 0.95855-0.95869
   0   4   0 3279.62 198.010   2-0.36989 0.36980 0.16692 0.16682-0.96780 0.96794
   0   4   0 3157.92 209.189   6 0.26081-0.26065 0.16691 0.16699 0.98324-0.98313
   0   4   0 2979.02 209.930   1-0.17383 0.17384 0.16702 0.16689-0.98578 0.98591
   0  -4   0 3050.06 217.283   9-0.15612 0.15630-0.16692-0.16687-0.98547 0.98538
   0  -4   0 3417.92 139.214   8-0.56266 0.56255-0.16690-0.16687-0.90242 0.90239
   0   4   0 3108.01 140.639   5-0.47634 0.47638 0.16683 0.16681-0.93844 0.93853
  -1  -4   0 -39.796 44.4457   8-0.37268 0.29379-0.08817-0.24549-0.97804 0.96288
  -1   4   0 -39.106 54.0348   2-0.31846 0.23964 0.10098 0.23263-0.98603 0.97109
  -1  -4   0 61.1629 61.1126   9-0.16838 0.08983-0.13642-0.19729-0.99046 0.97530
   1   4   0 74.0556 70.7140   6 0.24540-0.16638 0.11836 0.21566 0.99139-0.97618
   1   4   0 -27.532 50.2110   2-0.45641 0.53507 0.28403 0.04987-0.91489 0.93016
   1  -4   0 -71.335 74.6239   4 0.15441-0.07505-0.13989-0.19415 0.98948-0.97445
   1  -4   0 40.0921 57.3853   9-0.13878 0.21770-0.20901-0.12484-0.97675 0.99173
  -1  -4   0 44.9058 47.1303   3 0.55485-0.63352-0.30708-0.02660 0.86501-0.88022
   1  -4   0 21.3954 45.7731   3 0.33356-0.25451-0.09758-0.23647 0.98414-0.96916
   1   4   0 132.474 51.4452   7 0.46558-0.38692 0.06625 0.26752 0.95533-0.94011
  -1   4   0 2.80595 51.6345   6 0.28382-0.36253 0.24313 0.09062 0.96479-0.97976
  -1   4   0 32.5679 79.1330   1-0.18044 0.10176 0.13370 0.20012-0.99093 0.97600
  -2   4   0 2819.46 191.259   6 0.31413-0.47165 0.35224-0.01867 0.92555-0.95556
  -2  -4   0 2612.21 177.353   8-0.30397 0.14631-0.06052-0.27309-0.99138 0.96113
   2  -4   0 2595.04 224.782   9-0.11733 0.27499-0.25957-0.07437-0.96339 0.99345
  -2   4   0 2770.06 206.103   1-0.18357 0.02620 0.11749 0.21629-0.99301 0.96303
   2   4   0 2609.85 218.883   6 0.23694-0.07905 0.09241 0.24170 0.99462-0.96430
   2  -4   0 2778.80 101.929   7 0.64953-0.49197 0.10261-0.43624 0.86378-0.83378
   2   4   0 2411.09 157.613   7 0.34216-0.18467 0.04253 0.29130 0.98682-0.95654
   2  -4   0 2843.07 200.212   4 0.15833-0.00011-0.12964-0.20455 0.99101-0.96085
  -2  -4   0 2502.41 181.379   9-0.17419 0.01691-0.12176-0.21189-0.99247 0.96225
  -3  -4   0 3166.06 192.681   9-0.17127-0.06475-0.12913-0.20449-0.99149 0.94621
   3  -4   0 3166.72 205.909   4 0.15347 0.08360-0.14236-0.19195 0.98910-0.94383
  -3   4   0 2904.88 211.072   1-0.18288-0.05319 0.12108 0.21267-0.99258 0.94754
   3   4   0 2965.26 246.902   6 0.23444 0.00231 0.08483 0.24935 0.99542-0.94999
   3  -4   0 3032.43 259.794   9-0.09246 0.32887-0.31617-0.01787-0.94453 0.98969
   3  -4   0 2998.20 154.599   7 0.44051-0.20419 0.06140-0.39510 0.96341-0.91831
  -3  -4   0 2941.33 217.611   8-0.28115 0.04473-0.05142-0.28216-0.99439 0.94908
  -3  -4   0 3039.30 255.070   4 0.08530-0.32125-0.31060-0.02275 0.94543-0.99071
  -3   4   0 3104.77 201.972   6 0.34892-0.58521 0.49744-0.16405 0.84648-0.89148
  -3   4   0 3258.90 111.316   8-0.63073 0.39427-0.19613 0.52999-0.85769 0.81251
   3   4   0 3002.61 206.543   7 0.30400-0.06770 0.03529 0.29857 0.99261-0.94725
  -4  -4   0 464.278 42.5409   5-0.58237 0.26704 0.23432-0.56799-0.87542 0.81505
  -4  -4   0 550.483 120.345   4 0.05901-0.37376-0.37090 0.03772 0.92084-0.98114
   4   4   0 596.280 116.411   7 0.29811 0.01700 0.03417 0.29971 0.99335-0.93290
   4  -4   0 522.156 83.6211   7 0.38876-0.07368 0.05144-0.38517 0.97731-0.91713
  -4   4   0 626.265 72.9660   8-0.46981 0.15454-0.12797 0.46176-0.94725 0.88702
  -4   4   0 722.137 135.896   2-0.27909-0.03594 0.05203 0.28143-0.99453 0.93440
   4  -4   0 536.674 84.0156   4 0.13557 0.18033-0.18828-0.14613 0.98062-0.92025
  -4  -4   0 626.630 82.8034   9-0.15539-0.15939-0.16871-0.16488-0.98514 0.92480
  -4  -4   0 640.476 127.909   8-0.28021-0.03497-0.05104-0.28252-0.99450 0.93412
   4   4   0 483.744 108.492   6 0.23692 0.07868 0.09234 0.24190 0.99463-0.93409
  -4   4   0 574.170 96.1098   1-0.17766-0.13714 0.14786 0.18590-0.98889 0.92879
   4  -4   0 461.205 110.480   9-0.06469 0.37987-0.37689 0.04277-0.91943 0.97968
  -5   4   0 6922.35 310.912   1-0.16646-0.22710 0.20276 0.13106-0.97893 0.90376
   5   4   0 6587.40 399.609   7 0.30783 0.08609 0.03601 0.29788 0.99211-0.91656
  -5  -4   0 6536.38 417.428   4 0.03018-0.42369-0.43435 0.10135 0.88923-0.96453
  -5  -4   0 6818.03 246.026   9-0.11648-0.27708-0.26154-0.07204-0.96281 0.88738
  -5   4   0 6297.75 414.787   2-0.28647-0.10731 0.06111 0.27232-0.99327 0.91809
  -5   4   0 7230.51 297.289   8-0.43441 0.04032-0.11336 0.44713-0.96021 0.88491
   5  -4   0 6458.00 424.317   9-0.03447 0.42841-0.44020 0.10598-0.88740 0.96278
   5  -4   0 6791.85 265.909   4 0.09477 0.29996-0.28828-0.04619 0.95328-0.87783
   5   4   0 6336.53 402.208   6 0.24349 0.15095 0.11244 0.22185 0.99219-0.91656
   5  -4   0 6500.10 345.976   7 0.38058 0.01328 0.04987-0.38362 0.97918-0.90392
  -5  -4   0 6328.85 391.250   8-0.29134-0.10260-0.05548-0.27807-0.99313 0.91768
  -6   4   0 120.837 85.3691   8-0.43419-0.03870-0.11327 0.44701-0.96028 0.86992
   6   4   0 -101.82 90.8258   7 0.32626 0.14647 0.03951 0.29439 0.98945-0.89881
   6  -4   0 -132.97 97.5792   3 0.30417 0.16918-0.07152-0.26300 0.99056-0.90001
  -6  -4   0 -199.82 104.487   8-0.30981-0.16290-0.06285-0.27069-0.99049 0.89998
   6  -4   0 22.3332 69.6066   7 0.39072 0.08192 0.05181-0.38559 0.97685-0.88650
   6   4   0 -69.636 67.1477   6 0.25339 0.21986 0.14331 0.19102 0.98755-0.89682
  -6   4   0 -104.13 74.8758   2-0.29953-0.17301 0.07728 0.25613-0.99067 0.90044
   6  -4   0 129.138 78.6796   9-0.00211 0.47484-0.50482 0.17051-0.84784 0.93836
  -6  -4   0 -12.477 67.1623   4-0.00089-0.47138-0.49963 0.16678 0.84989-0.94017
   7   4   0 3444.17 332.300   6 0.26598 0.28607 0.18364 0.15071 0.97979-0.87399
   7  -4   0 3492.16 371.967   3 0.32356 0.22863-0.08867-0.24591 0.98653-0.88087
   7  -4   0 3586.96 351.343   9 0.03212 0.51939-0.56966 0.23527-0.80012 0.90579
   7   4   0 3334.01 359.034   7 0.35005 0.20148 0.04403 0.28986 0.98541-0.87967
  -7  -4   0 3314.28 340.266   8-0.33309-0.21839-0.07219-0.26134-0.98652 0.88095
  -7   4   0 3722.34 352.625   2-0.31682-0.23449 0.09891 0.23450-0.98648 0.88118
   7  -4   0 3578.57 319.717   7 0.41032 0.14109 0.05558-0.38938 0.97196-0.86652
   8  -4   0 154.223 126.123   7 0.43544 0.19475 0.06042-0.39423 0.96494-0.84441
  -8  -4   0 28.0449 90.3563   8-0.35967-0.27058-0.08291-0.25063-0.98107 0.86045
  -8   4   0 64.5441 91.9338   2-0.33733-0.29276 0.12490 0.20851-0.98033 0.85998
   8  -4   0 150.657 120.785   3 0.34629 0.28475-0.10898-0.22568 0.98079-0.86003
   8   4   0 71.2651 123.896   7 0.37737 0.25296 0.04925 0.28465 0.97989-0.85905
   8   4   0 144.139 112.203   6 0.28072 0.35013 0.23257 0.10182 0.96777-0.84690
  -9  -4   0 564.479 193.008   8-0.38862-0.32040-0.09464-0.23890-0.97399 0.83832
   9  -4   0 726.539 184.229   7 0.46404 0.24492 0.06595-0.39978 0.95585-0.82023
   9  -4   0 692.884 233.180   3 0.37154 0.33833-0.13177-0.20294 0.97309-0.83723
   9   4   0 913.727 246.111   7 0.40714 0.30198 0.05496 0.27893 0.97279-0.83685
  -9   4   0 839.567 220.781   2-0.36036-0.34853 0.15451 0.17892-0.97184 0.83642
 -10  -4   0 -39.722 125.318   8-0.41934-0.36847-0.10718-0.22637-0.96510 0.81440
  10  -4   0 168.443 136.026   3 0.39874 0.38996-0.15663-0.17814 0.96315-0.81218
  10   4   0 103.278 172.692   7 0.43867 0.34925 0.06105 0.27286 0.96397-0.81292
  10  -4   0 61.9069 85.0966   7 0.49502 0.29273 0.07198-0.40582 0.94465-0.79393
 -10   4   0 260.712 164.233   2-0.38535-0.40235 0.18722 0.14621-0.96056 0.81009
 -11   4   0 238.834 219.281   2-0.41191-0.45461 0.22270 0.11075-0.94602 0.78049
   0  -5   0 -9.9414 30.5314   8-0.65934 0.65919-0.20864-0.20859-0.83520 0.83521
   0   5   0 -3.7175 41.7626   6 0.27358-0.27340 0.20862 0.20876 0.97402-0.97387
   0  -5   0 -50.857 58.9839   9-0.13893 0.13917-0.20865-0.20858-0.97683 0.97673
   0   5   0 -3.2444 29.9214   2-0.40147 0.40133 0.20866 0.20851-0.95207 0.95227
   0  -5   0 -21.496 34.1861   3 0.45441-0.45419-0.20863-0.20874 0.93691-0.93708
   0   5   0 -18.249 27.7899   5-0.54246 0.54250 0.20854 0.20852-0.90250 0.90261
   0   5   0 8.10336 41.3989   1-0.16519 0.16522 0.20878 0.20858-0.97764 0.97782
  -1  -5   0 292.437 66.1425   8-0.46871 0.38977-0.12751-0.28960-0.94768 0.93254
   1   5   0 380.137 66.9497   2-0.47131 0.54993 0.30518 0.11216-0.90229 0.91762
  -1  -5   0 363.435 95.6923   4 0.11569-0.19388-0.23777-0.17942 0.96865-0.98381
   1   5   0 326.919 46.2588   7 0.62576-0.54715 0.09783 0.31935 0.87934-0.86404
  -1   5   0 441.791 95.0505   6 0.29190-0.37057 0.27111 0.14613 0.95622-0.97116
  -1  -5   0 499.017 103.843   9-0.14741 0.06891-0.18821-0.22896-0.98133 0.96616
  -1  -5   0 448.075 71.0652   3 0.57120-0.64986-0.32382-0.09333 0.84952-0.86475
  -1   5   0 298.382 85.6314   1-0.17036 0.09170 0.18403 0.23327-0.98269 0.96781
   1   5   0 367.918 91.6934   6 0.26080-0.18175 0.16689 0.25061 0.98325-0.96800
   1  -5   0 345.574 100.111   9-0.12577 0.20473-0.23988-0.17742-0.96898 0.98394
   1  -5   0 390.650 86.7983   3 0.38449-0.30541-0.14357-0.27396 0.96858-0.95364
  -2  -5   0 1273.87 149.666   9-0.15012-0.00711-0.18160-0.23551-0.98267 0.95244
   2   5   0 1244.30 126.170   7 0.45899-0.30156 0.06498 0.35228 0.95754-0.92720
   2   5   0 1344.57 156.727   2-0.56825 0.72568 0.45321-0.03568-0.78273 0.81328
  -2   5   0 1336.38 163.444   6 0.31547-0.47298 0.35736 0.05969 0.92331-0.95330
   2  -5   0 968.811 135.462   3 0.34537-0.18742-0.10815-0.30951 0.98104-0.95098
   2  -5   0 1057.22 161.353   9-0.10866 0.26636-0.27953-0.13786-0.95722 0.98726
   2   5   0 1046.74 160.410   6 0.25326-0.09533 0.14289 0.27471 0.98762-0.95726
  -2  -5   0 1117.14 138.302   8-0.38466 0.22695-0.09303-0.32401-0.97503 0.94478
  -2  -5   0 1172.48 167.080   4 0.09998-0.25700-0.27586-0.14115 0.95736-0.98761
  -2   5   0 1286.81 166.655   1-0.17255 0.01520 0.17331 0.24394-0.98468 0.95474
  -2   5   0 1087.35 153.434   2-0.32885 0.17126 0.11411 0.30284-0.98303 0.95307
   3  -5   0 2589.47 220.411   4 0.12997 0.10724-0.20237-0.21539 0.97751-0.93223
   3   5   0 2786.50 214.205   7 0.39383-0.15759 0.05241 0.36489 0.97611-0.93070
  -3  -5   0 2776.24 265.672   4 0.08085-0.31670-0.32098-0.09585 0.94156-0.98687
   3   5   0 2483.50 250.904   6 0.25042-0.01362 0.13395 0.28372 0.98907-0.94360
   3  -5   0 2353.00 239.335   3 0.32625-0.08942-0.09106-0.32670 0.98590-0.94072
  -3   5   0 2727.48 254.803   2-0.31522 0.07891 0.09690 0.31999-0.98690 0.94189
  -3  -5   0 2401.66 213.559   8-0.34817 0.11169-0.07826-0.33873-0.98355 0.93823
   3  -5   0 3072.62 147.303   7 0.67735-0.44103 0.10823-0.52529 0.84386-0.79881
  -3   5   0 2782.08 237.939   1-0.17150-0.06456 0.17848 0.23877-0.98374 0.93875
   3  -5   0 2751.45 277.808   9-0.08819 0.32463-0.32568-0.09180-0.94095 0.98607
  -3  -5   0 2758.31 214.459   9-0.14541-0.09056-0.19305-0.22404-0.98031 0.93502
  -3   5   0 2772.89 222.830   6 0.34278-0.57909 0.46951-0.05266 0.86438-0.90936
  -4  -5   0 65.6024 46.8963   9-0.13043-0.18430-0.22889-0.18817-0.97188 0.91153
  -4  -5   0 186.272 95.7369   8-0.33636 0.02114-0.07350-0.34345-0.98590 0.92551
  -4   5   0 26.8329 44.6232   1-0.16668-0.14810 0.20175 0.21552-0.97914 0.91910
   4  -5   0 24.9614 51.8255   3 0.32050-0.00481-0.08596-0.33190 0.98721-0.92690
  -4   5   0 -32.649 43.3127   6 0.36987-0.68492 0.60668-0.19001 0.76162-0.82154
  -4  -5   0 -24.860 68.9148   4 0.05875-0.37341-0.37150-0.04515 0.92057-0.98092
  -4   5   0 43.4426 71.6160   2-0.31150-0.00355 0.09223 0.32462-0.98786 0.92779
   4  -5   0 -8.6743 42.3932   4 0.11388 0.20217-0.24220-0.17566 0.96743-0.90703
   4   5   0 0.48061 67.9748   6 0.25167 0.06398 0.13787 0.27985 0.98844-0.92787
   4   5   0 -8.0216 50.5361   7 0.37028-0.05523 0.04790 0.36943 0.98141-0.92092
   4  -5   0 -36.777 63.8788   9-0.06477 0.37996-0.37674-0.04083-0.91949 0.97972
   4  -5   0 69.3342 43.8537   7 0.54085-0.22578 0.08097-0.49807 0.92527-0.86512
  -5  -5   0 725.048 163.342   8-0.33892-0.05507-0.07453-0.34240-0.98541 0.90995
   5   5   0 689.022 143.668   7 0.36765 0.02622 0.04739 0.36996 0.98196-0.90637
   5  -5   0 773.446 128.774   7 0.49382-0.09999 0.07175-0.48889 0.94511-0.86988
   5   5   0 955.102 176.013   6 0.25642 0.13807 0.15289 0.26487 0.98588-0.91019
  -5  -5   0 169.951 143.671   4 0.03402-0.42746-0.42606 0.00960 0.89371-0.96908
   5  -5   0 808.951 165.267   3 0.32407 0.07048-0.08913-0.32881 0.98641-0.91098
  -5   5   0 798.237 172.472   2-0.31519-0.07859 0.09686 0.31996-0.98691 0.91179
   5  -5   0 716.075 159.074   9-0.03877 0.43271-0.43139 0.01373-0.89224 0.96758
  -6   5   0 21.0634 78.4039   2-0.32451-0.14803 0.10862 0.30820-0.98433 0.89414
   6   5   0 60.7928 82.0158   7 0.37700 0.09568 0.04918 0.36818 0.97997-0.88929
   6  -5   0 22.6039 63.1127   7 0.48162-0.00903 0.06937-0.48654 0.94967-0.85936
   6  -5   0 166.167 99.5892   9-0.01044 0.48317-0.48848 0.07073-0.85855 0.94902
   6   5   0 182.135 93.4379   6 0.26414 0.20918 0.17764 0.24016 0.98107-0.89029
   6  -5   0 142.123 100.563   3 0.33431 0.13909-0.09826-0.31976 0.98395-0.89341
  -6  -5   0 133.075 94.4656   8-0.35055-0.12220-0.07923-0.33770-0.98305 0.89254
  -6  -5   0 67.3229 106.716   4 0.00693-0.47914-0.48349 0.06720 0.86031-0.95066
  -7  -5   0 26.2125 136.015   4-0.02230-0.52865-0.54275 0.12661 0.81963-0.92496
   7   5   0 248.111 137.925   7 0.39384 0.15764 0.05241 0.36497 0.97611-0.87032
   7  -5   0 292.074 152.462   9 0.01995 0.53156-0.54701 0.12917-0.81779 0.92341
  -7  -5   0 199.197 129.572   8-0.36824-0.18327-0.08638-0.33054-0.97910 0.87353
   7   5   0 377.076 141.996   6 0.27432 0.27781 0.21107 0.20676 0.97341-0.86754
   7  -5   0 110.815 80.6821   3 0.34950 0.20275-0.11186-0.30624 0.97989-0.87423
  -7   5   0 263.797 130.108   2-0.33818-0.21312 0.12598 0.29082-0.98005 0.87482
   8   5   0 234.431 152.028   7 0.41567 0.21462 0.05661 0.36078 0.97054-0.84965
   8   5   0 266.100 124.787   6 0.28654 0.34440 0.25245 0.16540 0.96204-0.84109
  -8  -5   0 134.843 113.393   8-0.39020-0.24007-0.09529-0.32163-0.97356 0.85294
   8  -5   0 273.463 139.443   3 0.36844 0.26266-0.12895-0.28921 0.97412-0.85335
   8  -5   0 53.7875 51.4622   9 0.05224 0.57805-0.60606 0.18814-0.76924 0.89002
  -8   5   0 282.830 137.621   2-0.35527-0.27481 0.14792 0.26889-0.97387 0.85358
  -9   5   0 -252.45 162.874   2-0.37507-0.33379 0.17370 0.24312-0.96547 0.83013
   9   5   0 223.162 148.289   7 0.44100 0.26810 0.06150 0.35589 0.96326-0.82726
  -9  -5   0 12.1715 103.508   8-0.41528-0.29378-0.10552-0.31140-0.96636 0.83069
   9  -5   0 129.767 118.335   3 0.39025 0.31968-0.14884-0.26939 0.96644-0.83056
  10  -5   0 90.9436 153.029   3 0.41435 0.37441-0.17106-0.24722 0.95662-0.80562
 -10   5   0 62.7674 138.964   2-0.39705-0.39061 0.20277 0.21407-0.95450 0.80410
  10   5   0 149.874 171.043   7 0.46885 0.31903 0.06689 0.35050 0.95421-0.80310
 -10  -5   0 353.851 180.896   8-0.44267-0.34514-0.11676-0.30016-0.95737 0.80666
   0   6   0 1522.86 196.930   6 0.28592-0.28570 0.25032 0.25053 0.96268-0.96249
   0  -6   0 1570.36 200.772   4 0.11055-0.10975-0.25033-0.25049 0.96513-0.96518
   0  -6   0 1533.91 195.843   9-0.12128 0.12157-0.25039-0.25028-0.96606 0.96594
   0  -6   0 1442.01 155.235   3 0.49779-0.49758-0.25034-0.25049 0.91022-0.91041
   0   6   0 1702.57 142.180   5-0.60665 0.60668 0.25026 0.25022-0.85663 0.85677
  -1  -6   0 65.5060 72.9387   4 0.10144-0.17949-0.27236-0.22831 0.95847-0.97364
   1  -6   0 115.967 68.7860   9-0.11103 0.19005-0.27411-0.22663-0.95895 0.97390
   1  -6   0 159.625 71.9633   3 0.43305-0.35395-0.18849-0.31250 0.94797-0.93305
  -1   6   0 160.206 87.6553   1-0.16033 0.08170 0.23151 0.26927-0.97240 0.95758
   1   6   0 107.514 44.2000   2-0.49123 0.56980 0.33398 0.16680-0.88350 0.89890
  -1  -6   0 107.664 49.0126   3 0.59658-0.67523-0.35031-0.15030 0.82279-0.83804
   1  -6   0 113.054 65.6031   4 0.11539-0.03573-0.23852-0.26246 0.96844-0.95338
  -1   6   0 -19.428 82.6649   6 0.30108-0.37974 0.30383 0.19688 0.94491-0.95981
  -1  -6   0 105.781 47.6780   8-0.56452 0.48552-0.16768-0.33289-0.90135 0.88624
  -1   6   0 160.015 60.3194   2-0.39121 0.31230 0.19499 0.30549-0.95759 0.94276
  -1  -6   0 22.2448 58.9372   9-0.12720 0.04876-0.23653-0.26410-0.96988 0.95470
  -1   6   0 132.092 62.9031   5-0.49501 0.41626 0.17850 0.32190-0.92932 0.91440
   1   6   0 183.585 83.3350   6 0.27500-0.19591 0.21333 0.28765 0.97285-0.95756
   2  -6   0 1364.97 207.930   9-0.09707 0.25481-0.30582-0.19499-0.94830 0.97832
   2   6   0 1159.81 122.685   7 0.58743-0.43008 0.09017 0.41049 0.90181-0.87139
   2  -6   0 1055.90 161.195   3 0.39323-0.23525-0.15157-0.34956 0.96531-0.93527
  -2   6   0 1271.43 194.625   1-0.16188 0.00455 0.22436 0.27639-0.97411 0.94424
   2   6   0 1107.68 155.211   2-0.56900 0.72637 0.45446 0.04652-0.78145 0.81207
   2  -6   0 1145.06 174.429   4 0.11512 0.04339-0.23918-0.26192 0.96826-0.93808
  -2   6   0 1202.51 172.373   2-0.36481 0.20718 0.16029 0.34009-0.97000 0.94009
  -2  -6   0 1164.19 182.040   4 0.08864-0.24553-0.30276-0.19774 0.94826-0.97852
   2   6   0 930.820 169.493   6 0.26820-0.11023 0.19087 0.31020 0.97820-0.94780
  -2   6   0 1103.65 161.304   6 0.32022-0.47772 0.37575 0.12479 0.91496-0.94492
  -2  -6   0 908.870 130.907   8-0.46879 0.31104-0.12755-0.37294-0.94765 0.91742
  -2  -6   0 1233.29 172.639   9-0.12792-0.02925-0.23482-0.26576-0.97033 0.94010
   3  -6   0 -123.30 79.0243   9-0.07987 0.31635-0.34402-0.15689-0.93367 0.97878
   3   6   0 60.2018 49.7353   7 0.49559-0.25941 0.07209 0.42864 0.94443-0.89895
  -3   6   0 3.94895 77.0647   6 0.34233-0.57865 0.46747 0.03285 0.86562-0.91058
   3  -6   0 75.9083 81.1140   3 0.37100-0.13415-0.13129-0.36997 0.97327-0.92811
  -3   6   0 -46.422 68.4035   2-0.34983 0.11349 0.14091 0.35939-0.97594 0.93098
   3  -6   0 28.9008 63.0822   4 0.10849 0.12888-0.25533-0.24588 0.96367-0.91836
   3   6   0 26.4923 76.9966   6 0.26522-0.02838 0.18115 0.32000 0.98033-0.93482
  -3  -6   0 3.85930 66.6636   8-0.42039 0.18387-0.10761-0.39280-0.96477 0.91946
  -3  -6   0 10.7083 59.8973   4 0.07261-0.30834-0.34000-0.16031 0.93407-0.97940
  -3  -6   0 -66.622 62.4292   9-0.12216-0.11375-0.24833-0.25221-0.96664 0.92135
  -3   6   0 -33.548 61.1935   1-0.16056-0.07546 0.23046 0.27029-0.97266 0.92773
   4   6   0 393.324 98.8388   6 0.26567 0.05003 0.18261 0.31860 0.98002-0.91939
  -4  -6   0 767.870 161.824   4 0.05371-0.36825-0.38279-0.11733 0.91538-0.97576
  -4   6   0 689.138 134.635   6 0.36507-0.68015 0.57896-0.07883 0.78563-0.84554
  -4  -6   0 708.225 127.848   9-0.10782-0.20684-0.28146-0.21906-0.95660 0.89625
  -4  -6   0 713.590 135.234   8-0.39847 0.08318-0.09865-0.40173-0.97129 0.91090
   4  -6   0 630.872 160.757   9-0.05979 0.37502-0.38737-0.11363-0.91455 0.97476
   4   6   0 727.321 132.824   7 0.45360-0.13860 0.06394 0.43685 0.95931-0.89875
  -4   6   0 835.814 163.382   2-0.34373 0.02866 0.13307 0.36718-0.97815 0.91813
   4  -6   0 770.686 169.017   3 0.36131-0.04558-0.12250-0.37886 0.97639-0.91610
   5  -6   0 96.1285 101.290   3 0.36074 0.03385-0.12198-0.37947 0.97656-0.90115
   5   6   0 -92.274 71.8152   6 0.26914 0.12541 0.19394 0.30731 0.97750-0.90177
  -5   6   0 -43.063 82.6811   2-0.34454-0.04926 0.13412 0.36610-0.97786 0.90279
  -5  -6   0 23.4059 69.2964   4 0.03220-0.42556-0.42999-0.06996 0.89160-0.96701
   5  -6   0 131.245 100.146   9-0.03712 0.43110-0.43476-0.06633-0.89040 0.96571
  -5  -6   0 -66.459 85.5367   8-0.39268-0.00135-0.09630-0.40405-0.97289 0.89744
   5   6   0 -26.838 67.3931   7 0.43769-0.04388 0.06086 0.43996 0.96426-0.88862
   6  -6   0 49.6525 87.0632   9-0.01211 0.48484-0.48521-0.01598-0.86063 0.95107
   6   6   0 121.687 87.7659   6 0.27523 0.19815 0.21410 0.28719 0.97265-0.88181
  -6  -6   0 -8.0380 101.528   4 0.00834-0.48047-0.48058-0.01918 0.86214-0.95255
   6  -6   0 -142.88 103.210   3 0.36696 0.10649-0.12762-0.37390 0.97460-0.88406
  -6   6   0 90.7310 77.9520   2-0.35081-0.12174 0.14217 0.35803-0.97558 0.88546
   6   6   0 -57.104 99.6591   7 0.43707 0.03555 0.06074 0.44010 0.96445-0.87371
  -6  -6   0 61.3371 102.384   8-0.39744-0.07536-0.09823-0.40209-0.97158 0.88107
  -7   6   0 452.574 151.127   2-0.36141-0.18989 0.15588 0.34432-0.97141 0.86624
  -7  -6   0 -34.683 113.282   4-0.01772-0.53318-0.53365 0.03406 0.82632-0.93172
   7  -6   0 139.828 109.490   9 0.01507 0.53644-0.53780 0.03652-0.82465 0.93024
   7   6   0 312.716 131.924   7 0.44617 0.10527 0.06250 0.43835 0.96167-0.85582
   7   6   0 185.825 134.088   6 0.28357 0.26864 0.24225 0.25905 0.96504-0.85910
  -7  -6   0 144.006 110.354   8-0.40940-0.14214-0.10312-0.39719-0.96813 0.86257
   7  -6   0 94.7148 80.7608   3 0.37838 0.17393-0.13798-0.36361 0.97076-0.86510
   8   6   0 422.537 170.880   6 0.29380 0.33721 0.27779 0.22353 0.95402-0.83299
   8  -6   0 534.356 194.753   3 0.39380 0.23734-0.15209-0.34956 0.96509-0.84430
  -8   6   0 382.555 153.193   2-0.37551-0.25455 0.17428 0.32592-0.96527 0.84506
  -8  -6   0 147.047 181.409   8-0.42655-0.20376-0.11014-0.39016-0.96280 0.84219
   8  -6   0 336.110 146.539   9 0.04424 0.58605-0.59172 0.09035-0.78178 0.90252
   8   6   0 449.559 168.763   7 0.46182 0.16842 0.06552 0.43533 0.95660-0.83565
  -9  -6   0 -31.786 128.270   8-0.44752-0.26156-0.11875-0.38154-0.95565 0.82000
   9   6   0 200.654 168.476   7 0.48211 0.22694 0.06947 0.43139 0.94949-0.81343
  -9   6   0 270.613 142.754   5-0.43243-0.27637 0.13970 0.36034-0.95703 0.82171
   9  -6   0 63.1909 113.744   3 0.41240 0.29758-0.16925-0.33247 0.95747-0.82157
  -9   6   0 28.2017 119.268   2-0.39244-0.31640 0.19662 0.30359-0.95695 0.82168
   0   7   0 42.2972 59.6456   6 0.29781-0.29757 0.29203 0.29230 0.94915-0.94891
   0  -7   0 98.0642 117.060   9-0.10313 0.10348-0.29214-0.29198-0.95306 0.95294
   0  -7   0 -3.1065 56.6322   3 0.53996-0.53974-0.29204-0.29224 0.87806-0.87826
   0  -7   0 17.5192 73.7823   4 0.09318-0.09222-0.29204-0.29226 0.95200-0.95203
   0   7   0 26.6606 50.4297   2-0.46217 0.46194 0.29217 0.29189-0.91017 0.91052
  -1   7   0 717.889 144.605   2-0.42474 0.34579 0.24013 0.34378-0.93797 0.92321
   1  -7   0 773.854 130.075   3 0.47966-0.40054-0.23277-0.35171 0.92211-0.90721
   1  -7   0 702.043 155.358   4 0.09636-0.01654-0.28450-0.29993 0.95454-0.93945
  -1  -7   0 600.749 141.610   9-0.10717 0.02879-0.28294-0.30113-0.95612 0.94094
   1   7   0 596.997 131.392   6 0.28830-0.20917 0.25854 0.32591 0.96019-0.94486
   1   7   0 636.361 128.575   2-0.51333 0.59185 0.36679 0.21743-0.85965 0.87514
   1  -7   0 675.150 171.634   9-0.09507 0.17415-0.31032-0.27386-0.94668 0.96163
  -1   7   0 532.153 121.158   6 0.31067-0.38931 0.33917 0.24501 0.93109-0.94594
  -1  -7   0 796.318 161.754   4 0.08606-0.16395-0.30882-0.27532 0.94608-0.96123
  -2  -7   0 1724.58 237.411   9-0.10646-0.05064-0.28456-0.29948-0.95559 0.92535
  -2  -7   0 1620.67 184.001   8-0.55488 0.39706-0.16360-0.42034-0.90685 0.87666
  -2  -7   0 1684.57 241.960   4 0.07549-0.23225-0.33339-0.25059 0.93673-0.96698
   2   7   0 1873.87 253.906   6 0.28213-0.12412 0.23733 0.34721 0.96644-0.93600
   2  -7   0 1703.17 235.462   4 0.09489 0.06378-0.28798-0.29658 0.95338-0.92316
   2  -7   0 1767.48 234.173   3 0.43981-0.28182-0.19486-0.38977 0.94460-0.91458
  -2   7   0 2097.18 267.353   6 0.32664-0.48412 0.40123 0.18277 0.90257-0.93248
  -2   7   0 1671.07 224.973   2-0.39919 0.24153 0.20563 0.37817-0.95333 0.92350
  -2   7   0 1656.86 202.332   5-0.49622 0.33869 0.17925 0.40449-0.92870 0.89875
   2  -7   0 2003.78 279.381   9-0.08351 0.24131-0.33601-0.24825-0.93690 0.96692
   3  -7   0 3229.86 317.337   4 0.08779 0.14974-0.30477-0.27990 0.94754-0.90220
  -3  -7   0 2749.78 270.561   8-0.49634 0.25975-0.13900-0.44487-0.93612 0.89083
   3  -7   0 2971.93 302.076   3 0.41543-0.17855-0.17206-0.41267 0.95614-0.91100
  -3   7   0 3044.84 319.482   2-0.38343 0.14704 0.18469 0.39903-0.96151 0.91661
   3  -7   0 2728.14 333.912   9-0.06885 0.30539-0.36795-0.21638-0.92345 0.96855
  -3  -7   0 3459.80 309.237   9-0.09995-0.13590-0.29934-0.28467-0.95059 0.90530
  -3   7   0 2372.82 242.753   5-0.45690 0.22060 0.15475 0.42891-0.94716 0.90216
  -3  -7   0 2825.31 332.655   4 0.06186-0.29746-0.36449-0.21932 0.92369-0.96902
  -3   7   0 3973.35 340.725   6 0.34494-0.58127 0.47918 0.10463 0.85834-0.90325
   3   7   0 2594.79 306.628   6 0.27912-0.04224 0.22714 0.35748 0.96925-0.92369
   4  -7   0 46.9957 88.2470   9-0.05142 0.36668-0.40506-0.17936-0.90594 0.96614
  -4   7   0 5.70021 76.2795   2-0.37559 0.06049 0.17438 0.40929-0.96523 0.90528
  -4  -7   0 -7.8890 80.3788   4 0.04547-0.35991-0.40105-0.18257 0.90658-0.96697
   4  -7   0 57.6071 90.0414   3 0.40263-0.08688-0.16022-0.42462 0.96158-0.90130
   4   7   0 36.6945 81.1859   6 0.27902 0.03673 0.22682 0.35787 0.96933-0.90865
  -4   7   0 9.64027 59.3600   6 0.36400-0.67911 0.57308 0.01052 0.79048-0.85036
  -4  -7   0 30.9261 72.7964   9-0.08601-0.22860-0.33051-0.25349-0.93907 0.87873
  -4   7   0 121.566 102.655   5-0.43571 0.12066 0.14172 0.44189-0.95577 0.89572
   4  -7   0 78.9603 93.7448   4 0.07350 0.24287-0.33797-0.24679 0.93489-0.87441
  -4  -7   0 -12.223 84.7573   8-0.46518 0.14984-0.12605-0.45775-0.94906 0.88869
   5  -7   0 243.530 129.938   3 0.39863-0.00400-0.15653-0.42841 0.96319-0.88779
  -5   7   0 34.0828 107.844   2-0.37415-0.01968 0.17249 0.41113-0.96589 0.89090
  -5  -7   0 46.7346 110.407   4 0.02656-0.41981-0.44212-0.14130 0.88493-0.96036
   5   7   0 128.965 121.805   6 0.28155 0.11305 0.23538 0.34935 0.96699-0.89120
   5  -7   0 216.641 169.292   9-0.03144 0.42545-0.44639-0.13814-0.88393 0.95923
  -5  -7   0 -61.929 88.6415   8-0.45147 0.05738-0.12038-0.46337-0.95422 0.87879
   6  -7   0 615.416 205.571   9-0.00914 0.48189-0.49106-0.09356-0.85689 0.94731
  -6  -7   0 29.6627 227.295   4 0.00532-0.47737-0.48683-0.09641 0.85819-0.94864
   6  -7   0 776.214 197.643   3 0.40138 0.07210-0.15907-0.42595 0.96209-0.87155
  -6  -7   0 498.354 193.365   8-0.44948-0.02337-0.11956-0.46416-0.95494 0.86445
  -6   7   0 1154.44 240.501   2-0.37791-0.09465 0.17743 0.40618-0.96415 0.87411
   6   7   0 721.509 199.391   6 0.28640 0.18704 0.25198 0.33278 0.96218-0.87128
  -7   7   0 291.616 164.045   2-0.38591-0.16539 0.18798 0.39561-0.96028 0.85519
   7   7   0 2.09538 107.282   6 0.29329 0.25898 0.27599 0.30879 0.95462-0.84861
  -7  -7   0 -8.1865 129.910   8-0.45572-0.09588-0.12214-0.46156-0.95266 0.84710
   7  -7   0 -170.72 115.979   3 0.40943 0.14292-0.16650-0.41859 0.95874-0.85308
  -7  -7   0 62.4344 89.5676   4-0.01809-0.53274-0.53439-0.04866 0.82578-0.93123
   7   7   0 180.764 133.607   7 0.50634 0.04503 0.07420 0.51011 0.94018-0.83426
   7  -7   0 103.743 119.869   9 0.01533 0.53619-0.53831-0.04641-0.82429 0.92984
  -7   7   0 173.619 150.595   5-0.43506-0.11626 0.14132 0.44216-0.95602 0.85084
   8   7   0 506.590 189.547   7 0.51528 0.11491 0.07594 0.50838 0.93651-0.81549
  -8   7   0 144.552 148.459   2-0.39741-0.23265 0.20324 0.38035-0.95430 0.83417
   8  -7   0 531.755 210.496   9 0.04183 0.58846-0.58737 0.00256-0.78549 0.90619
   8   7   0 458.289 175.186   6 0.30193 0.32916 0.30687 0.27793 0.94378-0.82268
   8  -7   0 399.496 155.755   3 0.42166 0.20952-0.17787-0.40730 0.95334-0.83255
  -8  -7   0 111.902 209.410   8-0.46796-0.16241-0.12720-0.45648-0.94798 0.82738
  -8   7   0 183.896 126.838   5-0.44747-0.18260 0.14894 0.43451-0.95110 0.83087
  -8  -7   0 33.0509 189.752   4-0.04356-0.58605-0.58406 0.00116 0.78702-0.90745
   9   7   0 34.5357 145.496   6 0.31203 0.39785 0.34426 0.24055 0.92896-0.79276
   9   7   0 20.7295 115.253   7 0.53001 0.17898 0.07884 0.50550 0.93016-0.79403
  -9  -7   0 -45.433 125.340   8-0.48469-0.22443-0.13414-0.44954-0.94116 0.80552
   0   8   0 5331.70 442.380   6 0.30922-0.30895 0.33373 0.33407 0.93333-0.93304
   0   8   0 6018.53 410.336   2-0.49119 0.49090 0.33392 0.33357-0.88354 0.88400
   0  -8   0 4996.26 443.283   9-0.08448 0.08489-0.33388-0.33369-0.93775 0.93764
   0  -8   0 5359.82 453.456   4 0.07533-0.07422-0.33375-0.33402 0.93659-0.93659
   1  -8   0 688.515 152.868   3 0.52450-0.44538-0.27660-0.39134 0.89064-0.87576
  -1   8   0 471.269 110.236   2-0.45681 0.37780 0.28460 0.38274-0.91457 0.89991
   1  -8   0 768.803 188.988   4 0.07720 0.00277-0.32943-0.33848 0.93829-0.92316
   1   8   0 765.198 155.701   2-0.53628 0.61475 0.40194 0.26573-0.83099 0.84660
   1   8   0 485.869 133.817   6 0.30084-0.22169 0.30295 0.36498 0.94523-0.92983
  -1  -8   0 692.990 162.212   9-0.08705 0.00873-0.32821-0.33932-0.93997 0.92480
   1  -8   0 363.834 117.406   9-0.07814 0.15728-0.34781-0.31982-0.93210 0.94706
  -1  -8   0 648.954 167.744   4 0.06978-0.14753-0.34650-0.32113 0.93140-0.94652
  -1   8   0 718.635 158.875   6 0.32031-0.39892 0.37611 0.29156 0.91480-0.92958
   2  -8   0 -98.460 139.702   9-0.06849 0.22634-0.36874-0.29895-0.92310 0.95312
   2  -8   0 -42.930 69.9160   3 0.48512-0.32711-0.23803-0.43006 0.91864-0.88864
   2  -8   0 63.6217 106.141   4 0.07480 0.08403-0.33496-0.33305 0.93610-0.90583
  -2   8   0 -88.993 89.2412   2-0.43222 0.27451 0.25039 0.41684-0.93294 0.90319
   2   8   0 71.9659 113.831   6 0.29521-0.13717 0.28280 0.38523 0.95234-0.92183
  -2  -8   0 -107.62 129.076   9-0.08522-0.07183-0.33225-0.33524-0.93839 0.90817
  -2   8   0 -16.417 74.5755   6 0.33386-0.49134 0.43097 0.23652 0.88687-0.91670
  -2  -8   0 8.06495 80.9346   4 0.06098-0.21759-0.36647-0.30100 0.92282-0.95304
   3  -8   0 497.097 144.561   3 0.45929-0.22239-0.21327-0.45495 0.93420-0.88907
  -3   8   0 288.183 119.995   2-0.41606 0.17962 0.22832 0.43882-0.94349 0.89868
   3  -8   0 409.927 134.521   4 0.06728 0.17041-0.35219-0.31592 0.92901-0.88361
  -3  -8   0 403.753 163.199   9-0.07810-0.15770-0.34790-0.31957-0.93207 0.88679
  -3   8   0 283.086 135.394   6 0.34925-0.58558 0.49898 0.16831 0.84545-0.89031
   3   8   0 295.388 134.410   6 0.29225-0.05533 0.27233 0.39577 0.95582-0.91020
  -3   8   0 428.912 117.945   5-0.51699 0.28067 0.19233 0.47476-0.91757 0.87261
  -3  -8   0 419.094 174.919   4 0.04928-0.28475-0.39263-0.27466 0.91070-0.95602
   3  -8   0 419.861 186.723   9-0.05588 0.29246-0.39565-0.27212-0.91058 0.95568
  -4   8   0 277.429 126.740   2-0.40695 0.09181 0.21603 0.45105-0.94895 0.88908
  -4  -8   0 21.6215 107.411   4 0.03493-0.34925-0.42409-0.24302 0.89476-0.95515
   4  -8   0 220.395 119.357   9-0.04060 0.35590-0.42762-0.24024-0.89427 0.95446
   4  -8   0 190.708 94.0215   3 0.44409-0.12832-0.19887-0.46945 0.94241-0.88215
   4   8   0 148.996 105.810   6 0.29178 0.02401 0.27068 0.39749 0.95635-0.89561
  -4   8   0 106.439 105.912   5-0.49111 0.17604 0.17604 0.49098-0.93129 0.87128
  -5  -8   0 28.5845 188.083   4 0.01814-0.41129-0.46002-0.20691 0.87464-0.95007
   5  -8   0 292.763 146.883   3 0.43725-0.04260-0.19244-0.47599 0.94589-0.87049
   5   8   0 503.567 194.115   6 0.29361 0.10105 0.27708 0.39113 0.95425-0.87839
   5  -8   0 229.004 150.056   9-0.02284 0.41688-0.46381-0.20414-0.87380 0.94909
  -5   8   0 365.912 168.425   2-0.40375 0.00988 0.21172 0.45531-0.95078 0.87587
  -5   8   0 569.660 180.700   5-0.47782 0.08400 0.16775 0.49923-0.93775 0.86269
  -5  -8   0 564.179 182.262   8-0.51429 0.12013-0.14650-0.52068-0.92785 0.85246
   6  -8   0 710.505 196.828   3 0.43703 0.03650-0.19223-0.47629 0.94600-0.85547
  -6  -8   0 45.0511 172.151   4-0.00092-0.47105-0.49967-0.16707 0.84986-0.94033
   6  -8   0 402.799 188.389   9-0.00279 0.47558-0.50349-0.16455-0.84873 0.93914
  -6  -8   0 622.409 207.808   8-0.50583 0.03290-0.14295-0.52418-0.93183 0.84136
  -6   8   0 514.588 164.394   5-0.47386 0.00128 0.16528 0.50164-0.93960 0.84950
   6   8   0 655.325 221.147   6 0.29749 0.17601 0.29089 0.37735 0.94955-0.85857
  -6   8   0 735.223 220.462   2-0.40545-0.06714 0.21401 0.45300-0.94981 0.85985
  -7   8   0 152.676 124.564   2-0.41124-0.14008 0.22180 0.44518-0.94642 0.84142
   7  -8   0 92.8413 127.542   3 0.44209 0.11029-0.19699-0.47160 0.94344-0.83778
  -7   8   0 -242.29 163.303   5-0.47697-0.07437 0.16721 0.49967-0.93815 0.83300
  -7  -8   0 28.8077 162.819   4-0.02211-0.52866-0.54237-0.12419 0.81991-0.92539
   7  -8   0 102.034 118.291   9 0.01939 0.53214-0.54597-0.12217-0.81857 0.92411
   7   8   0 83.7815 128.601   6 0.30321 0.24912 0.31155 0.35670 0.94203-0.83595
  -7  -8   0 119.012 151.978   8-0.50644-0.04523-0.14321-0.52390-0.93154 0.82603
   8  -8   0 479.609 240.080   9 0.04361 0.58669-0.59059-0.07765-0.78276 0.90344
   8   8   0 51.1833 126.969   6 0.31053 0.32061 0.33865 0.32964 0.93131-0.81011
  -8  -8   0 83.2058 169.186   8-0.51378-0.11664-0.14628-0.52080-0.92810 0.80754
   0   9   0 167.493 138.803   6 0.32014-0.31984 0.37543 0.37586 0.91511-0.91475
   0  -9   0 -3.6993 93.4107   4 0.05699-0.05572-0.37546-0.37579 0.91877-0.91872
   0  -9   0 27.7971 106.538   9-0.06528 0.06576-0.37563-0.37539-0.92000 0.91990
   1   9   0 13.9112 123.920   6 0.31271-0.23352 0.34683 0.40457 0.92787-0.91241
  -1  -9   0 -29.367 90.1682   4 0.05273-0.13032-0.38498-0.36612 0.91435-0.92943
   1  -9   0 -36.230 114.182   4 0.05778 0.02235-0.37367-0.37770 0.91959-0.90440
  -1   9   0 5.42349 78.0020   6 0.32979-0.40838 0.41408 0.33706 0.89596-0.91067
  -1  -9   0 -115.04 110.752   9-0.06664-0.01161-0.37271-0.37827-0.92132 0.90617
   1  -9   0 -10.224 94.5362   9-0.06036 0.13956-0.38614-0.36493-0.91513 0.93009
  -1   9   0 68.1980 115.827   2-0.48755 0.40849 0.32862 0.42217-0.88715 0.87261
   2  -9   0 -105.54 110.185   4 0.05460 0.10440-0.38081-0.37067 0.91630-0.88597
  -2   9   0 -57.751 90.3215   2-0.46399 0.30623 0.29476 0.45590-0.90863 0.87899
  -2   9   0 94.8429 86.4409   6 0.34141-0.49887 0.46342 0.28754 0.86810-0.89786
   2  -9   0 52.6864 90.2171   3 0.52909-0.37108-0.28116-0.47039 0.88701-0.85700
  -2  -9   0 200.810 135.876   4 0.04539-0.20186-0.40124-0.34971 0.90649-0.93669
  -2  -9   0 245.990 107.426   9-0.06388-0.09310-0.37865-0.37231-0.91862 0.88841
   2   9   0 367.315 192.281   6 0.30757-0.14949 0.32758 0.42392 0.93581-0.90524
   2  -9   0 144.850 116.350   9-0.05229 0.21021-0.40323-0.34790-0.90686 0.93689
   3   9   0 503.348 157.153   6 0.30468-0.06773 0.31696 0.43462 0.93998-0.89428
   3  -9   0 378.372 155.930   4 0.04669 0.19116-0.39838-0.35320 0.90790-0.86243
  -3  -9   0 516.665 179.824   9-0.05621-0.17951-0.39496-0.35597-0.91092 0.86566
  -3  -9   0 257.446 141.148   4 0.03527-0.27060-0.42334-0.32744 0.89516-0.94045
   3  -9   0 333.395 136.750   3 0.50239-0.26548-0.25482-0.49688 0.90704-0.86191
   3  -9   0 352.246 167.787   9-0.04138 0.27801-0.42599-0.32522-0.89514 0.94024
  -3   9   0 521.941 182.523   6 0.35447-0.59078 0.52393 0.22685 0.82818-0.87297
  -3   9   0 399.601 124.423   2-0.44770 0.21123 0.27184 0.47873-0.92171 0.87700
  -4   9   0 616.120 192.215   2-0.43772 0.12254 0.25797 0.49253-0.92908 0.86931
  -4  -9   0 91.5161 135.166   4 0.02262-0.33680-0.45053-0.30008 0.88016-0.94053
   4   9   0 458.239 165.757   6 0.30397 0.01188 0.31430 0.43733 0.94099-0.88018
   4  -9   0 663.172 218.767   9-0.02787 0.34324-0.45364-0.29764-0.87977 0.93997
   4  -9   0 465.495 163.441   3 0.48537-0.16957-0.23828-0.51354 0.91848-0.85822
   5  -9   0 162.102 108.973   3 0.47621-0.08154-0.22945-0.52246 0.92424-0.84884
   5   9   0 49.4460 121.862   6 0.30524 0.08945 0.31901 0.43268 0.93918-0.86325
   5  -9   0 324.365 160.687   9-0.01198 0.40607-0.48546-0.26592-0.86047 0.93577
  -5   9   0 280.333 188.692   2-0.43312 0.03923 0.25163 0.49881-0.93231 0.85749
  -5   9   0 106.692 110.643   5-0.52993 0.13608 0.20055 0.54984-0.91011 0.83510
  -5  -9   0 -3.3727 143.600   4 0.00761-0.40064-0.48209-0.26834 0.86119-0.93662
  -6  -9   0 46.9230 196.421   4-0.00962-0.46225-0.51738-0.23286 0.83787-0.92835
   6  -9   0 184.548 160.221   9 0.00615 0.46667-0.52080-0.23066-0.83688 0.92728
   6  -9   0 72.4847 161.441   3 0.47343 0.00011-0.22678-0.52522 0.92594-0.83540
   6   9   0 20.2226 120.476   6 0.30837 0.16518 0.33054 0.42118 0.93463-0.84357
  -6   9   0 13.6053 119.721   2-0.43313-0.03949 0.25164 0.49877-0.93231 0.84244
  -6   9   0 75.7982 148.477   5-0.52190 0.04929 0.19545 0.55489-0.91479 0.82473
  -7   9   0 220.426 202.192   5-0.52115-0.03022 0.19497 0.55533-0.91522 0.81013
   0 -10   0 142.227 131.174   9-0.04553 0.04607-0.41738-0.41710-0.89967 0.89959
   0  10   0 162.082 102.321   6 0.33052-0.33021 0.41712 0.41763 0.89435-0.89391
   0 -10   0 162.493 154.282   4 0.03812-0.03669-0.41716-0.41755 0.89841-0.89829
  -1 -10   0 271.981 134.030   4 0.03495-0.11240-0.42404-0.41054 0.89479-0.90981
  -1  10   0 219.688 154.795   6 0.33897-0.41753 0.45276 0.38185 0.87445-0.88908
   1 -10   0 283.812 164.347   4 0.03799 0.04230-0.41744-0.41740 0.89826-0.88301
  -1 -10   0 190.343 161.469   9-0.04585-0.03233-0.41671-0.41773-0.90001 0.88488
   1 -10   0 265.459 167.880   9-0.04181 0.12107-0.42510-0.40942-0.89561 0.91060
   1  10   0 89.9399 111.389   6 0.32391-0.24470 0.39033 0.44455 0.90799-0.89245
  -2 -10   0 198.047 162.686   4 0.02885-0.18517-0.43721-0.39723 0.88766-0.91780
  -2 -10   0 325.422 171.424   9-0.04226-0.11465-0.42417-0.41026-0.89611 0.86593
   2 -10   0 464.687 186.945   4 0.03410 0.12505-0.42588-0.40905 0.89381-0.86340
   2 -10   0 460.321 193.790   9-0.03506 0.19305-0.43898-0.39560-0.88808 0.91813
  -2  10   0 255.307 144.940   6 0.34898-0.50643 0.49773 0.33672 0.84629-0.87597
  -2  10   0 272.539 155.005   2-0.49454 0.33672 0.33884 0.49526-0.88014 0.85063
   2  10   0 285.283 167.675   6 0.31922-0.16111 0.37187 0.46310 0.91677-0.88611
   3  10   0 -48.792 130.710   6 0.31647-0.07947 0.36118 0.47387 0.92162-0.87584
   3 -10   0 -45.221 134.954   9-0.02559 0.26229-0.45825-0.37638-0.87708 0.92221
  -3 -10   0 -67.719 111.114   4 0.02008-0.25527-0.45592-0.37837 0.87704-0.92229
  -3  10   0 179.677 138.836   2-0.47835 0.24183 0.31529 0.51870-0.89592 0.85133
   4 -10   0 107.428 156.255   3 0.52621-0.21041-0.27830-0.55699 0.88929-0.82902
  -4  10   0 -28.430 112.309   2-0.46778 0.15255 0.30013 0.53378-0.90539 0.84574
   5 -10   0 -1.3219 110.874   3 0.51519-0.12050-0.26738-0.56801 0.89777-0.82235
   0  11   0 143.186 133.809   6 0.34035-0.34000 0.45881 0.45942 0.87087-0.87033
   0 -11   0 -27.315 131.557   4 0.01869-0.01710-0.45887-0.45932 0.87531-0.87512
   0 -11   0 145.128 207.172   9-0.02516 0.02577-0.45913-0.45880-0.87657 0.87653
   1 -11   0 188.279 168.842   4 0.01774 0.06272-0.46087-0.45743 0.87413-0.85879
  -1  11   0 518.598 211.590   6 0.34774-0.42628 0.49196 0.42614 0.85011-0.86463
  -1 -11   0 358.343 191.375   9-0.02456-0.05356-0.46035-0.45756-0.87585 0.86076
  11   0  -1 83.9807 176.699   7 0.53459 0.31128 0.07974-0.07989 0.92812-0.86991
 -11   0   1 53.3706 123.449   5-0.53272-0.31324 0.20232-0.20234-0.90845 0.85070
 -11   0   1 149.653 150.608   8-0.53390-0.31237-0.15474 0.15461-0.91812 0.86025
  10   0  -1 41.3937 123.736   7 0.50893 0.25815 0.07470-0.07485 0.93913-0.89602
 -10   0   1 -21.527 99.2625   5-0.50728-0.25991 0.18621-0.18622-0.92290 0.88019
 -10   0   1 213.154 152.907   8-0.50830-0.25918-0.14399 0.14388-0.93068 0.88785
  -9   0   1 249.107 163.862   8-0.48540-0.20328-0.13444 0.13433-0.94086 0.91308
   9   0  -1 -252.57 155.007   7 0.48600 0.20229 0.07022-0.07037 0.94806-0.92005
  -9   0   1 113.741 80.7796   5-0.48453-0.20391 0.17193-0.17194-0.93453 0.90687
   9   0  -1 195.777 130.788   3 0.48267 0.20580-0.23567 0.23516 0.92021-0.89290
  -8   0   1 1589.40 234.386   8-0.46624-0.14367-0.12649 0.12639-0.94865 0.93593
   8   0  -1 1780.35 254.385   7 0.46682 0.14268 0.06650-0.06663 0.95490-0.94199
  -8   0   1 1693.08 200.702   2-0.46003-0.14994 0.28916-0.28908-0.91193 0.89922
   8   0  -1 1831.81 232.478   3 0.46386 0.14580-0.21762 0.21715 0.93160-0.91937
  -8   0   1 1445.76 213.863   5-0.46546-0.14422 0.16007-0.16008-0.94341 0.93081
  -7   0   1 44.9122 58.4034   2-0.44635-0.08480 0.26995-0.26986-0.92274 0.92511
   7   0  -1 51.4385 56.1903   3 0.45016 0.08066-0.20462 0.20421 0.93921-0.94206
   7   0  -1 -6.2223 53.1931   7 0.45298 0.07772 0.06382-0.06394 0.95951-0.96168
  -7   0   1 -161.70 85.3986   5-0.45164-0.07929 0.15151-0.15152-0.94938 0.95183
  -7   0   1 -77.957 80.3300   8-0.45236-0.07876-0.12075 0.12067-0.95390 0.95624
  -6   0   1 -9.4033 35.7139   2-0.43987-0.01246 0.26095-0.26084-0.92753 0.94499
   6   0  -1 -109.99 74.6375   7 0.44702 0.00489 0.06266-0.06279 0.96140-0.97865
   6   0  -1 -38.167 19.4464   9 0.05234 0.39962-0.60624 0.60596-0.76908 0.75177
  -6   0   1 -4.3027 67.6876   8-0.44629-0.00604-0.11825 0.11817-0.95609 0.97351
  -6   0   1 19.9026 46.5860   5-0.44556-0.00662 0.14777-0.14777-0.95188 0.96940
   5   0  -1 -25.114 34.9312   3 0.44952-0.07635-0.20401 0.20375 0.93955-0.97255
  -5   0   1 62.4547 46.1555   2-0.44436 0.07084 0.26718-0.26706-0.92423 0.95678
   5   0  -1 -18.329 41.0715   7 0.45337-0.08025 0.06389-0.06401 0.95938-0.99171
   5   0  -1 9.39903 23.9787   9-0.05950 0.43263-0.38798 0.38774-0.91426 0.88180
  -5   0   1 7.57745 20.2910   4 0.06221-0.43545-0.36369 0.36418 0.92405-0.89127
  -5   0   1 -13.261 44.7105   8-0.45236 0.07883-0.12075 0.12068-0.95390 0.98639
  -5   0   1 7.53079 38.4189   5-0.45144 0.07803 0.15139-0.15138-0.94946 0.98206
  -4   0   1 2243.64 112.759   4 0.18672-0.48134-0.05334 0.05376 0.99855-0.95081
   4   0  -1 2439.89 193.329   7 0.48014-0.18580 0.06908-0.06921 0.95021-0.99761
  -4   0   1 2535.01 176.883   5-0.47694 0.18230 0.16720-0.16718-0.93816 0.98585
  -4   0   1 2298.33 154.372   2-0.46601 0.17128 0.29762-0.29748-0.90692 0.95456
  -4   0   1 2427.17 183.000   8-0.47846 0.18372-0.13155 0.13148-0.94376 0.99134
   4   0  -1 2149.00 107.519   9-0.18579 0.48004-0.09208 0.09192-0.99577 0.94819
   4   0  -1 2522.66 174.780   3 0.47371-0.17937-0.22705 0.22686 0.92577-0.97383
  -3   0   1 -28.380 20.0349   8-0.53977 0.32382-0.15721 0.15714-0.91506 0.97775
  -3   0   1 -26.305 18.3590   4 0.30626-0.52222 0.32219-0.32192 0.93792-0.87515
   3   0  -1 -3.4396 13.7976   3 0.52891-0.31339-0.28098 0.28086 0.88715-0.95026
  -3   0   1 -11.221 17.7268   2-0.51421 0.29831 0.36812-0.36797-0.85863 0.92138
  -3   0   1 -16.055 17.3021   5-0.53631 0.32043 0.20461-0.20458-0.90629 0.96908
  -3   0   1 -1.1311 9.64861   6 0.30637-0.52207 0.32315-0.32316 0.93756-0.87473
   3   0  -1 4.85410 23.2180   7 0.54329-0.32774 0.08145-0.08156 0.92414-0.98659
   3   0  -1 -9.2711 10.9865   9-0.31216 0.52758 0.28005-0.28011-0.95069 0.88806
   2   0  -1 755.371 81.2660   7 0.67376-0.53696 0.10750-0.10762 0.84654-0.92404
  -2   0   1 813.719 85.8268   5-0.65344 0.51637 0.28163-0.28159-0.81463 0.89253
   2   0  -1 864.014 94.4827   3 0.63144-0.49472-0.38787 0.38780 0.77978-0.85792
  -2   0   1 751.769 81.3791   8-0.66406 0.52695-0.21071 0.21065-0.83126 0.90907
   5   0   1 51.6126 71.4662   7-0.03400 0.44880-0.02736 0.02747 0.97407-0.79080
  -5   0  -1 24.0732 64.5871   8 0.03384-0.44814 0.07050-0.07041-0.97201 0.78893
   6   0   1 292.705 122.511   7 0.04396 0.44964-0.01315 0.01326 0.98889-0.79055
  -6   0  -1 223.437 93.1267   8-0.04378-0.44930 0.04107-0.04099-0.98811 0.78995
   7   0   1 195.397 135.689   7 0.11224 0.46014-0.00058 0.00068 0.99679-0.78338
  -7   0  -1 -175.45 112.408   8-0.11196-0.45991 0.01490-0.01482-0.99666 0.78342
 -12   1   1 161.142 155.134   8-0.57936-0.34576-0.17401 0.25729-0.89249 0.81961
 -12   1   1 49.5473 134.469   5-0.54624-0.37844 0.21096-0.12762-0.90012 0.82737
 -11  -1   1 887.810 253.323   8-0.52404-0.32218-0.15059 0.06707-0.92311 0.86521
  11   1  -1 1029.03 303.874   7 0.53118 0.31472 0.07906 0.00425 0.92965-0.87140
  11  -1  -1 519.555 235.483   7 0.54586 0.29999 0.08195-0.16557 0.92293-0.86475
 -11   1   1 269.310 142.504   8-0.55234-0.29398-0.16252 0.24581-0.90826 0.85042
 -11   1   1 330.925 201.544   5-0.51907-0.32685 0.19365-0.11031-0.91640 0.85868
  10   1  -1 336.183 202.083   7 0.50567 0.26142 0.07406 0.00925 0.94045-0.89731
 -10  -1   1 -97.855 110.337   5-0.53118-0.23607 0.20135-0.28472-0.90937 0.86664
  10  -1  -1 13.3444 132.273   7 0.52083 0.24622 0.07703-0.16064 0.93416-0.89108
 -10   1   1 220.618 143.386   5-0.49382-0.27333 0.17775-0.09441-0.92992 0.88724
 -10  -1   1 51.8403 137.603   8-0.49851-0.26893-0.13990 0.05639-0.93515 0.89229
 -10   1   1 260.738 163.508   8-0.52754-0.23998-0.15205 0.23536-0.92136 0.87857
  10  -1  -1 274.116 159.767   3 0.48607 0.28135-0.23895 0.15488 0.91803-0.87562
   9  -1  -1 412.654 149.463   3 0.46380 0.22479-0.21758 0.13356 0.93163-0.90430
   9   1  -1 289.853 180.109   7 0.48287 0.20542 0.06962 0.01370 0.94921-0.92117
  -9  -1   1 308.853 131.671   5-0.50957-0.17893 0.18765-0.27102-0.92166 0.89398
  -9  -1   1 214.158 126.507   8-0.47560-0.21306-0.13036 0.04686-0.94493 0.91712
  -9   1   1 312.547 122.053   2-0.45377-0.23493 0.28033-0.19680-0.91700 0.88926
  -9   1   1 523.237 172.707   5-0.47114-0.21726 0.16359-0.08024-0.94085 0.91322
  -9   1   1 364.052 149.954   8-0.50576-0.18297-0.14293 0.22624-0.93186 0.90411
   9  -1  -1 415.582 171.063   7 0.49873 0.18953 0.07271-0.15632 0.94320-0.91522
  -8   1   1 577.287 125.549   2-0.43512-0.17475 0.25438-0.17084-0.93092 0.91825
   8  -1  -1 376.858 127.335   3 0.44484 0.16494-0.19958 0.11562 0.94202-0.92980
   8  -1  -1 449.338 152.253   7 0.48068 0.12880 0.06919-0.15278 0.95001-0.93713
  -8  -1   1 346.062 117.061   5-0.49222-0.11752 0.17674-0.26011-0.93073 0.91811
  -8   1   1 270.198 90.8067   8-0.48817-0.12176-0.13558 0.21892-0.93968 0.92700
   8   1  -1 258.381 103.227   7 0.46378 0.14573 0.06590 0.01741 0.95594-0.94299
  -8  -1   1 320.401 128.418   8-0.45622-0.15365-0.12235 0.03885-0.95247 0.93972
   8   1  -1 352.080 108.094   3 0.49876 0.11074-0.25128 0.33430 0.90956-0.89733
  -8   1   1 359.949 110.585   5-0.45189-0.15775 0.15167-0.06833-0.94927 0.93669
   7  -1  -1 58.0766 62.0726   3 0.43039 0.10055-0.18601 0.10211 0.94925-0.95211
  -7   1   1 73.2349 62.4545   2-0.42066-0.11040 0.23457-0.15102-0.94060 0.94301
  -7  -1   1 51.0668 43.0613   4-0.02922-0.50137-0.55635 0.47363 0.80931-0.80652
   7  -1  -1 10.8312 56.4247   7 0.46840 0.06229 0.06680-0.15038 0.95436-0.95656
   7   1  -1 34.3162 69.6428   7 0.44990 0.08081 0.06322 0.02011 0.96049-0.96264
  -7   1   1 71.8376 74.6320   8-0.47661-0.05453-0.13078 0.21413-0.94451 0.94689
  -7  -1   1 49.0032 41.4842   2-0.49563-0.03561 0.34046-0.42389-0.87900 0.88133
   7  -1  -1 51.7442 59.8072   9 0.02909 0.50167-0.56405 0.48020-0.80460 0.80239
  -7  -1   1 -67.270 60.7117   8-0.44180-0.08929-0.11640 0.03290-0.95767 0.95999
   7   1  -1 -15.687 48.7636   6 0.35467 0.17617 0.52490-0.44132 0.82748-0.83006
  -7  -1   1 71.4244 59.3993   5-0.48106-0.04992 0.16977-0.25314-0.93621 0.93864
  -7   1   1 43.7796 57.5512   5-0.43745-0.09344 0.14279-0.05943-0.95510 0.95758
  -6  -1   1 1168.67 122.445   4 0.04296-0.49485-0.40659 0.32381 0.90382-0.88609
   6  -1  -1 1473.66 181.847   7 0.46475-0.01285 0.06609-0.14967 0.95561-0.97289
  -6  -1   1 1289.11 124.694   2-0.49628 0.04387 0.34141-0.42483-0.87833 0.89575
   6  -1  -1 1384.65 141.080   9-0.04398 0.49589-0.42061 0.33682-0.89798 0.88061
  -6   1   1 1398.68 168.330   2-0.41208-0.04018 0.22293-0.13937-0.94592 0.96340
   6   1  -1 1481.13 143.157   6 0.34578 0.10629 0.48300-0.39945 0.85591-0.87354
  -6   1   1 1193.96 168.810   8-0.47414 0.02179-0.12976 0.21311-0.94552 0.96297
   6   1  -1 1335.40 149.107   3 0.48794-0.03606-0.24076 0.32389 0.91682-0.93473
  -6   1   1 1396.87 171.344   5-0.42992-0.02223 0.13816-0.05479-0.95798 0.97553
   6   1  -1 1394.35 186.957   7 0.44367 0.00825 0.06201 0.02132 0.96244-0.97967
   6  -1  -1 1257.51 162.414   3 0.42239 0.02972-0.17854 0.09472 0.95301-0.97095
  -6  -1   1 1267.77 177.283   8-0.43457-0.01775-0.11343 0.02994-0.96015 0.97754
  -6  -1   1 1139.61 145.131   5-0.47930 0.02708 0.16867-0.25205-0.93705 0.95456
   5   1  -1 249.409 75.6892   7 0.44919-0.07607 0.06308 0.02025 0.96072-0.99302
  -5   1   1 332.327 92.2317   2-0.41197 0.03851 0.22279-0.13921-0.94598 0.97855
   5  -1  -1 349.036 86.0808   7 0.47467-0.10155 0.06802-0.15158 0.95217-0.98453
   5   1  -1 380.112 79.7426   3 0.50333-0.13027-0.25574 0.33893 0.90638-0.93935
  -5  -1   1 364.822 72.2106   4 0.11596-0.48919-0.23712 0.15424 0.96882-0.93614
  -5  -1   1 346.421 64.2424   2-0.51320 0.13961 0.36660-0.45000-0.85980 0.89231
   5  -1  -1 418.608 74.8695   9-0.11870 0.49178-0.25640 0.17270-0.96433 0.93181
   5   1  -1 342.666 71.4079   6 0.34084 0.03245 0.46093-0.37744 0.86960-0.90228
  -5  -1   1 432.750 102.765   8-0.43824 0.06470-0.11493 0.03144-0.95890 0.99137
  -5   1   1 403.439 92.6759   8-0.48608 0.11252-0.13471 0.21808-0.94057 0.97311
  -5  -1   1 371.082 76.9222   5-0.49258 0.11912 0.17696-0.26034-0.93055 0.96314
  -5   1   1 445.950 109.690   5-0.43270 0.05932 0.13987-0.05648-0.95693 0.98955
   4   1  -1 13621.0 459.998   7 0.47394-0.17961 0.06788 0.01544 0.95243-0.99980
  -4  -1   1 13467.5 365.270   4 0.18862-0.48316-0.04811-0.03493 0.99882-0.95114
   4  -1  -1 14195.2 447.632   3 0.43975-0.14531-0.19478 0.11112 0.94464-0.99273
   4   1  -1 14624.3 397.219   6 0.34140-0.04691 0.46341-0.37997 0.86810-0.91584
  -4  -1   1 15854.2 371.812   2-0.55600 0.26124 0.43321-0.51662-0.80253 0.85015
   4   1  -1 14855.3 392.973   3 0.54544-0.25122-0.29756 0.38080 0.87337-0.92139
  -4   1   1 14146.1 432.829   2-0.42435 0.12967 0.23961-0.15599-0.93822 0.98588
   4  -1  -1 14009.6 441.226   7 0.50734-0.21300 0.07439-0.15794 0.93977-0.98719
   4  -1  -1 13186.7 358.708   9-0.19401 0.48828-0.07065-0.01294-0.99752 0.94990
  -4   1   1 13829.8 440.133   5-0.45170 0.15708 0.15155-0.06814-0.94935 0.99706
  -4   1   1 13568.9 408.472   8-0.52239 0.22764-0.14989 0.23326-0.92393 0.97156
  -4  -1   1 13560.4 452.106   8-0.45936 0.16462-0.12365 0.04014-0.95129 0.99884
  -4  -1   1 13618.3 379.536   5-0.53141 0.23672 0.20149-0.28486-0.90923 0.95692
   3   1  -1 96.7796 40.5886   7 0.53228-0.31674 0.07928 0.00404 0.92916-0.99159
   3  -1  -1 89.9761 34.4569   7 0.58088-0.36531 0.08887-0.17241 0.90536-0.96784
   3  -1  -1 125.614 39.4895   9-0.26688 0.48236 0.13420-0.21767-0.98773 0.92506
   3   1  -1 115.796 28.2875   1-0.23525 0.45046-0.21294 0.29610-0.97588 0.91299
  -3  -1   1 118.110 31.5605   5-0.61539 0.39949 0.25606-0.33944-0.84939 0.91219
   3   1  -1 120.606 28.2369   2-0.36156 0.57737 0.15607-0.07276-0.97135 0.90868
  -3   1   1 92.9181 37.2486   2-0.45533 0.23945 0.28252-0.19886-0.91576 0.97852
  -3  -1   1 130.291 35.1998   4 0.25787-0.47368 0.15687-0.24011 0.98514-0.92239
   3   1  -1 139.401 45.4862   3 0.63129-0.41587-0.38771 0.47099 0.77997-0.84303
   3   1  -1 93.0872 30.7963   6 0.34876-0.13305 0.49669-0.41332 0.84698-0.90976
   3  -1  -1 108.689 41.3188   3 0.47837-0.26277-0.23153 0.14795 0.92291-0.98607
  -3  -1   1 107.853 42.5119   8-0.51015 0.29420-0.14476 0.06126-0.92982 0.99247
  -3   1   1 124.708 37.8663   8-0.60234 0.38641-0.18386 0.26725-0.87774 0.94047
   2   1  -1 33758.9 559.041   7 0.65190-0.51512 0.10309-0.01978 0.86217-0.93964
   2  -1  -1 35708.7 556.071   7 0.72822-0.59140 0.11866-0.20218 0.80191-0.87943
  -2  -1   1 33787.5 554.535   8-0.61314 0.47600-0.18852 0.10500-0.87036 0.94814
  -2   1   1 34127.8 546.989   2-0.51273 0.37565 0.36588-0.28218-0.86035 0.93824
   2   1  -1 35771.8 559.397   6 0.36280-0.22588 0.56662-0.48331 0.79574-0.87355
   2  -1  -1 34881.0 523.188   9-0.33129 0.46804 0.34835-0.43175-0.92395 0.84625
   4  -1   1 307.965 106.591   7-0.12808 0.46406-0.04434-0.03904 0.94793-0.77979
   4   1   1 787.784 131.034   7-0.10772 0.44373-0.04068 0.12428 0.95436-0.78613
  -4  -1  -1 936.692 130.704   8 0.09447-0.42997 0.09321-0.17650-0.95472 0.78671
   5  -1   1 402.495 122.614   7-0.03105 0.44583-0.02682-0.05654 0.97474-0.79152
  -5  -1  -1 231.113 84.7343   8 0.01311-0.42739 0.06269-0.14597-0.97697 0.79387
  -5   1  -1 266.478 93.1795   8 0.03999-0.45431 0.07282 0.01065-0.97045 0.78737
   5   1   1 370.535 112.168   7-0.02066 0.43548-0.02494 0.10853 0.97704-0.79374
   6   1   1 1763.36 244.847   7 0.05307 0.44055-0.01148 0.09506 0.99022-0.79184
   6  -1   1 1942.76 281.564   7 0.04898 0.44459-0.01223-0.07115 0.98963-0.79134
  -6  -1  -1 1418.36 209.921   8-0.05701-0.43605 0.03601-0.11931-0.99018 0.79200
  -6   1  -1 1371.67 206.787   8-0.04390-0.44920 0.04102 0.04243-0.98813 0.78998
   7   1   1 545.432 168.160   7 0.11839 0.45401 0.00055 0.08303 0.99727-0.78381
   7  -1   1 786.971 202.396   7 0.11853 0.45384 0.00058-0.08395 0.99728-0.78391
  -7   1  -1 1058.34 213.151   8-0.11621-0.45570 0.01326 0.07020-0.99702 0.78378
  -7  -1  -1 1088.77 214.319   8-0.11992-0.45192 0.01183-0.09512-0.99731 0.78406
  11   2  -1 -236.79 187.395   7 0.53522 0.31068 0.07986 0.08693 0.92784-0.86955
  11  -2  -1 109.401 120.170   7 0.56536 0.28045 0.08580-0.25287 0.91342-0.85527
 -11   2   1 -253.68 172.872   5-0.51352-0.33236 0.19014-0.02345-0.91950 0.86182
 -11  -2   1 -13.815 145.546   8-0.52190-0.32430-0.14969-0.01722-0.92417 0.86625
 -11   2   1 43.2628 101.152   8-0.58029-0.26608-0.17441 0.34113-0.89192 0.83411
  11  -2  -1 206.743 155.877   3 0.50043 0.34593-0.25291 0.08527 0.90840-0.85088
  10  -2  -1 317.212 168.845   3 0.47680 0.29074-0.23002 0.06244 0.92388-0.88146
  10   2  -1 203.283 168.157   7 0.51059 0.25651 0.07503 0.09176 0.93845-0.89527
  10  -2  -1 377.072 182.024   7 0.54185 0.22517 0.08116-0.24822 0.92480-0.88175
 -10   2   1 298.913 143.407   2-0.46159-0.30585 0.29135-0.12438-0.91065 0.86790
 -10  -2   1 155.614 161.541   8-0.49717-0.27026-0.13934-0.02757-0.93575 0.89288
 -10   2   1 212.687 121.438   8-0.55739-0.21018-0.16466 0.33140-0.90544 0.86267
 -10   2   1 340.919 157.033   5-0.48917-0.27796 0.17483-0.00815-0.93225 0.88961
   9  -2  -1 50.9665 104.354   3 0.45557 0.23314-0.20973 0.04222 0.93627-0.90894
  -9   2   1 215.869 108.218   2-0.44112-0.24750 0.26268-0.09571-0.92662 0.89893
   9   2  -1 120.075 116.852   7 0.48879 0.19952 0.07077 0.09602 0.94702-0.91894
   9  -2  -1 149.718 86.6379   7 0.52166 0.16659 0.07720-0.24424 0.93380-0.90585
  -9  -2   1 135.220 84.6296   5-0.54873-0.13985 0.21256-0.37930-0.89853 0.87084
  -9  -2   1 140.603 132.355   8-0.47508-0.21357-0.13015-0.03675-0.94514 0.91731
  -9   2   1 295.752 130.315   8-0.53807-0.15070-0.15650 0.32324-0.91595 0.88825
  -9   2   1 77.5871 107.082   5-0.46740-0.22098 0.16127 0.00544-0.94255 0.91495
   8  -2  -1 1046.00 194.202   3 0.43753 0.17236-0.19270 0.02524 0.94575-0.93352
  -8   2   1 1005.81 171.552   2-0.42355-0.18625 0.23852-0.07154-0.93874 0.92612
   8   2  -1 925.344 188.824   7 0.47083 0.13867 0.06727 0.09952 0.95352-0.94054
  -8   2   1 1056.59 188.080   5-0.44904-0.16058 0.14991 0.01679-0.95045 0.93792
   8  -2  -1 1198.96 206.793   7 0.50607 0.10339 0.07414-0.24117 0.94029-0.92742
  -8  -2   1 1061.91 204.676   8-0.45654-0.15332-0.12248-0.04442-0.95235 0.93958
  -8  -2   1 966.051 174.292   5-0.53532-0.07450 0.20398-0.37072-0.90689 0.89426
  -8   2   1 1408.20 210.088   8-0.52381-0.08616-0.15049 0.31725-0.92322 0.91058
   7  -2  -1 206.132 97.3616   3 0.42376 0.10729-0.17981 0.01242 0.95238-0.95524
  -7   2   1 364.550 109.638   5-0.43533-0.09554 0.14148 0.02524-0.95592 0.95844
   7   2  -1 172.144 69.9475   7 0.45824 0.07247 0.06484 0.10197 0.95779-0.95990
  -7  -2   1 240.245 79.8754   4 0.01932-0.54988-0.45754 0.29150 0.87609-0.87341
   7  -2  -1 251.937 105.055   7 0.49709 0.03357 0.07239-0.23941 0.94384-0.94606
  -7   2   1 113.247 74.7317   2-0.40985-0.12116 0.21992-0.05294-0.94725 0.94970
  -7  -2   1 98.2997 87.9483   5-0.52988-0.00117 0.20052-0.36728-0.91014 0.91257
   7   2  -1 245.696 82.3223   6 0.33403 0.19697 0.43168-0.26464 0.88647-0.88897
  -7  -2   1 137.175 84.4966   8-0.44292-0.08817-0.11686-0.05004-0.95728 0.95957
   7  -2  -1 263.560 84.9146   9-0.02114 0.55185-0.46723 0.29988-0.87175 0.86947
   7   2  -1 238.381 85.4729   3 0.55337-0.02284-0.30558 0.47210 0.86635-0.86917
  -7   2   1 270.797 104.676   8-0.51691-0.01426-0.14759 0.31437-0.92660 0.92903
   6   2  -1 2707.15 219.057   6 0.32510 0.12711 0.39506-0.22806 0.90567-0.92323
  -6  -2   1 2941.16 234.492   4 0.07482-0.52670-0.33492 0.16877 0.93612-0.91848
   6   2  -1 2541.13 255.263   7 0.45342-0.00151 0.06390 0.10289 0.95936-0.97656
  -6  -2   1 2787.09 270.654   8-0.43627-0.01604-0.11412-0.05277-0.95958 0.97694
  -6  -2   1 2739.14 207.904   5-0.53687 0.08458 0.20497-0.37173-0.90595 0.92346
  -6   2   1 2578.62 237.729   2-0.40135-0.05086 0.20850-0.04150-0.95214 0.96965
   6   2  -1 2638.05 190.741   3 0.56552-0.11381-0.31797 0.48455 0.85504-0.87292
   6  -2  -1 2350.77 207.835   9-0.07817 0.53006-0.34774 0.18048-0.93213 0.91471
   6  -2  -1 2695.60 252.457   7 0.49804-0.04616 0.07257-0.23958 0.94347-0.96077
  -6   2   1 3030.85 247.369   8-0.52126 0.06889-0.14942 0.31622-0.92448 0.94198
   6  -2  -1 2334.36 233.363   3 0.41587 0.03634-0.17247 0.00515 0.95595-0.97390
  -5  -2   1 6059.62 318.172   4 0.12865-0.50183-0.20569 0.03938 0.97675-0.94412
   5   2  -1 6106.33 359.794   7 0.46040-0.08729 0.06525 0.10153 0.95708-0.98935
   5  -2  -1 6218.94 329.677   7 0.51468-0.14158 0.07583-0.24282 0.93675-0.96912
   5   2  -1 6211.60 305.217   6 0.31961 0.05380 0.37337-0.20643 0.91607-0.94870
  -5   2   1 6180.44 338.595   2-0.40002 0.02659 0.20672-0.03969-0.95288 0.98547
   5  -2  -1 6157.96 345.570   3 0.41627-0.04290-0.17284 0.00561 0.95577-0.98881
   5  -2  -1 5998.59 306.351   9-0.13393 0.50701-0.22059 0.05345-0.97397 0.94143
  -5  -2   1 6664.10 284.643   5-0.56428 0.19076 0.22257-0.38935-0.88825 0.92085
  -5   2   1 5989.68 332.493   5-0.43040 0.05704 0.13847 0.02831-0.95779 0.99045
  -5  -2   1 6325.74 358.511   8-0.43995 0.06642-0.11564-0.05126-0.95831 0.99075
  -5   2   1 6111.52 299.463   8-0.54378 0.17021-0.15890 0.32572-0.91293 0.94551
   5   2  -1 7210.86 289.138   3 0.60165-0.22875-0.35568 0.52228 0.81702-0.84995
  -3   2   1 8.85102 27.4193   2-0.43141 0.21554 0.24928-0.08216-0.93349 0.99627
  -3  -2   1 21.9944 17.4966   3 0.34467-0.56018-0.10753-0.05925 0.98124-0.91820
   3   2  -1 14.3303 29.0374   7 0.54427-0.32876 0.08164 0.08512 0.92368-0.98608
   3  -2  -1 18.5186 22.6386   7 0.64753-0.43195 0.10221-0.26914 0.86514-0.92764
   3   2  -1 22.9644 22.5560   1-0.21757 0.43280-0.08213 0.24874-0.99627 0.93338
  -3   2   1 26.8998 18.4546   4 0.13725-0.35318-0.18404 0.35112 0.98151-0.91862
  -3   2   1 4.24747 13.2338   6 0.13645-0.35227-0.18534 0.35243 0.98122-0.91829
  -3  -2   1 16.7535 31.8544   4 0.22828-0.44396 0.06568-0.23241 0.99713-0.93442
  -3  -2   1 11.7430 32.7225   8-0.50557 0.28961-0.14285-0.02409-0.93195 0.99457
   3   2  -1 -7.4840 11.3021   9-0.16136 0.37685-0.15395 0.32080-0.98773 0.92510
   3   2  -1 -26.202 28.5214   6 0.32320-0.10741 0.38752-0.22072 0.90936-0.97212
  -3   2   1 82.3574 45.0901   8-0.70491 0.48901-0.22887 0.39574-0.79391 0.85667
   3  -2  -1 0.99890 23.3862   9-0.23853 0.45405 0.05091-0.21782-0.99751 0.93480
   2   2  -1 30.2414 21.3673   7 0.65877-0.52202 0.10448 0.06227 0.85738-0.93482
   2  -2  -1 43.5393 29.3092   9-0.28476 0.42154 0.18961-0.35641-0.97673 0.89898
  -2   2   1 25.0177 20.2698   6 0.06056-0.19750-0.36672 0.53393 0.92267-0.84457
   2   2  -1 19.3169 16.4177   6 0.33404-0.19705 0.43175-0.26503 0.88644-0.96424
  -2  -2   1 8.45376 16.0946   4 0.27169-0.40855 0.20172-0.36867 0.97567-0.89783
   2   2  -1 -1.0932 15.1021   1-0.23759 0.37412-0.23270 0.39917-0.97119 0.89332
  -2   2   1 42.4259 31.5188   5-0.56070 0.42365 0.22026-0.05340-0.89067 0.96860
  -2  -2   1 59.4753 35.7851   8-0.59567 0.45851-0.18099 0.01403-0.88215 0.95991
   2  -2  -1 42.9134 20.6878   8-0.61177 0.74882-0.18793 0.02107-0.87132 0.79350
   1  -2  -1 8702.15 324.849   3 0.60954-0.55149-0.36409 0.19725 0.80774-0.90103
   1   2  -1 8637.80 307.880   6 0.35073-0.29253 0.50591-0.33928 0.84078-0.93361
   1  -2  -1 8696.64 308.952   9-0.32457 0.38266 0.32378-0.49051-0.93431 0.84154
  -1   2   1 9005.54 377.376   5-0.68817 0.62994 0.30557-0.13866-0.77752 0.87055
   0  -2   1 -5.7395 13.7326   9 0.05570-0.03487-0.61217 0.44512-0.76374 0.87173
   0   2  -1 -7.4516 13.0319   6 0.37035-0.39093 0.60962-0.44307 0.75896-0.86680
   4   2   1 2072.00 216.452   7-0.07090 0.40691-0.03405 0.20113 0.96490-0.79664
   4  -2   1 1938.08 222.977   7-0.10697 0.44293-0.04055-0.12630 0.95459-0.78649
  -4  -2  -1 1910.92 191.087   8 0.04999-0.38548 0.07657-0.24322-0.96781 0.79977
  -5   2  -1 456.349 115.262   8 0.02780-0.44216 0.06822 0.09862-0.97351 0.79044
  -5  -2  -1 383.808 101.084   8-0.01954-0.39474 0.05031-0.21696-0.98381 0.80068
   5   2   1 369.174 119.278   7 0.00743 0.40738-0.01982 0.18691 0.98271-0.79938
   5  -2   1 259.480 97.4480   7-0.00985 0.42460-0.02297-0.14387 0.97932-0.79615
   6  -2   1 1036.43 207.336   7 0.06960 0.42394-0.00844-0.15840 0.99242-0.79418
   6   2   1 1216.41 219.227   7 0.07512 0.41849-0.00743 0.17450 0.99309-0.79467
   6   2   1 394.449 101.885   6 0.13843 0.35551-0.18032 0.34794 0.98225-0.78330
  -6  -2  -1 1261.06 194.830   8-0.08139-0.41166 0.02668-0.19334-0.99348 0.79528
  -6   2  -1 1340.44 190.692   8-0.06040-0.43275 0.03473 0.13213-0.99068 0.79253
   7   2   1 263.890 131.537   7 0.13605 0.43636 0.00382 0.16325 0.99842-0.78492
   7  -2   1 135.171 133.001   7 0.13840 0.43392 0.00426-0.17110 0.99855-0.78523
  -7  -2  -1 167.561 122.936   8-0.13825-0.43358 0.00473-0.17139-0.99854 0.78527
  -7   2  -1 421.250 129.865   8-0.13509-0.43686 0.00595 0.16091-0.99835 0.78512
   8  -2   1 39.9878 100.497   7 0.20037 0.45074 0.01579-0.18263 0.99984-0.77143
  -8   2  -1 352.310 120.095   8-0.20126-0.44951-0.01985 0.18670-0.99976 0.77145
  11   3  -1 1351.25 343.930   7 0.54633 0.29957 0.08205 0.16823 0.92271-0.86438
  11  -3  -1 1113.84 268.463   7 0.59347 0.25230 0.09137-0.34188 0.89847-0.84035
  11  -3  -1 1608.01 340.196   3 0.49737 0.34909-0.24992-0.00122 0.91051-0.85296
 -11   3   1 1160.91 282.212   5-0.51492-0.33094 0.19102 0.05901-0.91872 0.86109
 -11  -3   1 1067.55 294.098   8-0.52671-0.31948-0.15170-0.09858-0.92178 0.86386
  10  -3  -1 303.626 168.386   7 0.57241 0.19458 0.08719-0.33769 0.90982-0.86679
  10   3  -1 571.002 216.085   7 0.52321 0.24389 0.07750 0.17278 0.93314-0.88991
  10  -3  -1 153.212 130.803   3 0.47522 0.29241-0.22850-0.02259 0.92485-0.88240
 -10  -3   1 160.973 124.269   8-0.50331-0.26410-0.14190-0.10838-0.93298 0.89009
 -10   3   1 132.679 129.900   5-0.49198-0.27513 0.17659 0.07346-0.93085 0.88825
 -10   3   1 228.444 158.440   2-0.45597-0.31138 0.28342-0.03303-0.91525 0.87256
   9   3  -1 2329.64 335.960   7 0.50316 0.18514 0.07357 0.17670 0.94145-0.91334
  -9   3   1 2236.68 296.538   2-0.43714-0.25140 0.25718-0.00678-0.92949 0.90186
   9  -3  -1 2373.46 336.044   3 0.45553 0.23327-0.20970-0.04133 0.93629-0.90895
  -9   3   1 1947.39 292.091   5-0.47171-0.21665 0.16394 0.08612-0.94059 0.91304
   9  -3  -1 2247.64 313.449   7 0.55529 0.13291 0.08381-0.33429 0.91842-0.89049
  -9   3   1 2680.79 305.212   8-0.58391-0.10491-0.17596 0.42616-0.88967 0.86201
  -9  -3   1 2221.73 319.863   8-0.48271-0.20593-0.13332-0.11696-0.94199 0.91415
   8  -3  -1 234.516 117.604   3 0.43902 0.17095-0.19411-0.05687 0.94500-0.93276
  -8   3   1 76.9971 97.2798   2-0.42116-0.18858 0.23525 0.01514-0.94028 0.92771
   8   3  -1 -68.557 122.415   7 0.48724 0.12225 0.07047 0.17980 0.94760-0.93458
   8  -3  -1 117.050 92.6677   7 0.54364 0.06578 0.08152-0.33198 0.92397-0.91112
  -8   3   1 201.550 107.529   8-0.57515-0.03487-0.17222 0.42244-0.89505 0.88245
  -8   3   1 203.289 118.927   5-0.45492-0.15468 0.15354 0.09653-0.94800 0.93550
   8  -3  -1 155.635 83.9947   9 0.00428 0.60522-0.51720 0.26631-0.83939 0.85222
  -8  -3   1 -99.545 113.278   8-0.46582-0.14404-0.12632-0.12397-0.94881 0.93602
  -7  -3   1 1124.59 151.047   5-0.60341 0.07228 0.24813-0.49828-0.85924 0.86170
   7   3  -1 1254.25 210.579   7 0.47705 0.05365 0.06848 0.18178 0.95132-0.95340
   7  -3  -1 1431.73 216.389   7 0.53988-0.00923 0.08078-0.33121 0.92571-0.92795
  -7  -3   1 1052.33 165.776   4 0.04096-0.57150-0.41096 0.16153 0.90160-0.89900
  -7  -3   1 1092.62 194.191   8-0.45396-0.07713-0.12142-0.12888-0.95331 0.95558
   7   3  -1 927.390 157.060   6 0.32372 0.20739 0.38958-0.13907 0.90836-0.91078
  -7   3   1 1995.97 256.641   5-0.44280-0.08806 0.14607 0.10402-0.95299 0.95554
   7  -3  -1 1482.74 226.257   3 0.42668 0.10445-0.18254-0.06836 0.95102-0.95388
   7  -3  -1 1246.95 180.322   9-0.04410 0.57479-0.42034 0.16955-0.89812 0.89580
  -7   3   1 1463.23 209.515   8-0.57585 0.04464-0.17252 0.42277-0.89463 0.89709
   6  -3  -1 42.6074 55.4512   9-0.09062 0.54249-0.32027 0.06958-0.94300 0.92554
   6  -3  -1 296.056 117.518   3 0.41992 0.03238-0.17623-0.07459 0.95414-0.97210
   6   3  -1 38.5236 55.7218   7 0.47504-0.02316 0.06809 0.18216 0.95204-0.96920
   6  -3  -1 335.979 125.740   7 0.54797-0.09610 0.08237-0.33279 0.92194-0.93925
  -6  -3   1 26.3798 46.8916   4 0.08588-0.53771-0.30924 0.05964 0.94593-0.92836
   6   3  -1 24.4954 43.5234   6 0.31569 0.13663 0.35822-0.10775 0.92293-0.94043
  -6  -3   1 120.468 59.2345   5-0.62557 0.17321 0.26284-0.51301-0.84063 0.85817
  -6  -3   1 41.0958 65.2243   8-0.44912-0.00320-0.11941-0.13087-0.95508 0.97241
  -5  -3   1 1493.04 176.701   4 0.12845-0.50155-0.20620-0.04358 0.97663-0.94405
   5   3  -1 1508.56 186.522   7 0.48526-0.11218 0.07008 0.18016 0.94833-0.98057
   5   3  -1 1411.10 162.864   6 0.31065 0.06286 0.33910-0.08869 0.93112-0.96370
  -5   3   1 1684.94 192.983   2-0.40023 0.02683 0.20700 0.04344-0.95276 0.98539
   5  -3  -1 1502.63 159.500   7 0.57476-0.20167 0.08766-0.33806 0.90859-0.94098
  -5  -3   1 1607.94 144.057   5-0.67638 0.30280 0.29737-0.54757-0.79077 0.82341
   5  -3  -1 1542.46 183.976   9-0.13499 0.50808-0.21807-0.03250-0.97459 0.94201
  -5   3   1 1518.30 143.618   8-0.63009 0.25651-0.19586 0.44616-0.85816 0.89079
   5  -3  -1 1468.12 189.985   3 0.42073-0.04730-0.17699-0.07374 0.95377-0.98682
  -5   3   1 1528.94 179.876   5-0.44031 0.06697 0.14455 0.10561-0.95397 0.98666
  -5  -3   1 1615.45 196.668   8-0.45444 0.08089-0.12161-0.12870-0.95313 0.98555
   4   3  -1 352.038 86.8122   7 0.51463-0.22035 0.07582 0.17441 0.93678-0.98408
  -4   3   1 304.494 72.0036   2-0.40756 0.11293 0.21684 0.03365-0.94860 0.99630
   4  -3  -1 374.985 80.6043   7 0.63269-0.33834 0.09922-0.34958 0.87494-0.92239
   4  -3  -1 448.282 100.776   9-0.17681 0.47113-0.11510-0.13536-0.99330 0.94563
  -4  -3   1 242.387 76.2928   4 0.16828-0.46263-0.10332-0.14668 0.99436-0.94675
  -4   3   1 298.545 48.4694   6 0.29443-0.58896 0.28002-0.02979 0.95327-0.90541
   4   3  -1 427.205 63.1135   9-0.32586 0.61994 0.32843-0.07835-0.93241 0.88492
   4   3  -1 353.194 79.1823   6 0.30935-0.01466 0.33422-0.08388 0.93313-0.98079
  -4   3   1 387.276 53.0395   4 0.29525-0.59024 0.28234-0.03137 0.95247-0.90467
  -4  -3   1 489.110 102.216   8-0.47504 0.18026-0.13013-0.12020-0.94515 0.99266
   4   3  -1 322.124 82.9957   1-0.18283 0.47682 0.12133 0.12891-0.99255 0.94471
  -4   3   1 696.850 123.964   8-0.70836 0.41363-0.23042 0.48076-0.79047 0.83818
   3   3  -1 2757.08 221.939   7 0.57547-0.35997 0.08780 0.16240 0.90822-0.97058
   3  -3  -1 3062.20 206.066   7 0.74289-0.52729 0.12170-0.37203 0.78829-0.85081
  -3   3   1 2834.89 174.556   6 0.20715-0.42291 0.00467 0.24585 0.99986-0.93692
   3   3  -1 3033.21 238.106   6 0.31252-0.09664 0.34611-0.09585 0.92818-0.99091
   3  -3  -1 3251.68 247.969   9-0.21557 0.43113-0.01306-0.23728-0.99961 0.93688
   3   3  -1 2398.31 201.243   1-0.20446 0.41969 0.00084 0.24923-0.99991 0.93704
  -3  -3   1 2712.27 233.145   4 0.20492-0.42047-0.00239-0.24783 0.99990-0.93721
  -3  -3   1 3138.01 240.632   8-0.51957 0.30358-0.14871-0.10165-0.92531 0.98792
  -3   3   1 2834.98 228.745   5-0.49253 0.27672 0.17694 0.07328-0.93057 0.99342
  -2  -3   1 8253.71 359.470   4 0.23781-0.37453 0.09439-0.34483 0.99439-0.91658
   2   3  -1 8422.07 343.024   1-0.22105 0.35759-0.10585 0.35577-0.99392 0.91604
  -2  -3   1 8520.15 322.993   8-0.60253 0.46534-0.18394-0.06645-0.87761 0.95535
  -2  -3   1 9207.26 325.868   9 0.02154-0.15821-0.55000 0.29957-0.81552 0.89331
  -2   3   1 8143.46 311.140   6 0.15184-0.28873-0.14587 0.39657 0.98852-0.91044
   2   3  -1 8333.66 344.924   6 0.32071-0.18366 0.37767-0.12749 0.91406-0.99186
   2  -3  -1 8072.30 356.484   3 0.50592-0.36902-0.25828 0.00786 0.90454-0.98283
   2  -3  -1 8483.04 356.768   9-0.25066 0.38750 0.08590-0.33614-0.99438 0.91659
   2   3  -1 8990.21 318.202   7 0.68884-0.55213 0.11058 0.13960 0.83504-0.91242
  -2   3   1 9014.45 334.904   5-0.55820 0.42117 0.21866 0.03162-0.89234 0.97029
   2  -3  -1 9287.59 224.844   8-0.59773 0.73474-0.18187-0.06842-0.88080 0.80300
   2  -3  -1 9550.94 341.571   4-0.02745 0.16484-0.55289 0.30253 0.81197-0.88977
  -1   3   1 472.024 82.8630   2-0.51195 0.45365 0.36471-0.11401-0.86124 0.95430
   1  -3  -1 588.584 95.1529   3 0.58159-0.52352-0.33459 0.08429 0.83899-0.93233
  -1  -3   1 493.858 83.3479   9 0.00440-0.06230-0.51744 0.26696-0.83922 0.93209
  -1   3   1 683.341 97.1136   5-0.66635 0.60813 0.29046-0.04013-0.80149 0.89454
   1   3  -1 557.898 93.2802   6 0.33404-0.27580 0.43173-0.18165 0.88645-0.97929
  -1   3   1 520.916 85.4274   6 0.11977-0.17778-0.22703 0.47784 0.97148-0.87824
  -1  -3   1 -33.258 140.852   8-0.74213 0.68379-0.24575-0.00467-0.75414 0.84704
   1  -3  -1 479.549 83.1556   9-0.28146 0.33958 0.17918-0.42934-0.97908 0.88626
   1  -3  -1 578.451 91.5859   4-0.01030 0.06888-0.51877 0.26853 0.83690-0.92977
   0  -3  -1 19.5526 27.1532   4-0.00678-0.01347-0.51163 0.26151 0.84183-0.94976
   0  -3   1 49.0875 32.8926   9 0.00153 0.01935-0.51189 0.26134-0.84305 0.95101
   0   3   1 43.6236 26.7418   6 0.10386-0.08297-0.26581 0.51668 0.96049-0.85211
   0   3  -1 107.166 41.2174   6 0.35158-0.37215 0.50997-0.26002 0.83799-0.94584
   0  -3   1 33.4025 33.2008   4 0.29028-0.26922 0.26481-0.51561 0.95821-0.85008
   0  -3  -1 47.7499 28.0539   9-0.30739 0.28683 0.26378-0.51386-0.95614 0.84829
   1  -3   1 12687.4 410.302   4 0.30904-0.20907 0.33249-0.58342 0.93381-0.81049
   1   3   1 12294.3 444.169   6 0.09935 0.00042-0.27663 0.52754 0.95708-0.83357
  -1  -3  -1 12763.5 402.255   9-0.32807 0.22881 0.33648-0.58652-0.92906 0.80618
   1  -3   1 12266.4 457.229   9 0.00808 0.09156-0.52450 0.27390-0.83426 0.95731
   2   3   1 1765.49 178.775   6 0.10309 0.07555-0.26766 0.51863 0.95992-0.82128
   2  -3   1 1655.64 178.620   9 0.02127 0.15713-0.54950 0.29883-0.81590 0.95405
  -2  -3  -1 1551.33 170.185   4-0.02465-0.15319-0.54738 0.29752 0.81616-0.95415
   3  -3   1 509.477 93.5594   7-0.18464 0.44176-0.05444-0.19587 0.92781-0.77484
   3   3   1 3021.42 251.919   6 0.11293 0.14456-0.24382 0.49481 0.96695-0.81322
   3   3   1 3003.57 233.167   7-0.09873 0.35594-0.03906 0.28964 0.95706-0.80385
  -3  -3  -1 2698.10 211.836   8 0.05972-0.31647 0.08023-0.33024-0.96514 0.81215
   3  -3   1 2799.87 245.882   9 0.03933 0.21785-0.58283 0.33210-0.78931 0.94258
  -3  -3  -1 3091.69 252.203   4-0.04172-0.21490-0.58056 0.33081 0.78994-0.94294
   4  -3   1 48.4768 51.1337   7-0.06027 0.39620-0.03213-0.21817 0.96768-0.79964
   4   3   1 83.3249 70.2499   6 0.12740 0.20895-0.20810 0.45915 0.97616-0.80733
   4   3   1 67.7868 59.5319   7-0.01847 0.35448-0.02454 0.27512 0.97751-0.80922
   4  -3   1 -23.929 44.8848   9 0.06107 0.27488-0.62162 0.37083-0.75503 0.92341
  -4  -3  -1 75.9610 45.7246   8-0.00465-0.33086 0.05596-0.30598-0.98084 0.81277
   5  -3   1 5111.51 352.120   7 0.03221 0.38250-0.01530-0.23500 0.98705-0.80394
  -5   3  -1 5297.48 311.697   8-0.00841-0.40600 0.05454 0.19573-0.98161 0.79854
  -5  -3  -1 6215.50 401.515   8-0.06208-0.35220 0.03408-0.28410-0.99092 0.80778
   6  -3   1 2285.69 257.948   7 0.10772 0.38579-0.00142-0.24888 0.99642-0.79823
   6   3   1 1749.61 248.280   7 0.10916 0.38444-0.00115 0.25172 0.99654-0.79809
   6   3   1 1569.35 219.475   6 0.16625 0.32775-0.10803 0.35916 0.99381-0.79483
  -6  -3  -1 1746.77 225.691   8-0.11521-0.37785 0.01365-0.26368-0.99693 0.79872
  -6   3  -1 2221.49 222.206   8-0.09760-0.39561 0.02044 0.22984-0.99530 0.79714
   7  -3   1 1950.11 250.379   7 0.17329 0.39899 0.01074-0.26104 0.99978-0.78651
   7   3   1 1639.78 245.893   7 0.16441 0.40797 0.00909 0.24147 0.99959-0.78604
  -7  -3  -1 1825.32 248.004   8-0.16549-0.40636-0.00586-0.24417-0.99964 0.78636
   7   3   1 1433.41 210.206   6 0.18929 0.38351-0.04553 0.29671 0.99895-0.78491
  -7   3  -1 2164.20 239.197   8-0.17200-0.40002-0.00840 0.25868-0.99977 0.78654
   8  -3   1 37.5939 76.0535   7 0.23261 0.41845 0.02183-0.27213 0.99888-0.77052
  -8   3  -1 204.682 118.160   8-0.23741-0.41342-0.03407 0.28435-0.99831 0.77000
 -11   4   1 251.718 168.182   2-0.47578-0.37031 0.31158 0.02222-0.89828 0.84062
  10   4  -1 4.61077 123.395   7 0.54304 0.22405 0.08140 0.25236 0.92425-0.88098
  10  -4  -1 182.287 119.725   7 0.61290 0.15406 0.09525-0.42917 0.88722-0.84421
 -10  -4   1 201.712 162.924   8-0.51613-0.25129-0.14726-0.18640-0.92698 0.88409
 -10   4   1 13.3476 111.829   5-0.50111-0.26598 0.18232 0.15109-0.92617 0.88362
 -10   4   1 -0.8896 99.5153   2-0.45651-0.31078 0.28418 0.04963-0.91481 0.87219
  10  -4  -1 29.8637 120.982   3 0.47979 0.28794-0.23289-0.10172 0.92203-0.87956
   9  -4  -1 664.556 213.305   3 0.46190 0.22699-0.21576-0.11878 0.93272-0.90536
  -9   4   1 119.038 104.342   2-0.43948-0.24900 0.26041 0.07339-0.92781 0.90024
   9   4  -1 329.597 143.392   7 0.52539 0.16290 0.07793 0.25583 0.93219-0.90402
   9  -4  -1 122.711 95.5037   7 0.60009 0.08807 0.09269-0.42659 0.89472-0.86680
  -9  -4   1 266.238 154.783   8-0.49753-0.19112-0.13949-0.19418-0.93559 0.90774
  -9   4   1 155.365 139.460   5-0.48273-0.20562 0.17080 0.16262-0.93541 0.90790
   8   4  -1 485.807 156.455   6 0.32888 0.28113 0.41037-0.07636 0.89789-0.88517
   8  -4  -1 326.263 141.201   3 0.44723 0.16281-0.20184-0.13263 0.94077-0.92852
  -8   4   1 265.411 122.097   5-0.46797-0.14162 0.16162 0.17183-0.94229 0.92983
  -8   4   1 213.892 115.751   2-0.42527-0.18443 0.24086 0.09294-0.93762 0.92510
  -8  -4   1 46.5344 142.148   4 0.00954-0.61875-0.47809 0.14538 0.86369-0.87612
   8   4  -1 367.310 165.194   7 0.51228 0.09720 0.07536 0.25839 0.93775-0.92468
   8  -4  -1 367.186 134.579   7 0.59397 0.01543 0.09147-0.42535 0.89819-0.88536
   8  -4  -1 219.100 116.734   9-0.01214 0.62162-0.48514 0.15079-0.86068 0.87346
  -8  -4   1 435.317 160.230   8-0.48286-0.12702-0.13337-0.20030-0.94193 0.92913
  -7  -4   1 1944.17 247.485   4 0.04951-0.58002-0.39213 0.05926 0.91094-0.90841
   7  -4  -1 1903.81 231.374   7 0.59742-0.06680 0.09216-0.42600 0.89625-0.89850
   7   4  -1 1624.47 242.437   7 0.50539 0.02528 0.07401 0.25973 0.94056-0.94258
   7   4  -1 1768.15 227.404   6 0.31980 0.21142 0.37413-0.04016 0.91572-0.91808
  -7   4   1 1662.89 232.884   2-0.41462-0.11630 0.22637 0.10745-0.94438 0.94691
   7  -4  -1 1787.12 260.250   3 0.43670 0.09451-0.19192-0.14248 0.94617-0.94903
   7  -4  -1 1768.87 246.116   9-0.05351 0.58418-0.40066 0.06642-0.90813 0.90576
  -7  -4   1 1422.36 221.337   8-0.47343-0.05767-0.12947-0.20420-0.94580 0.94806
  -7   4   1 1675.94 243.532   5-0.45797-0.07288 0.15542 0.17804-0.94669 0.94930
   6  -4  -1 292.628 110.563   3 0.43153 0.02084-0.18707-0.14725 0.94870-0.96667
   6   4  -1 495.727 140.361   7 0.50730-0.05544 0.07438 0.25934 0.93979-0.95690
  -6   4   1 575.090 147.308   2-0.40848-0.04368 0.21807 0.11576-0.94806 0.96566
   6  -4  -1 345.667 88.8557   7 0.61524-0.16339 0.09572-0.42953 0.88581-0.90314
  -6  -4   1 263.440 147.190   4 0.08716-0.53894-0.30622-0.02683 0.94702-0.92950
   6   4  -1 414.510 104.465   6 0.31282 0.13959 0.34731-0.01338 0.92767-0.94511
   6  -4  -1 509.191 143.864   9-0.09268 0.54456-0.31566-0.01846-0.94472 0.92723
  -6   4   1 513.820 107.189   8-0.68689 0.23448-0.22082 0.55460-0.81112 0.82869
  -6   4   1 412.514 132.324   5-0.45432 0.00223 0.15317 0.18032-0.94825 0.96591
  -6  -4   1 377.268 125.675   8-0.47123 0.01889-0.12856-0.20514-0.94668 0.96401
   5   4  -1 25.3038 61.5356   6 0.30849 0.06511 0.33099 0.00288 0.93444-0.96697
   5   4  -1 42.2712 79.8346   7 0.52211-0.14906 0.07728 0.25642 0.93361-0.96579
  -5   4   1 124.183 76.3681   2-0.40810 0.03471 0.21757 0.11629-0.94828 0.98094
   5  -4  -1 -7.3556 36.7912   7 0.65549-0.28240 0.10381-0.43759 0.85968-0.89208
  -5  -4   1 200.345 96.9450   4 0.12230-0.49534-0.22149-0.11179 0.97292-0.94038
  -5   4   1 39.7117 56.2901   6 0.36144-0.73465 0.55939-0.22598 0.80150-0.76853
   5  -4  -1 94.8783 81.7317   9-0.12946 0.50257-0.23118-0.10282-0.97129 0.93868
   5  -4  -1 -0.8231 62.0516   3 0.43346-0.05995-0.18888-0.14535 0.94777-0.98083
  -5  -4   1 29.0391 62.9293   8-0.47921 0.10565-0.13186-0.20184-0.94345 0.97586
  -5   4   1 51.8198 70.9444   5-0.45940 0.08606 0.15630 0.17723-0.94608 0.97881
  -4   4   1 1096.11 153.449   2-0.41514 0.12050 0.22708 0.10684-0.94406 0.99180
  -4  -4   1 1093.23 165.525   4 0.15471-0.44895-0.13912-0.19437 0.98960-0.94202
   4   4  -1 1213.02 156.735   7 0.55660-0.26235 0.08407 0.24961 0.91778-0.96503
   4  -4  -1 1455.35 153.864   7 0.73160-0.43724 0.11936-0.45311 0.79884-0.84631
  -4   4   1 1168.57 115.645   6 0.29578-0.59031 0.28480 0.04891 0.95165-0.90376
   4   4  -1 1119.60 153.650   6 0.30731-0.01253 0.32662 0.00719 0.93620-0.98381
   4  -4  -1 1138.25 164.537   9-0.16358 0.45793-0.14842-0.18546-0.98863 0.94094
  -4   4   1 970.091 144.884   5-0.47671 0.18214 0.16706 0.16652-0.93827 0.98607
  -4  -4   1 -45.971 30.6832   9 0.05619-0.35035-0.61305 0.27923-0.76294 0.81056
   4  -4  -1 1078.52 167.046   3 0.44490-0.15024-0.19964-0.13449 0.94199-0.99015
  -4  -4   1 1131.55 153.541   8-0.50205 0.20724-0.14138-0.19237-0.93356 0.98106
   3  -4  -1 45.2954 48.1013   3 0.46923-0.25343-0.22275-0.11127 0.92846-0.99171
   3  -4  -1 71.9887 45.2329   4-0.01775 0.23413-0.53371 0.19978 0.82628-0.88899
   3   4  -1 42.6756 42.4595   7 0.62220-0.40674 0.09711 0.23654 0.88155-0.94385
   3  -4  -1 55.6134 46.7975   9-0.19474 0.41035-0.06874-0.26503-0.99765 0.93489
  -3  -4   1 37.9425 50.3866   4 0.18409-0.39952-0.06056-0.27314 0.99812-0.93545
  -3   4   1 42.6150 33.0756   6 0.24004-0.45577 0.10184 0.23212 0.99353-0.93057
   3   4  -1 -32.108 54.5814   6 0.30980-0.09386 0.33589-0.00216 0.93245-0.99515
  -3  -4   1 -39.391 40.3495   9 0.01062-0.22599-0.52936 0.19550-0.83080 0.89349
   3  -4  -1 31.7124 19.5197   8-0.02134 0.23711 0.04962-0.38317-0.98415 0.92148
   3   4  -1 44.4226 21.1148   2-0.44921 0.66487 0.27394 0.05978-0.92056 0.85805
  -3  -4   1 35.4670 45.8484   8-0.54724 0.33121-0.16036-0.17342-0.91106 0.97367
  -2   4   1 3114.51 128.321   7 0.30526-0.44216 0.03553 0.29836 0.99245-0.91475
   2   4  -1 3762.13 229.220   7 0.73638-0.59969 0.12035 0.21326 0.79443-0.87174
  -2   4   1 3454.19 227.125   6 0.19930-0.33616-0.01762 0.35177 0.99981-0.92172
   2   4  -1 2763.03 224.608   6 0.31636-0.17925 0.36079-0.02715 0.92179-0.99956
   2  -4  -1 3325.66 247.798   9-0.22262 0.35951 0.00627-0.33994-0.99947 0.92165
   2  -4  -1 2998.05 231.509   3 0.51094-0.37400-0.26320-0.07070 0.90091-0.97923
  -2  -4   1 3044.04 211.995   8-0.62646 0.48923-0.19428-0.13955-0.86084 0.93859
   2  -4  -1 3261.27 226.208   4 0.00514 0.13240-0.48720 0.15338 0.85795-0.93577
  -2  -4   1 3320.88 226.401   9-0.01262-0.12399-0.48421 0.15030-0.86127 0.93903
  -2   4   1 2895.02 209.488   5-0.57188 0.43485 0.22750 0.10618-0.88297 0.96094
   2  -4  -1 3110.88 106.480   8-0.47224 0.60922-0.12897-0.20473-0.94628 0.86849
  -1   4   1 9245.22 364.032   5-0.66666 0.60844 0.29067 0.04306-0.80117 0.89424
   1  -4  -1 8519.74 368.438   3 0.57497-0.51686-0.32770-0.00605 0.84577-0.93914
   1  -4  -1 8895.67 378.479   4 0.01482 0.04389-0.46701 0.13332 0.87047-0.96336
  -1   4   1 7268.44 372.197   6 0.17200-0.22997-0.09265 0.42694 0.99549-0.90226
  -1   4   1 8298.55 382.132   2-0.50330 0.44496 0.35179-0.01764-0.87089 0.96398
   1   4  -1 7328.16 365.698   6 0.32713-0.26886 0.40328-0.06974 0.90154-0.99437
   1  -4  -1 8276.54 387.049   9-0.24686 0.30504 0.07485-0.40843-0.99552 0.90266
  -1  -4   1 8177.24 380.981   9-0.02188-0.03596-0.46573 0.13178-0.87265 0.96548
   1   4   1 398.987 62.5887   7-0.18992 0.28948-0.05538 0.38945 0.92576-0.80268
   1  -4   1 239.701 65.1239   4 0.26537-0.16531 0.18102-0.51545 0.98034-0.85708
  -1   4  -1 344.876 75.3360   1-0.23050 0.13111-0.17497 0.50811-0.98369 0.86078
   1   4   1 305.571 85.4962   6 0.14811-0.04830-0.15553 0.48997 0.98691-0.86339
  -1  -4  -1 423.966 85.9892   9-0.28317 0.18394 0.18456-0.51802-0.97788 0.85495
  -1   4  -1 333.408 75.3805   6 0.35884-0.45818 0.54583-0.21254 0.81201-0.93487
   1  -4   1 336.295 82.0658   9-0.01420 0.11387-0.48108 0.14700-0.86324 0.98624
  -1  -4  -1 239.869 60.1171   8 0.08707-0.18632 0.09045-0.42386-0.95706 0.83417
   2   4   1 53.8340 48.4559   7-0.08783 0.26620-0.03710 0.37116 0.96022-0.82207
   2  -4   1 57.6193 57.8988   9-0.00149 0.17994-0.50602 0.17187-0.84704 0.98514
   2   4   1 3.39934 49.5837   6 0.14745 0.03123-0.15722 0.49170 0.98661-0.84798
   2  -4   1 -9.8038 36.4101   4 0.27506-0.09609 0.21289-0.54745 0.97294-0.83451
  -2  -4  -1 -57.968 47.5272   9-0.29456 0.11664 0.22114-0.55456-0.96881 0.83084
  -2  -4  -1 -17.679 34.1675   8 0.03018-0.20820 0.06912-0.40252-0.97292 0.83496
  -2   4  -1 87.6080 55.3979   1-0.23324 0.05521-0.19656 0.52966-0.97944 0.84151
  -3  -4  -1 1095.86 169.459   4-0.01880-0.23772-0.53579 0.20266 0.82476-0.97783
   3  -4   1 1185.47 119.948   7-0.09152 0.34861-0.03777-0.29598 0.95917-0.80626
   3   4   1 1274.84 156.550   7-0.01341 0.27059-0.02362 0.35769 0.97858-0.82535
   3  -4   1 1067.49 133.102   4 0.27962-0.02176 0.22819-0.56286 0.96895-0.81535
  -3   4  -1 1218.18 158.381   1-0.23372-0.02297-0.20038 0.53348-0.97864 0.82566
   3   4   1 1392.04 193.273   6 0.15230 0.10524-0.14466 0.47919 0.98872-0.83497
  -3  -4  -1 1039.21 131.639   9-0.30089 0.04426 0.24195-0.57534-0.96291 0.80990
  -3  -4  -1 1103.37 142.824   8-0.02036-0.23642 0.05000-0.38339-0.98397 0.83093
   3  -4   1 1105.55 169.126   9 0.01540 0.24180-0.53843 0.20422-0.82419 0.97740
   4  -4   1 -36.654 48.2836   7 0.01775 0.31813-0.01794-0.31579 0.98460-0.81662
   4   4   1 -78.036 63.1051   7 0.04835 0.28763-0.01234 0.34640 0.98954-0.82123
  -4  -4  -1 19.1643 55.8447   4-0.03809-0.29721-0.57357 0.24056 0.79566-0.96374
   4   4   1 -93.185 84.5273   6 0.16157 0.17483-0.12042 0.45499 0.99226-0.82341
  -4   4  -1 -74.347 53.6812   1-0.23176-0.10359-0.18487 0.51798-0.98181 0.81376
   4  -4   1 -53.721 48.5697   4 0.27808 0.05865 0.22303-0.55777 0.97033-0.80158
   4  -4   1 182.178 84.1622   9 0.03568 0.30030-0.57617 0.24189-0.79483 0.96316
  -4  -4  -1 31.5908 42.3218   9-0.30132-0.03402 0.24338-0.57674-0.96249 0.79442
  -4   4  -1 -69.343 44.5927   8 0.03414-0.36981 0.07061 0.26306-0.97194 0.80395
  -4  -4  -1 -26.792 51.8854   8-0.06761-0.26793 0.03197-0.36536-0.99170 0.82359
   5  -4   1 2651.40 224.545   7 0.09883 0.31584-0.00306-0.33067 0.99562-0.81257
   5   4   1 2646.58 274.677   7 0.10337 0.31142-0.00222 0.33628 0.99604-0.81264
   5  -4   1 2513.36 195.123   4 0.26845 0.14712 0.19106-0.52590 0.97814-0.79427
  -5   4  -1 2681.82 221.436   1-0.22686-0.18720-0.14746 0.48059-0.98837 0.80524
   5   4   1 2805.77 307.775   6 0.17438 0.24086-0.08625 0.42085 0.99611-0.81216
  -5  -4  -1 2622.29 256.708   8-0.11296-0.30135 0.01452-0.34792-0.99674 0.81357
  -5  -4  -1 2556.96 197.171   9-0.29414-0.11994 0.21975-0.55310-0.96919 0.78605
   5  -4   1 -10.589 37.3735   9 0.05873 0.35602-0.61751 0.28317-0.75884 0.94230
  -5   4  -1 2656.65 188.524   8-0.07810-0.33636 0.02794 0.30576-0.99307 0.80999
   6   4   1 417.592 156.047   7 0.15438 0.33919 0.00722 0.32683 0.99927-0.80078
   6  -4   1 565.160 123.140   7 0.16586 0.32759 0.00936-0.34309 0.99962-0.80149
   6   4   1 734.381 175.750   6 0.19009 0.30397-0.04333 0.37797 0.99905-0.80002
  -6   4  -1 654.263 115.702   8-0.16226-0.33102-0.00461 0.33832-0.99955 0.80139
  -6  -4  -1 681.922 161.758   8-0.15711-0.33597-0.00260-0.33080-0.99939 0.80115
   7   4   1 10.2003 76.1437   6 0.20816 0.36471 0.00756 0.32711 0.99983-0.78574
   7  -4   1 77.9140 61.6910   7 0.22503 0.34720 0.02041-0.35414 0.99920-0.78599
   8  -4   1 73.6465 79.1863   7 0.27939 0.37161 0.03063-0.36437 0.99543-0.76713
  10   5  -1 150.242 149.145   7 0.56961 0.19745 0.08664 0.33060 0.91126-0.86793
 -10   5   1 -88.228 141.670   5-0.51562-0.25147 0.19147 0.22530-0.91833 0.87584
 -10  -5   1 -75.190 130.116   8-0.53485-0.23257-0.15514-0.26191-0.91763 0.87474
 -10   5   1 -92.713 148.230   2-0.46172-0.30552 0.29153 0.12567-0.91054 0.86799
  10  -5  -1 -11.139 149.694   3 0.48927 0.27854-0.24205-0.17606 0.91595-0.87346
   9  -5  -1 883.979 242.146   3 0.47332 0.21564-0.22668-0.19137 0.92600-0.89864
  -9   5   1 1223.59 247.880   2-0.44650-0.24194 0.27017 0.14703-0.92262 0.89511
   9   5  -1 649.567 199.581   7 0.55489 0.13335 0.08374 0.33350 0.91862-0.89039
  -9  -5   1 787.243 231.032   8-0.51862-0.17005-0.14831-0.26874-0.92577 0.89793
  -9   5   1 1292.89 279.066   5-0.49938-0.18896 0.18124 0.23556-0.92707 0.89961
   8  -5  -1 117.860 104.083   3 0.46063 0.14949-0.21455-0.20343 0.93344-0.92119
  -8   5   1 -78.757 120.823   2-0.43409-0.17558 0.25295 0.16424-0.93165 0.91918
  -8  -5   1 -13.795 99.3134   4 0.01586-0.62504-0.46483 0.04868 0.87177-0.88427
   8   5  -1 193.644 134.494   7 0.54521 0.06422 0.08183 0.33540 0.92324-0.91011
   8  -5  -1 59.9139 113.683   9-0.01901 0.62848-0.47149 0.05370-0.86917 0.88191
   8   5  -1 -17.098 86.7441   6 0.32775 0.28236 0.40577 0.01171 0.90027-0.88747
  -8  -5   1 241.472 140.697   8-0.50658-0.10331-0.14327-0.27379-0.93148 0.91869
  -8   5   1 -43.449 100.816   5-0.48692-0.12268 0.17342 0.24340-0.93337 0.92096
   7  -5  -1 964.476 214.308   3 0.45203 0.07924-0.20639-0.21152 0.93820-0.94106
  -7   5   1 978.013 194.210   2-0.42511-0.10579 0.24064 0.17658-0.93772 0.94031
   7   5  -1 877.928 193.735   7 0.54236-0.01172 0.08126 0.33595 0.92457-0.92653
  -7  -5   1 1276.75 246.153   8-0.50007-0.03107-0.14055-0.27652-0.93445 0.93671
  -7  -5   1 221.046 197.703   4 0.05058-0.58104-0.38975-0.02659 0.91209-0.90961
   7  -5  -1 1165.76 228.082   9-0.05507 0.58575-0.39737-0.02031-0.90975 0.90735
   7   5  -1 917.781 183.462   6 0.31986 0.21146 0.37434 0.04310 0.91562-0.91791
  -7   5   1 1067.10 200.505   5-0.47931-0.05154 0.16867 0.24818-0.93704 0.93969
   6  -5  -1 647.560 153.510   3 0.44865 0.00377-0.20318-0.21463 0.94002-0.95799
  -6   5   1 532.489 151.084   2-0.42039-0.03174 0.23421 0.18303-0.94077 0.95842
   6   5  -1 799.949 219.250   7 0.54900-0.09719 0.08257 0.33462 0.92145-0.93849
   6  -5  -1 583.909 105.469   7 0.69993-0.24809 0.11284-0.53004 0.82618-0.84353
  -6   5   1 419.579 122.028   5-0.47809 0.02599 0.16791 0.24897-0.93762 0.95533
   6   5  -1 422.931 143.123   6 0.31389 0.13861 0.35133 0.06607 0.92594-0.94333
   6  -5  -1 696.582 167.647   9-0.08885 0.54075-0.32420-0.09336-0.94151 0.92399
  -6  -5   1 721.259 204.920   8-0.50101 0.04864-0.14094-0.27615-0.93403 0.95136
  -5  -5   1 744.076 222.441   4 0.11281-0.48575-0.24481-0.17195 0.96670-0.93419
   5  -5  -1 1342.92 206.975   3 0.45196-0.07840-0.20632-0.21142 0.93824-0.97131
   5   5  -1 1672.29 216.110   7 0.56931-0.19630 0.08658 0.33057 0.91141-0.94354
   5  -5  -1 1712.17 203.263   7 0.75583-0.38272 0.12440-0.54155 0.77564-0.80807
   5   5  -1 1431.14 202.640   6 0.31024 0.06344 0.33756 0.07980 0.93176-0.96424
  -5   5   1 1721.43 229.911   2-0.42098 0.04759 0.23500 0.18226-0.94040 0.97311
   5  -5  -1 1989.70 260.184   9-0.12020 0.49333-0.25291-0.16452-0.96534 0.93271
  -5   5   1 1922.39 222.080   5-0.48539 0.11205 0.17246 0.24446-0.93412 0.96689
  -5  -5   1 1679.16 214.912   8-0.51225 0.13863-0.14564-0.27148-0.92883 0.96125
  -4  -5   1 2184.91 208.947   9 0.02354-0.31762-0.55374 0.13646-0.81265 0.86027
  -4  -5   1 1843.97 236.767   4 0.14004-0.43417-0.17695-0.24004 0.98294-0.93537
   4   5  -1 2320.13 225.460   7 0.60987-0.31565 0.09464 0.32248 0.88903-0.93621
  -4   5   1 2082.51 177.711   6 0.30300-0.59753 0.31077 0.10640 0.94233-0.89439
  -4   5   1 1831.65 225.132   2-0.42815 0.13353 0.24481 0.17251-0.93570 0.98349
   4   5  -1 1779.67 211.667   6 0.30931-0.01447 0.33410 0.08319 0.93318-0.98075
   4  -5  -1 1704.95 218.447   3 0.46398-0.16927-0.21773-0.19989 0.93153-0.97971
  -4   5   1 2080.41 221.749   5-0.50429 0.20971 0.18432 0.23265-0.92449 0.97234
   4  -5  -1 2090.86 239.860   9-0.14893 0.44332-0.18451-0.23280-0.98209 0.93438
  -4  -5   1 1903.46 207.561   8-0.53804 0.24320-0.15648-0.26068-0.91597 0.96348
   4   5  -1 1869.73 228.448   1-0.16745 0.46140 0.19806 0.21911-0.97991 0.93218
   4  -5  -1 2234.40 213.964   4-0.03028 0.32566-0.55845 0.14093 0.80768-0.85527
  -3   5   1 819.248 143.545   2-0.44352 0.22762 0.26600 0.15138-0.92486 0.98774
   3   5  -1 814.625 123.789   7 0.68100-0.46557 0.10898 0.30811 0.84110-0.90332
  -3   5   1 933.936 131.025   6 0.26245-0.47816 0.17220 0.24522 0.98219-0.91919
  -3  -5   1 729.178 147.088   4 0.16440-0.37971-0.11362-0.30357 0.99314-0.93049
   3   5  -1 862.879 152.770   6 0.31147-0.09547 0.34218 0.07503 0.92984-0.99250
   3  -5  -1 979.609 165.863   9-0.17483 0.39048-0.12014-0.29707-0.99268 0.92990
  -3  -5   1 1049.27 144.386   9-0.00735-0.20795-0.49458 0.07726-0.85461 0.91729
  -3   5   1 805.686 138.064   5-0.53919 0.32338 0.20645 0.21057-0.90452 0.96744
  -3  -5   1 890.592 140.973   8-0.58490 0.36885-0.17638-0.24082-0.88905 0.95167
   3  -5  -1 1068.66 142.819   4-0.00037 0.21691-0.49857 0.08117 0.85059-0.91329
   3  -5  -1 932.178 145.550   3 0.48732-0.27148-0.24016-0.17734 0.91722-0.98049
   3   5  -1 983.791 157.534   1-0.18240 0.39764 0.12357 0.29342-0.99227 0.92948
  -2   5   1 63.4775 16.0270   7-0.09258-0.04433-0.03796 0.45544 0.95886-0.88106
  -2  -5   1 70.1406 32.9382   3 0.37240-0.50899-0.13255-0.28480 0.97281-0.89477
   2   5  -1 64.6046 53.9889   1-0.19443 0.33099 0.05886 0.35798-0.99824 0.92041
   2  -5  -1 49.6097 59.8440   9-0.19767 0.33461-0.06103-0.35607-0.99813 0.92029
  -2   5   1 57.0886 51.2399   6 0.23076-0.36760 0.07376 0.34386 0.99646-0.91835
  -2  -5   1 61.6333 61.6206   4 0.18572-0.32216-0.05611-0.36129 0.99839-0.92062
   2   5  -1 43.4557 39.0571   2-0.32917 0.46601 0.11451 0.30237-0.98294 0.90541
   2   5  -1 16.2263 56.7362   6 0.31699-0.17983 0.36319 0.05392 0.92072-0.99846
  -2   5   1 -42.978 61.0610   2-0.46884 0.33169 0.30165 0.11582-0.90447 0.98246
   2  -5  -1 95.9124 58.4752   3 0.52531-0.38833-0.27740-0.13996 0.89000-0.96835
  -2  -5   1 29.0146 41.7709   8-0.66211 0.52485-0.20985-0.20740-0.83290 0.91066
  -2  -5   1 222.607 77.3368   9-0.02384-0.11270-0.46179 0.04444-0.87500 0.95274
   1  -5  -1 395.728 95.3238   9-0.21721 0.27543-0.00858-0.40846-0.99962 0.90673
   1   5  -1 413.134 101.756   6 0.32596-0.26765 0.39852 0.01848 0.90394-0.99675
  -1   5   1 421.428 109.734   6 0.20784-0.26578 0.00665 0.41111 0.99984-0.90660
  -1  -5   1 406.779 96.8442   4 0.20373-0.26130-0.00576-0.41182 0.99990-0.90700
  -1   5   1 371.262 88.9865   5-0.68128 0.62306 0.30077 0.11638-0.78534 0.87844
  -1  -5   1 451.288 102.662   9-0.03030-0.02747-0.44870 0.03129-0.88261 0.97542
   1  -5  -1 460.456 96.6341   3 0.58137-0.52323-0.33435-0.08287 0.83922-0.93263
   1  -5  -1 440.434 44.9179   8-0.13194 0.19014 0.00717-0.42409-0.99816 0.90532
   1   5  -1 334.412 91.7107   1-0.20375 0.26164 0.00508 0.41165-0.99991 0.90704
   0  -5  -1 2283.26 222.469   4 0.02270-0.04266-0.45037 0.03335 0.88025-0.98823
   0   5   1 2238.00 111.950   7-0.04024 0.06095-0.02850 0.44600 0.97261-0.86463
   0  -5   1 2290.99 102.608   7 0.29791-0.27715 0.03413-0.45111 0.99337-0.88584
   0  -5   1 2297.42 227.717   4 0.21818-0.19688 0.03587-0.45362 0.99899-0.89094
   0   5  -1 1999.91 212.672   1-0.21057 0.18982-0.03672 0.45336-0.99914 0.89125
   0   5   1 2814.18 253.232   2-0.55465 0.57507 0.43101-0.01333-0.80462 0.91292
   0   5   1 2383.61 237.726   6 0.19275-0.17181-0.03593 0.45379 0.99934-0.89096
   0   5  -1 2420.30 230.959   6 0.33818-0.35870 0.44934-0.03247 0.87645-0.98430
   0  -5   1 2358.16 241.197   9-0.02934 0.05031-0.45065 0.03319-0.88149 0.98937
   0  -5  -1 2393.42 230.929   9-0.23317 0.21268 0.03571-0.45266-0.99843 0.89050
   0  -5  -1 2363.75 142.839   8-0.06273 0.04218 0.03384-0.45068-0.99102 0.88313
  -1  -5  -1 1590.36 197.999   4 0.01680-0.11558-0.46285 0.04599 0.87295-0.99600
   1   5   1 1933.11 138.084   7 0.00423 0.09528-0.02041 0.43793 0.98211-0.85904
  -1   5  -1 1799.21 198.602   1-0.21506 0.11567-0.06558 0.48217-0.99756 0.87465
   1  -5   1 1865.95 227.875   9-0.02261 0.12234-0.46426 0.04673-0.87353 0.99649
   1   5   1 1704.98 210.526   6 0.18440-0.08455-0.05904 0.47698 0.99821-0.87469
  -1   5  -1 2038.57 218.181   6 0.35287-0.45220 0.51617-0.09942 0.83368-0.95654
  -1  -5  -1 2045.20 208.884   9-0.24522 0.14603 0.07007-0.48698-0.99597 0.87299
  -1  -5  -1 1773.11 151.528   8-0.06186-0.03744 0.03417-0.45098-0.99089 0.86795
  -2  -5  -1 1270.46 188.707   4 0.00635-0.18395-0.48470 0.06797 0.85954-0.99764
   2  -5   1 1320.59 87.7655   7-0.05726 0.23553-0.03158-0.38557 0.96845-0.83068
   2   5   1 1449.82 150.101   7 0.04630 0.13203-0.01272 0.43024 0.98924-0.85109
  -2   5  -1 1321.70 176.700   1-0.21734 0.03928-0.08055 0.49712-0.99641 0.85846
   2  -5   1 1249.04 190.750   9-0.01125 0.18972-0.48690 0.06930-0.85956 0.99762
   2   5   1 1262.25 188.039   6 0.18170-0.00298-0.06641 0.48441 0.99773-0.85908
  -2  -5  -1 1437.32 173.406   9-0.25292 0.07503 0.09253-0.50938-0.99363 0.85561
  -2   5  -1 416.003 97.9479   6 0.36843-0.54653 0.59812-0.18152 0.76923-0.90706
  -2  -5  -1 1385.93 155.461   8-0.08011-0.09795 0.02717-0.44397-0.99332 0.85531
   3  -5   1 970.087 105.829   7 0.06232 0.19474-0.00978-0.40735 0.99149-0.83865
   3   5   1 1088.23 151.133   7 0.08762 0.16952-0.00513 0.42266 0.99450-0.84125
  -3  -5  -1 1167.76 184.812   4-0.00787-0.24854-0.51383 0.09726 0.84032-0.99345
  -3   5  -1 844.456 154.296   1-0.21733-0.03938-0.08055 0.49710-0.99641 0.84341
   3   5   1 822.268 161.384   6 0.18376 0.07384-0.06079 0.47883 0.99810-0.84433
  -3  -5  -1 968.153 146.054   9-0.25565-0.00096 0.10056-0.51738-0.99265 0.83958
  -3   5  -1 884.697 66.7486   8 0.03987-0.29680 0.07277 0.34434-0.97048 0.81756
  -3  -5  -1 918.686 145.736   8-0.10662-0.15021 0.01697-0.43376-0.99618 0.84311
   3  -5   1 979.740 180.562   9 0.00391 0.25332-0.51649 0.09882-0.83988 0.99305
   4  -5   1 54.6283 36.4754   7 0.13659 0.19926 0.00392-0.42105 0.99845-0.83054
   4   5   1 18.3934 59.1160   7 0.12860 0.20734 0.00244 0.41509 0.99798-0.82964
  -4  -5  -1 -7.9597 69.8763   4-0.02526-0.30995-0.54858 0.13215 0.81525-0.98340
  -4  -5  -1 185.643 74.6627   9-0.25231-0.08303 0.09072-0.50753-0.99384 0.82571
  -4   5  -1 99.7494 67.4552   1-0.21484-0.12054-0.06413 0.48071-0.99766 0.82960
   4   5   1 43.8954 69.6835   6 0.18977 0.14667-0.04420 0.46227 0.99901-0.83013
   4  -5   1 89.3579 56.4811   4 0.23126 0.10555 0.07459-0.49282 0.99638-0.82771
   4  -5   1 -3.3875 86.4662   9 0.02226 0.31374-0.55134 0.13360-0.81449 0.98277
  -4  -5  -1 62.8688 73.6688   8-0.13746-0.19811 0.00503-0.42181-0.99849 0.83036
  -5   5  -1 395.598 107.503   1-0.20937-0.20472-0.02921 0.44582-0.99941 0.81627
   5   5   1 720.692 162.319   7 0.16941 0.24532 0.01002 0.40751 0.99970-0.81628
   5  -5   1 463.346 97.7067   7 0.19551 0.21911 0.01488-0.43202 0.99989-0.81689
   5   5   1 588.246 145.263   6 0.19913 0.21617-0.01811 0.43621 0.99980-0.81582
   5  -5   1 535.049 153.240   9 0.04331 0.37145-0.59005 0.17224-0.78321 0.96661
  -5  -5  -1 515.327 118.077   8-0.17090-0.24345-0.00797-0.40881-0.99975 0.81656
   6   5   1 74.5472 131.093   7 0.21014 0.28340 0.01762 0.39992 0.99967-0.80114
   6  -5   1 390.367 104.087   7 0.24760 0.24579 0.02464-0.44178 0.99804-0.79997
   6   5   1 262.987 117.687   6 0.21124 0.28287 0.01642 0.40173 0.99966-0.80060
  -6  -5  -1 508.864 226.655   8-0.20599-0.28713-0.02170-0.39508-0.99966 0.80140
   7   5   1 939.905 213.764   7 0.25079 0.32154 0.02524 0.39229 0.99783-0.78421
   7   5   1 562.802 149.247   6 0.22569 0.34724 0.05864 0.35952 0.99767-0.78353
  -7  -5  -1 1027.98 206.974   8-0.24221-0.32968-0.03597-0.38081-0.99800 0.78469
  -8   5  -1 143.522 106.943   2-0.27853-0.37197 0.05135 0.36510-0.99461 0.76660
  10   6  -1 286.317 175.749   7 0.60242 0.16460 0.09316 0.40756 0.89338-0.84997
   9   6  -1 -148.55 122.205   7 0.59109 0.09712 0.09090 0.40980 0.89980-0.87150
  -9   6   1 158.397 165.257   5-0.52074-0.16761 0.19472 0.30546-0.91545 0.88804
  -9  -6   1 64.8220 136.411   8-0.54520-0.14349-0.15950-0.34093-0.91216 0.88433
   9  -6  -1 -81.952 122.240   3 0.48874 0.20029-0.24154-0.26001 0.91629-0.88891
  -9   6   1 -9.7633 117.683   2-0.45706-0.23136 0.28495 0.21564-0.91437 0.88694
   8  -6  -1 401.990 169.748   3 0.47804 0.13214-0.23121-0.27027 0.92312-0.91085
  -8   6   1 260.737 117.178   2-0.44635-0.16329 0.26996 0.23063-0.92274 0.91034
  -8  -6   1 19.0387 118.063   4 0.01623-0.62538-0.46404-0.03557 0.87224-0.88479
   8   6  -1 189.943 119.012   7 0.58533 0.02407 0.08976 0.41094 0.90296-0.88976
   8   6  -1 232.102 152.731   6 0.32929 0.28092 0.41203 0.08893 0.89703-0.88415
   8  -6  -1 91.9677 109.789   9-0.01968 0.62914-0.47015-0.03106-0.86998 0.88270
  -8  -6   1 370.127 138.549   8-0.53606-0.07387-0.15565-0.34480-0.91700 0.90422
  -8   6   1 260.671 147.806   5-0.51070-0.09890 0.18836 0.31184-0.92105 0.90869
   7  -6  -1 -44.718 99.6479   3 0.47139 0.05993-0.22483-0.27658 0.92717-0.93002
  -7   6   1 -97.126 111.661   2-0.43898-0.09189 0.25972 0.24089-0.92817 0.93083
   7   6  -1 -43.243 89.5449   7 0.58703-0.05645 0.09009 0.41057 0.90203-0.90392
  -7  -6   1 17.0582 76.5298   4 0.04689-0.57729-0.39792-0.10190 0.90813-0.90569
   7   6  -1 19.2576 114.772   6 0.32246 0.20893 0.38456 0.11636 0.91079-0.91301
   7  -6  -1 -185.35 133.092   9-0.05160 0.58230-0.40468-0.09643-0.90614 0.90373
  -7  -6   1 -54.051 105.214   8-0.53274 0.00157-0.15425-0.34622-0.91872 0.92100
  -7   6   1 107.993 116.825   5-0.50562-0.02522 0.18516 0.31508-0.92379 0.92648
   6  -6  -1 233.287 121.344   3 0.46981-0.01734-0.22331-0.27801 0.92811-0.94608
  -6   6   1 241.709 101.478   2-0.43565-0.01648 0.25510 0.24553-0.93055 0.94826
   6   6  -1 236.700 118.614   7 0.59896-0.14719 0.09247 0.40817 0.89537-0.91234
  -6  -6   1 36.0321 135.552   4 0.07523-0.52686-0.33398-0.16606 0.93650-0.91904
   6   6  -1 272.721 126.645   6 0.31738 0.13520 0.36471 0.13618 0.92003-0.93736
   6  -6  -1 462.794 164.412   9-0.08125 0.53318-0.34098-0.16000-0.93490 0.91737
  -6  -6   1 198.216 99.5739   8-0.53710 0.08470-0.15609-0.34440-0.91646 0.93381
  -6   6   1 166.164 114.808   5-0.50694 0.05485 0.18599 0.31428-0.92308 0.94083
   5   6  -1 1299.15 208.731   7 0.62527-0.25230 0.09773 0.40288 0.87964-0.91169
  -5   6   1 903.123 196.033   2-0.43720 0.06381 0.25726 0.24342-0.92945 0.96223
  -5  -6   1 1174.65 211.591   4 0.10115-0.47398-0.27304-0.22722 0.95826-0.92577
   5   6  -1 942.483 181.452   6 0.31436 0.05938 0.35313 0.14771 0.92516-0.95759
   5  -6  -1 1298.39 226.255   9-0.10851 0.48168-0.27989-0.22097-0.95711 0.92447
   5  -6  -1 995.844 196.659   3 0.47456-0.10095-0.22787-0.27335 0.92525-0.95833
  -5   6   1 1229.29 193.575   5-0.51660 0.14326 0.19209 0.30823-0.91778 0.95060
  -5  -6   1 968.250 184.148   8-0.55186 0.17821-0.16232-0.33821-0.90853 0.94096
  -4   6   1 497.558 134.527   2-0.44468 0.15004 0.26763 0.23310-0.92399 0.97184
   4   6  -1 460.250 110.930   7 0.67219-0.37802 0.10719 0.39337 0.84770-0.89480
  -4  -6   1 559.579 155.932   4 0.12452-0.41853-0.21597-0.28451 0.97429-0.92673
  -4  -6   1 508.925 115.116   9 0.01341-0.30741-0.53466 0.03392-0.82696 0.87458
  -4  -6   1 434.151 93.8075   8-0.58089 0.28601-0.17466-0.32591-0.89155 0.93908
  -4   6   1 555.638 118.242   6 0.31193-0.60646 0.34391 0.15672 0.92911-0.88112
   4   6  -1 727.979 158.812   6 0.31370-0.01880 0.35064 0.15013 0.92624-0.97377
   4  -6  -1 596.132 145.541   9-0.13323 0.42766-0.22227-0.27848-0.97356 0.92584
  -4   6   1 483.194 119.230   5-0.53729 0.24270 0.20523 0.29514-0.90569 0.95357
   4  -6  -1 487.104 113.520   3 0.48732-0.19258-0.24017-0.26095 0.91722-0.96540
   3  -6  -1 612.385 130.727   4 0.00313 0.21356-0.49136-0.00952 0.85529-0.91796
   3   6  -1 481.219 126.068   7 0.74851-0.53311 0.12287 0.37766 0.78288-0.84500
  -3  -6   1 490.803 127.612   4 0.14521-0.36038-0.16371-0.33696 0.98546-0.92281
  -3   6   1 452.172 100.241   6 0.28041-0.49610 0.23150 0.26939 0.96807-0.90502
   3  -6  -1 493.030 129.499   9-0.15525 0.37096-0.16905-0.33160-0.98508 0.92229
   3   6  -1 486.473 137.345   1-0.17193 0.38717 0.17635 0.32412-0.98413 0.92140
   3   6  -1 299.388 111.113   6 0.31568-0.09962 0.35816 0.14254 0.92296-0.98558
  -3  -6   1 448.009 122.143   9-0.01069-0.20453-0.48799-0.01279-0.85886 0.92154
  -3   6   1 392.722 116.202   5-0.57261 0.35680 0.22798 0.27246-0.88246 0.94542
   3  -6  -1 371.085 112.907   3 0.51017-0.29429-0.26245-0.23854 0.90147-0.96476
  -3  -6   1 347.541 119.985   8-0.62975 0.41366-0.19571-0.30492-0.85842 0.92107
  -3   6   1 477.615 134.391   2-0.45929 0.24339 0.28811 0.21269-0.91254 0.97548
   2  -6  -1 1286.91 184.272   4 0.01650 0.12136-0.46349-0.03727 0.87258-0.95036
   2   6  -1 1204.05 188.986   1-0.18249 0.31906 0.12311 0.37720-0.99232 0.91454
   2  -6  -1 1067.28 178.491   9-0.17439 0.31138-0.12127-0.37929-0.99253 0.91468
  -2   6   1 1276.40 174.400   2-0.48233 0.34515 0.32103 0.17985-0.89219 0.97024
  -2   6   1 1386.13 183.085   6 0.25475-0.39156 0.14760 0.35349 0.98681-0.90867
   2   6  -1 1310.04 195.265   6 0.32046-0.18326 0.37669 0.12390 0.91452-0.99223
   2   6  -1 1293.46 147.044   2-0.39336 0.53015 0.19784 0.30252-0.95647 0.87900
  -2  -6   1 1207.16 195.970   4 0.16302-0.29932-0.11730-0.38357 0.99268-0.91491
  -2  -6   1 2001.31 270.608   8-0.70556 0.56829-0.22916-0.27152-0.79327 0.87106
  -2  -6   1 1274.96 187.851   9-0.02407-0.11240-0.46133-0.03948-0.87527 0.95300
   2  -6  -1 1210.70 175.508   3 0.54556-0.40855-0.29767-0.20318 0.87327-0.95164
  -2  -6   1 1249.06 119.783   3 0.47745-0.61406-0.23065-0.27010 0.92348-0.84549
   1   6  -1 3773.74 320.724   1-0.19072 0.24862 0.07938 0.42083-0.99682 0.90399
   1  -6  -1 4599.14 329.779   4 0.02229 0.03673-0.45123-0.04939 0.87975-0.97264
  -1  -6   1 4294.75 352.997   4 0.17775-0.23518-0.07786-0.42320 0.99685-0.90395
  -1   6   1 4356.45 316.145   2-0.51487 0.45646 0.36911 0.13189-0.85786 0.95105
  -1   6   1 3557.83 307.941   6 0.23528-0.29320 0.08738 0.41386 0.99516-0.90189
   1   6  -1 4600.66 351.916   6 0.32812-0.26977 0.40725 0.09323 0.89950-0.99228
   1  -6  -1 4975.41 337.873   3 0.59578-0.53763-0.34947-0.15123 0.82368-0.91711
   1  -6  -1 4823.94 359.391   9-0.19042 0.24870-0.08005-0.42044-0.99682 0.90391
  -1  -6   1 4469.38 358.598   9-0.02949-0.02823-0.45037-0.05049-0.88166 0.97445
  -1  -6   1 4715.11 257.043   3 0.34380-0.40149-0.10673-0.39427 0.98148-0.88833
   0  -6  -1 211.851 85.6025   4 0.02211-0.04193-0.45160-0.04888 0.87954-0.98752
   0  -6   1 103.216 83.0155   9-0.02872 0.04975-0.45193-0.04899-0.88076 0.98863
   0   6   1 180.641 93.0212   6 0.22168-0.20069 0.04678 0.45456 0.99843-0.89003
   0  -6   1 321.629 106.823   4 0.18915-0.16770-0.04664-0.45458 0.99889-0.89085
   0   6  -1 172.286 90.4392   1-0.19672 0.17597 0.04597 0.45416-0.99891 0.89105
   0  -6  -1 202.847 75.2804   9-0.20310 0.18267-0.04665-0.45376-0.99885 0.89089
   0   6  -1 192.648 70.7205   6 0.33850-0.35899 0.45071 0.04964 0.87565-0.98348
   0  -6  -1 145.614 37.5618   8-0.27092 0.25028-0.04734-0.45300-0.99553 0.88760
   0   6   1 157.498 83.0287   2-0.55708 0.57745 0.43494 0.06618-0.80086 0.90922
  -1  -6  -1 5767.43 402.484   4 0.01708-0.11574-0.46227-0.03807 0.87330-0.99637
   1   6   1 6740.69 246.164   7 0.22692-0.12749 0.02076 0.48017 0.99913-0.87606
   1  -6   1 5832.49 404.127   4 0.19688-0.09655-0.02509-0.47627 0.99966-0.87646
  -1   6  -1 5595.20 392.564   1-0.20059 0.10120 0.02368 0.47639-0.99967 0.87677
   1   6   1 6034.53 423.138   6 0.21335-0.11348 0.02250 0.47892 0.99950-0.87596
  -1   6  -1 6732.65 427.017   6 0.35108-0.45040 0.50756-0.00735 0.83964-0.96249
  -1  -6  -1 6646.46 407.697   9-0.21208 0.11294-0.02254-0.47782-0.99953 0.87652
   1  -6   1 6390.97 447.724   9-0.02295 0.12273-0.46357-0.03741-0.87394 0.99688
  -1  -6  -1 6679.24 296.170   8-0.20919 0.10981-0.02296-0.47731-0.99958 0.87659
   2   6   1 45.6560 46.9020   7 0.19901-0.02076 0.01554 0.48542 0.99985-0.86169
  -2  -6  -1 85.3572 72.5602   4 0.00799-0.18547-0.48130-0.01889 0.86168-0.99981
  -2  -6  -1 144.419 79.0971   9-0.21690 0.03906-0.00942-0.49090-0.99962 0.86157
   2   6   1 -4.7604 70.9862   6 0.20970-0.03094 0.01196 0.48953 0.99976-0.86109
   2  -6   1 100.428 77.7946   4 0.20050-0.02128-0.01493-0.48654 0.99984-0.86149
   2  -6   1 81.0988 75.7708   9-0.01305 0.19157-0.48335-0.01769-0.86181 0.99984
  -2   6  -1 120.886 82.6245   6 0.36479-0.54292 0.57751-0.07744 0.78684-0.92467
  -2   6  -1 52.5486 56.8268   1-0.20235 0.02431 0.01334 0.48670-0.99984 0.86191
  -2  -6  -1 31.7116 58.4242   8-0.19340 0.01527-0.01677-0.48346-0.99986 0.86182
   3   6   1 68.3212 59.1686   7 0.20348 0.05358 0.01637 0.48461 0.99979-0.84653
  -3  -6  -1 -16.419 62.7152   4-0.00457-0.25174-0.50713 0.00709 0.84489-0.99806
  -3  -6  -1 102.076 71.3324   8-0.19781-0.05908-0.01850-0.48170-0.99981 0.84671
   3   6   1 -62.539 69.1922   6 0.21010 0.04754 0.01311 0.48842 0.99974-0.84594
   3  -6   1 65.8045 88.0685   4 0.19927 0.05881-0.01837-0.48320 0.99979-0.84630
  -3  -6  -1 1.55509 58.6699   9-0.21688-0.03969-0.00948-0.49082-0.99962 0.84651
   3  -6   1 120.453 115.044   9 0.00037 0.25689-0.50965 0.00853-0.84458 0.99771
  -3   6  -1 -50.110 81.7427   1-0.20192-0.05478 0.01592 0.48411-0.99981 0.84683
  -4  -6  -1 2229.38 293.346   4-0.02010-0.31500-0.53840 0.03852 0.82285-0.99105
   4   6   1 3064.12 277.900   7 0.22150 0.11437 0.01974 0.48125 0.99934-0.83097
  -4   6  -1 2815.81 285.237   1-0.19905-0.13634 0.03263 0.46743-0.99943 0.83138
   4  -6   1 2532.94 251.173   4 0.19210 0.14483-0.03846-0.46322 0.99925-0.83061
   4   6   1 2757.97 327.679   6 0.21400 0.12249 0.02439 0.47718 0.99944-0.83053
  -4  -6  -1 2931.61 262.766   9-0.21090-0.12439-0.02571-0.47456-0.99948 0.83131
   4  -6   1 2926.71 339.042   9 0.01682 0.31920-0.54110 0.03992-0.82221 0.99044
  -4  -6  -1 2266.61 272.851   8-0.21306-0.12258-0.02448-0.47570-0.99946 0.83130
   5   6   1 2169.08 254.492   7 0.24659 0.16809 0.02445 0.47655 0.99810-0.81465
   5   6   1 1943.52 290.337   6 0.22093 0.19441 0.04459 0.45702 0.99856-0.81454
  -5  -6  -1 1997.87 279.979   8-0.23486-0.17955-0.03306-0.46710-0.99847 0.81525
   6   6   1 206.212 107.537   7 0.27584 0.21765 0.02996 0.47105 0.99578-0.79722
   6   6   1 -47.863 88.3903   6 0.23043 0.26373 0.07280 0.42883 0.99655-0.79744
   6  -6   1 -171.57 120.696   9 0.05730 0.43625-0.61500 0.11365-0.76116 0.95964
  -6   6  -1 -111.08 113.597   2-0.26706-0.22592 0.03730 0.46252-0.99626 0.79843
  -6  -6  -1 46.4681 78.6605   8-0.26091-0.23226-0.04337-0.45679-0.99651 0.79824
  -7   6  -1 139.760 82.6419   2-0.28528-0.28646 0.05964 0.44018-0.99348 0.78060
   9   7  -1 137.368 150.624   7 0.63337 0.05479 0.09936 0.48483 0.87449-0.84611
   9   7  -1 -284.72 191.839   6 0.33982 0.34927 0.45648 0.12798 0.87226-0.84419
   9  -7  -1 -133.16 176.442   9 0.01478 0.67348-0.53726-0.04749-0.82505 0.85291
  -9  -7   1 -96.277 151.657   8-0.57656-0.11215-0.17282-0.41099-0.89420 0.86639
   8   7  -1 123.854 108.403   6 0.33261 0.27768 0.42574 0.15869 0.88972-0.87677
  -8  -7   1 -305.11 153.548   4 0.01248-0.62157-0.47192-0.11119 0.86749-0.88008
   8   7  -1 -20.067 125.644   7 0.63189-0.02254 0.09906 0.48510 0.87545-0.86216
   8  -7  -1 -184.37 172.613   9-0.01602 0.62551-0.47745-0.10720-0.86550 0.87821
  -8   7   1 106.029 118.985   5-0.53845-0.07116 0.20598 0.37761-0.90498 0.89267
  -8  -7   1 13.1422 113.858   8-0.57048-0.03948-0.17023-0.41361-0.89785 0.88509
  -8   7   1 -16.736 101.497   2-0.46118-0.14845 0.29077 0.29323-0.91099 0.89868
   8  -7  -1 206.725 132.485   3 0.49856 0.11168-0.25109-0.33390 0.90970-0.89742
  -7   7   1 388.965 181.478   2-0.45529-0.07559 0.28247 0.30154-0.91579 0.91852
  -7  -7   1 152.263 142.404   4 0.03991-0.57023-0.41325-0.17006 0.90043-0.89801
   7   7  -1 400.227 152.199   7 0.63849-0.10795 0.10038 0.48375 0.87117-0.87297
   7   7  -1 391.258 169.746   6 0.32671 0.20477 0.40156 0.18284 0.90241-0.90456
   7  -7  -1 158.872 145.742   9-0.04464 0.57535-0.41923-0.16530-0.89871 0.89628
  -7   7   1 341.002 132.585   5-0.53592 0.00506 0.20436 0.37926-0.90652 0.90927
  -7  -7   1 211.583 141.795   8-0.57048 0.03926-0.17022-0.41364-0.89785 0.90016
   7  -7  -1 261.084 153.192   3 0.49380 0.03757-0.24645-0.33845 0.91293-0.91578
  -6   7   1 431.809 183.586   2-0.45321 0.00108 0.27956 0.30448-0.91744 0.93522
   6   7  -1 222.759 110.549   6 0.32240 0.13025 0.38434 0.20003 0.91090-0.92815
  -6  -7   1 23.3661 147.119   4 0.06508-0.51661-0.35720-0.22633 0.92687-0.90944
   6  -7  -1 349.748 142.587   9-0.07102 0.52298-0.36329-0.22112-0.92551 0.90797
  -6   7   1 394.553 145.465   5-0.53976 0.08766 0.20681 0.37685-0.90417 0.92197
  -6  -7   1 67.9110 111.007   8-0.57836 0.12591-0.17359-0.41031-0.89310 0.91048
   6  -7  -1 430.445 170.646   3 0.49394-0.04142-0.24657-0.33823 0.91285-0.93081
  -5   7   1 174.718 144.190   2-0.45567 0.08227 0.28300 0.30108-0.91548 0.94833
  -5  -7   1 8.32459 104.589   4 0.08792-0.46063-0.30445-0.27929 0.94766-0.91517
   5   7  -1 239.503 101.235   6 0.31993 0.05388 0.37462 0.20970 0.91549-0.94785
   5  -7  -1 323.977 164.542   9-0.09507 0.46828-0.31032-0.27397-0.94668 0.91404
  -5   7   1 315.705 124.227   5-0.55174 0.17838 0.21449 0.36923-0.89659 0.92946
  -5  -7   1 192.242 110.591   8-0.59666 0.22297-0.18142-0.40252-0.88150 0.91397
   5  -7  -1 239.143 133.579   3 0.50007-0.12642-0.25256-0.33216 0.90865-0.94174
   4  -7  -1 785.863 178.410   4-0.02066 0.31635-0.53950-0.04496 0.82204-0.86954
  -4  -7   1 439.087 187.999   4 0.10831-0.40220-0.25577-0.32820 0.96354-0.91598
   4   7  -1 704.488 171.217   6 0.31952-0.02456 0.37303 0.21122 0.91623-0.96370
   4  -7  -1 736.284 181.696   9-0.11667 0.41116-0.26109-0.32310-0.96294 0.91521
  -4   7   1 722.807 153.739   6 0.32139-0.61591 0.38034 0.20376 0.91280-0.86475
  -4  -7   1 549.005 139.299   9 0.01410-0.30803-0.53597-0.04824-0.82600 0.87363
  -4   7   1 579.719 158.099   5-0.57415 0.27958 0.22898 0.35481-0.88136 0.92928
   4  -7  -1 432.713 147.335   3 0.51358-0.21880-0.26581-0.31880 0.89896-0.94715
  -4   7   1 606.240 161.777   2-0.46348 0.16882 0.29403 0.29010-0.90906 0.95698
  -4  -7   1 420.043 141.130   8-0.62886 0.33396-0.19532-0.38867-0.85908 0.90664
   3  -7  -1 -12.561 91.9164   4-0.00072 0.21758-0.49928-0.08507 0.85012-0.91275
   3   7  -1 140.793 114.607   1-0.16144 0.37669 0.22641 0.35753-0.97363 0.91097
  -3  -7   1 110.340 69.5628   4 0.12616-0.34118-0.21193-0.37224 0.97527-0.91261
  -3   7   1 255.729 77.2509   6 0.29590-0.51158 0.28521 0.29913 0.95151-0.88841
   3   7  -1 37.1318 77.4646   6 0.32137-0.10527 0.38027 0.20390 0.91284-0.97541
   3  -7  -1 117.499 90.5263   9-0.13570 0.35146-0.21638-0.36770-0.97500 0.91220
  -3  -7   1 146.860 112.391   9-0.00636-0.20880-0.49652-0.08772-0.85334 0.91602
  -3   7   1 124.322 80.8760   5-0.60998 0.39417 0.25246 0.33138-0.85391 0.91691
  -3   7   1 12.8069 67.0315   2-0.47757 0.26163 0.31416 0.27004-0.89664 0.95965
   3  -7  -1 185.787 111.450   3 0.53613-0.32022-0.28820-0.29629 0.88127-0.94456
  -3  -7   1 96.7226 83.2234   8-0.67958 0.46347-0.21757-0.36648-0.81775 0.88045
   2  -7  -1 2184.26 263.638   4 0.01103 0.12698-0.47495-0.10927 0.86563-0.94338
  -2  -7   1 1692.75 267.706   4 0.14127-0.27743-0.17381-0.41054 0.98356-0.90578
  -2   7   1 1555.72 234.270   2-0.49886 0.36166 0.34521 0.23910-0.87564 0.95376
  -2   7   1 1630.44 227.143   6 0.27455-0.41135 0.21184 0.37270 0.97322-0.89503
   2   7  -1 1841.14 265.853   6 0.32561-0.18836 0.39711 0.18697 0.90465-0.98230
   2  -7  -1 2067.96 286.252   9-0.15198 0.28903-0.17707-0.40693-0.98356 0.90570
  -2  -7   1 1853.12 256.193   9-0.01814-0.11827-0.47321-0.11106-0.86811 0.94584
   2  -7  -1 1794.46 245.447   3 0.56951-0.43246-0.32207-0.26227 0.85118-0.92956
  -2   7   1 2272.41 268.687   5-0.66255 0.52553 0.28784 0.29606-0.80544 0.88351
   2   7  -1 1835.88 255.523   1-0.17085 0.30743 0.18163 0.40217-0.98315 0.90543
   1  -7  -1 82.5305 81.7038   4 0.01640 0.04277-0.46369-0.12042 0.87246-0.96533
   1   7  -1 -88.793 87.2496   6 0.33226-0.27388 0.42429 0.15967 0.89051-0.98325
   1   7  -1 -13.972 69.4985   2-0.37778 0.43579 0.17725 0.40639-0.96422 0.87175
  -1  -7   1 136.573 80.6189   4 0.15347-0.21075-0.14236-0.44216 0.98910-0.89619
  -1   7   1 40.1735 75.7034   6 0.25780-0.31570 0.15728 0.42741 0.98508-0.89177
   1  -7  -1 40.2992 77.4278   9-0.16530 0.22365-0.14412-0.43981-0.98930 0.89638
  -1  -7   1 43.9188 85.7211   9-0.02323-0.03443-0.46302-0.12129-0.87427 0.96706
   1  -7  -1 64.4398 58.4960   3 0.61518-0.55700-0.37016-0.21402 0.80085-0.89429
  -1   7   1 166.661 77.1704   2-0.52804 0.46960 0.38919 0.19524-0.84178 0.93504
   1   7  -1 43.5585 71.2578   1-0.17817 0.23609 0.14528 0.43841-0.98928 0.89651
   0   7  -1 130.773 101.847   1-0.18347 0.16274 0.11803 0.46557-0.99295 0.88514
   0  -7  -1 119.346 105.837   4 0.01659-0.03628-0.46328-0.12069 0.87270-0.98067
   0  -7   1 215.681 75.7073   3 0.35968-0.33849-0.12103-0.46359 0.97689-0.86863
   0  -7  -1 277.571 123.624   9-0.17544 0.15507-0.11859-0.46527-0.99287 0.88490
   0  -7   1 168.662 97.7663   4 0.16251-0.14091-0.11865-0.46602 0.99250-0.88445
   0   7  -1 174.452 94.6609   6 0.34119-0.36167 0.46246 0.12138 0.86868-0.97646
   0   7   1 65.7944 88.5406   6 0.24558-0.22458 0.11892 0.46590 0.99131-0.88288
   0   7   1 154.021 97.4604   2-0.56508 0.58542 0.44799 0.13656-0.78802 0.89645
   0   7  -1 167.713 84.8518   2-0.33388 0.31319 0.12050 0.46299-0.98146 0.87394
   0  -7   1 116.511 89.2321   9-0.02293 0.04401-0.46363-0.12074-0.87391 0.98176
   1  -7   1 1679.35 250.672   4 0.16807-0.06759-0.10390-0.48091 0.99430-0.87110
  -1   7  -1 1594.01 236.445   1-0.18679 0.08741 0.10056 0.48299-0.99489 0.87204
  -1  -7  -1 1659.18 246.272   4 0.01246-0.11098-0.47196-0.11187 0.86747-0.99053
  -1   7  -1 1511.85 205.570   2-0.30636 0.20698 0.08581 0.49758-0.98912 0.86656
   1   7   1 1717.60 254.166   6 0.23762-0.13772 0.09448 0.49043 0.99439-0.87082
  -1  -7  -1 1717.02 240.919   9-0.18204 0.08296-0.10173-0.48209-0.99481 0.87178
   1  -7   1 1890.03 293.530   9-0.01817 0.11799-0.47317-0.11125-0.86814 0.99107
  -1   7  -1 1794.07 256.002   6 0.35202-0.45132 0.51203 0.07166 0.83657-0.95939
   1  -7   1 1624.22 200.136   3 0.31860-0.21851-0.08429-0.50047 0.98763-0.86422
  -2  -7  -1 3623.31 359.387   4 0.00464-0.18200-0.48824-0.09542 0.85729-0.99543
  -2   7  -1 3243.69 336.514   1-0.18808 0.01005 0.09360 0.48993-0.99558 0.85768
   2  -7   1 3481.32 350.924   4 0.16969 0.00966-0.09958-0.48535 0.99477-0.85642
   2   7   1 3262.40 335.427   6 0.23353-0.05474 0.08210 0.50288 0.99569-0.85699
  -2   7  -1 2958.04 323.060   6 0.36396-0.54209 0.57289 0.01065 0.79065-0.92846
  -2   7  -1 3097.32 312.061   2-0.29100 0.11290 0.06670 0.51661-0.99242 0.85483
  -2  -7  -1 3572.85 328.611   9-0.18465 0.00685-0.09502-0.48876-0.99549 0.85741
   2  -7   1 3333.68 370.370   9-0.00961 0.18818-0.49012-0.09436-0.85749 0.99550
  -2  -7  -1 3152.48 248.347   8-0.30876 0.13056-0.06244-0.52124-0.99065 0.85260
  -3  -7  -1 91.8063 113.075   4-0.00640-0.24979-0.51087-0.07265 0.84235-0.99555
  -3   7  -1 203.222 121.140   1-0.18727-0.06942 0.09796 0.48558-0.99515 0.84221
  -3  -7  -1 183.244 96.6477   9-0.18258-0.07394-0.10034-0.48342-0.99495 0.84182
   3  -7   1 192.685 104.012   4 0.16669 0.09153-0.10757-0.47744 0.99387-0.84038
   3   7   1 289.454 102.328   6 0.23292 0.02474 0.08025 0.50478 0.99587-0.84204
   3  -7   1 10.5330 88.7975   9 0.00221 0.25510-0.51320-0.07135-0.84215 0.99525
  -3   7  -1 144.714 103.805   2-0.28480 0.02800 0.05906 0.52421-0.99357 0.84093
  -3  -7  -1 131.369 74.4025   8-0.29294 0.03597-0.05611-0.52752-0.99292 0.83980
  -4   7  -1 684.468 175.425   1-0.18411-0.15127 0.11468 0.46888-0.99335 0.82534
  -4  -7  -1 183.556 121.463   4-0.02027-0.31473-0.53872-0.04463 0.82261-0.99085
   4  -7   1 509.416 132.995   4 0.15803 0.17904-0.13045-0.45465 0.99089-0.82226
   4   7   1 517.735 158.196   6 0.23539 0.10114 0.08770 0.49736 0.99512-0.82618
  -4  -7  -1 637.736 148.824   9-0.17478-0.16048-0.12026-0.46349-0.99266 0.82447
   4  -7   1 500.143 168.441   9 0.01691 0.31914-0.54129-0.04335-0.82208 0.99028
  -4   7  -1 441.835 160.499   2-0.28568-0.04984 0.06015 0.52309-0.99341 0.82574
  -4  -7  -1 342.809 141.819   8-0.29344-0.04228-0.05632-0.52729-0.99285 0.82468
  -5  -7  -1 -0.1639 94.5452   4-0.03667-0.37715-0.57084-0.01236 0.79787-0.98113
   5   7   1 -167.95 105.487   6 0.24057 0.17481 0.10347 0.48161 0.99333-0.80928
   5  -7   1 228.770 123.920   9 0.03417 0.38063-0.57340-0.01130-0.79709 0.98041
  -5   7  -1 -180.58 163.551   2-0.29211-0.12214 0.06808 0.51513-0.99221 0.80949
  -5   7  -1 53.7559 81.1829   1-0.17819-0.23588 0.14516 0.43847-0.98930 0.80622
  -5  -7  -1 6.40012 109.113   8-0.30396-0.11051-0.06052-0.52306-0.99138 0.80815
   6  -7   1 127.062 143.673   3 0.30992 0.18452-0.07660-0.50859 0.98944-0.79033
  -6   7  -1 72.3484 111.426   2-0.30296-0.19004 0.08156 0.50166-0.98991 0.79215
   6   7   1 -146.68 128.598   6 0.24813 0.24609 0.12682 0.45830 0.99017-0.79100
   6  -7   1 45.4428 96.6393   9 0.05372 0.43984-0.60867 0.02389-0.76690 0.96535
  -6  -7  -1 249.924 130.891   8-0.32111-0.17212-0.06738-0.51618-0.98866 0.79038
   7  -7   1 -83.737 110.205   3 0.32678 0.24651-0.09153-0.49371 0.98578-0.77154
  -7   7  -1 46.0800 118.585   2-0.31737-0.25438 0.09960 0.48361-0.98633 0.77352
  -8  -8   1 124.488 238.640   4 0.00571-0.61472-0.48604-0.18057 0.85869-0.87130
   8   8  -1 662.828 216.738   6 0.33711 0.27326 0.44478 0.22313 0.87909-0.86604
   8  -8  -1 1014.83 339.739   9-0.00917 0.61868-0.49099-0.17707-0.85693 0.86963
  -8   8   1 1080.95 286.674   5-0.56942-0.04021 0.22590 0.44108-0.88470 0.87245
  -8  -8   1 628.149 247.938   8-0.60908-0.00093-0.18677-0.48047-0.87317 0.86046
  -7  -8   1 102.725 164.861   4 0.03050-0.56072-0.43368-0.23315 0.88960-0.88719
   7   8  -1 182.540 161.366   6 0.33203 0.19952 0.42335 0.24453 0.89102-0.89309
   7  -8  -1 232.928 198.716   9-0.03508 0.56583-0.43895-0.22899-0.88809 0.88567
  -7   8   1 -119.12 140.016   5-0.56935 0.03848 0.22586 0.44116-0.88474 0.88754
  -7   8   1 184.155 162.878   2-0.47333-0.05756 0.30807 0.35933-0.90050 0.90332
   7  -8  -1 -152.37 151.535   3 0.51849 0.01293-0.27065-0.39776 0.89527-0.89811
  -7  -8   1 118.485 123.856   8-0.61239 0.08114-0.18820-0.47907-0.87088 0.87323
  -6  -8   1 194.392 217.542   4 0.05310-0.50451-0.38415-0.28289 0.91474-0.89730
   6   8  -1 528.311 204.908   6 0.32838 0.12433 0.40834 0.25950 0.89894-0.91612
   6  -8  -1 747.168 239.250   9-0.05881 0.51081-0.38946-0.27837-0.91356 0.89602
  -6   8   1 769.121 190.649   5-0.57561 0.12349 0.22992 0.43715-0.88032 0.89818
  -6   8   1 731.180 229.309   2-0.47238 0.02024 0.30671 0.36071-0.90134 0.91922
   6  -8  -1 691.717 219.875   3 0.52020-0.06765-0.27234-0.39597 0.89397-0.91192
  -6  -8   1 612.827 210.330   8-0.62374 0.17124-0.19310-0.47421-0.86283 0.88026
   5  -8  -1 -48.124 103.065   9-0.08027 0.45354-0.34314-0.32459-0.93403 0.90138
  -5   8   1 194.662 126.837   5-0.58974 0.21637 0.23914 0.42799-0.86991 0.90283
  -5   8   1 75.2210 98.1871   2-0.47563 0.10221 0.31138 0.35610-0.89842 0.93135
   5  -8  -1 -40.485 103.126   3 0.52759-0.15391-0.27967-0.38853 0.88820-0.92128
  -4  -8   1 280.947 203.027   4 0.09147-0.38521-0.29609-0.37136 0.95060-0.90303
   4   8  -1 507.811 178.853   6 0.32618-0.03116 0.39940 0.26833 0.90350-0.95090
   4  -8  -1 476.497 165.205   9-0.09937 0.39392-0.30064-0.36698-0.95013 0.90241
  -4   8   1 486.017 160.494   5-0.61371 0.31912 0.25494 0.41225-0.85080 0.89878
  -4   8   1 550.771 160.020   2-0.48373 0.18903 0.32307 0.34447-0.89085 0.93886
   4  -8  -1 413.988 157.691   3 0.54178-0.24697-0.29387-0.37423 0.87652-0.92471
   3  -8  -1 315.379 136.923   4-0.00904 0.22606-0.51621-0.15161 0.83868-0.90125
  -3  -8   1 -50.493 122.263   4 0.10702-0.32191-0.25889-0.40876 0.96261-0.89993
  -3   8   1 3.55951 76.2076   6 0.30976-0.52542 0.33574 0.33206 0.93251-0.86935
   3   8  -1 84.3605 107.642   6 0.32793-0.11178 0.40651 0.26114 0.89989-0.96239
   3  -8  -1 158.576 124.493   9-0.11600 0.33181-0.26266-0.40487-0.96247 0.89967
  -3  -8   1 193.734 134.375   9 0.00261-0.21771-0.51399-0.15371-0.84161 0.90430
  -3   8   1 315.439 148.497   5-0.64987 0.43406 0.27920 0.38805-0.81813 0.88118
  -3   8   1 -122.75 99.9218   2-0.49738 0.28141 0.34302 0.32460-0.87719 0.94029
   3  -8  -1 97.9194 76.7579   3 0.56406-0.34813-0.31649-0.35148 0.85643-0.91973
   2  -8  -1 192.279 104.346   4 0.00183 0.13634-0.49403-0.17367 0.85356-0.93126
  -2  -8   1 264.481 138.610   4 0.11998-0.25599-0.22721-0.44061 0.97145-0.89365
  -2   8   1 127.490 96.8066   6 0.29168-0.42846 0.27032 0.39768 0.95647-0.87822
   2   8  -1 37.9799 86.5486   6 0.33173-0.19445 0.42212 0.24544 0.89169-0.96929
   2  -8  -1 178.167 138.086   9-0.12998 0.26709-0.22994-0.43750-0.97161 0.89374
  -2  -8   1 64.6822 90.6507   9-0.00832-0.12801-0.49265-0.17506-0.85586 0.93360
  -2   8   1 175.356 97.9379   2-0.51724 0.38000 0.37269 0.29504-0.85507 0.93328
   2  -8  -1 467.619 170.379   3 0.59571-0.45866-0.34939-0.31842 0.82376-0.90214
   1  -8  -1 755.817 188.003   4 0.00712 0.05221-0.48311-0.18447 0.86055-0.95338
   1  -8  -1 612.621 175.280   9-0.14115 0.19955-0.20333-0.46405-0.97805 0.88513
  -1  -8   1 759.147 188.031   4 0.13016-0.18730-0.20189-0.46610 0.97762-0.88469
   1   8  -1 912.262 198.492   1-0.16583 0.22378 0.20575 0.46142-0.97829 0.88560
  -1   8   1 639.524 165.974   6 0.27712-0.33499 0.22040 0.44776 0.97103-0.87768
  -1   8   1 999.040 198.795   2-0.54371 0.48522 0.41358 0.25426-0.82073 0.91408
   1   8  -1 629.787 166.041   6 0.33758-0.27916 0.44678 0.22068 0.87794-0.97062
  -1  -8   1 643.209 187.358   9-0.01341-0.04419-0.48263-0.18513-0.86226 0.95506
   0  -8  -1 388.594 146.359   4 0.00778-0.02730-0.48174-0.18571 0.86141-0.96936
   0   8  -1 482.069 140.710   2-0.38522 0.36447 0.18707 0.47989-0.96063 0.85319
   0  -8   1 394.501 145.598   4 0.13734-0.11558-0.18382-0.48431 0.98155-0.87348
   0   8   1 164.211 99.8881   6 0.26614-0.24512 0.18417 0.48412 0.97968-0.87120
   0   8  -1 266.948 122.456   1-0.17052 0.14982 0.18321 0.48388-0.98285 0.87511
   0  -8  -1 272.813 144.694   9-0.14925 0.12893-0.18373-0.48358-0.98224 0.87426
   0   8  -1 183.204 121.290   6 0.34533-0.36578 0.48098 0.18635 0.85720-0.96494
   0  -8   1 48.2349 91.7985   9-0.01367 0.03482-0.48212-0.18569-0.86259 0.97044
   1  -8   1 548.419 140.565   3 0.38833-0.28823-0.14708-0.52115 0.96717-0.84380
  -1  -8  -1 606.258 156.474   4 0.00450-0.10287-0.48853-0.17878 0.85711-0.98016
  -1   8  -1 390.862 145.581   6 0.35469-0.45400 0.52502 0.14216 0.82740-0.95017
   1  -8   1 429.402 163.185   4 0.14117-0.04053-0.17407-0.49418 0.98351-0.86029
  -1   8  -1 371.023 116.076   2-0.35682 0.25737 0.14993 0.51690-0.97326 0.85077
   1   8   1 618.302 188.284   6 0.25866-0.15873 0.16002 0.50837 0.98457-0.86095
  -1  -8  -1 539.049 155.730   9-0.15395 0.05492-0.17225-0.49504-0.98448 0.86145
  -1   8  -1 646.159 186.879   1-0.17334 0.07399 0.16942 0.49763-0.98537 0.86258
   1  -8   1 713.556 189.414   9-0.00985 0.10974-0.48965-0.17821-0.85780 0.98072
  -2  -8  -1 6.65683 99.8021   4-0.00219-0.17503-0.50228-0.16488 0.84813-0.98627
   2  -8   1 165.599 86.2465   3 0.36142-0.18243-0.12260-0.54574 0.97635-0.83783
   2  -8   1 197.190 114.807   4 0.14122 0.03829-0.17393-0.49444 0.98354-0.84516
   2   8   1 44.8847 82.7509   6 0.25442-0.07561 0.14657 0.52189 0.98699-0.84825
  -2   8  -1 151.656 120.881   2-0.33919 0.16104 0.12728 0.53947-0.97971 0.84218
  -2  -8  -1 88.6496 115.172   9-0.15481-0.02294-0.17014-0.49711-0.98488 0.84680
  -2   8  -1 79.2520 71.9004   6 0.36505-0.54317 0.57889 0.08814 0.78569-0.92347
  -2   8  -1 106.098 107.811   1-0.17424-0.00377 0.16499 0.50205-0.98613 0.84829
   2  -8   1 84.0182 105.544   9-0.00253 0.18114-0.50400-0.16392-0.84839 0.98639
  -3  -8  -1 21.0882 114.956   4-0.01189-0.24417-0.52197-0.14503 0.83467-0.98788
   3  -8   1 189.978 100.673   3 0.34746-0.08959-0.11002-0.55842 0.98047-0.82679
   3  -8   1 280.705 135.444   4 0.13687 0.12150-0.18499-0.48346 0.98131-0.82779
  -3   8  -1 224.390 100.700   2-0.33006 0.07320 0.11564 0.55104-0.98266 0.83009
   3   8   1 133.219 118.616   6 0.25317 0.00452 0.14263 0.52587 0.98766-0.83379
   3  -8   1 230.860 166.968   9 0.00787 0.24947-0.52411-0.14388-0.83455 0.98763
  -3  -8  -1 287.199 134.423   9-0.15116-0.10531-0.17906-0.48817-0.98317 0.83004
  -3   8  -1 74.5578 116.292   1-0.17309-0.08358 0.17064 0.49640-0.98515 0.83226
  -4  -8  -1 698.626 204.950   4-0.02428-0.31061-0.54666-0.12018 0.81670-0.98496
   4  -8   1 678.799 199.640   3 0.34300-0.00625-0.10602-0.56251 0.98169-0.81287
   4   8   1 864.878 208.864   6 0.25464 0.08193 0.14725 0.52130 0.98687-0.81788
  -4   8  -1 869.197 217.848   1-0.16969-0.16567 0.18727 0.47981-0.98207 0.81413
  -4   8  -1 746.063 211.884   2-0.32769-0.00788 0.11264 0.55400-0.98338 0.81577
   4  -8   1 1172.25 269.856   9 0.02103 0.31505-0.54904-0.11902-0.81625 0.98443
  -5  -8  -1 51.0420 147.106   4-0.03911-0.37461-0.57554-0.09113 0.79406-0.97736
   5  -8   1 -87.677 107.538   3 0.34570 0.06990-0.10845-0.56016 0.98095-0.79699
   5   8   1 3.26850 92.9890   6 0.25854 0.15689 0.15962 0.50895 0.98464-0.80053
  -5   8  -1 147.857 171.208   2-0.33078-0.08352 0.11656 0.55006-0.98244 0.79978
   5  -8   1 15.0415 120.535   9 0.03666 0.37817-0.57797-0.09017-0.79335 0.97665
  -5  -8  -1 40.1322 100.844   8-0.37750-0.03705-0.09013-0.57687-0.97685 0.79363
   6  -8   1 482.202 202.093   3 0.35397 0.14051-0.11587-0.55280 0.97860-0.77950
  -6   8  -1 608.652 264.391   2-0.33831-0.15472 0.12615 0.54046-0.98001 0.78232
   6  -8   1 110.382 77.9160   9 0.05453 0.43904-0.61012-0.05810-0.76560 0.96402
   7  -8   1 290.037 185.523   3 0.36659 0.20673-0.12728-0.54146 0.97472-0.76048
  -7   8  -1 -141.74 205.983   2-0.34950-0.22227 0.14048 0.52612-0.97606 0.76333
  -7   9   1 -94.026 171.500   5-0.60523 0.07435 0.24932 0.50111-0.85778 0.86065
  -6  -9   1 88.1911 152.276   4 0.03965-0.49096-0.41381-0.33673 0.90014-0.88268
   6   9  -1 204.712 201.755   6 0.33495 0.11783 0.43554 0.31579 0.88432-0.90142
   6  -9  -1 -191.11 164.769   9-0.04501 0.49706-0.41845-0.33280-0.89911 0.88157
  -6   9   1 37.6796 143.126   5-0.61370 0.16157 0.25493 0.49555-0.85081 0.86873
  -6   9   1 -54.795 115.115   2-0.49261 0.04044 0.33601 0.41482-0.88210 0.90008
   6  -9  -1 154.448 138.639   3 0.54799-0.09540-0.30013-0.45167 0.87114-0.88908
   5   9  -1 -40.563 112.071   6 0.33332 0.04061 0.42872 0.32256 0.88810-0.92032
  -5  -9   1 40.3482 133.074   4 0.05797-0.43042-0.37327-0.37747 0.91977-0.88724
   5  -9  -1 14.8462 107.307   9-0.06433 0.43765-0.37768-0.37348-0.91906 0.88644
  -5   9   1 -63.204 168.749   5-0.62973 0.25637 0.26563 0.48492-0.83693 0.86990
  -5   9   1 69.9481 128.640   2-0.49652 0.12308 0.34176 0.40911-0.87808 0.91112
   5  -9  -1 -52.434 105.429   3 0.55646-0.18274-0.30871-0.44298 0.86354-0.89660
   4   9  -1 707.434 210.130   6 0.33329-0.03823 0.42861 0.32260 0.88816-0.93549
  -4  -9   1 90.9677 201.882   4 0.07401-0.36761-0.33679-0.41415 0.93537-0.88776
   4  -9  -1 424.339 175.482   9-0.08137 0.37597-0.34072-0.41034-0.93501 0.88729
  -4   9   1 483.155 177.307   2-0.50484 0.21011 0.35408 0.39687-0.86921 0.91732
   4  -9  -1 702.440 211.074   3 0.57118-0.27635-0.32380-0.42778 0.84954-0.89771
   3  -9  -1 174.844 154.425   4-0.02037 0.23755-0.53892-0.21237 0.82247-0.88497
  -3  -9   1 -24.428 123.494   4 0.08770-0.30243-0.30497-0.44616 0.94747-0.88476
  -3   9   1 -103.83 119.647   6 0.32240-0.53804 0.38429 0.36698 0.91092-0.84768
   3   9  -1 202.634 144.673   6 0.33497-0.11877 0.43566 0.31548 0.88426-0.94669
   3  -9  -1 96.7377 112.973   9-0.09601 0.31190-0.30821-0.44277-0.94744 0.88465
  -3   9   1 -117.07 135.389   2-0.51807 0.30207 0.37396 0.37708-0.85408 0.91728
  -3  -9   1 -73.478 86.8434   9 0.01473-0.22975-0.53715-0.21400-0.82513 0.88784
   3  -9  -1 -71.825 104.816   3 0.59313-0.37718-0.34667-0.40479 0.82663-0.88991
   2  -9  -1 1317.25 265.471   4-0.00998 0.14830-0.51810-0.23308 0.83737-0.91502
  -2  -9   1 892.392 234.705   4 0.09888-0.23474-0.27846-0.47284 0.95652-0.87868
  -2   9   1 858.778 193.050   2-0.53667 0.39939 0.40254 0.34860-0.83046 0.90878
  -2   9   1 865.234 204.149   6 0.30690-0.44366 0.32509 0.42637 0.93680-0.85848
   2  -9  -1 1064.80 244.248   9-0.10811 0.24529-0.28079-0.47011-0.95682 0.87896
  -2  -9   1 680.997 192.632   9 0.00419-0.14047-0.51704-0.23413-0.83950 0.91726
   2  -9  -1 1511.60 287.664   3 0.62319-0.48611-0.37883-0.37247 0.79071-0.86907
   2   9  -1 1000.31 236.641   6 0.33840-0.20108 0.45031 0.30074 0.87589-0.95342
   1  -9  -1 703.330 199.863   4-0.00460 0.06408-0.50720-0.24387 0.84484-0.93762
  -1  -9   1 420.615 159.315   4 0.10740-0.16437-0.25797-0.49348 0.96289-0.86991
  -1   9   1 556.978 171.049   6 0.29414-0.35200 0.27899 0.47263 0.95362-0.86019
  -1   9   1 566.946 157.854   2-0.56082 0.50228 0.44102 0.31025-0.79496 0.88842
   1   9  -1 428.534 166.783   6 0.34357-0.28512 0.47300 0.27794 0.86222-0.95483
   1  -9  -1 549.228 166.602   9-0.11749 0.17596-0.25919-0.49164-0.96351 0.87059
  -1  -9   1 507.184 193.581   9-0.00105-0.05647-0.50688-0.24433-0.84646 0.93926
   0  -9  -1 119.178 113.061   4-0.00344-0.01593-0.50484-0.24610 0.84643-0.95433
   0  -9   1 96.7765 99.8663   4 0.11302-0.09111-0.24431-0.50727 0.96684-0.85872
   0   9   1 82.2030 98.3734   6 0.28429-0.26324 0.24472 0.50703 0.96433-0.85579
   0   9  -1 256.487 132.662   6 0.35034-0.37076 0.50410 0.24671 0.84201-0.94969
   0  -9  -1 322.473 125.822   9-0.12391 0.10366-0.24424-0.50655-0.96778 0.85981
   0  -9   1 176.282 142.401   9-0.00189 0.02310-0.50524-0.24601-0.84756 0.95542
  -1  -9  -1 437.056 195.087   4-0.00592-0.09231-0.50989-0.24090 0.84301-0.96604
  -1   9  -1 507.805 165.441   2-0.40279 0.30326 0.21043 0.53984-0.95133 0.82893
  -1   9  -1 580.356 176.722   1-0.16006 0.06073 0.23279 0.51777-0.97209 0.84938
   1  -9   1 159.655 119.487   4 0.11543-0.01465-0.23841-0.51329 0.96847-0.84521
   1   9   1 376.700 191.799   6 0.27732-0.17736 0.22106 0.53078 0.97086-0.84720
  -1  -9  -1 390.955 154.449   9-0.12705 0.02809-0.23688-0.51388-0.96979 0.84676
  -1   9  -1 155.467 124.382   6 0.35845-0.45773 0.54383 0.20684 0.81353-0.93625
   1  -9   1 476.961 195.630   9 0.00104 0.09890-0.51094-0.24036-0.84370 0.96663
   2  -9   1 1014.31 221.200   3 0.42223-0.24325-0.17839-0.57342 0.95309-0.81459
  -2  -9  -1 1017.36 250.133   4-0.01159-0.16548-0.52137-0.22928 0.83509-0.97320
  -2   9  -1 1243.55 237.974   2-0.38384 0.20562 0.18523 0.56495-0.96131 0.82385
  -2   9  -1 1279.08 283.875   1-0.16059-0.01739 0.23035 0.52020-0.97268 0.83493
   2  -9   1 1062.36 249.708   4 0.11422 0.06544-0.24137-0.51041 0.96766-0.82924
   2   9   1 1442.75 274.037   6 0.27309-0.09424 0.20699 0.54493 0.97442-0.83562
  -2  -9  -1 1349.92 264.786   9-0.12647-0.05121-0.23823-0.51250-0.96942 0.83135
  -2   9  -1 736.583 214.268   6 0.36740-0.54553 0.59217 0.15835 0.77442-0.91214
   2  -9   1 1058.84 268.675   9 0.00726 0.17141-0.52294-0.22841-0.83537 0.97337
   3  -9   1 191.036 119.296   3 0.40413-0.14625-0.16160-0.59032 0.96096-0.80732
  -3  -9  -1 207.512 125.845   4-0.02011-0.23581-0.53841-0.21209 0.82284-0.97604
   3  -9   1 162.794 181.518   4 0.10878 0.14974-0.25463-0.49726 0.96388-0.81031
  -3   9  -1 22.5110 112.792   2-0.37265 0.11573 0.17052 0.57959-0.96657 0.81408
   3   9   1 118.212 103.495   6 0.27145-0.01372 0.20158 0.55040 0.97572-0.82180
  -3  -9  -1 75.3162 110.138   9-0.12156-0.13485-0.24973-0.50097-0.96624 0.81311
   3  -9   1 128.562 132.532   9 0.01642 0.24097-0.54036-0.21105-0.82276 0.97585
  -4  -9  -1 118.403 237.008   4-0.03120-0.30357-0.56024-0.19011 0.80628-0.97455
   4  -9   1 330.514 158.964   3 0.39540-0.05864-0.15356-0.59845 0.96447-0.79566
   4  -9   1 718.442 238.971   9 0.02820 0.30793-0.56242-0.18908-0.80589 0.97407
  -4   9  -1 358.676 170.834   2-0.36782 0.03219 0.16422 0.58585-0.96870 0.80117
   4   9   1 445.351 172.581   6 0.27220 0.06441 0.20405 0.54798 0.97513-0.80608
  -5  -9  -1 -0.2067 149.840   4-0.04464-0.36897-0.58613-0.16404 0.78529-0.96860
   5  -9   1 -0.1854 107.814   3 0.39395 0.02168-0.15223-0.59986 0.96503-0.78108
  -5   9  -1 125.670 216.153   2-0.36825-0.04609 0.16477 0.58526-0.96852 0.78595
   5   9   1 155.119 144.589   6 0.27512 0.14035 0.21373 0.53831 0.97275-0.78857
   5  -9   1 -11.808 115.860   9 0.04238 0.37248-0.58837-0.16319-0.78464 0.96793
   6  -9   1 163.569 114.840   3 0.39824 0.09626-0.15618-0.59599 0.96334-0.76426
   5 -10  -1 144.982 150.964   3 0.58612-0.21239-0.33931-0.49588 0.83423-0.86726
  -4  10   1 344.406 175.778   2-0.52636 0.23161 0.38660 0.44775-0.84391 0.89214
   4 -10  -1 179.758 160.605   3 0.60120-0.30634-0.35520-0.47988 0.81754-0.86570
  -3 -10   1 67.0292 127.346   4 0.06806-0.28263-0.35042-0.48418 0.92976-0.86700
  -3  10   1 112.397 134.331   2-0.53916 0.32312 0.40644 0.42801-0.82707 0.89041
   3  10  -1 -25.990 111.515   6 0.34220-0.12596 0.46692 0.36771 0.86597-0.92833
   3 -10  -1 289.336 217.688   9-0.07566 0.29161-0.35322-0.48120-0.92984 0.86706
   2 -10  -1 433.859 138.373   4-0.02374 0.16223-0.54559-0.28907 0.81751-0.89508
  -2 -10   1 200.948 199.256   4 0.07775-0.21344-0.32815-0.50661 0.93879-0.86091
  -2  10   1 264.635 193.968   2-0.55658 0.41927 0.43415 0.40041-0.80163 0.88009
  -2  10   1 69.5510 101.409   6 0.32063-0.45737 0.37734 0.45758 0.91422-0.83582
   2  10  -1 274.284 157.323   6 0.34530-0.20794 0.48080 0.35374 0.85731-0.93476
   2 -10  -1 241.389 133.835   9-0.08616 0.22340-0.33016-0.50419-0.93921 0.86137
  -2 -10   1 214.725 161.544   9 0.01877-0.15497-0.54480-0.28982-0.81945 0.89724
   1 -10  -1 1127.26 303.964   4-0.01816 0.07780-0.53453-0.30001 0.82568-0.91840
  -1 -10   1 859.306 220.504   4 0.08487-0.14168-0.31160-0.52330 0.94506-0.85204
  -1  10   1 1289.63 335.263   6 0.30941-0.36725 0.33445 0.50063 0.93304-0.83954
   1  10  -1 908.857 255.545   6 0.34987-0.29139 0.50190 0.33253 0.84349-0.93603
   1 -10  -1 921.669 243.371   9-0.09403 0.15256-0.31266-0.52164-0.94583 0.85293
  -1 -10   1 605.001 216.162   9 0.01325-0.07071-0.53436-0.30029-0.82718 0.92001
   0 -10  -1 138.974 136.961   4-0.01650-0.00271-0.53122-0.30320 0.82808-0.93593
   0  10   1 -14.796 140.520   6 0.30056-0.27949 0.30192 0.53329 0.94561-0.83699
   0 -10   1 72.9728 112.429   4 0.08918-0.06710-0.30149-0.53354 0.94871-0.84054
   0 -10  -1 -70.306 142.424   9-0.09902 0.07884-0.30144-0.53281-0.94985 0.84189
   0  10  -1 264.415 192.982   6 0.35580-0.37619 0.53050 0.30381 0.82343-0.93104
   0 -10   1 39.4916 106.650   9 0.01183 0.00945-0.53165-0.30304-0.82915 0.93703
  -1 -10  -1 859.437 267.063   4-0.01825-0.07982-0.53471-0.29958 0.82555-0.94853
   1 -10   1 664.356 228.707   4 0.09039 0.01057-0.29863-0.53651 0.94972-0.82639
   1  10   1 895.771 236.856   6 0.29410-0.19413 0.27886 0.55645 0.95366-0.82993
  -1 -10  -1 698.136 203.312   9-0.10083 0.00193-0.29736-0.53686-0.95127 0.82826
  -1  10  -1 659.141 224.328   6 0.36283-0.46209 0.56674 0.26741 0.79564-0.91828
   1 -10   1 770.919 239.176   9 0.01395 0.08605-0.53568-0.29905-0.82621 0.94916
  -2 -10  -1 237.663 128.915   4-0.02301-0.15392-0.54416-0.28999 0.81858-0.95666
  -2  10  -1 477.082 154.226   2-0.42554 0.24726 0.24123 0.59241-0.93744 0.80009
   2 -10   1 407.934 193.218   4 0.08810 0.09172-0.30403-0.53120 0.94781-0.80933
   2  10   1 663.256 206.658   6 0.29000-0.11112 0.26445 0.57094 0.95834-0.81948
  -2 -10  -1 726.608 241.534   9-0.09903-0.07859-0.30141-0.53278-0.94986 0.81180
  -2  10  -1 -109.37 114.796   6 0.37051-0.54863 0.61062 0.22339 0.75805-0.89571
   2 -10   1 734.712 261.965   9 0.01919 0.15953-0.54559-0.28920-0.81886 0.95687
   3 -10   1 126.040 141.696   9 0.02723 0.23023-0.56061-0.27424-0.80732 0.96041
  -3 -10  -1 -61.200 98.2478   4-0.03048-0.22531-0.55884-0.27517 0.80737-0.96055
  -3  10  -1 -88.874 124.114   2-0.41293 0.15596 0.22409 0.60946-0.94540 0.79300
   3  10   1 5.25661 121.748   6 0.28814-0.03037 0.25796 0.57749 0.96037-0.80637
   4 -10   1 182.358 109.614   3 0.44656-0.10979-0.20120-0.63428 0.94112-0.77234
  -4  10  -1 174.175 132.517   2-0.40624 0.07057 0.21508 0.61842-0.94936 0.78192
   5 -10   1 -189.03 120.513   3 0.44163-0.02599-0.19656-0.63902 0.94368-0.75973
   1 -11  -1 64.1947 127.874   4-0.03325 0.09306-0.56422-0.35381 0.80315-0.89579
  -1  11   1 20.0730 163.742   6 0.32323-0.38105 0.38765 0.53090 0.90930-0.81571
  -1 -11   1 -80.692 167.577   9 0.02915-0.08655-0.56417-0.35392-0.80450 0.89737
   0 -11  -1 685.902 224.081   9-0.07428 0.05417-0.35622-0.56149-0.92856 0.82063
   0 -11   1 563.238 234.488   9 0.02715-0.00581-0.56047-0.35767-0.80743 0.91534
   1 -11   1 143.308 140.734   4 0.06566 0.03546-0.35588-0.56270 0.92744-0.80404
  -1 -11  -1 261.387 198.176   9-0.07492-0.02391-0.35483-0.56286-0.92915 0.80617
  -1  11  -1 74.8750 155.836   6 0.36748-0.46673 0.59266 0.32499 0.77399-0.89654
  11   0  -2 328.800 168.225   7 0.63566 0.18941 0.09981-0.10008 0.87302-0.92252
 -11   0   2 92.7992 134.718   5-0.62809-0.19745 0.26452-0.26443-0.83840 0.88865
 -11   0   2 36.6114 130.824   8-0.63239-0.19344-0.19686 0.19667-0.85645 0.90648
  10   0  -2 197.528 123.167   7 0.62288 0.12338 0.09725-0.09752 0.88113-0.94573
 -10   0   2 214.653 127.091   5-0.61530-0.13149 0.25599-0.25591-0.84947 0.91476
 -10   0   2 613.114 196.462   8-0.61956-0.12751-0.19129 0.19110-0.86584 0.93093
   9   0  -2 173.953 122.042   7 0.61503 0.05246 0.09568-0.09593 0.88594-0.96563
   9   0  -2 191.375 111.003   3 0.59725 0.07021-0.35102 0.35063 0.82203-0.90306
  -9   0   2 44.4741 88.9148   5-0.60712-0.06091 0.25058-0.25049-0.85624 0.93660
  -9   0   2 -12.030 93.8806   8-0.61148-0.05679-0.18780 0.18763-0.87152 0.95167
   8   0  -2 376.085 144.317   7 0.61367-0.02499 0.09540-0.09566 0.88676-0.98152
   8   0  -2 350.219 126.655   3 0.59448-0.00583-0.34808 0.34775 0.82514-0.92124
  -8   0   2 241.232 108.605   5-0.60501 0.01574 0.24918-0.24909-0.85796 0.95338
  -8   0   2 468.706 139.865   8-0.60972 0.02024-0.18704 0.18687-0.87273 0.96796
   7   0  -2 25.6173 77.1575   7 0.62109-0.11120 0.09689-0.09713 0.88224-0.99207
   7   0  -2 197.017 87.4866   3 0.59895-0.08913-0.35282 0.35254 0.82011-0.93127
  -7   0   2 53.4688 61.1558   5-0.61098 0.10047 0.25313-0.25305-0.85308 0.96358
  -7   0   2 88.1910 73.5635   8-0.61642 0.10574-0.18993 0.18978-0.86806 0.97837
   6   0  -2 1243.74 176.914   7 0.64053-0.20941 0.10079-0.10103 0.86983-0.99473
   6   0  -2 397.666 49.3090   1-0.21330 0.64394-0.05410 0.05372-0.99830 0.87233
   6   0  -2 924.105 98.3424   9-0.21236 0.64335-0.02177 0.02158-0.99954 0.87425
  -6   0   2 1279.63 177.080   5-0.62774 0.19600 0.26429-0.26420-0.83871 0.96431
  -6   0   2 1253.71 174.093   8-0.63457 0.20270-0.19780 0.19766-0.85481 0.98021
   5   0  -2 78.1309 57.6431   7 0.67644-0.32410 0.10805-0.10828 0.84454-0.98449
  -5   0   2 26.2303 41.4758   4 0.30228-0.65531 0.30759-0.30718 0.94350-0.80282
   5   0  -2 -19.634 31.6609   9-0.30868 0.66082 0.26815-0.26824-0.95471 0.81441
  -5   0   2 19.9734 42.6891   5-0.65874 0.30579 0.28523-0.28514-0.80933 0.95004
  -5   0   2 115.971 64.7844   8-0.66819 0.31513-0.21253 0.21241-0.82774 0.96825
   4   0  -2 16858.1 582.902   7 0.73432-0.46072 0.11992-0.12014 0.79633-0.95133
  -4   0   2 16752.8 751.270   8-0.72183 0.44761-0.23649 0.23639-0.77659 0.93221
 -12   1   2 -6.7419 126.267   5-0.62815-0.27608 0.26457-0.18112-0.83835 0.87357
 -12   1   2 212.816 179.839   8-0.66776-0.23691-0.21234 0.29557-0.82811 0.86314
  11   1  -2 -204.06 172.257   7 0.63089 0.19418 0.09886-0.01566 0.87608-0.92556
  11  -1  -2 -58.747 117.065   7 0.64756 0.17748 0.10221-0.18593 0.86512-0.91464
 -11   1   2 -143.52 133.322   5-0.61130-0.21420 0.25334-0.16989-0.85281 0.90307
 -11  -1   2 -64.803 130.137   8-0.62020-0.20561-0.19157 0.10797-0.86537 0.91537
 -11   1   2 -67.097 125.965   8-0.65234-0.17354-0.20556 0.28880-0.84094 0.89102
  10   1  -2 1498.87 281.838   7 0.61792 0.12836 0.09626-0.01305 0.88418-0.94875
  10  -1  -2 1500.54 288.948   7 0.63567 0.11058 0.09982-0.18353 0.87301-0.93762
  10  -1  -2 1311.85 253.895   3 0.58184 0.16458-0.33484 0.25093 0.83873-0.90470
 -10  -1   2 1443.35 267.619   5-0.64217-0.10467 0.27399-0.35727-0.82551 0.89081
 -10   1   2 1210.00 248.556   5-0.59774-0.14900 0.24440-0.16094-0.86374 0.92905
 -10  -1   2 1366.46 259.472   8-0.60676-0.14029-0.18576 0.10216-0.87476 0.93981
 -10   1   2 1036.79 230.199   8-0.64086-0.10623-0.20055 0.28380-0.85000 0.91514
   9   1  -2 24.3672 89.9800   7 0.60973 0.05775 0.09462-0.01142 0.88911-0.96877
   9  -1  -2 135.838 126.597   7 0.62893 0.03853 0.09846-0.18216 0.87734-0.95704
  -9   1   2 -18.496 72.4129   2-0.54908-0.11919 0.42209-0.33830-0.81298 0.89328
   9  -1  -2 54.6989 70.0753   3 0.57214 0.09546-0.32479 0.24092 0.84859-0.92964
  -9  -1   2 -45.868 96.0223   5-0.63614-0.03195 0.26992-0.35322-0.83113 0.91148
  -9   1   2 83.3812 117.781   5-0.58845-0.07954 0.23829-0.15484-0.87089 0.95126
  -9  -1   2 31.5799 104.969   8-0.59781-0.07044-0.18191 0.09832-0.88075 0.96087
  -9   1   2 194.758 148.390   8-0.63457-0.03372-0.19780 0.28107-0.85481 0.93501
   8   1  -2 207.508 107.709   7 0.60787-0.01918 0.09425-0.01104 0.89021-0.98495
   8  -1  -2 105.798 96.9454   7 0.62902-0.04034 0.09848-0.18217 0.87728-0.97206
  -8   1   2 418.509 130.810   2-0.54322-0.04623 0.41281-0.32900-0.82142 0.91681
   8   1  -2 90.6432 59.0827   3 0.63463-0.04612-0.39138 0.47451 0.77541-0.87146
  -8  -1   2 311.470 109.771   5-0.63690 0.04758 0.27043-0.35373-0.83043 0.92586
   8  -1  -2 285.670 108.573   3 0.56739 0.02138-0.31989 0.23609 0.85324-0.94937
  -8   1   2 132.092 72.7500   5-0.58471-0.00453 0.23585-0.15239-0.87369 0.96913
  -8  -1   2 126.479 88.4096   8-0.59477 0.00531-0.18061 0.09702-0.88274 0.97792
  -8   1   2 272.935 119.961   8-0.63517 0.04567-0.19806 0.28134-0.85436 0.94964
  -7  -1   2 1613.62 166.982   4 0.13041-0.64059-0.20130 0.11857 0.97776-0.86721
   7   1  -2 1544.36 222.628   7 0.61448-0.10460 0.09557-0.01237 0.88627-0.99608
   7  -1  -2 1519.76 214.464   7 0.63833-0.12844 0.10035-0.18403 0.87127-0.98112
  -7   1   2 2005.49 229.804   2-0.54267 0.03205 0.41195-0.32813-0.82219 0.93266
   7  -1  -2 1600.34 157.674   9-0.13203 0.64187-0.22510 0.14136-0.97285 0.86262
   7  -1  -2 1760.39 225.887   3 0.56906-0.05912-0.32162 0.23788 0.85161-0.96281
  -7  -1   2 1692.34 210.612   5-0.64671 0.13616 0.27706-0.36037-0.82119 0.93170
  -7   1   2 1792.32 231.609   5-0.58829 0.07780 0.23818-0.15472-0.87101 0.98153
  -7   1   2 1760.65 223.673   8-0.64500 0.13432-0.20235 0.28565-0.84677 0.95713
  -7  -1   2 1464.06 216.604   8-0.59961 0.08893-0.18268 0.09910-0.87956 0.98983
   6   1  -2 -52.814 72.5266   7 0.63267-0.20157 0.09921-0.01601 0.87495-0.99982
   6  -1  -2 57.4705 64.9874   7 0.66027-0.22914 0.10478-0.18844 0.85632-0.98124
  -6   1   2 14.8047 23.1351   4 0.20409-0.63575-0.00476 0.08879 0.99990-0.87424
  -6  -1   2 18.0790 36.0149   4 0.20534-0.63692-0.00119-0.08170 0.99990-0.87433
  -6   1   2 115.579 74.8323   2-0.54883 0.11702 0.42170-0.33786-0.81334 0.93892
   6  -1  -2 -28.694 46.7406   9-0.20992 0.64091-0.02837-0.05525-0.99943 0.87411
   6   1  -2 -10.460 16.2751   9-0.18864 0.61965-0.08471 0.16796-0.99643 0.87116
   6   1  -2 -13.009 24.6181   1-0.20561 0.63621-0.00610 0.08916-0.99988 0.87396
  -6  -1   2 56.8089 73.5893   5-0.66856 0.23678 0.29198-0.37529-0.79917 0.92479
   6  -1  -2 63.3762 71.3971   3 0.57906-0.14794-0.33195 0.24828 0.84160-0.96786
  -6  -1   2 107.575 91.8883   8-0.61503 0.18315-0.18934 0.10575-0.86904 0.99440
  -6   1   2 136.424 92.2793   8-0.66734 0.23546-0.21216 0.29547-0.82847 0.95392
   5   1  -2 44.5236 41.7908   7 0.66670-0.31436 0.10607-0.02288 0.85172-0.99166
   5  -1  -2 -9.3217 42.5367   7 0.69939-0.34703 0.11273-0.19638 0.82662-0.96659
   5   1  -2 -28.158 25.3679   1-0.24312 0.59487-0.28275 0.36567-0.95734 0.81654
  -5   1   2 25.5717 44.5954   2-0.56312 0.21015 0.44478-0.36093-0.79124 0.93192
  -5  -1   2 23.8653 33.6592   4 0.27019-0.62307 0.19676-0.27987 0.97684-0.83620
   5  -1  -2 -19.366 34.8402   9-0.27836 0.63055 0.16949-0.25298-0.98115 0.84080
  -5   1   2 39.8683 52.5007   5-0.62772 0.27479 0.26428-0.18078-0.83873 0.97943
  -5  -1   2 -30.656 43.9434   8-0.64475 0.29167-0.20224 0.11866-0.84697 0.98744
  -5   1   2 72.0946 65.7799   8-0.70632 0.35328-0.22950 0.31283-0.79251 0.93307
   4   1  -2 517.272 109.654   7 0.72191-0.44833 0.11736-0.03415 0.80755-0.96252
   4  -1  -2 330.451 82.6994   7 0.76095-0.48732 0.12547-0.20909 0.77046-0.92547
   4  -1  -2 429.814 113.580   3 0.63306-0.35956-0.38966 0.30613 0.77756-0.93390
  -4   1   2 514.075 100.983   5-0.67029 0.39617 0.29317-0.20966-0.79733 0.95315
  -4  -1   2 380.634 98.1529   8-0.69326 0.41902-0.22366 0.14008-0.80517 0.96076
  11   2  -2 -153.70 124.433   7 0.63299 0.19209 0.09928 0.06739 0.87474-0.92418
  11  -2  -2 51.5416 127.640   7 0.66686 0.15815 0.10610-0.27327 0.85160-0.90114
  11  -2  -2 -43.738 130.633   3 0.58075 0.24462-0.33371 0.16624 0.83986-0.89073
 -11   2   2 371.584 173.585   5-0.60201-0.22345 0.24720-0.08040-0.86037 0.91065
 -11  -2   2 184.829 177.120   8-0.61513-0.21066-0.18938 0.02237-0.86897 0.91894
 -11   2   2 160.138 187.169   8-0.68057-0.14535-0.21802 0.38469-0.81687 0.86700
  10   2  -2 -208.11 154.824   7 0.62043 0.12585 0.09676 0.06991 0.88265-0.94718
  10  -2  -2 -50.574 106.052   7 0.65656 0.08967 0.10403-0.27118 0.85893-0.92356
 -10   2   2 226.119 146.134   2-0.54005-0.20695 0.40784-0.24057-0.82584 0.89110
  10  -2  -2 29.7663 91.3923   3 0.56704 0.17951-0.31953 0.15212 0.85358-0.91955
 -10   2   2 34.1907 103.576   5-0.58838-0.15833 0.23825-0.07144-0.87094 0.93627
 -10  -2   2 18.1523 112.728   8-0.60173-0.14528-0.18359 0.01660-0.87815 0.94317
 -10   2   2 132.247 123.949   8-0.67134-0.07578-0.21392 0.38063-0.82502 0.89021
   9   2  -2 10.7972 107.878   7 0.61264 0.05484 0.09520 0.07147 0.88738-0.96701
   9  -2  -2 245.606 137.881   7 0.65176 0.01569 0.10306-0.27019 0.86226-0.94197
  -9   2   2 304.277 129.829   2-0.52954-0.13865 0.39149-0.22421-0.83987 0.92019
  -9  -2   2 123.615 101.059   5-0.67673 0.00859 0.29761-0.46430-0.79038 0.87076
   9  -2  -2 -124.65 105.339   3 0.55686 0.11085-0.30913 0.14177 0.86317-0.94423
  -9   2   2 -6.6963 113.126   5-0.57878-0.08917 0.23199-0.06516-0.87804 0.95843
  -9  -2   2 53.9158 101.596   8-0.59267-0.07555-0.17971 0.01271-0.88410 0.96418
  -9   2   2 242.259 142.090   8-0.66785-0.00047-0.21238 0.37910-0.82803 0.90829
   8   2  -2 174.349 105.683   7 0.61110-0.02242 0.09489 0.07177 0.88829-0.98301
   8  -2  -2 19.8381 74.2111   7 0.65426-0.06559 0.10356-0.27068 0.86053-0.95532
  -8   2   2 104.614 82.6034   2-0.52278-0.06660 0.38112-0.21382-0.84837 0.94377
  -8  -2   2 284.986 133.477   5-0.68174 0.09237 0.30109-0.46779-0.78483 0.88028
   8  -2  -2 23.9991 73.0699   3 0.55122 0.03766-0.30340 0.13611 0.86828-0.96443
  -8   2   2 -176.78 119.746   5-0.57440-0.01481 0.22913-0.06230-0.88119 0.97665
  -8  -2   2 67.9679 77.7494   8-0.58929-0.00017-0.17825 0.01126-0.88627 0.98143
  -8   2   2 -88.951 98.2816   8-0.67198 0.08247-0.21420 0.38095-0.82447 0.91980
  -7  -2   2 1761.54 186.971   4 0.13790-0.64807-0.18238 0.01620 0.98185-0.87135
   7   2  -2 1653.63 230.562   7 0.61791-0.10802 0.09625 0.07041 0.88419-0.99397
   7  -2  -2 1676.26 216.034   7 0.66660-0.15671 0.10605-0.27316 0.85180-0.96166
  -7   2   2 1881.47 230.746   2-0.52077 0.01020 0.37806-0.21075-0.85082 0.96130
   7  -2  -2 1672.82 184.456   9-0.14209 0.65191-0.20107 0.03390-0.97856 0.86830
   7  -2  -2 1518.74 223.644   3 0.55137-0.04133-0.30355 0.13634 0.86814-0.97937
  -7   2   2 2003.60 246.466   5-0.57677 0.06632 0.23068-0.06382-0.87949 0.99002
  -7  -2   2 1502.59 223.979   8-0.59334 0.08266-0.17999 0.01299-0.88367 0.99390
  -7   2   2 1655.58 224.871   8-0.68630 0.17561-0.22056 0.38732-0.81166 0.92207
  -6   2   2 1040.03 191.601   8-0.71419 0.28233-0.23304 0.39984-0.78455 0.91006
   6   2  -2 576.524 138.958   7 0.63600-0.20490 0.09988 0.06677 0.87280-0.99765
   6   2  -2 449.222 84.0829   1-0.19799 0.62856 0.03874 0.12777-0.99921 0.87334
  -6  -2   2 564.721 110.856   4 0.19433-0.62583-0.03225-0.13414 0.99946-0.87394
   6  -2  -2 603.027 115.653   9-0.20091 0.63192-0.05246-0.11458-0.99859 0.87325
  -6   2   2 576.914 126.016   2-0.52472 0.09295 0.38407-0.21674-0.84598 0.97155
   6  -2  -2 597.388 157.043   3 0.55894-0.12773-0.31124 0.14411 0.86125-0.98754
  -6   2   2 401.932 111.957   5-0.58803 0.15635 0.23802-0.07115-0.87120 0.99683
  -6  -2   2 560.858 125.214   8-0.60734 0.17545-0.18601 0.01900-0.87437 0.99970
   5   2  -2 94.3589 68.3426   7 0.66938-0.31706 0.10661 0.06003 0.84977-0.98967
   5  -2  -2 31.5478 67.9313   7 0.73572-0.38333 0.12021-0.28726 0.79504-0.93502
  -5  -2   2 78.0549 62.7249   4 0.24470-0.59748 0.11554-0.28216 0.99176-0.85115
   5  -2  -2 60.8793 63.1886   9-0.25391 0.60613 0.09543-0.26235-0.99328 0.85290
  -5   2   2 108.977 58.9672   2-0.53593 0.18296 0.40138-0.23402-0.83147 0.97215
   5  -2  -2 56.0949 55.7904   3 0.57591-0.22353-0.32869 0.16163 0.84481-0.98616
  -5   2   2 124.588 73.8438   5-0.61091 0.25800 0.25308-0.08619-0.85314 0.99385
  -5  -2   2 151.115 64.5519   8-0.63460 0.28151-0.19782 0.03080-0.85478 0.99522
   5   2  -2 87.2256 35.9164   1-0.22774 0.57950-0.15399 0.32032-0.98733 0.84652
   4   2  -2 307.917 89.5031   7 0.72307-0.44952 0.11760 0.04903 0.80651-0.96145
  -4   2   2 388.305 102.255   2-0.55562 0.28147 0.43259-0.26519-0.80313 0.95893
  -4  -2   2 323.768 85.0296   4 0.28800-0.56197 0.25686-0.42371 0.96068-0.80493
   4  -2  -2 395.569 91.5439   9-0.29983 0.57332 0.23842-0.40524-0.96395 0.80854
  -4  -2   2 367.958 103.691   8-0.67930 0.40503-0.21745 0.05043-0.81801 0.97356
  11   3  -2 -7.7704 155.737   7 0.64159 0.18350 0.10101 0.14913 0.86913-0.91852
  11  -3  -2 185.851 120.273   7 0.69369 0.13131 0.11156-0.36216 0.83121-0.88076
  11  -3  -2 73.2086 102.739   3 0.57305 0.25244-0.32573 0.07475 0.84768-0.89855
 -11   3   2 148.905 151.040   5-0.59932-0.22611 0.24543 0.00473-0.86250 0.91282
 -11  -3   2 39.1544 130.465   8-0.61657-0.20920-0.19000-0.06040-0.86796 0.91791
  10   3  -2 661.966 207.557   7 0.63000 0.11628 0.09868 0.15147 0.87666-0.94115
  10  -3  -2 516.856 184.091   7 0.68570 0.06051 0.10993-0.36051 0.83749-0.90213
 -10   3   2 696.871 196.714   2-0.52872-0.21821 0.39021-0.13949-0.84093 0.90622
  10  -3  -2 410.548 164.497   3 0.55968 0.18698-0.31199 0.06107 0.86057-0.92654
 -10   3   2 564.454 197.815   5-0.58615-0.16053 0.23679 0.01338-0.87262 0.93798
 -10  -3   2 758.024 185.362   8-0.60374-0.14326-0.18446-0.06593-0.87680 0.94180
  -9   3   2 21.9200 152.868   8-0.71179 0.04346-0.23197 0.48217-0.78700 0.86731
   9   3  -2 187.244 103.917   7 0.62323 0.04424 0.09732 0.15281 0.88091-0.96050
   9  -3  -2 -28.882 90.6243   7 0.68369-0.01625 0.10952-0.36007 0.83904-0.91877
  -9   3   2 147.887 115.165   2-0.51833-0.14979 0.37435-0.12362-0.85377 0.93412
  -9   3   2 243.853 118.215   5-0.57688-0.09106 0.23075 0.01944-0.87941 0.95983
   9  -3  -2 26.6895 91.4425   3 0.54967 0.11815-0.30182 0.05097 0.86966-0.95073
  -9  -3   2 -134.36 115.926   8-0.59521-0.07302-0.18079-0.06960-0.88245 0.96251
  -8   3   2 1428.24 300.352   8-0.72062 0.13110-0.23594 0.48617-0.77787 0.87325
   8   3  -2 901.815 187.616   7 0.62277-0.03410 0.09723 0.15290 0.88120-0.97587
   8  -3  -2 846.137 178.069   7 0.68955-0.10089 0.11072-0.36125 0.83448-0.92929
   8  -3  -2 813.104 160.725   9-0.09008 0.67872-0.32147 0.07074-0.94255 0.84738
  -8   3   2 856.308 186.044   2-0.51143-0.07790 0.36392-0.11318-0.86184 0.95726
  -8   3   2 1063.79 205.091   5-0.57258-0.01661 0.22795 0.02226-0.88248 0.97797
   8  -3  -2 728.795 171.532   3 0.54389 0.04509-0.29599 0.04521 0.87471-0.97087
  -8  -3   2 1038.03 214.028   8-0.59219 0.00273-0.17950-0.07090-0.88441 0.97954
  -7   3   2 -203.47 187.504   8-0.74053 0.22985-0.24502 0.49527-0.75598 0.86644
   7   3  -2 359.704 140.239   7 0.63061-0.12075 0.09880 0.15131 0.87626-0.98601
   7  -3  -2 469.722 143.207   7 0.70593-0.19603 0.11407-0.36458 0.82125-0.93111
  -7  -3   2 98.8304 117.320   4 0.13592-0.64604-0.18741-0.06224 0.98080-0.87035
   7  -3  -2 620.461 138.063   9-0.14146 0.65128-0.20258-0.04802-0.97822 0.86794
   7   3  -2 198.592 91.4570   6 0.36754 0.14277 0.59297-0.34280 0.77372-0.88413
  -7   3   2 816.805 178.638   2-0.50883-0.00169 0.36003-0.10927-0.86478 0.97528
  -7   3   2 333.259 133.475   5-0.57465 0.06422 0.22930 0.02094-0.88101 0.99157
   7  -3  -2 404.759 144.968   3 0.54344-0.03330-0.29554 0.04483 0.87510-0.98634
  -7  -3   2 460.269 147.461   8-0.59634 0.08566-0.18128-0.06913-0.88172 0.99192
  -6  -3   2 1832.15 215.663   4 0.18138-0.61280-0.06797-0.18191 0.99762-0.87213
   6   3  -2 1773.37 224.112   7 0.64957-0.21850 0.10262 0.14749 0.86376-0.98857
   6  -3  -2 2393.51 253.051   7 0.73629-0.30514 0.12033-0.37081 0.79451-0.91945
  -6   3   2 2034.74 243.835   2-0.51155 0.07981 0.36412-0.11332-0.86170 0.98728
   6   3  -2 2163.82 251.101   6 0.36475 0.06676 0.57724-0.32711 0.78706-0.91254
   6  -3  -2 2113.91 249.440   9-0.18897 0.61999-0.08385-0.16662-0.99650 0.87114
   6  -3  -2 1699.24 224.260   3 0.54970-0.11840-0.30186 0.05124 0.86963-0.99596
  -6   3   2 1772.12 222.591   5-0.58495 0.15328 0.23600 0.01425-0.87351 0.99916
  -6  -3   2 1891.36 237.728   8-0.60994 0.17804-0.18714-0.06330-0.87258 0.99789
   5   3  -2 525.283 128.466   7 0.68338-0.33108 0.10946 0.14063 0.83928-0.97913
  -5   3   2 351.573 64.8231   6 0.14837-0.50122-0.15485 0.40555 0.98703-0.84607
  -5  -3   2 620.351 130.098   4 0.22245-0.57509 0.04836-0.29849 0.99833-0.85775
   5  -3  -2 521.392 120.545   9-0.23214 0.58441 0.03282-0.28316-0.99858 0.85816
   5   3  -2 543.734 126.298   6 0.36397-0.01125 0.57292-0.32287 0.79061-0.93115
  -5   3   2 535.534 122.144   2-0.52071 0.16777 0.37796-0.12713-0.85091 0.99159
   5  -3  -2 502.387 121.357   3 0.56435-0.21188-0.31678 0.06624 0.85616-0.99755
  -5   3   2 677.267 134.112   5-0.60586 0.25297 0.24975 0.00054-0.85726 0.99800
  -5  -3   2 460.409 114.261   8-0.63597 0.28286-0.19841-0.05202-0.85375 0.99416
   4   3  -2 413.335 111.918   7 0.73653-0.46300 0.12038 0.12970 0.79429-0.94918
  -4  -3   2 295.264 96.2434   4 0.25867-0.53252 0.15943-0.40979 0.98466-0.82894
   4  -3  -2 245.592 82.6586   9-0.27048 0.54402 0.14515-0.39539-0.98585 0.83039
  -4   3   2 377.576 106.468   2-0.53741 0.26327 0.40369-0.15283-0.82946 0.98527
   4   3  -2 330.015 96.1611   6 0.36545-0.09152 0.58112-0.33113 0.78382-0.93940
   4   3  -2 324.908 103.710   1-0.23257 0.50564-0.19125 0.44087-0.98053 0.82478
   4  -3  -2 -1.1937 31.2463   3 0.58925-0.31560-0.34258 0.09214 0.83088-0.98732
  -4   3   2 318.941 97.0107   5-0.64025 0.36615 0.27269-0.02237-0.82732 0.98316
  -4  -3   2 416.617 115.349   8-0.67813 0.40384-0.21692-0.03352-0.81906 0.97459
  -3  -3   2 -149.45 239.350   8-0.73978 0.54433-0.24467-0.00580-0.75684 0.92752
   3   3  -2 103.755 53.4723   1-0.24501 0.43941-0.30119 0.55072-0.95150 0.78080
  -3  -3   2 125.003 72.5028   4 0.28973-0.48471 0.26290-0.51346 0.95881-0.78793
   3  -3  -2 256.609 84.1837   9-0.30353 0.49835 0.25076-0.50089-0.96025 0.78979
   3   3  -2 27.7352 41.2409   6 0.36920-0.17406 0.60269-0.35277 0.76519-0.93581
 -11   4   2 30.3263 116.613   2-0.53600-0.28965 0.40150-0.06735-0.83137 0.88166
  11  -4  -2 71.9026 125.653   3 0.57112 0.25447-0.32374-0.01075 0.84959-0.90045
  10   4  -2 -131.87 132.945   7 0.64617 0.10010 0.10193 0.23169 0.86607-0.93051
  10  -4  -2 -7.3624 116.149   7 0.72306 0.02314 0.11759-0.45157 0.80653-0.87118
 -10   4   2 292.508 153.684   2-0.52352-0.22333 0.38224-0.04809-0.84746 0.91281
 -10   4   2 -87.791 156.481   5-0.59008-0.15658 0.23936 0.09417-0.86965 0.93506
  10  -4  -2 18.1665 133.341   3 0.55846 0.18829-0.31076-0.02367 0.86169-0.92766
 -10  -4   2 29.6578 111.795   8-0.61207-0.13493-0.18806-0.14572-0.87111 0.93609
   9   4  -2 2425.80 343.278   7 0.64098 0.02648 0.10088 0.23273 0.86953-0.94907
   9  -4  -2 2978.33 365.328   7 0.72460-0.05718 0.11791-0.45187 0.80516-0.88489
  -9   4   2 2125.91 301.619   2-0.51367-0.15439 0.36730-0.03315-0.85926 0.93965
   9  -4  -2 2388.98 331.245   3 0.54904 0.11886-0.30120-0.03316 0.87021-0.95128
  -9  -4   2 2479.82 351.387   8-0.60454-0.06370-0.18480-0.14898-0.87626 0.95631
  -9   4   2 2207.96 320.213   5-0.58159-0.08633 0.23381 0.09974-0.87599 0.95645
   8   4  -2 -177.92 132.327   7 0.64219-0.05353 0.10113 0.23247 0.86873-0.96335
  -8  -4   2 -28.922 79.2479   4 0.08754-0.67631-0.30533-0.02757 0.94734-0.85193
   8  -4  -2 -12.892 91.4440   7 0.73465-0.14599 0.11999-0.45392 0.79604-0.89084
   8  -4  -2 -16.920 88.4797   9-0.09211 0.68074-0.31695-0.01722-0.94424 0.84906
   8   4  -2 -5.0001 89.4005   6 0.36450 0.22471 0.57586-0.24219 0.78820-0.88349
  -8   4   2 4.60954 79.5287   2-0.50708-0.08219 0.35741-0.02324-0.86674 0.96219
  -8   4   2 8.99933 107.328   5-0.57790-0.01126 0.23142 0.10217-0.87867 0.97420
   8  -4  -2 193.209 121.652   3 0.54364 0.04543-0.29574-0.03854 0.87493-0.97109
  -8  -4   2 64.4056 93.1256   8-0.60245 0.01299-0.18391-0.14989-0.87767 0.97278
  -7  -4   2 1148.58 255.372   4 0.12910-0.63916-0.20457-0.12857 0.97701-0.86659
   7   4  -2 2278.24 282.528   7 0.65176-0.14192 0.10306 0.23052 0.86226-0.97195
   7  -4  -2 2209.56 274.081   7 0.75582-0.24591 0.12439-0.45829 0.77565-0.88553
  -7   4   2 2117.62 276.906   2-0.50446-0.00603 0.35351-0.01931-0.86963 0.98016
   7   4  -2 2643.06 308.121   6 0.36003 0.15039 0.55193-0.21831 0.80733-0.91770
   7  -4  -2 3047.89 346.466   9-0.13536 0.64520-0.21718-0.11685-0.97481 0.86451
   7  -4  -2 2039.70 273.710   3 0.54320-0.03298-0.29530-0.03891 0.87530-0.98657
  -7   4   2 2137.60 275.318   5-0.58030 0.06989 0.23297 0.10064-0.87693 0.98753
  -7  -4   2 2379.99 296.415   8-0.60737 0.09667-0.18603-0.14779-0.87434 0.98454
   6   4  -2 70.6646 73.0356   7 0.67234-0.24129 0.10721 0.22634 0.84760-0.97235
  -6  -4   2 102.650 56.9951   4 0.16724-0.59855-0.10610-0.22728 0.99404-0.86858
   6  -4  -2 14.9227 72.1821   9-0.17528 0.60634-0.11898-0.21491-0.99282 0.86744
   6   4  -2 131.753 100.306   6 0.35712 0.07449 0.53712-0.20355 0.81856-0.94400
  -6   4   2 -53.346 82.5535   2-0.50663 0.07492 0.35675-0.02252-0.86724 0.99284
  -6   4   2 5.02624 73.9700   5-0.59042 0.15877 0.23958 0.09405-0.86940 0.99508
   6  -4  -2 31.2883 66.1613   3 0.54891-0.11753-0.30106-0.03305 0.87033-0.99668
   6   4  -2 -24.810 55.7458   1-0.18186 0.61238 0.12643 0.20700-0.99190 0.86613
  -6  -4   2 -52.510 69.5738   8-0.62133 0.18942-0.19206-0.14177-0.86456 0.98985
   5   4  -2 619.584 136.936   7 0.70734-0.35506 0.11436 0.21917 0.82007-0.95987
  -5   4   2 504.615 82.2162   6 0.21512-0.56791 0.02765 0.30647 0.99933-0.85838
  -5  -4   2 596.637 141.821   4 0.20180-0.55433-0.01125-0.32238 0.99988-0.85932
   5  -4  -2 541.282 130.616   9-0.21165 0.56396-0.02369-0.31008-0.99951 0.85907
   5   4  -2 653.995 143.526   6 0.35616-0.00335 0.53229-0.19879 0.82212-0.96263
  -5   4   2 585.467 138.223   2-0.51454 0.16161 0.36861-0.03434-0.85824 0.99894
   5   4  -2 552.619 126.693   1-0.20281 0.55458 0.01062 0.32260-0.99987 0.85910
  -5   4   2 799.561 158.729   5-0.61032 0.25745 0.25269 0.08098-0.85362 0.99439
   5  -4  -2 577.256 130.512   3 0.56217-0.20964-0.31455-0.01946 0.85822-0.99964
  -5  -4   2 568.711 125.352   8-0.64704 0.29391-0.20325-0.13062-0.84517 0.98557
   4   4  -2 258.584 104.132   7 0.76057-0.48706 0.12539 0.20813 0.77084-0.92568
  -4   4   2 108.140 52.0304   6 0.14984-0.42378-0.15105 0.48540 0.98767-0.83154
  -4  -4   2 159.416 86.1667   4 0.23260-0.50630 0.07861-0.41247 0.99601-0.84033
   4   4  -2 36.5337 62.6255   1-0.21913 0.49220-0.09271 0.42576-0.99529 0.83954
   4  -4  -2 255.346 92.8101   9-0.24425 0.51783 0.06728-0.40094-0.99622 0.84073
  -4   4   2 211.829 81.1732   2-0.52911 0.25496 0.39083-0.05651-0.84042 0.99623
   4   4  -2 274.996 95.5447   6 0.35737-0.08337 0.53835-0.20491 0.81765-0.97322
   4  -4  -2 213.036 80.6267   3 0.58455-0.31086-0.33767 0.00376 0.83589-0.99237
  -4   4   2 193.095 78.7888   5-0.64242 0.36833 0.27416 0.05956-0.82528 0.98114
  -4  -4   2 351.189 131.670   8-0.68765 0.41334-0.22116-0.11272-0.81041 0.96594
  -3   4   2 -6.2811 52.7744   6 0.10806-0.30309-0.25567 0.59015 0.96354-0.79223
  -3  -4   2 -26.797 52.2148   4 0.25948-0.45433 0.16203-0.49610 0.98417-0.81333
  -3   4   2 -93.402 56.3930   2-0.55103 0.35568 0.42523-0.09085-0.81008 0.98103
   3  -4  -2 -6.2339 43.2926   9-0.27286 0.46772 0.15243-0.48599-0.98451 0.81400
   3   4  -2 101.860 69.9358   1-0.23147 0.42588-0.18248 0.51540-0.98227 0.81155
   3   4  -2 -64.531 62.5487   6 0.36082-0.16563 0.55609-0.22274 0.80410-0.97472
   3  -4  -2 71.5792 67.9729   3 0.61737-0.42250-0.37252 0.03873 0.79811-0.96964
  -3   4   2 43.8362 70.7616   5-0.68890 0.49362 0.30608 0.02768-0.77667 0.94764
   2   4  -2 16.8641 28.7179   1-0.24045 0.35623-0.25799 0.59083-0.96455 0.77886
  -2  -4   2 87.1172 90.1818   4 0.28237-0.39832 0.23757-0.57182 0.96636-0.78034
   2  -4  -2 -62.802 66.2508   9-0.29734 0.41352 0.23023-0.56370-0.96630 0.78077
   2   4  -2 0.24520 37.9866   6 0.36632-0.24993 0.58605-0.25278 0.77966-0.96532
  10   5  -2 53.7905 125.055   7 0.66845 0.07780 0.10643 0.31066 0.85045-0.91483
 -10   5   2 105.265 156.118   2-0.52320-0.22359 0.38176 0.03581-0.84786 0.91325
  10  -5  -2 127.546 105.597   3 0.56231 0.18453-0.31469-0.10324 0.85809-0.92405
 -10   5   2 -261.46 132.800   5-0.59931-0.14734 0.24543 0.17148-0.86251 0.92797
 -10  -5   2 -86.613 127.214   8-0.62602-0.12099-0.19409-0.22307-0.86117 0.92616
   9   5  -2 4.94649 111.119   7 0.66527 0.00217 0.10578 0.31129 0.85276-0.93223
  -9   5   2 -13.277 97.9154   2-0.51412-0.15389 0.36798 0.04959-0.85873 0.93917
  -9   5   2 142.494 141.668   5-0.59191-0.07599 0.24056 0.17636-0.86826 0.94877
   9  -5  -2 13.1941 138.997   3 0.55376 0.11423-0.30597-0.11189 0.86600-0.94707
  -9  -5   2 113.069 130.565   8-0.61987-0.04838-0.19142-0.22575-0.86562 0.94566
   8   5  -2 283.520 146.271   7 0.66864-0.08001 0.10646 0.31059 0.85031-0.94487
  -8  -5   2 -0.1327 110.206   4 0.08348-0.67220-0.31485-0.10154 0.94386-0.84849
   8  -5  -2 108.392 107.481   9-0.08853 0.67718-0.32490-0.09269-0.94124 0.84603
   8   5  -2 163.719 123.148   6 0.36009 0.22923 0.55225-0.13513 0.80708-0.90231
  -8   5   2 78.4431 107.344   2-0.50811-0.08112 0.35896 0.05864-0.86559 0.96108
  -8   5   2 312.520 158.418   5-0.58921 0.00006 0.23879 0.17816-0.87031 0.96589
   8  -5  -2 -57.919 84.3306   3 0.54903 0.04011-0.30118-0.11660 0.87022-0.96639
  -8  -5   2 173.642 133.082   8-0.61912 0.02965-0.19110-0.22609-0.86615 0.96126
   7   5  -2 27.0429 104.386   7 0.68043-0.17061 0.10886 0.30818 0.84153-0.95116
  -7  -5   2 -3.2109 78.9489   4 0.11934-0.62933-0.22880-0.18784 0.97104-0.86065
   7  -5  -2 30.2564 120.125   9-0.12595 0.63581-0.23944-0.17801-0.96910 0.85878
   7   5  -2 158.403 109.393   6 0.35581 0.15470 0.53054-0.11346 0.82340-0.93372
  -7   5   2 79.8511 96.7469   2-0.50578-0.00468 0.35548 0.06214-0.86818 0.97874
  -7   5   2 -50.899 88.4417   5-0.59235 0.08196 0.24085 0.17614-0.86792 0.97856
   7  -5  -2 -61.700 97.3050   3 0.54899-0.03870-0.30114-0.11656 0.87026-0.98153
  -7  -5   2 166.365 115.125   8-0.62526 0.11454-0.19376-0.22346-0.86172 0.97192
   6   5  -2 10.5498 83.3344   7 0.70314-0.27210 0.11350 0.30352 0.82355-0.94825
  -6  -5   2 -67.897 80.1231   4 0.15220-0.58342-0.14565-0.27123 0.98857-0.86312
   6  -5  -2 16.7818 85.0880   9-0.16040 0.59149-0.15633-0.26098-0.98733 0.86193
   6   5  -2 -58.369 78.8901   6 0.35303 0.07867 0.51696-0.09993 0.83312-0.95853
   6   5  -2 39.4700 74.6992   1-0.17323 0.60374 0.16995 0.24693-0.98527 0.85957
  -6   5   2 61.9703 78.6218   2-0.50783 0.07614 0.35854 0.05911-0.86590 0.99154
  -6   5   2 141.880 104.366   5-0.60279 0.17116 0.24772 0.16931-0.85974 0.98546
   6  -5  -2 14.7647 74.4464   3 0.55463-0.12319-0.30685-0.11075 0.86521-0.99157
  -6  -5   2 81.9261 96.7075   8-0.64014 0.20820-0.20022-0.21701-0.85056 0.97586
   5   5  -2 1477.49 225.109   1-0.19162 0.54338 0.07442 0.34225-0.99720 0.85647
  -5  -5   2 963.125 247.374   4 0.18196-0.53438-0.06638-0.35074 0.99773-0.85719
   5   5  -2 1966.14 250.183   7 0.73975-0.38750 0.12105 0.29594 0.79127-0.93101
   5   5  -2 1768.54 247.524   6 0.35204 0.00084 0.51221-0.09525 0.83644-0.97693
   5  -5  -2 1957.18 254.511   9-0.19176 0.54410-0.07658-0.34062-0.99709 0.85662
   5  -5  -2 1505.79 225.959   3 0.56714-0.21455-0.31964-0.09787 0.85348-0.99493
  -5   5   2 1686.71 219.005   5-0.62231 0.26945 0.26066 0.15641-0.84348 0.98428
  -5   5   2 1429.45 213.887   2-0.51502 0.16210 0.36934 0.04836-0.85768 0.99841
  -5  -5   2 1824.27 251.427   8-0.66611 0.31296-0.21162-0.20566-0.82952 0.96992
   4   5  -2 1367.58 213.748   1-0.20642 0.47949-0.01102 0.42752-0.99982 0.84409
  -4   5   2 1246.84 197.765   2-0.52810 0.25395 0.38929 0.02847-0.84170 0.99754
  -4   5   2 1303.96 168.068   6 0.20072-0.47461-0.01363 0.43142 0.99986-0.84374
   4   5  -2 1322.12 217.345   6 0.35304-0.07897 0.51699-0.10011 0.83310-0.98865
  -4  -5   2 1270.69 214.871   4 0.20855-0.48213 0.00799-0.42535 0.99982-0.84416
   4  -5  -2 1223.61 191.898   9-0.21991 0.49353-0.00119-0.41588-0.99957 0.84406
   4  -5  -2 1205.04 204.350   3 0.58778-0.31403-0.34104-0.07635 0.83246-0.98897
  -4   5   2 1463.27 213.735   5-0.65290 0.37882 0.28126 0.13586-0.81516 0.97106
  -4  -5   2 1984.17 297.323   8-0.70585 0.43151-0.22929-0.18801-0.79298 0.94851
  -3  -5   2 2175.51 283.108   4 0.23188-0.42658 0.07644-0.49400 0.99621-0.82540
   3   5  -2 2237.39 272.169   1-0.21808 0.41249-0.08558 0.50194-0.99597 0.82524
  -3   5   2 2550.15 277.776   2-0.54767 0.35229 0.41986-0.00204-0.81504 0.98601
  -3   5   2 2472.52 269.652   6 0.16444-0.35943-0.11284 0.53079 0.99323-0.82195
   3   5  -2 2320.22 263.962   6 0.35611-0.16085 0.53202-0.11522 0.82232-0.99293
   3  -5  -2 2257.68 247.613   9-0.24475 0.43966 0.06872-0.48570-0.99609 0.82554
   3  -5  -2 2679.78 301.016   3 0.61764-0.42272-0.37281-0.04447 0.79779-0.96935
   2   5  -2 54.3746 51.6037   1-0.22703 0.34280-0.14868 0.56492-0.98818 0.80247
  -2   5   2 -57.258 53.5261   6 0.13965-0.25574-0.17721 0.59528 0.98288-0.79641
  -2   5   2 -34.846 64.3377   2-0.57376 0.45719 0.46240-0.04452-0.77319 0.95932
  -2  -5   2 34.6260 65.2509   4 0.25188-0.36769 0.13790-0.55564 0.98843-0.80245
   2  -5  -2 -32.337 63.8444   9-0.26620 0.38242 0.13210-0.54899-0.98808 0.80249
   2   5  -2 123.757 76.4958   6 0.36114-0.24471 0.55778-0.14107 0.80277-0.98843
   1   5  -2 428.690 111.307   1-0.23365 0.27080-0.19985 0.61604-0.97875 0.77805
  -1  -5   2 442.653 112.163   4 0.26854-0.30544 0.19134-0.60924 0.97808-0.77691
   1   5  -2 345.638 103.248   6 0.36779-0.33016 0.59445-0.17783 0.77244-0.97313
  10   6  -2 -4.9226 121.308   7 0.69631 0.04991 0.11210 0.38847 0.82911-0.89342
   9   6  -2 439.955 180.140   7 0.69547-0.02806 0.11193 0.38862 0.82979-0.90919
  -9   6   2 42.9501 99.7996   2-0.51855-0.14941 0.37469 0.12630-0.85350 0.93400
   9  -6  -2 482.690 199.070   3 0.56277 0.10529-0.31517-0.18620 0.85766-0.93871
  -9   6   2 368.201 178.907   5-0.60696-0.06093 0.25047 0.24982-0.85637 0.93694
  -9  -6   2 84.8836 194.105   8-0.64041-0.02786-0.20034-0.30022-0.85035 0.93041
  -8  -6   2 23.9940 96.6015   4 0.07601-0.66467-0.33218-0.16771 0.93721-0.84186
   8   6  -2 140.218 124.778   7 0.70132-0.11272 0.11313 0.38741 0.82505-0.91952
   8  -6  -2 -77.296 127.239   9-0.08128 0.66994-0.34091-0.16010-0.93493 0.83971
   8   6  -2 304.582 173.156   6 0.35816 0.23125 0.54237-0.04178 0.81463-0.90979
  -8   6   2 256.154 144.311   2-0.51326-0.07594 0.36669 0.13431-0.85973 0.95528
  -8   6   2 96.8405 109.950   5-0.60547 0.01633 0.24949 0.25085-0.85758 0.95321
   8  -6  -2 -135.94 127.496   3 0.55892 0.03029-0.31122-0.19006 0.86127-0.95744
  -8  -6   2 -1.1831 121.894   8-0.64130 0.05180-0.20074-0.29984-0.84966 0.94479
   7   6  -2 1794.05 280.806   7 0.71566-0.20586 0.11607 0.38443 0.81300-0.92255
  -7  -6   2 504.012 288.527   4 0.10758-0.61749-0.25752-0.24260 0.96302-0.85264
   7  -6  -2 2147.70 360.729   9-0.11428 0.62417-0.26662-0.23426-0.96127 0.85095
   7   6  -2 1577.05 286.261   6 0.35423 0.15638 0.52276-0.02221 0.82902-0.93928
  -7   6   2 1738.05 286.402   2-0.51141 0.00096 0.36390 0.13713-0.86186 0.97247
  -7   6   2 2170.38 304.289   5-0.60962 0.09923 0.25223 0.24815-0.85420 0.96489
   7  -6  -2 1581.33 286.922   3 0.55949-0.04913-0.31181-0.18939 0.86074-0.97201
  -7  -6   2 1372.07 263.314   8-0.64895 0.13822-0.20409-0.29653-0.84365 0.95386
   6   6  -2 146.554 128.275   7 0.74071-0.30971 0.12125 0.37923 0.79036-0.91497
   6   6  -2 -29.218 74.8821   1-0.16421 0.59471 0.21340 0.28696-0.97662 0.85099
  -6  -6   2 29.7283 87.3965   4 0.13644-0.56754-0.18609-0.31428 0.98108-0.85564
   6  -6  -2 -59.177 93.8216   9-0.14456 0.57570-0.19510-0.30564-0.97987 0.85446
   6   6  -2 19.3652 76.3794   6 0.35168 0.08011 0.51049-0.01000 0.83763-0.96299
  -6   6   2 -143.39 106.332   2-0.51356 0.08188 0.36714 0.13392-0.85938 0.98506
  -6   6   2 -142.52 141.452   5-0.62069 0.18907 0.25959 0.24084-0.84487 0.97064
   6  -6  -2 181.758 114.738   3 0.56535-0.13385-0.31780-0.18330 0.85521-0.98158
  -6  -6   2 109.608 107.115   8-0.66506 0.23310-0.21115-0.28950-0.83041 0.95572
  -5  -6   2 -13.293 115.108   4 0.16250-0.51479-0.11866-0.38195 0.99250-0.85197
   5  -6  -2 12.3835 67.3366   9-0.17205 0.52445-0.12716-0.37347-0.99176 0.85128
   5   6  -2 -12.339 102.627   6 0.35077 0.00220 0.50611-0.00568 0.84064-0.98108
  -5   6   2 71.9826 98.9797   2-0.52036 0.16743 0.37743 0.12368-0.85132 0.99210
   5  -6  -2 173.293 113.486   3 0.57747-0.22482-0.33031-0.17069 0.84322-0.98468
  -5   6   2 -163.79 79.8344   5-0.64020 0.28735 0.27266 0.22782-0.82736 0.96821
   5   6  -2 -52.784 87.3701   1-0.18066 0.53243 0.13257 0.36756-0.99109 0.85041
  -5  -6   2 56.6030 90.2627   8-0.69164 0.33847-0.22294-0.27774-0.80669 0.94712
  -3   6   2 953.512 174.522   6 0.20509-0.40007-0.00121 0.50263 0.99990-0.82861
  -3  -6   2 485.681 156.546   4 0.20610-0.40067 0.00099-0.50204 0.99989-0.82909
  -3   6   2 940.919 197.862   2-0.55012 0.35473 0.42377 0.07747-0.81143 0.98244
   3  -6  -2 594.914 155.019   9-0.21841 0.41338-0.00530-0.49511-0.99961 0.82902
   3   6  -2 647.793 160.519   6 0.35435-0.15903 0.52333-0.02306 0.82861-0.99920
   3  -6  -2 932.468 193.533   3 0.62443-0.42948-0.38020-0.12056 0.78908-0.96068
   3   6  -2 652.570 163.594   1-0.20504 0.39946-0.00268 0.50249-0.99990 0.82919
  -2  -6   2 2080.61 289.858   4 0.22352-0.33919 0.05154-0.55278 0.99814-0.81219
   2   6  -2 2134.44 268.918   1-0.21359 0.32936-0.05597 0.55567-0.99819 0.81247
  -2   6   2 2436.84 280.663   6 0.18254-0.29860-0.06413 0.56567 0.99788-0.81143
   2   6  -2 1828.58 253.235   6 0.35886-0.24238 0.54592-0.04575 0.81194-0.99759
  -2   6   2 850.747 207.032   2-0.57359 0.45699 0.46212 0.03920-0.77349 0.95965
   2  -6  -2 2097.31 262.177   9-0.23712 0.35340 0.04690-0.54723-0.99778 0.81216
  -1   6   2 307.238 96.5355   6 0.16714-0.20430-0.10565 0.60729 0.99409-0.79248
  -1  -6   2 394.417 141.144   4 0.23793-0.27471 0.09477-0.59616 0.99434-0.79322
   1  -6  -2 620.209 149.238   9-0.25278 0.29035 0.09211-0.59237-0.99367 0.79302
   1   6  -2 256.427 96.4268   1-0.22007 0.25722-0.09910 0.59871-0.99465 0.79394
   1   6  -2 663.145 159.815   6 0.36493-0.32726 0.57819-0.07812 0.78627-0.98695
   9   7  -2 -12.002 146.304   7 0.73087-0.06349 0.11921 0.46481 0.79950-0.87880
   9  -7  -2 -189.55 159.879   9-0.03936 0.70681-0.43016-0.15441-0.89290 0.81281
  -9  -7   2 -40.238 157.296   8-0.66546-0.00283-0.21133-0.37262-0.83007 0.91016
  -8  -7   2 -4.5047 155.838   4 0.06612-0.65469-0.35484-0.22855 0.92789-0.83255
   8   7  -2 184.967 159.988   7 0.73939-0.15082 0.12097 0.46302 0.79161-0.88599
   8  -7  -2 84.3586 173.148   9-0.07140 0.66008-0.36247-0.22197-0.92587 0.83065
   8   7  -2 62.0284 139.690   6 0.35816 0.23136 0.54237 0.04169 0.81463-0.90972
  -8   7   2 -42.344 122.106   2-0.52156-0.06761 0.37926 0.20513-0.84986 0.94548
   8  -7  -2 135.240 108.995   3 0.57236 0.01692-0.32502-0.25978 0.84837-0.94453
  -8   7   2 -91.334 142.093   5-0.62581 0.03666 0.26300 0.32072-0.84042 0.93609
  -8  -7   2 -10.672 145.760   8-0.66815 0.07862-0.21251-0.37146-0.82778 0.92294
   7   7  -2 913.251 255.228   7 0.75636-0.24659 0.12451 0.45946 0.77510-0.88456
  -7  -7   2 86.2959 124.624   4 0.09433-0.60413-0.28931-0.29432 0.95293-0.84255
   7  -7  -2 514.346 198.078   9-0.10092 0.61085-0.29714-0.28716-0.95135 0.84102
   7   7  -2 81.2079 123.659   6 0.35462 0.15608 0.52467 0.05935 0.82765-0.93785
  -7   7   2 513.844 174.827   2-0.52025 0.00983 0.37727 0.20715-0.85145 0.96213
   7  -7  -2 450.390 192.481   3 0.57365-0.06324-0.32635-0.25835 0.84709-0.95835
  -7   7   2 355.121 188.346   5-0.63109 0.12071 0.26654 0.31723-0.83571 0.94645
  -7  -7   2 350.183 164.814   8-0.67747 0.16671-0.21663-0.36737-0.81964 0.92988
  -6  -7   2 151.300 271.541   4 0.12001-0.55100-0.22715-0.35672 0.97147-0.84603
   6  -7  -2 1076.48 250.595   9-0.12791 0.55909-0.23484-0.34934-0.97033 0.84491
   6   7  -2 982.755 244.416   6 0.35236 0.07952 0.51367 0.07031 0.83543-0.96073
  -6   7   2 1142.96 239.009   2-0.52265 0.09097 0.38091 0.20355-0.84854 0.97429
   6  -7  -2 659.747 191.947   3 0.57988-0.14832-0.33280-0.25180 0.84077-0.96714
  -6   7   2 978.146 227.275   5-0.64295 0.21133 0.27451 0.30930-0.82478 0.95059
  -6  -7   2 698.351 266.926   8-0.69493 0.26295-0.22441-0.35965-0.80359 0.92893
  -5  -7   2 736.674 298.240   8-0.72223 0.36904-0.23668-0.34741-0.77616 0.91662
  -5  -7   2 29.2372 220.486   4 0.14314-0.49529-0.16902-0.41508 0.98448-0.84395
   5   7  -2 626.810 198.974   1-0.16972 0.52149 0.18712 0.39648-0.98210 0.84149
   5  -7  -2 844.202 196.420   9-0.15234 0.50478-0.17620-0.40786-0.98373 0.84324
   5   7  -2 830.224 203.812   6 0.35155 0.00150 0.50980 0.07411 0.83811-0.97851
  -5   7   2 952.344 222.799   2-0.52924 0.17630 0.39101 0.19350-0.84026 0.98109
   5  -7  -2 783.163 188.512   3 0.59184-0.23914-0.34530-0.23918 0.82805-0.96951
  -5   7   2 812.698 203.394   5-0.66263 0.30978 0.28791 0.29597-0.80535 0.94625
  -4  -7   2 365.399 193.856   4 0.16367-0.43697-0.11557-0.46875 0.99290-0.83725
  -4   7   2 490.747 124.050   6 0.26284-0.53670 0.17345 0.41123 0.98193-0.82576
  -4   7   2 385.356 136.525   2-0.54049 0.26631 0.40852 0.17606-0.82524 0.98118
   4  -7  -2 128.428 89.7739   9-0.17413 0.44786-0.12191-0.46203-0.99245 0.83689
   4   7  -2 258.843 146.280   6 0.35232-0.07812 0.51353 0.07030 0.83552-0.99101
   4  -7  -2 333.753 126.422   3 0.61035-0.33651-0.36496-0.21941 0.80676-0.96330
  -4   7   2 395.837 163.121   5-0.69141 0.41734 0.30783 0.27609-0.77376 0.92974
   4   7  -2 463.909 167.818   1-0.18213 0.45522 0.12500 0.45843-0.99209 0.83644
   3   7  -2 3316.48 392.230   1-0.19225 0.38668 0.07094 0.51234-0.99746 0.82679
  -3  -7   2 3412.15 417.761   4 0.18156-0.37597-0.06749-0.51703 0.99765-0.82687
  -3   7   2 3435.36 393.783   2-0.55675 0.36133 0.43442 0.15024-0.80137 0.97244
  -3   7   2 3745.45 366.953   6 0.23650-0.43146 0.09107 0.49381 0.99476-0.82345
   3   7  -2 3167.06 370.149   6 0.35475-0.15940 0.52530 0.05844 0.82719-0.99775
   3  -7  -2 3278.70 352.736   9-0.19323 0.38826-0.07270-0.51115-0.99737 0.82677
   3  -7  -2 3448.11 394.918   3 0.63600-0.44101-0.39290-0.19134 0.77351-0.94512
  -2   7   2 -86.495 87.7457   6 0.21634-0.33239 0.03118 0.55384 0.99920-0.81273
  -2  -7   2 -181.63 108.132   4 0.19674-0.31227-0.02550-0.55920 0.99965-0.81371
   2  -7  -2 104.593 93.6288   9-0.20958 0.32591-0.02927-0.55450-0.99941 0.81376
   2   7  -2 -40.517 76.8232   1-0.20030 0.31608 0.02540 0.55776-0.99963 0.81394
   2   7  -2 27.3766 75.7725   6 0.35878-0.24226 0.54549 0.03816 0.81227-0.99789
  -1  -7   2 3564.99 371.530   4 0.20912-0.24575 0.00964-0.59450 0.99979-0.79869
   1   7  -2 3716.72 363.302   1-0.20645 0.24361-0.01120 0.59428-0.99982 0.79912
  -1   7   2 4069.45 375.568   6 0.20181-0.23895-0.01050 0.59563 0.99988-0.79826
   1   7  -2 4672.08 439.785   6 0.36422-0.32653 0.57429 0.00925 0.78949-0.99016
   1  -7  -2 4500.47 380.860   9-0.22310 0.26072 0.00758-0.59129-0.99944 0.79875
  -8  -8   2 32.6450 162.402   4 0.05437-0.64286-0.38131-0.28558 0.91607-0.82072
   8  -8  -2 -158.06 207.512   9-0.05950 0.64821-0.38798-0.27988-0.91426 0.81905
   8   8  -2 -24.029 141.661   6 0.35959 0.23003 0.54965 0.11789 0.80909-0.90410
  -8  -8   2 120.205 266.127   8-0.69886 0.10931-0.22616-0.44121-0.79982 0.89503
  -7  -8   2 -27.296 167.438   8-0.70988 0.19909-0.23110-0.43631-0.78894 0.89924
  -7  -8   2 -69.015 160.927   4 0.07986-0.58955-0.32327-0.34386 0.94068-0.83030
  -7   8   2 -185.56 191.837   2-0.53152 0.02110 0.39454 0.27327-0.83730 0.94806
   7  -8  -2 -84.362 156.756   9-0.08621 0.59617-0.33006-0.33768-0.93925 0.82893
   7   8  -2 30.4580 114.230   6 0.35643 0.15434 0.53367 0.13383 0.82111-0.93124
   7  -8  -2 -97.735 115.884   3 0.59063-0.08016-0.34403-0.32416 0.82937-0.94063
  -7   8   2 300.513 198.317   5-0.65591 0.14552 0.28331 0.38386-0.81217 0.92297
  -6  -8   2 27.9184 179.646   8-0.72867 0.29666-0.23960-0.42786-0.76924 0.89463
  -6  -8   2 -17.066 149.023   4 0.10297-0.53384-0.26866-0.39871 0.95963-0.83418
  -6   8   2 -163.01 165.289   2-0.53418 0.10250 0.39867 0.26919-0.83380 0.95962
   6  -8  -2 -118.31 130.593   9-0.11053 0.54176-0.27526-0.39235-0.95859 0.83317
   6   8  -2 248.845 168.490   6 0.35445 0.07749 0.52384 0.14360 0.82824-0.95348
   6  -8  -2 211.059 162.340   3 0.59727-0.16567-0.35104-0.31706 0.82201-0.94837
  -6   8   2 443.784 192.916   5-0.66857 0.23695 0.29198 0.37524-0.79916 0.92503
  -5  -8   2 98.2633 165.576   4 0.12369-0.47571-0.21803-0.44956 0.97378-0.83323
  -5   8   2 43.0397 105.532   2-0.54065 0.18771 0.40878 0.25913-0.82501 0.96592
   5  -8  -2 -91.310 114.011   9-0.13243 0.48493-0.22415-0.44333-0.97309 0.83260
   5   8  -2 141.943 129.750   6 0.35377-0.00066 0.52052 0.14687 0.83061-0.97095
   5  -8  -2 -12.496 119.268   3 0.60917-0.25644-0.36370-0.30428 0.80817-0.94963
  -5   8   2 69.3736 111.636   5-0.68846 0.33561 0.30577 0.36150-0.77719 0.91814
  -4  -8   2 3213.03 422.532   4 0.14199-0.41513-0.17196-0.49585 0.98392-0.82825
  -4   8   2 2920.37 392.748   2-0.55130 0.27709 0.42565 0.24234-0.80968 0.96570
   4   8  -2 2740.97 370.071   6 0.35450-0.08024 0.52408 0.14324 0.82807-0.98351
   4  -8  -2 2470.77 339.822   9-0.15187 0.42566-0.17733-0.49005-0.98351 0.82795
   4  -8  -2 3066.31 414.288   3 0.62694-0.35306-0.38293-0.28493 0.78580-0.94234
   4   8  -2 2820.07 411.470   1-0.17014 0.44324 0.18511 0.48179-0.98249 0.82692
  -3  -8   2 96.4381 138.225   4 0.15780-0.35207-0.13105-0.53695 0.99080-0.82001
  -3   8   2 239.426 137.645   6 0.26207-0.45701 0.17095 0.49737 0.98244-0.81109
  -3   8   2 77.7507 126.601   2-0.56633 0.37089 0.45005 0.21801-0.78594 0.95708
   3  -8  -2 45.6818 83.3925   9-0.16878 0.36387-0.13541-0.53189-0.99061 0.81999
   3   8  -2 247.963 138.480   6 0.35668-0.16127 0.53487 0.13236 0.82022-0.99074
   3   8  -2 18.9786 86.4990   1-0.17957 0.37402 0.13818 0.52858-0.99031 0.81969
   2   8  -2 1236.74 248.924   1-0.18710 0.30291 0.09886 0.56778-0.99506 0.80942
  -2  -8   2 1447.53 277.623   4 0.17106-0.28642-0.09592-0.57226 0.99516-0.80922
  -2   8   2 1338.42 276.582   6 0.24414-0.36017 0.11444 0.55404 0.99192-0.80543
   2  -8  -2 1133.73 226.658   9-0.18310 0.29948-0.09902-0.56821-0.99509 0.80943
   2   8  -2 1287.21 257.158   6 0.36027-0.24371 0.55320 0.11393 0.80635-0.99194
   1   8  -2 421.883 145.157   1-0.19287 0.23004 0.06754 0.59901-0.99769 0.79702
  -1  -8   2 389.810 165.341   4 0.18165-0.21814-0.06723-0.60109 0.99767-0.79656
  -1   8   2 471.415 161.285   6 0.23069-0.26781 0.07358 0.59502 0.99648-0.79484
   1  -8  -2 386.825 153.216   9-0.19470 0.23239-0.06884-0.59831-0.99764 0.79693
   1   8  -2 444.042 178.480   6 0.36510-0.32739 0.57923 0.08779 0.78541-0.98604
  -1  -8   2 -327.99 126.096   9 0.06028-0.09716-0.62024-0.04768-0.75631 0.95714
   0   8   2 1035.85 191.993   6 0.22141-0.17962 0.04602 0.62267 0.99848-0.78169
   0   8  -2 1779.52 233.390   2-0.27452 0.23334 0.04644 0.62002-0.99523 0.78009
   0  -8   2 1404.01 245.376   4 0.18947-0.14704-0.04576-0.62269 0.99894-0.78266
   0   8  -2 1427.65 238.229   1-0.19696 0.15550 0.04459 0.62191-0.99897 0.78327
   0  -8  -2 1419.76 248.830   9-0.20348 0.16246-0.04564-0.62146-0.99889 0.78314
   0   8  -2 -41.403 75.0400   6 0.37089-0.41201 0.61294 0.05397 0.75594-0.97160
   0  -8   2 -58.017 82.1236   9 0.05729-0.01542-0.61499-0.05298-0.76117 0.97705
   1  -8   2 40.1840 84.4183   4 0.19430-0.07299-0.03234-0.63622 0.99946-0.76803
  -1   8  -2 71.4101 77.6904   1-0.19943 0.07934 0.03040 0.63606-0.99949 0.76876
   1  -8   2 -29.102 93.0540   9 0.05847 0.06215-0.61706-0.05097-0.75926 0.99022
  -7   9   2 557.510 237.254   5-0.68327 0.17289 0.30215 0.44841-0.78311 0.89397
  -6  -9   2 -2.1714 208.477   4 0.08534-0.51607-0.31050-0.44037 0.94547-0.81998
  -6   9   2 765.505 242.849   2-0.54749 0.11579 0.41957 0.33168-0.81530 0.94122
   6  -9  -2 764.732 258.218   9-0.09244 0.52373-0.31621-0.43483-0.94452 0.81911
   6   9  -2 639.608 236.872   6 0.35754 0.07448 0.53923 0.21171 0.81699-0.94215
   6  -9  -2 777.370 267.232   3 0.61678-0.18513-0.37189-0.37970 0.79885-0.92519
  -5  -9   2 186.258 230.327   4 0.10404-0.45592-0.26607-0.48501 0.96043-0.81986
  -5   9   2 -38.298 120.464   2-0.55388 0.20092 0.42979 0.32152-0.80578 0.94679
   5  -9  -2 69.4554 103.192   9-0.11223 0.46480-0.27134-0.47960-0.95982 0.81933
   5   9  -2 60.6977 151.119   6 0.35699-0.00382 0.53644 0.21444 0.81906-0.95934
   5  -9  -2 40.5545 102.171   3 0.62863-0.27586-0.38479-0.36669 0.78355-0.92499
  -4  -9   2 335.194 367.100   4 0.12045-0.39345-0.22607-0.52522 0.97175-0.81605
  -4   9   2 1873.98 346.061   2-0.56399 0.28977 0.44621 0.30518-0.78981 0.94592
   4  -9  -2 1997.40 350.006   9-0.12968 0.40354-0.23065-0.52017-0.97142 0.81587
   4   9  -2 1616.67 340.087   6 0.35768-0.08337 0.53994 0.21087 0.81646-0.97184
  -3  -9   2 151.665 167.993   4 0.13448-0.32860-0.19101-0.56046 0.98003-0.80921
   3   9  -2 116.052 154.876   1-0.16686 0.36133 0.20087 0.54938-0.97933 0.80880
  -3   9   2 -213.13 120.575   6 0.28366-0.47859 0.24258 0.50918 0.96495-0.79354
   3  -9  -2 -7.5580 108.327   9-0.14473 0.33987-0.19471-0.55605-0.97996 0.80934
   3   9  -2 75.9575 127.728   6 0.35965-0.16419 0.54998 0.20074 0.80883-0.97929
  -2  -9   2 394.916 210.806   4 0.14608-0.26129-0.16147-0.59016 0.98587-0.79990
  -2   9   2 535.520 198.396   6 0.26773-0.38374 0.18933 0.56260 0.97854-0.79200
   2  -9  -2 316.507 121.788   9-0.15728 0.27372-0.16406-0.58662-0.98599 0.80032
   2   9  -2 495.541 181.556   6 0.36284-0.24624 0.56683 0.18379 0.79557-0.98110
   2   9  -2 307.603 171.647   1-0.17391 0.28973 0.16664 0.58350-0.98585 0.80028
  -1  -9   2 350.828 148.414   4 0.15512-0.19144-0.13805-0.61372 0.98976-0.78864
  -1   9   2 344.149 162.868   6 0.25541-0.29251 0.14971 0.60235 0.98644-0.78477
   1  -9  -2 236.667 139.445   9-0.16722 0.20497-0.13933-0.61129-0.99003 0.78931
   1   9  -2 94.9519 112.422   6 0.36713-0.32938 0.59061 0.15990 0.77576-0.97634
   1   9  -2 111.934 119.525   1-0.17928 0.21647 0.13966 0.61039-0.99010 0.78949
   0   9  -2 246.998 118.537   1-0.18303 0.14160 0.12030 0.62968-0.99267 0.77702
   0  -9   2 136.921 95.5784   4 0.16145-0.11887-0.12145-0.63045 0.99214-0.77585
   0   9  -2 -175.11 92.5285   6 0.37225-0.41335 0.62133 0.12907 0.74816-0.96378
  -1   9  -2 -158.46 88.3059   1-0.18520 0.06513 0.10896 0.64101-0.99400 0.76331
   1  -9   2 -36.043 96.6933   4 0.16485-0.04340-0.11243-0.63957 0.99329-0.76184
  -1   9  -2 6.13466 74.5628   2-0.31593 0.19597 0.09779 0.65204-0.98672 0.75660
  -3 -10   2 -188.32 159.129   4 0.11138-0.30534-0.24831-0.58662 0.96571-0.79484
   3 -10  -2 121.423 138.825   9-0.12082 0.31604-0.25145-0.58275-0.96575 0.79514
   3  10  -2 -81.900 124.181   6 0.36329-0.16778 0.56923 0.26498 0.79363-0.96402
   2  10  -2 827.527 248.561   1-0.16061 0.27647 0.23021 0.60342-0.97272 0.78723
  -2 -10   2 603.842 241.531   4 0.12152-0.23658-0.22341-0.61167 0.97243-0.78642
   2 -10  -2 837.990 220.617   9-0.13183 0.24834-0.22558-0.60855-0.97273 0.78706
   2  10  -2 875.711 256.732   6 0.36612-0.24948 0.58487 0.24925 0.78066-0.96612
  -1 -10   2 216.843 158.070   4 0.12919-0.16534-0.20435-0.63087 0.97706-0.77590
   1  10  -2 177.353 127.882   1-0.16560 0.20282 0.20687 0.62668-0.97805 0.77752
   1  10  -2 16.2036 56.0337   6 0.36988-0.33211 0.60680 0.22721 0.76151-0.96203
   0 -10   2 143.315 129.709   4 0.13420-0.09146-0.19175-0.64359 0.97988-0.76356
   0  10  -2 101.239 115.684   1-0.16902 0.12760 0.19053 0.64297-0.98143 0.76586
 -11   0   3 252.334 254.161   8-0.72207-0.08330-0.23660 0.23637-0.77633 0.93433
  11   0  -3 111.704 149.527   7 0.72989 0.07440 0.11900-0.11937 0.80040-0.95756
 -10   0   3 216.409 237.940   8-0.71900-0.00758-0.23522 0.23499-0.77956 0.95263
  10   0  -3 102.042 108.746   7 0.72733-0.00184 0.11848-0.11885 0.80271-0.97495
  -9   0   3 406.143 268.776   8-0.72139 0.07361-0.23630 0.23608-0.77705 0.96520
   9   0  -3 -53.247 85.2124   7 0.73058-0.08387 0.11915-0.11951 0.79977-0.98709
   7   0  -3 149.749 109.244   7 0.76026-0.27110 0.12532-0.12566 0.77116-0.98860
  11   1  -3 43.8177 131.539   7 0.72438 0.07991 0.11787-0.03479 0.80536-0.96250
  11  -1  -3 106.258 116.854   7 0.74158 0.06269 0.12143-0.20524 0.78954-0.94672
 -11   1   3 76.9203 99.4458   5-0.69435-0.11068 0.30990-0.22636-0.77029 0.92859
 -10   1   3 -243.02 284.844   8-0.73991 0.01333-0.24474 0.32795-0.75668 0.92980
  10   1  -3 258.708 166.876   7 0.72145 0.00404 0.11726-0.03418 0.80794-0.98017
  10  -1  -3 228.096 135.581   7 0.73987-0.01438 0.12107-0.20488 0.79115-0.96341
 -10   1   3 20.3868 102.768   5-0.68976-0.03652 0.30669-0.22314-0.77567 0.94903
 -10  -1   3 179.744 198.225   8-0.70504-0.02153-0.22893 0.14526-0.79378 0.96681
   9   1  -3 408.207 173.290   7 0.72420-0.07749 0.11783-0.03474 0.80551-0.99281
   9  -1  -3 326.308 151.985   7 0.74411-0.09740 0.12195-0.20575 0.78713-0.97446
  -9   1   3 379.360 177.079   5-0.68996 0.04244 0.30682-0.22328-0.77544 0.96388
  -9  -1   3 403.668 187.073   8-0.70636 0.05858-0.22952 0.14586-0.79247 0.98058
  -8  -1   3 361.077 219.319   8-0.71412 0.14514-0.23301 0.14936-0.78463 0.98782
   8   1  -3 330.167 167.015   7 0.73399-0.16607 0.11985-0.03676 0.79664-0.99901
   8  -1  -3 410.929 131.836   7 0.75570-0.18777 0.12437-0.20814 0.77577-0.97817
  -7  -1   3 -235.05 220.885   8-0.72972 0.23955-0.24008 0.15644-0.76809 0.98638
   7   1  -3 -78.559 93.1306   7 0.75243-0.26328 0.12368-0.04060 0.77903-0.99645
   7  -1  -3 -371.27 135.600   7 0.77624-0.28706 0.12867-0.21244 0.75434-0.97180
  -7  -1   3 118.539 104.151   4 0.24766-0.73754 0.12469-0.20763 0.99047-0.77191
   7  -1  -3 15.1504 66.8446   9-0.25393 0.74287 0.09548-0.17905-0.99327 0.77524
  11   2  -3 161.719 137.448   7 0.72486 0.07943 0.11797 0.04858 0.80492-0.96204
  11  -2  -3 52.8616 106.757   7 0.75950 0.04477 0.12516-0.29240 0.77193-0.92912
 -11   2   3 296.154 206.710   5-0.68300-0.12201 0.30196-0.13506-0.78341 0.94173
 -11  -2   3 7.32771 207.544   8-0.70199-0.10335-0.22756 0.06048-0.79678 0.95470
  10   2  -3 412.790 192.450   7 0.72202 0.00347 0.11738 0.04916 0.80745-0.97964
  10  -2  -3 469.737 224.196   7 0.75911-0.03363 0.12508-0.29231 0.77233-0.94460
 -10   2   3 244.115 132.961   5-0.67785-0.04841 0.29838-0.13147-0.78916 0.96253
 -10  -2   3 975.328 296.727   8-0.69770-0.02886-0.22564 0.05856-0.80094 0.97392
   9   2  -3 464.574 147.091   7 0.72477-0.07807 0.11795 0.04860 0.80501-0.99228
   9  -2  -3 639.083 222.573   7 0.76482-0.11811 0.12627-0.29349 0.76646-0.95380
  -9   2   3 528.501 193.118   5-0.67725 0.02975 0.29797-0.13104-0.78981 0.97826
  -9  -2   3 693.656 270.343   8-0.69846 0.05069-0.22598 0.05890-0.80021 0.98827
   8   2  -3 2095.28 307.779   7 0.73442-0.16651 0.11994 0.04659 0.79625-0.99858
  -8   2   3 1835.41 306.413   5-0.68217 0.11345 0.30138-0.13445-0.78435 0.98788
  -8  -2   3 2869.90 420.495   8-0.70541 0.13643-0.22910 0.06201-0.79341 0.99656
  -7  -2   3 541.131 223.056   8-0.71989 0.22972-0.23562 0.06855-0.77863 0.99688
   7   2  -3 463.952 170.466   7 0.75253-0.26339 0.12371 0.04283 0.77892-0.99632
  -7  -2   3 262.762 163.974   4 0.22997-0.71976 0.07073-0.23718 0.99672-0.77820
   7  -2  -3 546.620 181.980   9-0.23748 0.72646 0.04793-0.21490-0.99771 0.77965
  -7   2   3 218.157 132.066   5-0.69374 0.20378 0.30947-0.14252-0.77101 0.98964
  -6  -2   3 -1181.4 418.792   8-0.74330 0.33195-0.24629 0.07920-0.75278 0.98614
  10   3  -3 329.025 180.595   7 0.72874-0.00325 0.11877 0.13124 0.80144-0.97360
  10  -3  -3 -93.361 163.632   3 0.63433 0.09137-0.39105 0.14029 0.77582-0.95013
 -10   3   3 -80.491 117.450   5-0.67214-0.05409 0.29444-0.04416-0.79536 0.96876
 -10  -3   3 27.7648 149.565   8-0.69654-0.03001-0.22512-0.02536-0.80206 0.97501
   9   3  -3 253.283 142.443   7 0.73192-0.08523 0.11942 0.13057 0.79855-0.98578
   9  -3  -3 237.856 148.404   3 0.63147 0.01539-0.38790 0.13721 0.77974-0.96912
  -9   3   3 355.136 168.572   5-0.67119 0.02373 0.29379-0.04348-0.79637 0.98484
  -9  -3   3 412.641 210.982   8-0.69719 0.04941-0.22541-0.02508-0.80143 0.98946
   8   3  -3 134.238 131.635   7 0.74190-0.17400 0.12149 0.12850 0.78924-0.99154
   8  -3  -3 95.7136 112.334   3 0.63287-0.06484-0.38945 0.13882 0.77782-0.98229
  -8   3   3 -21.182 118.465   5-0.67550 0.10680 0.29677-0.04645-0.79172 0.99526
  -8  -3   3 357.307 206.477   8-0.70382 0.13483-0.22838-0.02212-0.79499 0.99811
  -7  -3   3 1302.96 303.086   8-0.71766 0.22747-0.23461-0.01589-0.78096 0.99919
   7   3  -3 1230.99 249.901   1-0.20956 0.69795-0.03042 0.28000-0.99937 0.78060
   7   3  -3 1126.66 238.338   7 0.76013-0.27101 0.12529 0.12469 0.77129-0.98865
  -7  -3   3 621.666 297.989   4 0.21264-0.70233 0.01975-0.26971 0.99957-0.78108
   7  -3  -3 1498.81 285.734   9-0.22084 0.70984 0.00135-0.25175-0.99955 0.78146
   7  -3  -3 756.575 187.379   3 0.63927-0.15007-0.39654 0.14599 0.76891-0.98844
  -7   3   3 1018.41 225.630   5-0.68611 0.19618 0.30413-0.05379-0.77988 0.99852
  10   4  -3 376.039 167.037   7 0.74121-0.01573 0.12135 0.21212 0.78989-0.96200
  10  -4  -3 386.399 198.939   3 0.62918 0.09662-0.38539 0.05114 0.78282-0.95713
 -10   4   3 357.584 201.880   5-0.67199-0.05422 0.29434 0.03932-0.79552 0.96895
 -10  -4   3 272.442 241.477   8-0.70102-0.02553-0.22713-0.10676-0.79773 0.97066
   9   4  -3 120.338 128.421   7 0.74521-0.09853 0.12218 0.21128 0.78607-0.97326
   9  -4  -3 37.1929 89.6655   3 0.62619 0.02076-0.38211 0.04793 0.78678-0.97619
  -9   4   3 67.2711 149.835   5-0.67107 0.02363 0.29371 0.03996-0.79650 0.98499
  -9  -4   3 -199.23 152.591   8-0.70195 0.05417-0.22754-0.10635-0.79682 0.98483
  -8  -4   3 230.169 174.041   8-0.70865 0.13965-0.23055-0.10336-0.79018 0.99328
   8   4  -3 130.248 119.716   7 0.75588-0.18799 0.12441 0.20905 0.77559-0.97784
  -8  -4   3 275.096 234.786   4 0.15615-0.72448-0.13535-0.19784 0.99017-0.78679
   8  -4  -3 600.682 212.361   9-0.16281 0.73061-0.15037-0.18358-0.98831 0.78526
   8  -4  -3 530.017 179.804   3 0.62722-0.05911-0.38325 0.04914 0.78542-0.98991
  -8   4   3 433.919 189.092   5-0.67519 0.10649 0.29654 0.03716-0.79207 0.99565
  -7  -4   3 221.777 171.235   8-0.72228 0.23207-0.23670-0.09723-0.77611 0.99432
   7   4  -3 -103.79 84.0223   7 0.77458-0.28548 0.12832 0.20511 0.75614-0.97344
  -7  -4   3 -25.944 187.160   4 0.19533-0.68492-0.02945-0.30401 0.99955-0.78108
   7   4  -3 124.292 155.552   1-0.19903 0.68740 0.03273 0.30030-0.99942 0.78069
   7  -4  -3 -287.06 180.739   9-0.20386 0.69290-0.04463-0.28918-0.99893 0.78083
   7  -4  -3 118.208 112.621   3 0.63294-0.14367-0.38953 0.05551 0.77772-0.99728
  -7   4   3 48.0051 116.824   5-0.68524 0.19532 0.30352 0.03020-0.78087 0.99955
   6   4  -3 133.191 117.065   1-0.21859 0.62823-0.08903 0.42187-0.99565 0.76198
  -6  -4   3 7.11937 107.888   4 0.23002-0.64082 0.07087-0.40459 0.99670-0.76311
  10   5  -3 136.659 175.972   7 0.75898-0.03351 0.12505 0.29190 0.77246-0.94451
  10  -5  -3 123.232 114.584   3 0.62872 0.09717-0.38488-0.03288 0.78343-0.95776
  -9  -5   3 647.332 300.735   8-0.71209 0.06429-0.23209-0.18519-0.78671 0.97472
   9   5  -3 292.195 163.598   7 0.76407-0.11741 0.12612 0.29082 0.76725-0.95437
  -9   5   3 120.775 113.749   2-0.57270-0.07482 0.46063-0.04271-0.77505 0.96354
   9  -5  -3 271.674 175.060   3 0.62587 0.02117-0.38176-0.03592 0.78720-0.97662
  -9   5   3 372.995 215.117   5-0.67614 0.02870 0.29720 0.11985-0.79103 0.97957
  -8  -5   3 -343.24 246.347   8-0.71918 0.15016-0.23529-0.18201-0.77938 0.98248
   8   5  -3 -130.59 145.845   7 0.77571-0.20784 0.12856 0.28836 0.75491-0.95710
  -8  -5   3 -42.010 209.970   4 0.14342-0.71167-0.16830-0.24840 0.98461-0.78124
  -8   5   3 286.304 158.268   2-0.57122 0.00248 0.45817-0.04022-0.77762 0.98118
   8  -5  -3 176.348 145.046   9-0.15037 0.71821-0.18099-0.23638-0.98279 0.77973
   8  -5  -3 101.155 124.075   3 0.62682-0.05863-0.38280-0.03479 0.78595-0.99047
  -8   5   3 97.5044 140.843   5-0.68034 0.11167 0.30011 0.11697-0.78640 0.99001
  -7  -5   3 191.554 284.650   8-0.73289 0.24267-0.24153-0.17580-0.76459 0.98280
   7   5  -3 182.101 200.627   1-0.18868 0.67704 0.09038 0.32611-0.99588 0.77720
  -7  -5   3 43.7066 181.464   4 0.17788-0.66736-0.07751-0.33944 0.99688-0.77843
  -7   5   3 281.557 171.973   2-0.57304 0.08309 0.46121-0.04323-0.77445 0.99309
   7  -5  -3 359.251 194.658   9-0.18650 0.67556-0.09026-0.32698-0.99594 0.77781
   7  -5  -3 412.624 164.318   3 0.63216-0.14280-0.38866-0.02885 0.77880-0.99838
  -7   5   3 343.092 163.988   5-0.69018 0.20028 0.30697 0.11015-0.77520 0.99390
  -9  -6   3 250.376 331.870   8-0.72694 0.07914-0.23881-0.26186-0.77112 0.95914
  -9   6   3 14.1612 102.011   2-0.57266-0.07482 0.46056 0.04077-0.77512 0.96364
   9  -6  -3 569.217 269.869   3 0.62970 0.01741-0.38596-0.11522 0.78212-0.97154
  -9   6   3 159.720 165.884   5-0.68564 0.03822 0.30380 0.19662-0.78042 0.96901
  -8  -6   3 -337.74 332.401   8-0.73463 0.16561-0.24232-0.25838-0.76265 0.96576
  -8  -6   3 216.155 397.233   4 0.12941-0.69757-0.20376-0.29644 0.97719-0.77383
  -8   6   3 644.160 234.094   2-0.57129 0.00257 0.45826 0.04309-0.77752 0.98111
   8  -6  -3 832.318 309.360   9-0.13644 0.70431-0.21462-0.28618-0.97543 0.77236
   8  -6  -3 1135.00 294.877   3 0.63077-0.06250-0.38714-0.11396 0.78067-0.98519
  -8   6   3 478.438 186.172   5-0.69017 0.12151 0.30697 0.19350-0.77520 0.97887
  -7  -6   3 23.6538 296.854   4 0.16017-0.64954-0.12482-0.37565 0.99168-0.77324
  -7   6   3 508.056 205.624   2-0.57298 0.08304 0.46110 0.04030-0.77456 0.99323
   7  -6  -3 903.434 276.821   9-0.16869 0.65780-0.13564-0.36502-0.99057 0.77244
   7  -6  -3 803.379 241.610   3 0.63595-0.14653-0.39285-0.10815 0.77358-0.99318
   7   6  -3 872.568 342.679   1-0.17830 0.66666 0.14461 0.35534-0.98938 0.77077
   6   6  -3 296.880 185.062   1-0.19501 0.60464 0.05565 0.44409-0.99842 0.76482
  -6  -6   3 -79.534 129.072   4 0.18778-0.59832-0.05045-0.45028 0.99870-0.76514
  -8  -7   3 -192.37 328.783   4 0.11437-0.68242-0.24101-0.34270 0.96775-0.76440
  -8   7   3 273.831 198.499   2-0.57455 0.00586 0.46371 0.12106-0.77180 0.97544
   8  -7  -3 -27.334 201.993   3 0.63830-0.06996-0.39545-0.18915 0.77029-0.97480
  -7  -7   3 -37.774 187.896   4 0.14214-0.63139-0.17160-0.41237 0.98399-0.76554
   7   7  -3 157.868 227.421   1-0.16775 0.65611 0.19661 0.38681-0.98021 0.76168
   5   7  -3 120.638 111.288   1-0.19611 0.52707 0.04943 0.53361-0.99875 0.75020
  -5  -7   3 -5.3420 102.219   4 0.18929-0.52084-0.04627-0.53818 0.99891-0.75022
  -7  -8   3 49.1050 209.020   4 0.12370-0.61284-0.21801-0.44946 0.97379-0.75533
   0   0   0    0.00    0.00
   1  -2   1 21.1213 24.5609   9 0.05635 0.04326-0.61332 0.44620-0.76269 0.88579
   5   6  -3 -40.844 74.8934   1-0.20847 0.53942-0.02357 0.52314-0.99958 0.75100
  -5  -6   3 -0.1507 80.7496   4 0.21228-0.54397 0.01870-0.51966 0.99960-0.75090
   6   7  -3 -73.239 125.729   1-0.18331 0.59295 0.11885 0.46435-0.99285 0.75930
  -6  -7   3 -46.659 116.510   4 0.16708-0.57750-0.10650-0.47771 0.99400-0.76044
  -6  -3   3 -187.79 227.482   8-0.74005 0.32868-0.24480-0.00572-0.75653 0.98987
   6   3  -3 3.71697 81.0135   1-0.23076 0.64040-0.17702 0.42645-0.98331 0.74963
  -6  -3   3 -53.053 97.4172   4 0.25219-0.66311 0.13887-0.38907 0.98827-0.75465
   0  -4   1 217.179 54.5991   7 0.63047-0.60972 0.09877-0.43229 0.87635-0.76888
   0  -4  -1 330.529 129.557   9-0.26716 0.24662 0.13500-0.46852-0.98760 0.87970
   0  -4   1 306.942 120.413   4 0.25110-0.22993 0.13546-0.46973 0.98882-0.88074
   0   4   1 328.039 137.771   6 0.15569-0.13477-0.13586 0.47023 0.99009-0.88171
   0   4   1 243.949 130.992   2-0.56112 0.58160 0.44151-0.10726-0.79448 0.90274
   0   4  -1 324.188 130.457   6 0.34174-0.36229 0.46489-0.13147 0.86721-0.97506
   0  -4   1 305.967 133.375   9-0.02154 0.04247-0.46641 0.13239-0.87224 0.98016
   0   4  -1 486.161 129.960   1-0.22540 0.20465-0.13679 0.46997-0.98997 0.88207
   0  -5   2 65.3764 44.4587   4 0.28183-0.23982 0.23573-0.65377 0.96688-0.75052
   0   5  -2 11.2059 37.5099   1-0.23830 0.19683-0.23885 0.65499-0.96964 0.75394
  -1   7  -2 59.6801 50.8597   1-0.21361 0.09350-0.05610 0.63909-0.99818 0.76742
   1  -7   2 -52.249 67.9008   4 0.22504-0.10386 0.05603-0.64115 0.99784-0.76639
   1  -7   2 -80.600 103.054   9 0.05794 0.06263-0.61613 0.03154-0.76012 0.99110
   2  -8   2 -65.874 102.200   4 0.19586 0.00434-0.02797-0.64068 0.99959-0.75299
  -2   8  -2 -93.611 99.9212   1-0.20029 0.00156 0.02543 0.64103-0.99963 0.75385
   3   2   1 2581.03 211.104   7-0.16721 0.42442-0.05133 0.21843 0.93437-0.78118
  -6  -8   3 6.30123 146.501   4 0.14643-0.55671-0.16057-0.50713 0.98603-0.75246
   6   8  -3 -5.3252 128.376   1-0.17152 0.58118 0.17835 0.48834-0.98376 0.75029
  -4  -2   0 137.300 49.5608   4 0.02939-0.34429-0.43606 0.26975 0.88829-0.94846
  -4  -2   0 -135.58 100.101   8-0.19295-0.12216-0.01659-0.15017-0.99987 0.93952
   4   2   0 174.939 43.4010   6 0.20411 0.11137-0.00398 0.17124 0.99991-0.93945
   4  -2   0 187.039 26.4284   4 0.21269 0.10297 0.01989-0.18741 0.99957-0.93917
  -4  -2   0 -25.029 29.1803   9-0.25708-0.05774 0.10478-0.27143-0.99210 0.93183
   4  -2   0 51.9033 18.0853   6 0.21284 0.10228 0.02105-0.18767 0.99954-0.93933
  -4   2   0 149.244 26.0196   1-0.20595-0.10887-0.00814 0.17490-0.99986 0.93969
   4   2   0 143.698 69.4172   7 0.19402 0.12115 0.01460 0.15233 0.99989-0.93951
  -4   2   0 111.702 62.5993   8-0.21515-0.10002-0.02530 0.19214-0.99939 0.93914
   4  -2   0 151.407 49.9613   7 0.21118 0.10395 0.01781-0.18473 0.99964-0.93938
   4  -2   0 207.282 54.9191   9-0.03296 0.34812-0.44328 0.27605-0.88568 0.94603
   4   2  -1 -49.970 58.8740   7 0.48627-0.19196 0.07028 0.09650 0.94796-0.99530
  -4   2   1 7.93438 56.1289   2-0.40868 0.11403 0.21834-0.05127-0.94794 0.99562
   4   2  -1 187.464 70.5951   1-0.18923 0.48325 0.08741 0.07937-0.99614 0.94827
   4  -2  -1 -74.096 63.0734   7 0.55773-0.26339 0.08430-0.25127 0.91723-0.96466
   4  -2  -1 -16.523 60.6386   9-0.18775 0.48203-0.08700-0.08002-0.99623 0.94859
  -4  -2   1 -9.0869 60.1434   4 0.18014-0.47460-0.07135-0.09517 0.99737-0.94972
   4   2  -1 45.9310 50.8155   6 0.31863-0.02402 0.36955-0.20268 0.91783-0.96552
  -4   2   1 41.5214 57.8116   8-0.59737 0.30262-0.18172 0.34856-0.88104 0.92872
  -4  -2   1 0.23802 46.2895   5-0.62691 0.33217 0.26373-0.43053-0.83945 0.88716
   4  -2  -1 142.613 45.4332   1-0.23018 0.52424-0.17250 0.00547-0.98414 0.93614
  -4  -2   1 46.6444 66.5997   8-0.45968 0.16492-0.12377-0.04315-0.95117 0.99870
  -1   6  -2 64.2942 59.7323   1-0.22766 0.10756-0.15340 0.65293-0.98743 0.75668
   1  -6   2 -25.802 59.0727   4 0.25746-0.13642 0.15555-0.65719 0.98538-0.75389
   0  -6   2 318.928 118.192   4 0.24928-0.20715 0.12976-0.63128 0.98971-0.77340
   0   6  -2 477.470 120.597   1-0.22470 0.18323-0.13169 0.63125-0.99069 0.77496
   0  -6   2 -204.56 87.6381   9 0.06143-0.01967-0.62225 0.12118-0.75444 0.97037
  -4  -6   2 177.717 199.740   8-0.73085 0.45649-0.24059-0.26013-0.76685 0.92241
   4   6  -2 65.8875 103.207   1-0.19417 0.46724 0.06034 0.43962-0.99815 0.84245
  -4  -6   2 29.3333 83.5109   4 0.18574-0.45919-0.05603-0.44482 0.99840-0.84275
  -4   6   2 136.458 85.8946   6 0.23597-0.50984 0.08945 0.41179 0.99494-0.83880
   4  -6  -2 99.8281 105.563   9-0.19670 0.47037-0.06361-0.43690-0.99798 0.84244
  -4   6   2 104.104 94.8866   2-0.53239 0.25823 0.39591 0.10527-0.83615 0.99203
   4   6  -2 127.051 104.154   6 0.35163-0.07749 0.51020-0.00985 0.83783-0.99335
   4  -6  -2 355.515 146.860   3 0.59689-0.32309-0.35063-0.15024 0.82244-0.97897
  -4   6   2 -34.455 90.2793   5-0.66975 0.39568 0.29280 0.20772-0.79790 0.95384
   0   7  -2 97.9126 85.6193   1-0.21085 0.16938-0.03851 0.62152-0.99907 0.78334
   0   7   2 -52.893 73.5695   6 0.19231-0.15054-0.03716 0.62236 0.99930-0.78253
   0  -7   2 106.642 72.8336   4 0.21861-0.17634 0.03712-0.62212 0.99893-0.78265
   0  -7  -2 23.7912 67.0603   9-0.23365 0.19258 0.03706-0.62071-0.99836 0.78263
   0   7  -2 -34.683 48.1089   6 0.37068-0.41182 0.61164-0.02821 0.75713-0.97281
   0  -7   2 -4.5230 62.1938   9 0.05661-0.01479-0.61379 0.02926-0.76226 0.97817
   4   0   1 1029.97 181.997   7-0.12743 0.46344-0.04422 0.04433 0.94814-0.77995
  -1  10  -2 -62.811 101.491   1-0.17086 0.05082 0.18156 0.65192-0.98316 0.75254
;
_shelx_hkl_checksum              16743
loop_
_space_group_symop_operation_xyz
'x, y, z'
'-x+1/2, y+1/2, -z'
'-x, -y, -z'
'x-1/2, -y-1/2, z'
loop_
_atom_site_label
_atom_site_type_symbol
_atom_site_fract_x
_atom_site_fract_y
_atom_site_fract_z
_atom_site_U_iso_or_equiv
_atom_site_adp_type
_atom_site_occupancy
_atom_site_site_symmetry_order
_atom_site_calc_flag
_atom_site_refinement_flags_posn
_atom_site_refinement_flags_adp
_atom_site_refinement_flags_occupancy
_atom_site_disorder_assembly
_atom_site_disorder_group
C1 C 0.6763(8) 0.2833(7) 0.791(3) 0.029(14) Uani 1 1 d . . . . .
H1D H 0.698812 0.312599 0.933252 0.034 Uiso 1 1 calc R U . . .
H1E H 0.578782 0.234712 0.762817 0.034 Uiso 1 1 calc R U . . .
C2 C 0.7888(9) 0.1709(7) 0.746(4) 0.014(14) Uani 1 1 d . . . . .
N1 N 0.6770(7) 0.4246(6) 0.662(3) 0.039(12) Uani 1 1 d . . . . .
H1A H 0.639132 0.400536 0.533411 0.046 Uiso 1 1 calc R U . . .
H1B H 0.769793 0.458607 0.671629 0.046 Uiso 1 1 calc R U . . .
H1C H 0.622326 0.499677 0.704439 0.046 Uiso 1 1 calc R U . . .
O1 O 0.5309(8) 0.8646(7) 0.981(3) 0.027(13) Uani 1 1 d . . . . .
H1 H 0.536500 0.960937 0.983994 0.033 Uiso 0.5 1 calc DR U P . .
O2 O 0.4618(6) 0.6454(5) 0.729(2) 0.024(10) Uani 1 1 d . . . . .
O3 O 0.4445(6) 0.9271(6) 0.622(2) 0.036(12) Uani 1 1 d . . . . .
H3 H 0.488329 0.940221 0.527827 0.043 Uiso 0.5 1 calc DR U P . .
O4 O 0.8535(7) 0.1809(5) 0.609(2) 0.027(10) Uani 1 1 d . . . . .
O5 O 0.8078(7) 0.0538(5) 0.886(2) 0.020(10) Uani 1 1 d . . . . .
H5 H 0.869362 -0.009065 0.859856 0.024 Uiso 1 1 calc R U . . .
P1 P 0.5289(3) 0.8080(2) 0.7715(12) 0.042(4) Uani 1 1 d . . . . .
H1P H 0.631670 0.804220 0.750431 0.050 Uiso 1 1 calc R U . . .
loop_
_atom_site_aniso_label
_atom_site_aniso_U_11
_atom_site_aniso_U_22
_atom_site_aniso_U_33
_atom_site_aniso_U_23
_atom_site_aniso_U_13
_atom_site_aniso_U_12
C1 0.020(4) 0.016(3) 0.05(4) 0.004(7) -0.003(11) 0.001(3)
C2 0.016(4) 0.013(3) 0.01(4) 0.000(7) -0.002(12) -0.002(3)
N1 0.021(4) 0.017(3) 0.08(4) 0.016(6) 0.024(9) 0.004(2)
O1 0.042(4) 0.019(3) 0.03(4) -0.001(7) 0.020(11) 0.007(3)
O2 0.026(3) 0.016(2) 0.03(3) -0.002(5) 0.010(8) -0.007(2)
O3 0.027(3) 0.022(2) 0.06(4) 0.016(5) 0.001(8) 0.004(2)
O4 0.026(3) 0.018(2) 0.04(3) 0.005(5) 0.016(8) 0.004(2)
O5 0.038(3) 0.019(2) 0.01(3) 0.004(5) 0.011(8) 0.006(2)
P1 0.0201(12) 0.0122(10) 0.095(14) 0.002(2) 0.019(3) 0.0004(9)
loop_
_atom_type_symbol
_atom_type_description
_atom_type_scat_dispersion_real
_atom_type_scat_dispersion_imag
_atom_type_scat_source
C C 0.0033 0.0016 'International Tables Vol C Tables 4.2.6.8 and 6.1.1.4'
H H 0.0000 0.0000 'International Tables Vol C Tables 4.2.6.8 and 6.1.1.4'
N N 0.0061 0.0033 'International Tables Vol C Tables 4.2.6.8 and 6.1.1.4'
O O 0.0106 0.0060 'International Tables Vol C Tables 4.2.6.8 and 6.1.1.4'
P P 0.1023 0.0942 'International Tables Vol C Tables 4.2.6.8 and 6.1.1.4'
loop_
_geom_angle_atom_site_label_1
_geom_angle_atom_site_label_2
_geom_angle_atom_site_label_3
_geom_angle
_geom_angle_site_symmetry_1
_geom_angle_site_symmetry_3
_geom_angle_publ_flag
C2 C1 N1 109.1(13) . . ?
C2 C1 H1D 109.9 . . ?
N1 C1 H1D 109.9 . . ?
C2 C1 H1E 109.9 . . ?
N1 C1 H1E 109.9 . . ?
H1D C1 H1E 108.3 . . ?
O4 C2 O5 124.7(7) . . ?
O4 C2 C1 125.6(14) . . ?
O5 C2 C1 109.7(16) . . ?
C1 N1 H1A 109.5 . . ?
C1 N1 H1B 109.5 . . ?
H1A N1 H1B 109.5 . . ?
C1 N1 H1C 109.5 . . ?
H1A N1 H1C 109.5 . . ?
H1B N1 H1C 109.5 . . ?
P1 O1 H1 109.5 . . ?
P1 O3 H3 109.5 . . ?
C2 O5 H5 109.5 . . ?
O1 P1 O2 114.0(8) . . ?
O1 P1 O3 108.5(6) . . ?
O2 P1 O3 110.1(7) . . ?
O1 P1 H1P 108.0 . . ?
O2 P1 H1P 108.0 . . ?
O3 P1 H1P 108.0 . . ?
loop_
_geom_bond_atom_site_label_1
_geom_bond_atom_site_label_2
_geom_bond_distance
_geom_bond_site_symmetry_2
_geom_bond_publ_flag
C1 C2 1.477(13) . ?
C1 N1 1.478(15) . ?
C1 H1D 0.9700 . ?
C1 H1E 0.9700 . ?
C2 O4 1.19(2) . ?
C2 O5 1.356(18) . ?
N1 H1A 0.8900 . ?
N1 H1B 0.8900 . ?
N1 H1C 0.8900 . ?
O1 P1 1.48(2) . ?
O1 H1 0.8200 . ?
O2 P1 1.518(6) . ?
O3 P1 1.525(11) . ?
O3 H3 0.8200 . ?
O5 H5 0.8200 . ?
P1 H1P 0.9800 . ?
loop_
_geom_hbond_atom_site_label_D
_geom_hbond_atom_site_label_H
_geom_hbond_atom_site_label_A
_geom_hbond_distance_DH
_geom_hbond_distance_HA
_geom_hbond_distance_DA
_geom_hbond_angle_DHA
_geom_hbond_site_symmetry_A
_geom_hbond_publ_flag
N1 H1A O2 0.89 1.86 2.75(2) 173.3 3_666 yes
N1 H1B O3 0.89 1.95 2.816(7) 162.5 4_675 yes
N1 H1C O2 0.89 1.95 2.819(7) 163.6 . yes
O1 H1 O1 0.82 1.64 2.394(12) 151.8 3_677 yes
O3 H3 O3 0.82 1.70 2.428(19) 146.3 3_676 yes
O5 H5 O2 0.82 1.77 2.557(10) 161.7 4_665 yes
loop_
_geom_torsion_atom_site_label_1
_geom_torsion_atom_site_label_2
_geom_torsion_atom_site_label_3
_geom_torsion_atom_site_label_4
_geom_torsion
_geom_torsion_site_symmetry_1
_geom_torsion_site_symmetry_2
_geom_torsion_site_symmetry_3
_geom_torsion_site_symmetry_4
_geom_torsion_publ_flag
N1 C1 C2 O4 -10(2) . . . . ?
N1 C1 C2 O5 169.4(10) . . . . ?

_cod_database_fobs_code 2109040
