#------------------------------------------------------------------------------
#$Date: 2022-06-09 04:56:52 +0300 (Thu, 09 Jun 2022) $
#$Revision: 275937 $
#$URL: file:///home/coder/svn-repositories/cod/cif/2/10/90/2109002.cif $
#------------------------------------------------------------------------------
#
# This file is available in the Crystallography Open Database (COD),
# http://www.crystallography.net/. The original data for this entry
# were provided by IUCr Journals, http://journals.iucr.org/.
#
# The file may be used within the scientific community so long as
# proper attribution is given to the journal article from which the
# data were obtained.
#
data_2109002
loop_
_publ_author_name
'Hoser, Anna Agnieszka'
'Rekis, Toms'
'Madsen, Anders \/Ostergaard'
_publ_section_title
;
 Dynamics and disorder: on the stability of pyrazinamide polymorphs
;
_journal_issue                   '3 Part 1'
_journal_name_full               'Acta Crystallographica Section B'
_journal_page_first              416
_journal_page_last               424
_journal_paper_doi               10.1107/S2052520622004577
_journal_volume                  78
_journal_year                    2022
_chemical_formula_sum            'C5 H5 N3 O'
_chemical_formula_weight         123.1
_chemical_name_common            Pyrazinamide
_space_group_IT_number           14
_space_group_name_Hall           '-P 2ybc'
_space_group_name_H-M_alt        'P 1 21/c 1'
_symmetry_cell_setting           monoclinic
_symmetry_Int_Tables_number      14
_symmetry_space_group_name_Hall  '-P 2ybc'
_symmetry_space_group_name_H-M   'P 1 21/c 1'
_cell_angle_alpha                90
_cell_angle_beta                 101.169(7)
_cell_angle_gamma                90
_cell_formula_units_Z            4
_cell_length_a                   14.3280(3)
_cell_length_b                   3.6330(13)
_cell_length_c                   10.6280(17)
_cell_measurement_reflns_used    47668
_cell_measurement_temperature    122
_cell_measurement_theta_max      50.01
_cell_measurement_theta_min      1.45
_cell_volume                     542.7(2)
_diffrn_ambient_temperature      122
_diffrn_measured_fraction_theta_full 1
_diffrn_measured_fraction_theta_max 1
_diffrn_measurement_device_type  'Nonius Kappa CCD'
_diffrn_radiation_probe          x-ray
_diffrn_radiation_source         'X-ray tube'
_diffrn_radiation_type           'Mo K\a'
_diffrn_radiation_wavelength     0.71073
_diffrn_reflns_av_R_equivalents  0.0392
_diffrn_reflns_av_unetI/netI     0.0503
_diffrn_reflns_limit_h_max       30
_diffrn_reflns_limit_h_min       -30
_diffrn_reflns_limit_k_max       7
_diffrn_reflns_limit_k_min       -7
_diffrn_reflns_limit_l_max       22
_diffrn_reflns_limit_l_min       -22
_diffrn_reflns_number            47668
_diffrn_reflns_theta_full        50.01
_diffrn_reflns_theta_max         50.01
_diffrn_reflns_theta_min         1.45
_exptl_absorpt_coefficient_mu    0.112
_exptl_crystal_colour            colorless
_exptl_crystal_density_diffrn    1.5067
_exptl_crystal_description       prism
_exptl_crystal_F_000             256
_refine_diff_density_max         0.61
_refine_diff_density_min         -0.28
_refine_ls_extinction_method     none
_refine_ls_goodness_of_fit_gt    3.35
_refine_ls_goodness_of_fit_ref   2.73
_refine_ls_hydrogen_treatment    constr
_refine_ls_number_constraints    0
_refine_ls_number_parameters     82
_refine_ls_number_reflns         5683
_refine_ls_number_restraints     0
_refine_ls_R_factor_all          0.0661
_refine_ls_R_factor_gt           0.0370
_refine_ls_shift/su_max          0.0072
_refine_ls_shift/su_mean         0.0005
_refine_ls_structure_factor_coef F
_refine_ls_weighting_details     w=1/(\s^2^(F)+0.0001F^2^)
_refine_ls_weighting_scheme      sigma
_refine_ls_wR_factor_gt          0.0558
_refine_ls_wR_factor_ref         0.0567
_reflns_number_gt                3664
_reflns_number_total             5683
_reflns_threshold_expression     I>3\s(I)
_cod_data_source_file            so5076sup1.cif
_cod_data_source_block           beta122K
_cod_depositor_comments
;
The following automatic conversions were performed:

data item '_diffrn_radiation_probe' value 'X-ray' was changed to
'x-ray' in accordance with the
/home/data/users/saulius/crontab/automatic-downloads/rss-feeds/IUCr/lib/dictionaries/cif_core.dic
dictionary named 'cif_core.dic' version 2.4.2 last updated on
2011-04-26.

Automatic conversion script
Id: cif_fix_values 7556 2019-12-06 15:28:31Z antanas 
;
_cod_original_sg_symbol_Hall     '-P 2ycb'
_cod_original_formula_sum        'C5 H5 N3 O1'
_cod_database_code               2109002
loop_
_space_group_symop_id
_space_group_symop_operation_xyz
1 x,y,z
2 -x,y+1/2,-z+1/2
3 -x,-y,-z
4 x,-y+1/2,z+1/2
loop_
_atom_site_label
_atom_site_type_symbol
_atom_site_fract_x
_atom_site_fract_y
_atom_site_fract_z
_atom_site_adp_type
_atom_site_U_iso_or_equiv
_atom_site_site_symmetry_multiplicity
_atom_site_occupancy
_atom_site_calc_flag
_atom_site_refinement_flags
_atom_site_disorder_assembly
_atom_site_disorder_group
O1 O 0.10104(2) 0.08967(10) 0.13054(3) Uani 0.01714(8) 4 1 d . . .
N2 N 0.26707(3) 0.52114(11) -0.03056(3) Uani 0.01258(8) 4 1 d . . .
N3 N 0.08433(2) 0.26399(12) -0.07818(3) Uani 0.01675(9) 4 1 d . . .
N1 N 0.37652(3) 0.48180(12) 0.21780(3) Uani 0.01501(9) 4 1 d . . .
C4 C 0.35746(3) 0.63614(13) -0.00370(4) Uani 0.01372(9) 4 1 d . . .
C2 C 0.41194(3) 0.61422(13) 0.11939(4) Uani 0.01401(9) 4 1 d . . .
C1 C 0.23198(3) 0.38497(11) 0.06739(4) Uani 0.01089(8) 4 1 d . . .
C5 C 0.28601(3) 0.36893(13) 0.19127(4) Uani 0.01363(9) 4 1 d . . .
C3 C 0.13210(2) 0.23566(12) 0.04176(4) Uani 0.01257(9) 4 1 d . . .
H1n3 H 0.111103 0.364314 -0.136541 Uiso 0.0201 4 1 d . . .
H2n3 H 0.026283 0.182203 -0.098338 Uiso 0.0201 4 1 d . . .
H1c4 H 0.385442 0.736548 -0.071296 Uiso 0.0165 4 1 d . . .
H1c2 H 0.476822 0.696444 0.134195 Uiso 0.0168 4 1 d . . .
H1c5 H 0.257526 0.274435 0.25931 Uiso 0.0163 4 1 d . . .
loop_
_atom_site_aniso_label
_atom_site_aniso_type_symbol
_atom_site_aniso_U_11
_atom_site_aniso_U_22
_atom_site_aniso_U_33
_atom_site_aniso_U_12
_atom_site_aniso_U_13
_atom_site_aniso_U_23
O1 O 0.01318(13) 0.02322(17) 0.01516(12) -0.00382(11) 0.00314(10) 0.00270(12)
N2 N 0.01145(13) 0.01548(15) 0.01071(12) -0.00073(11) 0.00193(10) 0.00007(11)
N3 N 0.01118(13) 0.02421(19) 0.01374(14) -0.00358(13) -0.00037(11) 0.00194(13)
N1 N 0.01150(13) 0.02144(17) 0.01149(13) -0.00029(13) 0.00068(10) -0.00097(12)
C4 C 0.01220(14) 0.01673(17) 0.01258(14) -0.00136(13) 0.00323(11) 0.00041(13)
C2 C 0.01049(14) 0.01750(18) 0.01385(15) -0.00168(13) 0.00189(11) -0.00182(13)
C1 C 0.00965(13) 0.01226(15) 0.01059(13) 0.00048(12) 0.00154(10) -0.00025(12)
C5 C 0.01159(14) 0.01849(18) 0.01063(14) -0.00022(13) 0.00177(11) 0.00119(13)
C3 C 0.01008(14) 0.01405(16) 0.01336(14) -0.00013(12) 0.00176(11) -0.00024(13)
loop_
_atom_type_symbol
_atom_type_scat_dispersion_real
_atom_type_scat_dispersion_imag
_atom_type_scat_source
C 0.0033 0.0016 'International Tables Vol C tables 4.2.6.8 and 6.1.1.1'
H 0.0000 0.0000 'International Tables Vol C tables 4.2.6.8 and 6.1.1.1'
N 0.0061 0.0033 'International Tables Vol C tables 4.2.6.8 and 6.1.1.1'
O 0.0106 0.0060 'International Tables Vol C tables 4.2.6.8 and 6.1.1.1'
loop_
_diffrn_standard_refln_index_h
_diffrn_standard_refln_index_k
_diffrn_standard_refln_index_l
? ? ?
loop_
_exptl_crystal_face_index_h
_exptl_crystal_face_index_k
_exptl_crystal_face_index_l
_exptl_crystal_face_perp_dist
? ? ? ?
loop_
_geom_angle_atom_site_label_1
_geom_angle_atom_site_label_2
_geom_angle_atom_site_label_3
_geom_angle_site_symmetry_1
_geom_angle_site_symmetry_2
_geom_angle_site_symmetry_3
_geom_angle
_geom_angle_publ_flag
C4 N2 C1 . . . 116.38(3) ?
C3 N3 H1n3 . . . 120 ?
C3 N3 H2n3 . . . 120 ?
H1n3 N3 H2n3 . . . 120 ?
C2 N1 C5 . . . 116.42(3) ?
N2 C4 C2 . . . 121.80(4) ?
N2 C4 H1c4 . . . 119.1 ?
C2 C4 H1c4 . . . 119.1 ?
N1 C2 C4 . . . 121.85(4) ?
N1 C2 H1c2 . . . 119.07 ?
C4 C2 H1c2 . . . 119.07 ?
N2 C1 C5 . . . 121.86(4) ?
N2 C1 C3 . . . 118.73(3) ?
C5 C1 C3 . . . 119.39(4) ?
N1 C5 C1 . . . 121.68(4) ?
N1 C5 H1c5 . . . 119.16 ?
C1 C5 H1c5 . . . 119.16 ?
O1 C3 N3 . . . 124.74(4) ?
O1 C3 C1 . . . 119.08(3) ?
N3 C3 C1 . . . 116.15(4) ?
loop_
_geom_bond_atom_site_label_1
_geom_bond_atom_site_label_2
_geom_bond_site_symmetry_1
_geom_bond_site_symmetry_2
_geom_bond_distance
_geom_bond_publ_flag
O1 C3 . . 1.2379(6) ?
N2 C4 . . 1.3379(6) ?
N2 C1 . . 1.3357(6) ?
N3 C3 . . 1.3289(6) ?
N3 H1n3 . . 0.87 ?
N3 H2n3 . . 0.87 ?
N1 C2 . . 1.3374(7) ?
N1 C5 . . 1.3370(6) ?
C4 C2 . . 1.3898(7) ?
C4 H1c4 . . 0.96 ?
C2 H1c2 . . 0.96 ?
C1 C5 . . 1.3933(7) ?
C1 C3 . . 1.5050(5) ?
C5 H1c5 . . 0.96 ?
loop_
_geom_hbond_atom_site_label_D
_geom_hbond_atom_site_label_H
_geom_hbond_atom_site_label_A
_geom_hbond_site_symmetry_D
_geom_hbond_site_symmetry_H
_geom_hbond_site_symmetry_A
_geom_hbond_distance_DH
_geom_hbond_distance_HA
_geom_hbond_distance_DA
_geom_hbond_angle_DHA
_geom_hbond_publ_flag
N3 H1n3 O1 . . 4_554 0.87 2.46 3.1955(11) 143.02 ?
N3 H2n3 O1 . . 3_555 0.87 2.04 2.9056(6) 170.34 ?
C4 H1c4 N1 . . 4_564 0.96 2.44 3.3279(11) 152.87 ?
C5 H1c5 N2 . . 4_555 0.96 2.46 3.3366(11) 152.09 ?
loop_
_geom_torsion_atom_site_label_1
_geom_torsion_atom_site_label_2
_geom_torsion_atom_site_label_3
_geom_torsion_atom_site_label_4
_geom_torsion_site_symmetry_1
_geom_torsion_site_symmetry_2
_geom_torsion_site_symmetry_3
_geom_torsion_site_symmetry_4
_geom_torsion
_geom_torsion_publ_flag
? ? ? ? ? ? ? ? ? ?
loop_
_refln_index_h
_refln_index_k
_refln_index_l
_refln_F_squared_calc
_refln_F_squared_meas
_refln_F_squared_sigma
_refln_observed_status
1 0 0 25.36 8.00 0.22 o
3 0 0 605.16 603.00 10.73 o
4 0 0 2449.85 2402.07 60.25 o
5 0 0 1063.35 1041.81 11.78 o
6 0 0 3961.05 4176.85 74.21 o
7 0 0 39.10 47.08 0.49 o
8 0 0 1704.83 1848.41 17.67 o
9 0 0 11.27 19.15 0.26 o
10 0 0 125.15 128.35 1.17 o
11 0 0 381.36 385.44 3.36 o
12 0 0 2.34 2.52 0.11 o
13 0 0 6.82 7.14 0.18 o
14 0 0 75.69 49.59 0.63 o
15 0 0 48.46 43.41 0.59 o
16 0 0 93.14 81.61 1.04 o
17 0 0 1.71 2.01 0.30 o
18 0 0 38.91 37.48 0.70 o
19 0 0 2.16 2.51 0.35 o
20 0 0 45.81 46.55 0.85 o
21 0 0 19.50 18.73 0.54 o
22 0 0 189.32 190.02 2.52 o
23 0 0 2.97 3.28 0.63 o
24 0 0 1.03 1.58 0.70 <
25 0 0 1.48 3.42 0.96 o
26 0 0 0.63 0.49 1.04 <
27 0 0 1.22 1.92 1.03 <
28 0 0 31.59 35.63 1.51 o
29 0 0 4.99 5.69 2.56 <
30 0 0 3.57 3.91 2.30 <
3 1 0 64.46 59.94 0.66 o
4 1 0 811.99 831.61 6.36 o
5 1 0 165.91 186.78 1.30 o
6 1 0 653.23 737.37 5.01 o
7 1 0 395.98 422.70 2.79 o
8 1 0 153.70 155.35 1.03 o
9 1 0 39.01 42.84 0.32 o
10 1 0 0.52 0.87 0.08 o
11 1 0 52.55 47.63 0.37 o
12 1 0 7.60 2.98 0.10 o
13 1 0 3.07 1.22 0.12 o
14 1 0 133.95 112.58 0.82 o
15 1 0 5.20 4.22 0.18 o
16 1 0 25.70 25.04 0.34 o
17 1 0 0.44 0.75 0.20 o
18 1 0 5.45 5.92 0.24 o
19 1 0 12.99 14.93 0.32 o
20 1 0 236.30 241.46 2.28 o
21 1 0 29.21 29.41 0.54 o
22 1 0 5.35 6.17 0.40 o
23 1 0 1.06 2.39 0.45 o
24 1 0 11.43 11.04 0.57 o
25 1 0 10.64 10.94 0.63 o
26 1 0 9.64 9.44 0.82 o
27 1 0 0.19 -0.91 0.97 <
28 1 0 1.22 1.86 1.10 <
29 1 0 3.49 3.16 1.33 <
30 1 0 1.25 1.42 1.72 <
0 2 0 24.11 38.70 0.45 o
1 2 0 407.89 444.14 3.14 o
2 2 0 218.56 229.60 1.59 o
3 2 0 195.43 235.77 1.58 o
4 2 0 68.04 82.56 0.57 o
5 2 0 124.46 144.58 0.99 o
6 2 0 44.12 52.14 0.39 o
7 2 0 0.86 0.84 0.07 o
8 2 0 107.38 115.14 0.77 o
9 2 0 87.98 94.37 0.65 o
10 2 0 0.13 0.02 0.10 <
11 2 0 83.70 66.21 0.50 o
12 2 0 11.35 7.64 0.16 o
13 2 0 26.92 21.00 0.25 o
14 2 0 68.63 76.72 0.65 o
15 2 0 18.76 15.89 0.27 o
16 2 0 2.78 3.09 0.24 o
17 2 0 9.68 11.32 0.29 o
18 2 0 88.14 89.09 0.98 o
19 2 0 171.68 175.97 1.73 o
20 2 0 0.94 1.88 0.31 o
21 2 0 0.08 0.21 0.41 <
22 2 0 5.09 4.41 0.43 o
23 2 0 39.42 40.93 0.73 o
24 2 0 17.33 17.79 0.60 o
25 2 0 26.68 28.29 0.85 o
26 2 0 14.18 13.38 0.94 o
27 2 0 15.68 16.05 1.20 o
28 2 0 3.57 3.87 1.32 <
29 2 0 10.03 11.23 1.53 o
1 3 0 0.07 0.07 0.10 <
2 3 0 2.43 2.62 0.10 o
3 3 0 115.24 137.12 0.97 o
4 3 0 3.48 4.40 0.12 o
5 3 0 18.69 23.92 0.25 o
6 3 0 1.64 2.00 0.12 o
7 3 0 1.39 1.17 0.14 o
8 3 0 53.37 55.58 0.50 o
9 3 0 0.69 0.10 0.16 <
10 3 0 0.00 0.40 0.22 <
11 3 0 78.37 69.81 0.76 o
12 3 0 0.36 0.50 0.20 <
13 3 0 3.12 2.90 0.21 o
14 3 0 126.97 126.86 1.27 o
15 3 0 37.80 35.12 0.52 o
16 3 0 83.79 82.67 0.92 o
17 3 0 111.04 114.05 1.49 o
18 3 0 4.33 5.49 0.38 o
19 3 0 43.81 44.91 0.75 o
20 3 0 10.39 10.64 0.49 o
21 3 0 52.84 52.77 0.86 o
22 3 0 91.54 92.42 1.12 o
23 3 0 0.34 1.12 1.41 <
24 3 0 3.23 1.07 0.88 <
25 3 0 19.78 22.02 1.40 o
26 3 0 5.81 5.00 1.35 o
27 3 0 5.05 5.08 1.53 o
0 4 0 12.37 12.98 0.35 o
1 4 0 42.15 46.41 0.53 o
2 4 0 11.72 12.80 0.24 o
3 4 0 12.28 13.57 0.25 o
4 4 0 16.34 18.31 0.29 o
5 4 0 26.33 28.83 0.37 o
6 4 0 4.10 4.53 0.23 o
7 4 0 5.17 5.37 0.21 o
8 4 0 18.69 18.09 0.32 o
9 4 0 34.71 33.37 0.51 o
10 4 0 12.16 11.09 0.31 o
11 4 0 18.50 18.86 0.43 o
12 4 0 8.39 8.34 0.38 o
13 4 0 3.45 2.55 0.33 o
14 4 0 5.24 5.03 0.33 o
15 4 0 98.69 98.73 1.09 o
16 4 0 92.87 93.16 1.13 o
17 4 0 204.26 201.93 2.11 o
18 4 0 2.18 1.28 0.49 <
19 4 0 0.48 -0.87 0.63 <
20 4 0 32.14 35.15 0.77 o
21 4 0 0.73 1.46 0.91 <
22 4 0 0.80 0.40 0.97 <
23 4 0 54.06 51.09 1.18 o
24 4 0 14.21 13.07 1.46 o
25 4 0 5.78 5.72 1.40 o
26 4 0 2.76 2.45 2.46 <
1 5 0 3.24 3.66 0.25 o
2 5 0 2.76 3.47 0.24 o
3 5 0 187.56 193.66 1.86 o
4 5 0 0.01 -0.22 0.25 <
5 5 0 80.14 78.56 0.85 o
6 5 0 5.87 5.16 0.28 o
7 5 0 7.80 7.97 0.37 o
8 5 0 20.88 21.03 0.49 o
9 5 0 2.39 1.98 0.43 o
10 5 0 1.73 2.11 0.38 o
11 5 0 0.03 -0.18 0.44 <
12 5 0 0.03 -0.07 0.46 <
13 5 0 0.59 0.49 0.47 <
14 5 0 0.02 -0.84 0.51 <
15 5 0 0.25 0.52 0.72 <
16 5 0 0.10 -0.43 0.71 <
17 5 0 21.04 18.74 0.83 o
18 5 0 0.07 1.03 0.77 <
19 5 0 15.11 14.23 0.91 o
20 5 0 0.12 -0.65 1.04 <
21 5 0 2.72 2.22 1.54 <
22 5 0 3.78 2.89 1.86 <
23 5 0 0.01 0.78 1.54 <
0 6 0 6.35 6.83 0.67 o
1 6 0 26.28 25.90 0.56 o
2 6 0 6.59 6.45 0.47 o
3 6 0 25.96 25.68 0.55 o
4 6 0 11.52 10.27 0.48 o
5 6 0 6.52 6.74 0.50 o
6 6 0 7.07 7.88 0.66 o
7 6 0 0.20 0.05 0.52 <
8 6 0 0.13 -0.76 0.74 <
9 6 0 25.62 24.99 0.84 o
10 6 0 5.93 5.43 0.84 o
11 6 0 14.21 13.94 0.68 o
12 6 0 3.60 3.34 0.88 o
13 6 0 1.35 1.39 0.79 <
14 6 0 0.29 -0.48 0.86 <
15 6 0 0.63 2.18 1.07 <
16 6 0 1.14 0.90 1.34 <
17 6 0 1.40 0.33 1.62 <
18 6 0 3.10 2.87 1.63 <
19 6 0 4.30 2.26 2.23 <
1 7 0 15.74 12.77 0.93 o
2 7 0 22.67 19.88 0.99 o
3 7 0 9.69 6.95 0.94 o
4 7 0 3.62 2.32 0.96 <
5 7 0 6.14 5.96 0.90 o
6 7 0 10.07 8.54 0.92 o
7 7 0 5.58 5.14 1.15 o
8 7 0 2.60 0.91 1.47 <
9 7 0 2.43 3.11 1.61 <
10 7 0 0.35 1.87 1.31 <
11 7 0 0.13 0.09 1.58 <
12 7 0 0.01 -1.47 1.80 <
13 7 0 0.01 -0.34 1.77 <
-30 1 1 3.34 4.25 1.59 <
-29 1 1 0.95 1.14 1.54 <
-28 1 1 12.92 16.48 1.45 o
-27 1 1 16.00 16.88 2.23 o
-26 1 1 6.45 6.24 0.73 o
-25 1 1 33.32 36.20 0.74 o
-24 1 1 21.80 22.62 0.51 o
-23 1 1 25.44 25.25 0.54 o
-22 1 1 122.08 126.01 1.34 o
-21 1 1 88.45 90.26 1.02 o
-20 1 1 69.19 69.41 0.80 o
-19 1 1 19.72 22.00 0.40 o
-18 1 1 1.43 0.79 0.23 o
-17 1 1 47.53 41.36 0.45 o
-16 1 1 17.72 13.84 0.25 o
-15 1 1 24.37 21.66 0.27 o
-14 1 1 138.01 114.65 0.86 o
-13 1 1 154.59 126.66 0.84 o
-12 1 1 43.53 36.33 0.30 o
-11 1 1 44.36 45.84 0.35 o
-10 1 1 338.36 349.22 2.07 o
-9 1 1 65.40 75.17 0.49 o
-8 1 1 710.01 780.34 4.44 o
-7 1 1 0.06 1.00 0.05 o
-6 1 1 35.20 34.20 0.26 o
-5 1 1 140.86 155.79 1.05 o
-4 1 1 74.78 90.90 0.73 o
-3 1 1 333.56 379.24 3.21 o
-1 1 1 134.02 145.07 1.84 o
2 1 1 111.69 115.12 1.34 o
3 1 1 516.42 536.29 4.80 o
4 1 1 871.55 970.87 7.79 o
5 1 1 239.81 277.18 1.90 o
6 1 1 939.47 1039.86 7.05 o
7 1 1 18.28 20.45 0.19 o
8 1 1 18.15 17.47 0.18 o
9 1 1 282.82 298.63 2.01 o
10 1 1 24.62 22.65 0.22 o
11 1 1 6.63 6.60 0.13 o
12 1 1 108.03 129.29 0.91 o
13 1 1 31.71 30.73 0.29 o
14 1 1 15.91 11.10 0.19 o
15 1 1 2.59 2.94 0.18 o
16 1 1 0.00 -0.06 0.17 <
17 1 1 0.07 0.20 0.20 <
18 1 1 25.45 25.70 0.44 o
19 1 1 12.13 12.73 0.33 o
20 1 1 6.87 6.49 0.31 o
21 1 1 0.43 0.17 0.34 <
22 1 1 1.41 1.24 0.43 <
23 1 1 11.99 11.73 0.47 o
24 1 1 0.90 1.76 0.57 o
25 1 1 2.63 3.12 0.55 o
26 1 1 30.86 33.01 0.87 o
27 1 1 3.34 3.34 1.04 o
28 1 1 14.90 14.92 1.18 o
29 1 1 0.59 0.89 1.55 <
-29 2 1 3.34 3.21 1.99 <
-28 2 1 0.65 2.35 1.67 <
-27 2 1 14.30 15.52 1.34 o
-26 2 1 0.42 0.96 0.89 <
-25 2 1 21.91 22.41 0.92 o
-24 2 1 3.45 4.06 0.65 o
-23 2 1 9.05 8.75 0.52 o
-22 2 1 20.59 22.76 0.57 o
-21 2 1 22.09 23.86 0.51 o
-20 2 1 24.05 23.27 0.47 o
-19 2 1 223.74 227.87 2.17 o
-18 2 1 0.00 0.35 0.23 <
-17 2 1 6.68 7.44 0.26 o
-16 2 1 0.00 -0.04 0.20 <
-15 2 1 3.45 3.39 0.19 o
-14 2 1 3.83 4.09 0.16 o
-13 2 1 69.58 56.96 0.51 o
-12 2 1 9.89 9.13 0.17 o
-11 2 1 3.89 8.21 0.14 o
-10 2 1 79.24 79.67 0.55 o
-9 2 1 71.54 71.63 0.51 o
-8 2 1 1.55 1.67 0.08 o
-7 2 1 12.14 15.25 0.16 o
-6 2 1 31.08 31.02 0.26 o
-5 2 1 102.91 131.38 0.88 o
-4 2 1 503.89 560.46 3.69 o
-3 2 1 1262.85 1407.84 10.75 o
-2 2 1 723.89 818.05 5.77 o
-1 2 1 0.11 0.13 0.06 <
0 2 1 4.10 2.69 0.07 o
1 2 1 205.08 212.32 1.53 o
2 2 1 120.58 129.92 1.00 o
3 2 1 212.10 261.19 1.95 o
4 2 1 206.69 223.13 1.55 o
5 2 1 183.97 201.10 1.32 o
6 2 1 80.97 84.05 0.59 o
7 2 1 61.79 68.14 0.49 o
8 2 1 2.28 1.38 0.09 o
9 2 1 69.87 68.64 0.55 o
10 2 1 15.05 21.34 0.24 o
11 2 1 2.74 1.04 0.10 o
12 2 1 473.18 442.75 3.08 o
13 2 1 2.50 3.31 0.19 o
14 2 1 215.43 213.45 1.69 o
15 2 1 23.11 20.48 0.34 o
16 2 1 12.76 12.31 0.28 o
17 2 1 0.13 -0.22 0.27 <
18 2 1 72.76 74.85 0.86 o
19 2 1 5.74 6.11 0.35 o
20 2 1 169.38 174.11 1.74 o
21 2 1 7.02 7.66 0.40 o
22 2 1 0.21 0.02 0.42 <
23 2 1 16.41 17.04 0.64 o
24 2 1 0.21 0.39 0.74 <
25 2 1 0.46 0.63 0.88 <
26 2 1 4.65 4.55 1.00 o
27 2 1 3.93 5.19 1.19 o
28 2 1 6.80 6.35 1.63 o
29 2 1 4.76 3.08 2.88 <
-28 3 1 6.70 6.23 1.83 o
-27 3 1 1.50 1.07 1.42 <
-26 3 1 0.28 -0.59 1.28 <
-25 3 1 11.91 12.60 0.97 o
-24 3 1 5.66 5.97 0.72 o
-23 3 1 1.49 2.90 0.83 o
-22 3 1 0.35 0.63 0.61 <
-21 3 1 0.02 -0.38 0.60 <
-20 3 1 4.89 5.57 0.51 o
-19 3 1 26.23 26.21 0.57 o
-18 3 1 5.88 5.88 0.40 o
-17 3 1 27.53 28.14 0.51 o
-16 3 1 45.22 47.46 0.66 o
-15 3 1 1.14 1.70 0.29 o
-14 3 1 0.30 0.59 0.25 <
-13 3 1 19.03 17.44 0.35 o
-12 3 1 3.88 5.59 0.24 o
-11 3 1 22.47 20.28 0.35 o
-10 3 1 18.34 18.26 0.27 o
-9 3 1 2.03 1.67 0.17 o
-8 3 1 9.71 7.82 0.19 o
-7 3 1 43.01 44.12 0.40 o
-6 3 1 44.41 45.25 0.39 o
-5 3 1 204.02 228.03 1.57 o
-4 3 1 27.34 28.69 0.27 o
-3 3 1 60.21 62.22 0.49 o
-2 3 1 8.83 9.95 0.16 o
-1 3 1 3.24 3.17 0.11 o
0 3 1 15.80 18.18 0.23 o
1 3 1 48.13 54.04 0.47 o
2 3 1 3.54 3.10 0.11 o
3 3 1 157.91 173.98 1.17 o
4 3 1 34.74 36.04 0.30 o
5 3 1 11.47 10.17 0.16 o
6 3 1 91.12 100.24 0.70 o
7 3 1 119.94 124.62 0.91 o
8 3 1 73.06 81.18 0.71 o
9 3 1 85.10 82.63 0.76 o
10 3 1 10.26 9.39 0.23 o
11 3 1 3.88 2.52 0.25 o
12 3 1 0.56 0.44 0.22 <
13 3 1 6.46 6.70 0.27 o
14 3 1 98.73 99.34 1.04 o
15 3 1 155.26 156.74 1.64 o
16 3 1 0.59 0.42 0.30 <
17 3 1 186.03 193.77 1.88 o
18 3 1 67.95 69.92 0.86 o
19 3 1 7.04 6.76 0.51 o
20 3 1 3.17 3.71 0.48 o
21 3 1 0.54 0.77 0.55 <
22 3 1 0.37 -1.18 0.54 <
23 3 1 24.41 22.63 0.83 o
24 3 1 5.30 5.79 0.87 o
25 3 1 16.33 19.90 1.05 o
26 3 1 2.42 1.66 1.58 <
27 3 1 1.84 1.64 1.47 <
-26 4 1 0.24 -0.93 2.00 <
-25 4 1 0.00 1.13 1.48 <
-24 4 1 1.41 0.69 1.21 <
-23 4 1 1.17 0.96 1.23 <
-22 4 1 0.17 0.79 0.91 <
-21 4 1 0.01 -0.87 0.90 <
-20 4 1 0.23 -0.83 0.72 <
-19 4 1 1.84 2.09 0.58 o
-18 4 1 15.39 14.55 0.60 o
-17 4 1 14.31 15.28 0.52 o
-16 4 1 17.49 16.18 0.50 o
-15 4 1 4.10 4.37 0.35 o
-14 4 1 0.10 0.27 0.38 <
-13 4 1 48.34 51.89 0.72 o
-12 4 1 5.94 6.84 0.30 o
-11 4 1 0.07 0.14 0.29 <
-10 4 1 39.21 42.68 0.64 o
-9 4 1 53.03 54.13 0.64 o
-8 4 1 4.93 4.85 0.23 o
-7 4 1 28.55 27.92 0.40 o
-6 4 1 3.45 3.60 0.20 o
-5 4 1 54.06 56.62 0.58 o
-4 4 1 13.77 15.12 0.27 o
-3 4 1 5.41 5.97 0.18 o
-2 4 1 0.92 1.01 0.15 o
-1 4 1 0.08 0.03 0.16 <
0 4 1 0.09 0.25 0.15 <
1 4 1 14.36 14.55 0.27 o
2 4 1 9.13 9.60 0.22 o
3 4 1 0.02 0.01 0.17 <
4 4 1 6.00 5.63 0.22 o
5 4 1 3.03 2.71 0.19 o
6 4 1 22.09 21.54 0.34 o
7 4 1 1.52 1.54 0.25 o
8 4 1 0.73 1.22 0.23 o
9 4 1 4.39 4.77 0.30 o
10 4 1 0.18 1.03 0.28 o
11 4 1 0.00 -0.07 0.29 <
12 4 1 26.47 25.60 0.48 o
13 4 1 0.90 1.29 0.33 o
14 4 1 4.51 4.71 0.35 o
15 4 1 0.34 0.85 0.35 <
16 4 1 1.78 1.51 0.43 o
17 4 1 0.06 -0.59 0.52 <
18 4 1 6.65 8.17 2.25 o
19 4 1 1.63 1.81 0.68 <
20 4 1 20.38 22.94 0.77 o
21 4 1 0.13 1.36 0.88 <
22 4 1 0.01 0.47 0.90 <
23 4 1 1.27 2.07 1.23 <
24 4 1 0.98 0.27 1.34 <
25 4 1 1.29 1.29 1.88 <
-23 5 1 2.14 3.16 1.97 <
-22 5 1 0.47 1.96 1.59 <
-21 5 1 1.41 0.60 1.25 <
-20 5 1 0.89 0.97 1.01 <
-19 5 1 14.35 12.16 1.04 o
-18 5 1 6.30 5.88 0.68 o
-17 5 1 39.62 37.12 0.88 o
-16 5 1 0.34 -0.24 0.70 <
-15 5 1 3.77 5.18 0.57 o
-14 5 1 0.10 0.84 0.48 <
-13 5 1 2.29 1.81 0.41 o
-12 5 1 11.04 11.24 0.46 o
-11 5 1 108.37 107.14 1.34 o
-10 5 1 0.49 0.92 0.36 <
-9 5 1 1.72 1.68 0.34 o
-8 5 1 22.88 23.01 0.50 o
-7 5 1 0.37 0.41 0.28 <
-6 5 1 0.42 0.46 0.28 <
-5 5 1 104.25 107.50 1.08 o
-4 5 1 4.59 4.95 0.26 o
-3 5 1 24.97 25.77 0.44 o
-2 5 1 5.16 4.88 0.27 o
-1 5 1 1.06 1.21 0.27 o
0 5 1 4.67 4.71 0.26 o
1 5 1 22.82 23.41 0.42 o
2 5 1 0.17 0.12 0.24 <
3 5 1 8.04 8.93 0.31 o
4 5 1 0.36 0.30 0.30 <
5 5 1 2.96 2.71 0.31 o
6 5 1 10.09 10.17 0.35 o
7 5 1 0.57 0.24 0.30 <
8 5 1 6.66 5.75 0.37 o
9 5 1 24.00 22.28 0.52 o
10 5 1 19.01 20.08 0.52 o
11 5 1 27.09 26.70 0.59 o
12 5 1 1.13 1.52 0.37 o
13 5 1 5.08 4.98 0.48 o
14 5 1 33.43 34.08 0.75 o
15 5 1 33.53 31.47 0.73 o
16 5 1 0.22 -1.16 0.64 <
17 5 1 42.54 39.58 1.00 o
18 5 1 35.83 35.43 0.89 o
19 5 1 7.51 6.36 0.89 o
20 5 1 0.10 -0.81 1.14 <
21 5 1 5.87 4.16 2.70 <
22 5 1 7.00 9.15 3.42 <
23 5 1 4.29 3.64 1.80 <
-19 6 1 33.37 32.01 2.16 o
-18 6 1 0.45 1.37 1.38 <
-17 6 1 6.89 6.62 1.40 o
-16 6 1 3.39 2.09 1.27 <
-15 6 1 1.34 0.65 2.84 <
-14 6 1 4.31 5.20 0.84 o
-13 6 1 2.96 2.12 0.90 <
-12 6 1 0.13 0.75 0.76 <
-11 6 1 0.50 0.33 0.65 <
-10 6 1 6.18 7.97 0.75 o
-9 6 1 5.45 5.45 0.69 o
-8 6 1 3.92 3.40 0.64 o
-7 6 1 5.30 4.23 0.57 o
-6 6 1 14.32 15.28 0.70 o
-5 6 1 41.52 38.12 0.70 o
-4 6 1 14.06 12.88 0.49 o
-3 6 1 40.83 40.72 0.70 o
-2 6 1 39.65 38.13 0.69 o
-1 6 1 0.80 0.46 0.49 <
0 6 1 0.17 -0.35 0.50 <
1 6 1 20.38 20.46 0.53 o
2 6 1 0.61 -0.10 0.41 <
3 6 1 51.60 48.43 0.72 o
4 6 1 7.03 5.69 0.47 o
5 6 1 0.47 -0.06 0.49 <
6 6 1 7.29 6.87 0.48 o
7 6 1 0.99 1.28 0.55 <
8 6 1 0.54 0.41 0.67 <
9 6 1 12.85 12.32 0.72 o
10 6 1 1.83 0.24 0.67 <
11 6 1 0.27 -0.10 0.76 <
12 6 1 9.62 9.18 0.97 o
13 6 1 0.02 0.37 0.74 <
14 6 1 2.61 1.93 0.84 <
15 6 1 5.90 5.38 0.90 o
16 6 1 0.11 1.09 1.33 <
17 6 1 0.06 -0.52 1.34 <
18 6 1 1.92 2.75 2.84 <
19 6 1 0.23 0.19 1.65 <
-13 7 1 5.75 4.51 2.65 <
-12 7 1 1.47 1.80 1.97 <
-11 7 1 3.57 3.20 1.45 <
-10 7 1 3.20 4.43 1.51 <
-9 7 1 0.01 0.25 1.61 <
-8 7 1 10.44 10.65 1.38 o
-7 7 1 0.63 -0.59 1.44 <
-6 7 1 0.62 0.62 1.01 <
-5 7 1 0.32 0.33 1.07 <
-4 7 1 0.09 1.24 1.20 <
-3 7 1 2.30 1.39 1.17 <
-2 7 1 6.44 4.61 1.12 o
-1 7 1 2.54 3.75 1.02 o
0 7 1 21.75 18.59 0.86 o
1 7 1 8.29 6.90 0.94 o
2 7 1 3.60 2.29 0.76 o
3 7 1 0.01 -0.17 0.87 <
4 7 1 3.04 2.65 1.04 <
5 7 1 0.11 -0.50 0.98 <
6 7 1 0.00 0.59 1.19 <
7 7 1 3.90 2.85 1.11 <
8 7 1 6.59 5.15 1.04 o
9 7 1 0.34 1.11 1.59 <
10 7 1 0.22 0.77 1.47 <
11 7 1 0.85 0.52 1.88 <
12 7 1 1.41 1.04 1.99 <
13 7 1 0.99 -0.70 1.72 <
-30 0 2 34.84 36.55 2.45 o
-29 0 2 31.26 32.22 1.57 o
-28 0 2 55.39 61.99 1.59 o
-27 0 2 37.64 37.34 1.55 o
-26 0 2 5.91 6.26 4.02 <
-25 0 2 37.06 38.72 0.90 o
-24 0 2 87.58 93.04 1.47 o
-23 0 2 159.64 162.97 2.23 o
-22 0 2 532.59 540.37 6.43 o
-21 0 2 100.77 106.44 1.54 o
-20 0 2 1.72 2.26 0.39 o
-19 0 2 11.15 9.02 0.34 o
-18 0 2 19.92 21.15 0.45 o
-17 0 2 20.88 19.35 0.42 o
-16 0 2 329.11 281.86 2.86 o
-15 0 2 74.48 54.74 0.65 o
-14 0 2 44.46 30.47 0.40 o
-13 0 2 46.74 38.84 0.46 o
-12 0 2 80.86 74.75 0.75 o
-11 0 2 168.89 179.80 1.53 o
-10 0 2 2.83 3.87 0.12 o
-9 0 2 134.48 156.97 1.40 o
-8 0 2 166.62 199.63 1.85 o
-7 0 2 832.22 909.58 8.71 o
-6 0 2 563.92 587.29 4.96 o
-5 0 2 318.79 334.93 3.02 o
-4 0 2 330.17 275.66 3.51 o
-3 0 2 14.48 25.90 0.38 o
-2 0 2 723.64 727.53 9.14 o
1 0 2 354.16 341.75 4.31 o
2 0 2 48.55 77.73 1.18 o
3 0 2 840.84 870.42 15.47 o
4 0 2 342.92 343.83 3.31 o
5 0 2 66.13 66.00 0.69 o
6 0 2 1.74 3.86 0.10 o
7 0 2 304.29 287.16 2.47 o
8 0 2 77.11 68.06 0.69 o
9 0 2 193.21 180.84 1.82 o
10 0 2 909.88 845.12 8.16 o
11 0 2 231.08 216.37 1.92 o
12 0 2 186.51 179.82 1.72 o
13 0 2 51.97 53.47 0.62 o
14 0 2 41.63 40.02 0.56 o
15 0 2 35.35 33.15 0.51 o
16 0 2 139.01 142.36 1.86 o
17 0 2 57.91 63.66 0.99 o
18 0 2 169.73 186.18 2.40 o
19 0 2 8.70 9.07 0.45 o
20 0 2 0.10 0.37 0.43 <
21 0 2 60.13 63.13 1.21 o
22 0 2 0.61 0.56 0.48 <
23 0 2 23.90 25.76 0.81 o
24 0 2 20.97 22.62 0.77 o
25 0 2 0.26 0.02 0.84 <
26 0 2 58.51 62.89 1.56 o
27 0 2 0.52 0.19 0.98 <
28 0 2 3.82 4.27 1.64 <
29 0 2 0.01 -0.95 2.34 <
-30 1 2 12.09 9.86 1.66 o
-29 1 2 20.86 23.31 1.85 o
-28 1 2 8.59 8.67 1.20 o
-27 1 2 29.95 32.31 0.93 o
-26 1 2 7.96 8.57 0.81 o
-25 1 2 13.79 14.73 0.65 o
-24 1 2 67.27 64.86 0.86 o
-23 1 2 1.43 0.92 0.42 <
-22 1 2 2.18 2.74 0.33 o
-21 1 2 124.58 126.15 1.32 o
-20 1 2 45.58 43.71 0.53 o
-19 1 2 7.55 7.22 0.26 o
-18 1 2 29.75 27.41 0.37 o
-17 1 2 2.38 1.97 0.20 o
-16 1 2 19.85 17.00 0.26 o
-15 1 2 8.47 5.38 0.18 o
-14 1 2 6.55 5.59 0.15 o
-13 1 2 21.27 31.66 0.28 o
-12 1 2 1.63 1.76 0.10 o
-11 1 2 0.99 1.29 0.08 o
-10 1 2 228.82 249.71 1.47 o
-9 1 2 69.94 77.41 0.51 o
-8 1 2 439.61 477.88 2.80 o
-7 1 2 126.78 137.85 0.84 o
-6 1 2 155.06 167.50 1.06 o
-5 1 2 168.58 180.23 1.25 o
-4 1 2 108.57 134.94 0.94 o
-3 1 2 318.91 318.83 2.44 o
-2 1 2 4957.40 5071.07 128.91 o
-1 1 2 85.20 103.39 1.10 o
0 1 2 51.29 69.58 0.82 o
1 1 2 4.10 9.10 0.13 o
2 1 2 180.59 194.50 1.67 o
3 1 2 62.23 63.60 0.50 o
4 1 2 11.70 11.40 0.12 o
5 1 2 15.71 15.03 0.15 o
6 1 2 2.17 2.42 0.07 o
7 1 2 1.72 2.68 0.08 o
8 1 2 46.57 42.32 0.36 o
9 1 2 11.90 9.88 0.14 o
10 1 2 67.33 64.47 0.49 o
11 1 2 9.70 7.60 0.14 o
12 1 2 541.88 508.73 3.55 o
13 1 2 2.71 2.43 0.16 o
14 1 2 1.00 0.83 0.16 o
15 1 2 38.99 40.70 0.49 o
16 1 2 75.06 74.56 0.75 o
17 1 2 53.38 57.08 0.65 o
18 1 2 83.57 81.11 0.91 o
19 1 2 0.43 0.85 0.31 <
20 1 2 34.37 34.74 0.55 o
21 1 2 0.07 0.13 0.35 <
22 1 2 8.07 7.08 0.41 o
23 1 2 2.72 2.75 0.56 o
24 1 2 1.62 1.36 0.49 <
25 1 2 0.22 -0.33 0.71 <
26 1 2 0.88 0.84 0.78 <
27 1 2 0.83 0.44 0.91 <
28 1 2 1.88 2.08 1.29 <
29 1 2 2.82 2.70 1.51 <
-29 2 2 0.00 -0.66 1.59 <
-28 2 2 2.56 1.64 1.37 <
-27 2 2 9.70 9.40 1.04 o
-26 2 2 5.79 5.08 0.88 o
-25 2 2 1.62 1.47 0.99 <
-24 2 2 52.56 53.72 1.12 o
-23 2 2 8.26 8.79 2.22 o
-22 2 2 3.56 4.44 0.49 o
-21 2 2 23.00 23.29 0.45 o
-20 2 2 2.30 2.68 0.29 o
-19 2 2 12.37 12.98 0.37 o
-18 2 2 6.95 7.12 0.26 o
-17 2 2 0.00 -0.39 0.23 <
-16 2 2 63.13 64.14 0.66 o
-15 2 2 29.11 28.94 0.36 o
-14 2 2 46.59 47.04 0.43 o
-13 2 2 9.55 7.38 0.17 o
-12 2 2 95.29 92.07 0.66 o
-11 2 2 18.26 16.68 0.18 o
-10 2 2 70.94 79.81 0.52 o
-9 2 2 185.68 189.50 1.23 o
-8 2 2 309.45 316.89 1.99 o
-7 2 2 2.31 2.39 0.08 o
-6 2 2 8.55 7.86 0.11 o
-5 2 2 5.51 8.67 0.11 o
-4 2 2 1618.70 1767.71 11.25 o
-3 2 2 453.81 487.22 3.01 o
-2 2 2 103.18 116.60 0.81 o
-1 2 2 4.00 3.03 0.07 o
0 2 2 189.54 210.32 1.46 o
1 2 2 88.65 90.63 0.72 o
2 2 2 374.83 379.95 2.60 o
3 2 2 329.43 336.72 2.17 o
4 2 2 508.33 574.47 3.79 o
5 2 2 24.02 24.53 0.22 o
6 2 2 141.90 155.62 1.08 o
7 2 2 299.12 320.48 2.23 o
8 2 2 28.86 28.70 0.25 o
9 2 2 48.78 47.10 0.41 o
10 2 2 3.76 2.68 0.13 o
11 2 2 1.03 0.88 0.14 o
12 2 2 30.77 37.05 0.38 o
13 2 2 222.19 215.63 1.79 o
14 2 2 173.91 170.94 1.61 o
15 2 2 0.95 0.74 0.20 o
16 2 2 12.14 12.52 0.32 o
17 2 2 4.84 4.86 0.29 o
18 2 2 65.19 64.18 0.70 o
19 2 2 46.30 44.51 0.63 o
20 2 2 21.88 19.54 0.46 o
21 2 2 15.16 15.27 0.53 o
22 2 2 8.11 7.91 0.48 o
23 2 2 0.29 0.85 0.59 <
24 2 2 25.62 25.38 0.77 o
25 2 2 0.19 0.94 0.80 <
26 2 2 8.35 8.87 1.02 o
27 2 2 0.07 -0.71 1.38 <
28 2 2 0.04 -0.45 1.87 <
-28 3 2 0.03 -0.03 2.56 <
-27 3 2 3.32 3.50 1.76 <
-26 3 2 6.90 7.24 1.31 o
-25 3 2 17.83 18.47 0.98 o
-24 3 2 1.59 1.95 0.86 <
-23 3 2 0.08 -0.53 0.89 <
-22 3 2 6.89 7.28 0.65 o
-21 3 2 2.74 2.71 2.64 <
-20 3 2 0.00 0.45 0.45 <
-19 3 2 8.67 8.98 0.42 o
-18 3 2 12.87 13.77 0.46 o
-17 3 2 0.24 -0.69 0.34 <
-16 3 2 0.46 0.54 0.26 <
-15 3 2 40.42 44.03 0.62 o
-14 3 2 34.48 35.14 0.53 o
-13 3 2 0.52 0.15 0.19 <
-12 3 2 52.80 54.47 0.60 o
-11 3 2 214.97 218.61 1.89 o
-10 3 2 1.69 1.88 0.17 o
-9 3 2 66.87 68.37 0.60 o
-8 3 2 24.95 24.84 0.30 o
-7 3 2 257.65 262.58 1.93 o
-6 3 2 273.56 291.75 1.99 o
-5 3 2 437.80 475.26 3.00 o
-4 3 2 98.10 106.99 0.73 o
-3 3 2 86.34 92.14 0.66 o
-2 3 2 7.75 12.14 0.16 o
-1 3 2 545.65 590.54 4.09 o
0 3 2 186.14 196.51 1.53 o
1 3 2 1.00 0.40 0.10 o
2 3 2 22.79 26.70 0.26 o
3 3 2 74.25 79.45 0.58 o
4 3 2 25.88 27.07 0.25 o
5 3 2 57.10 58.17 0.44 o
6 3 2 10.59 10.29 0.16 o
7 3 2 39.66 40.28 0.38 o
8 3 2 0.72 0.56 0.15 o
9 3 2 4.39 6.00 0.18 o
10 3 2 121.94 116.76 1.03 o
11 3 2 89.99 86.74 0.82 o
12 3 2 12.14 10.54 0.25 o
13 3 2 123.35 121.87 1.16 o
14 3 2 0.81 0.73 0.23 o
15 3 2 161.53 156.59 1.55 o
16 3 2 72.93 74.31 0.87 o
17 3 2 55.09 57.29 0.69 o
18 3 2 19.57 21.12 0.47 o
19 3 2 0.70 1.15 0.44 <
20 3 2 2.98 1.93 0.51 o
21 3 2 70.02 69.01 1.04 o
22 3 2 6.65 7.12 0.67 o
23 3 2 0.06 0.32 0.80 <
24 3 2 18.62 18.56 0.92 o
25 3 2 6.54 5.72 1.18 o
26 3 2 0.01 -0.34 1.26 <
27 3 2 0.11 0.04 1.59 <
-26 4 2 2.00 2.33 1.83 <
-25 4 2 0.80 -0.73 1.48 <
-24 4 2 13.96 14.43 1.30 o
-23 4 2 0.86 -0.37 0.99 <
-22 4 2 2.17 1.42 1.04 <
-21 4 2 8.03 7.88 0.66 o
-20 4 2 0.19 -0.21 0.73 <
-19 4 2 0.03 -0.28 0.76 <
-18 4 2 1.41 0.47 0.59 <
-17 4 2 0.13 0.29 0.48 <
-16 4 2 1.82 2.33 0.38 o
-15 4 2 2.85 3.03 0.43 o
-14 4 2 0.80 1.06 0.41 <
-13 4 2 133.10 138.80 1.49 o
-12 4 2 0.64 0.96 0.32 o
-11 4 2 5.63 6.94 0.37 o
-10 4 2 19.29 18.98 0.35 o
-9 4 2 23.44 25.65 0.44 o
-8 4 2 4.00 4.03 0.24 o
-7 4 2 482.75 501.79 4.64 o
-6 4 2 6.62 6.78 0.23 o
-5 4 2 592.08 621.71 5.09 o
-4 4 2 3.77 4.80 0.18 o
-3 4 2 29.79 32.33 0.38 o
-2 4 2 5.95 6.50 0.19 o
-1 4 2 3.98 4.05 0.17 o
0 4 2 3.88 4.21 0.18 o
1 4 2 339.68 358.05 2.87 o
2 4 2 2.04 2.27 0.17 o
3 4 2 18.63 20.05 0.28 o
4 4 2 52.11 54.92 0.53 o
5 4 2 6.77 7.38 0.25 o
6 4 2 33.61 36.08 0.46 o
7 4 2 36.73 36.89 0.48 o
8 4 2 15.45 16.17 0.33 o
9 4 2 161.33 162.20 1.57 o
10 4 2 8.77 7.92 0.31 o
11 4 2 0.20 -0.25 0.28 <
12 4 2 2.50 2.82 0.33 o
13 4 2 2.26 2.03 0.34 o
14 4 2 11.30 11.70 0.46 o
15 4 2 265.05 271.65 2.91 o
16 4 2 31.05 30.97 0.67 o
17 4 2 82.84 82.71 1.15 o
18 4 2 2.87 2.02 0.69 <
19 4 2 24.84 25.55 0.66 o
20 4 2 3.57 4.80 0.74 o
21 4 2 6.22 7.27 0.83 o
22 4 2 8.38 8.26 1.02 o
23 4 2 33.27 32.82 1.25 o
24 4 2 0.00 -1.85 1.47 <
25 4 2 0.00 0.18 2.29 <
-23 5 2 0.46 -0.02 1.62 <
-22 5 2 2.47 2.87 1.66 <
-21 5 2 1.48 -1.96 1.38 <
-20 5 2 5.40 6.72 2.34 <
-19 5 2 35.49 37.26 1.14 o
-18 5 2 16.08 13.21 0.98 o
-17 5 2 3.27 3.72 0.73 o
-16 5 2 12.08 11.87 0.65 o
-15 5 2 1.63 1.08 0.60 <
-14 5 2 1.08 1.51 0.55 <
-13 5 2 0.32 -0.27 0.56 <
-12 5 2 5.53 6.37 0.44 o
-11 5 2 7.85 8.44 0.42 o
-10 5 2 2.00 1.70 0.39 o
-9 5 2 0.04 0.18 0.37 <
-8 5 2 18.11 19.46 0.45 o
-7 5 2 3.53 3.35 0.33 o
-6 5 2 14.90 14.50 0.35 o
-5 5 2 49.48 49.79 0.62 o
-4 5 2 44.53 45.46 0.62 o
-3 5 2 37.16 37.74 0.55 o
-2 5 2 0.01 0.04 0.26 <
-1 5 2 12.37 12.85 0.33 o
0 5 2 0.14 0.41 0.26 <
1 5 2 1.56 1.86 0.26 o
2 5 2 11.35 10.70 0.32 o
3 5 2 10.57 10.67 0.37 o
4 5 2 1.37 1.17 0.38 o
5 5 2 9.73 8.89 0.33 o
6 5 2 3.88 3.87 0.30 o
7 5 2 18.65 18.93 0.44 o
8 5 2 3.21 4.34 0.32 o
9 5 2 0.05 -0.55 0.43 <
10 5 2 0.14 0.38 0.49 <
11 5 2 3.79 3.04 0.50 o
12 5 2 0.00 -0.23 0.59 <
13 5 2 48.86 48.79 0.87 o
14 5 2 9.71 9.82 0.57 o
15 5 2 43.62 43.13 0.81 o
16 5 2 0.80 0.23 0.75 <
17 5 2 3.31 3.32 0.85 o
18 5 2 12.66 15.88 1.02 o
19 5 2 0.26 -0.15 1.10 <
20 5 2 1.76 0.78 1.26 <
21 5 2 5.19 5.50 1.53 o
22 5 2 1.92 1.78 3.69 <
-19 6 2 6.18 1.92 1.89 <
-18 6 2 0.70 1.50 1.71 <
-17 6 2 0.73 0.30 1.15 <
-16 6 2 0.07 -0.27 1.46 <
-15 6 2 1.07 0.52 1.21 <
-14 6 2 1.62 2.45 0.74 o
-13 6 2 15.91 14.31 2.87 o
-12 6 2 1.92 1.62 0.83 <
-11 6 2 4.74 3.01 0.79 o
-10 6 2 15.98 15.80 0.63 o
-9 6 2 3.34 3.89 0.72 o
-8 6 2 2.15 0.96 0.81 <
-7 6 2 6.37 4.88 0.63 o
-6 6 2 4.59 5.09 0.55 o
-5 6 2 0.25 0.01 0.60 <
-4 6 2 18.00 16.86 0.57 o
-3 6 2 1.94 2.13 0.55 o
-2 6 2 7.51 7.25 0.46 o
-1 6 2 14.43 13.12 0.48 o
0 6 2 4.75 4.91 0.65 o
1 6 2 0.61 1.09 0.53 <
2 6 2 0.40 0.26 0.44 <
3 6 2 5.10 4.53 0.53 o
4 6 2 4.69 2.94 0.50 o
5 6 2 0.01 -0.03 0.46 <
6 6 2 3.33 2.40 0.55 o
7 6 2 4.12 2.49 0.70 o
8 6 2 1.34 1.42 0.67 <
9 6 2 0.00 -1.00 0.67 <
10 6 2 4.06 4.28 0.72 o
11 6 2 6.88 6.55 0.76 o
12 6 2 6.24 6.71 0.87 o
13 6 2 4.84 4.51 0.90 o
14 6 2 5.01 5.69 0.84 o
15 6 2 0.16 0.45 0.98 <
16 6 2 8.46 7.50 1.04 o
17 6 2 0.44 -0.86 1.41 <
18 6 2 0.99 2.04 1.66 <
-13 7 2 1.86 2.99 1.89 <
-12 7 2 0.39 0.77 1.38 <
-11 7 2 0.22 0.69 1.60 <
-10 7 2 1.67 2.72 1.53 <
-9 7 2 0.00 0.19 1.52 <
-8 7 2 2.07 3.75 1.43 <
-7 7 2 3.40 2.19 1.35 <
-6 7 2 0.87 0.01 1.29 <
-5 7 2 4.38 1.55 1.40 <
-4 7 2 2.03 2.39 1.19 <
-3 7 2 0.38 -0.84 1.18 <
-2 7 2 9.57 8.67 1.06 o
-1 7 2 1.54 1.81 2.69 <
0 7 2 0.28 0.99 1.15 <
1 7 2 24.23 22.04 0.98 o
2 7 2 0.18 0.36 0.97 <
3 7 2 3.75 2.64 0.79 o
4 7 2 0.46 0.17 0.96 <
5 7 2 0.10 0.99 1.20 <
6 7 2 0.12 -1.17 1.19 <
7 7 2 11.50 10.43 1.01 o
8 7 2 1.56 2.70 1.58 <
9 7 2 16.95 14.69 1.59 o
10 7 2 0.11 0.11 1.65 <
11 7 2 1.35 1.55 1.76 <
12 7 2 5.58 3.39 1.74 <
-30 1 3 10.39 10.57 1.85 o
-29 1 3 2.12 1.36 1.40 <
-28 1 3 1.98 1.50 1.13 <
-27 1 3 0.01 -0.05 0.84 <
-26 1 3 16.79 18.29 0.81 o
-25 1 3 0.65 1.34 0.67 <
-24 1 3 159.95 160.84 1.77 o
-23 1 3 37.86 38.08 0.66 o
-22 1 3 5.24 4.28 0.37 o
-21 1 3 43.70 45.02 0.53 o
-20 1 3 15.28 15.22 0.33 o
-19 1 3 5.07 6.01 0.27 o
-18 1 3 125.11 121.37 1.06 o
-17 1 3 5.44 5.07 0.19 o
-16 1 3 76.55 73.87 0.69 o
-15 1 3 13.17 10.40 0.19 o
-14 1 3 41.88 39.67 0.36 o
-13 1 3 20.44 18.20 0.20 o
-12 1 3 43.32 41.43 0.31 o
-11 1 3 2.82 2.82 0.09 o
-10 1 3 180.59 159.52 0.98 o
-9 1 3 42.78 48.04 0.33 o
-8 1 3 87.09 92.74 0.60 o
-7 1 3 25.45 24.00 0.20 o
-6 1 3 0.00 0.10 0.05 <
-5 1 3 60.07 67.68 0.46 o
-4 1 3 282.58 321.51 1.99 o
-3 1 3 230.84 259.20 1.71 o
-2 1 3 114.79 108.20 0.79 o
-1 1 3 0.30 0.22 0.05 o
0 1 3 192.29 226.27 1.61 o
1 1 3 1307.85 1370.28 14.17 o
2 1 3 111.58 116.11 0.82 o
3 1 3 58.54 62.01 0.43 o
4 1 3 622.41 653.45 4.28 o
5 1 3 615.13 622.87 3.84 o
6 1 3 211.90 221.42 1.36 o
7 1 3 330.95 324.25 2.09 o
8 1 3 62.50 52.51 0.40 o
9 1 3 188.37 180.21 1.21 o
10 1 3 582.21 564.73 3.74 o
11 1 3 344.13 336.12 2.28 o
12 1 3 338.84 330.74 2.33 o
13 1 3 128.23 120.32 0.93 o
14 1 3 1.26 1.85 0.17 o
15 1 3 31.52 33.67 0.42 o
16 1 3 10.02 13.03 0.27 o
17 1 3 7.23 5.88 0.28 o
18 1 3 81.07 84.15 0.94 o
19 1 3 64.13 66.09 0.81 o
20 1 3 14.25 14.95 0.38 o
21 1 3 10.52 11.70 0.42 o
22 1 3 17.99 17.38 0.48 o
23 1 3 3.70 3.87 0.51 o
24 1 3 29.63 31.71 0.71 o
25 1 3 0.32 1.86 0.83 <
26 1 3 0.19 1.07 0.88 <
27 1 3 5.86 6.63 1.18 o
28 1 3 0.04 0.28 1.28 <
29 1 3 0.99 -0.97 2.21 <
-29 2 3 0.52 0.27 1.55 <
-28 2 3 0.01 -1.01 1.29 <
-27 2 3 13.06 13.18 0.91 o
-26 2 3 72.80 73.93 1.31 o
-25 2 3 4.33 2.68 1.03 <
-24 2 3 38.68 37.48 0.76 o
-23 2 3 1.11 0.73 0.49 <
-22 2 3 8.10 8.28 0.47 o
-21 2 3 0.04 0.44 0.38 <
-20 2 3 16.35 16.06 0.37 o
-19 2 3 3.80 3.26 0.32 o
-18 2 3 43.30 40.04 0.50 o
-17 2 3 15.02 17.72 0.31 o
-16 2 3 21.27 23.41 0.35 o
-15 2 3 1.60 1.53 0.20 o
-14 2 3 3.47 4.07 0.16 o
-13 2 3 86.32 88.11 0.68 o
-12 2 3 26.51 29.24 0.27 o
-11 2 3 31.00 29.01 0.26 o
-10 2 3 606.96 618.91 3.76 o
-9 2 3 275.20 273.78 1.74 o
-8 2 3 100.09 95.71 0.67 o
-7 2 3 0.06 -0.10 0.08 <
-6 2 3 54.51 51.25 0.37 o
-5 2 3 0.72 0.97 0.07 o
-4 2 3 829.36 940.67 5.64 o
-3 2 3 244.51 291.87 1.77 o
-2 2 3 806.36 919.52 5.85 o
-1 2 3 63.48 77.97 0.56 o
0 2 3 161.30 161.18 1.06 o
1 2 3 47.80 47.80 0.34 o
2 2 3 18.55 19.20 0.19 o
3 2 3 133.84 135.00 0.88 o
4 2 3 72.42 73.04 0.49 o
5 2 3 267.03 279.40 1.72 o
6 2 3 30.61 35.61 0.29 o
7 2 3 213.08 220.68 1.46 o
8 2 3 4.72 4.87 0.12 o
9 2 3 34.30 36.39 0.32 o
10 2 3 0.69 1.55 0.14 o
11 2 3 25.50 25.15 0.29 o
12 2 3 40.34 38.17 0.42 o
13 2 3 391.14 392.26 2.87 o
14 2 3 0.79 0.49 0.20 <
15 2 3 32.37 35.16 0.44 o
16 2 3 10.68 11.60 0.29 o
17 2 3 3.34 3.37 0.24 o
18 2 3 0.00 -0.73 0.27 <
19 2 3 18.73 16.54 0.42 o
20 2 3 1.20 1.47 0.44 o
21 2 3 0.02 -0.33 0.48 <
22 2 3 9.72 10.10 0.64 o
23 2 3 8.48 8.12 0.67 o
24 2 3 9.49 11.23 0.84 o
25 2 3 2.08 2.72 1.01 <
26 2 3 0.01 1.68 1.27 <
27 2 3 1.80 2.44 1.37 <
28 2 3 5.41 4.23 1.73 <
-28 3 3 0.38 0.00 1.81 <
-27 3 3 7.31 8.55 1.54 o
-26 3 3 8.26 7.98 1.27 o
-25 3 3 0.92 2.06 1.03 <
-24 3 3 0.68 1.39 1.03 <
-23 3 3 2.92 2.82 0.56 o
-22 3 3 3.10 3.68 0.68 o
-21 3 3 6.15 6.43 0.58 o
-20 3 3 19.79 20.50 0.60 o
-19 3 3 11.52 12.85 0.43 o
-18 3 3 34.14 34.81 0.55 o
-17 3 3 0.53 0.42 0.32 <
-16 3 3 5.36 4.20 0.26 o
-15 3 3 116.87 124.48 1.19 o
-14 3 3 0.92 0.89 0.22 o
-13 3 3 55.23 58.32 0.60 o
-12 3 3 7.08 6.64 0.22 o
-11 3 3 5.47 5.47 0.19 o
-10 3 3 17.08 16.95 0.24 o
-9 3 3 128.56 124.79 0.92 o
-8 3 3 26.15 26.15 0.28 o
-7 3 3 548.88 577.62 3.73 o
-6 3 3 208.98 227.86 1.47 o
-5 3 3 122.31 129.07 0.87 o
-4 3 3 298.76 327.41 2.13 o
-3 3 3 3.09 2.68 0.10 o
-2 3 3 6.48 6.59 0.14 o
-1 3 3 29.14 34.74 0.35 o
0 3 3 5.85 5.51 0.16 o
1 3 3 83.66 97.59 0.78 o
2 3 3 220.57 238.85 1.69 o
3 3 3 20.50 21.45 0.23 o
4 3 3 42.70 45.97 0.39 o
5 3 3 27.79 30.96 0.29 o
6 3 3 0.40 0.68 0.12 o
7 3 3 73.83 78.56 0.64 o
8 3 3 0.84 0.91 0.16 o
9 3 3 1.52 1.67 0.18 o
10 3 3 11.40 9.84 0.25 o
11 3 3 1.29 1.73 0.21 o
12 3 3 0.11 -0.32 0.23 <
13 3 3 12.80 13.32 0.31 o
14 3 3 1.00 1.32 0.29 o
15 3 3 21.85 19.09 0.43 o
16 3 3 20.11 20.46 0.42 o
17 3 3 1.33 1.06 0.38 <
18 3 3 0.00 0.27 0.42 <
19 3 3 3.23 4.24 0.50 o
20 3 3 1.27 1.34 0.59 <
21 3 3 8.06 6.71 0.67 o
22 3 3 7.03 7.77 0.67 o
23 3 3 1.29 1.08 0.73 <
24 3 3 0.29 -0.48 0.88 <
25 3 3 3.29 3.26 1.02 o
26 3 3 8.62 6.97 1.46 o
-26 4 3 0.64 1.22 2.05 <
-25 4 3 1.86 1.03 1.33 <
-24 4 3 0.10 0.35 1.32 <
-23 4 3 0.94 0.19 1.29 <
-22 4 3 0.05 1.36 1.08 <
-21 4 3 5.25 5.17 0.87 o
-20 4 3 1.93 0.72 0.78 <
-19 4 3 1.50 1.99 0.70 <
-18 4 3 9.29 9.99 0.51 o
-17 4 3 0.66 0.80 0.59 <
-16 4 3 18.06 17.89 0.49 o
-15 4 3 2.68 1.79 0.45 o
-14 4 3 4.89 5.59 0.42 o
-13 4 3 0.89 0.63 0.37 <
-12 4 3 0.01 -0.42 0.34 <
-11 4 3 6.89 7.51 0.30 o
-10 4 3 51.57 52.30 0.63 o
-9 4 3 0.38 0.30 0.24 <
-8 4 3 7.11 7.07 0.23 o
-7 4 3 4.69 5.07 0.22 o
-6 4 3 2.12 2.44 0.19 o
-5 4 3 1.01 1.53 0.20 o
-4 4 3 16.68 16.87 0.28 o
-3 4 3 32.44 32.36 0.40 o
-2 4 3 38.15 38.65 0.43 o
-1 4 3 0.04 0.08 0.17 <
0 4 3 0.13 0.31 0.16 <
1 4 3 11.28 12.40 0.24 o
2 4 3 0.02 -0.21 0.21 <
3 4 3 10.91 12.72 0.24 o
4 4 3 24.73 24.82 0.32 o
5 4 3 18.02 18.25 0.31 o
6 4 3 5.60 6.05 0.26 o
7 4 3 0.22 0.38 0.25 <
8 4 3 9.52 10.16 0.29 o
9 4 3 4.26 2.87 0.26 o
10 4 3 0.26 1.33 0.31 o
11 4 3 0.01 -0.49 0.36 <
12 4 3 3.28 3.09 0.35 o
13 4 3 1.51 1.45 0.40 o
14 4 3 6.74 8.39 0.42 o
15 4 3 18.44 17.78 0.51 o
16 4 3 9.88 10.73 0.50 o
17 4 3 1.31 2.13 0.56 o
18 4 3 0.60 1.31 0.73 <
19 4 3 24.25 25.50 0.80 o
20 4 3 4.24 4.77 0.93 o
21 4 3 0.07 -1.14 0.99 <
22 4 3 4.87 5.86 1.12 o
23 4 3 8.02 9.26 1.38 o
24 4 3 0.13 1.32 1.51 <
-23 5 3 0.09 1.17 2.35 <
-22 5 3 0.03 -1.16 1.50 <
-21 5 3 7.43 6.02 1.27 o
-20 5 3 0.44 1.93 0.99 <
-19 5 3 1.81 2.97 0.83 o
-18 5 3 1.37 1.01 0.86 <
-17 5 3 6.11 6.64 0.55 o
-16 5 3 7.34 6.83 0.81 o
-15 5 3 14.32 14.04 0.66 o
-14 5 3 0.87 -0.87 3.12 <
-13 5 3 6.96 6.81 0.45 o
-12 5 3 42.82 43.10 0.73 o
-11 5 3 3.59 3.63 0.48 o
-10 5 3 0.33 0.55 0.39 <
-9 5 3 53.77 51.06 0.73 o
-8 5 3 22.46 22.40 0.51 o
-7 5 3 123.84 115.75 1.29 o
-6 5 3 37.25 36.11 0.58 o
-5 5 3 8.60 8.64 0.30 o
-4 5 3 84.40 84.11 0.94 o
-3 5 3 3.51 3.08 0.27 o
-2 5 3 0.31 0.40 0.25 <
-1 5 3 78.04 79.30 0.91 o
0 5 3 1.32 1.63 0.24 o
1 5 3 14.86 14.23 0.34 o
2 5 3 21.35 19.47 0.42 o
3 5 3 1.44 1.60 0.29 o
4 5 3 7.79 7.85 0.31 o
5 5 3 6.07 5.89 0.33 o
6 5 3 1.91 2.25 0.30 o
7 5 3 1.27 1.05 0.31 o
8 5 3 5.31 5.82 0.34 o
9 5 3 5.53 5.27 0.42 o
10 5 3 3.53 3.68 0.51 o
11 5 3 5.22 3.46 0.54 o
12 5 3 2.76 2.53 0.57 o
13 5 3 11.02 11.07 0.58 o
14 5 3 2.26 1.99 0.64 o
15 5 3 23.54 24.23 0.91 o
16 5 3 2.54 2.06 0.72 <
17 5 3 5.06 5.30 0.97 o
18 5 3 3.12 2.98 1.07 <
19 5 3 2.37 2.45 1.12 <
20 5 3 1.13 -0.15 1.29 <
21 5 3 35.54 35.72 1.25 o
22 5 3 0.01 -0.70 1.50 <
-19 6 3 7.98 5.96 1.97 o
-18 6 3 3.19 4.49 1.66 <
-17 6 3 0.01 -0.20 1.25 <
-16 6 3 0.01 1.36 1.16 <
-15 6 3 0.33 -1.45 1.14 <
-14 6 3 2.55 2.76 0.81 o
-13 6 3 2.02 2.12 0.81 <
-12 6 3 0.48 1.22 0.88 <
-11 6 3 1.16 1.59 2.56 <
-10 6 3 17.47 16.20 0.68 o
-9 6 3 8.94 7.11 0.81 o
-8 6 3 1.31 5.63 3.55 <
-7 6 3 1.32 1.01 0.70 <
-6 6 3 0.38 -0.19 0.71 <
-5 6 3 1.61 0.42 0.57 <
-4 6 3 4.68 3.58 0.73 o
-3 6 3 5.21 4.88 0.61 o
-2 6 3 8.32 6.58 0.53 o
-1 6 3 1.36 1.22 0.53 <
0 6 3 2.66 1.09 0.53 <
1 6 3 8.60 8.88 0.54 o
2 6 3 0.64 0.01 0.44 <
3 6 3 0.86 0.61 0.69 <
4 6 3 9.17 9.88 0.55 o
5 6 3 9.19 8.92 0.54 o
6 6 3 0.02 0.66 0.61 <
7 6 3 53.93 50.21 0.87 o
8 6 3 13.98 12.63 0.73 o
9 6 3 8.07 6.17 0.66 o
10 6 3 0.02 -0.03 0.75 <
11 6 3 4.79 5.41 0.76 o
12 6 3 9.09 7.83 0.86 o
13 6 3 43.10 40.99 1.28 o
14 6 3 0.79 0.48 1.13 <
15 6 3 12.28 10.42 1.05 o
16 6 3 16.57 15.22 1.37 o
17 6 3 0.27 0.51 1.38 <
18 6 3 1.59 1.85 1.58 <
-13 7 3 0.08 -1.03 1.63 <
-12 7 3 0.84 1.03 1.62 <
-11 7 3 0.10 -1.19 1.25 <
-10 7 3 0.49 0.85 1.10 <
-9 7 3 0.01 -0.45 1.19 <
-8 7 3 0.00 0.13 1.30 <
-7 7 3 2.43 0.88 0.93 <
-6 7 3 0.50 -0.48 1.18 <
-5 7 3 0.30 0.52 1.52 <
-4 7 3 0.82 1.71 1.15 <
-3 7 3 2.44 0.37 0.86 <
-2 7 3 2.61 1.76 1.32 <
-1 7 3 0.02 2.25 1.34 <
0 7 3 0.59 2.54 1.33 <
1 7 3 0.33 -0.09 1.15 <
2 7 3 9.44 8.95 1.30 o
3 7 3 1.79 2.42 1.33 <
4 7 3 0.03 0.43 1.18 <
5 7 3 0.12 1.14 1.28 <
6 7 3 1.55 1.67 1.27 <
7 7 3 0.00 -0.37 1.35 <
8 7 3 7.47 6.23 1.30 o
9 7 3 1.40 1.51 1.77 <
10 7 3 21.35 22.38 1.46 o
11 7 3 0.23 2.29 2.08 <
12 7 3 2.20 1.21 1.66 <
-30 0 4 0.20 -1.55 2.01 <
-29 0 4 36.63 39.23 1.64 o
-28 0 4 5.21 5.25 1.23 o
-27 0 4 8.71 8.47 1.20 o
-26 0 4 5.44 3.93 1.12 o
-25 0 4 0.39 0.84 1.00 <
-24 0 4 0.73 1.58 0.87 <
-23 0 4 121.55 123.05 2.00 o
-22 0 4 0.80 0.51 0.46 <
-21 0 4 18.50 19.26 0.51 o
-20 0 4 47.48 48.65 0.78 o
-19 0 4 4.38 3.91 0.29 o
-18 0 4 103.25 104.70 1.32 o
-17 0 4 1.00 0.25 0.23 <
-16 0 4 37.00 35.07 0.49 o
-15 0 4 0.01 0.42 0.16 <
-14 0 4 41.73 39.95 0.50 o
-13 0 4 2.80 3.33 0.17 o
-12 0 4 1319.36 1283.16 10.94 o
-11 0 4 7.10 8.39 0.18 o
-10 0 4 74.30 75.83 0.78 o
-9 0 4 39.29 35.53 0.34 o
-8 0 4 168.06 184.32 1.53 o
-7 0 4 61.25 65.88 0.59 o
-6 0 4 933.76 1081.98 8.66 o
-5 0 4 14.66 15.06 0.17 o
-4 0 4 806.47 938.99 7.94 o
-3 0 4 232.17 248.51 2.02 o
-2 0 4 267.55 290.68 2.34 o
0 0 4 0.58 1.42 0.06 o
1 0 4 14.92 17.67 0.21 o
2 0 4 2929.15 2906.93 36.57 o
3 0 4 1249.86 1283.54 11.49 o
4 0 4 1637.84 1690.55 16.19 o
5 0 4 409.84 403.72 3.44 o
6 0 4 387.51 376.56 3.22 o
7 0 4 79.91 72.04 0.65 o
8 0 4 540.60 473.89 4.06 o
9 0 4 706.36 656.71 5.60 o
10 0 4 3142.66 2905.85 24.83 o
11 0 4 189.86 167.55 1.53 o
12 0 4 0.07 0.51 0.19 <
13 0 4 1.46 1.51 0.20 o
14 0 4 199.16 184.09 2.10 o
15 0 4 117.00 114.18 1.73 o
16 0 4 342.71 343.45 4.62 o
17 0 4 45.05 45.88 0.91 o
18 0 4 88.68 92.03 1.53 o
19 0 4 0.03 -0.25 0.39 <
20 0 4 33.78 33.80 0.84 o
21 0 4 10.29 10.12 0.54 o
22 0 4 0.24 -0.53 0.60 <
23 0 4 0.11 -0.81 0.60 <
24 0 4 3.25 3.12 0.83 o
25 0 4 14.73 15.03 1.20 o
26 0 4 1.72 2.90 1.34 <
27 0 4 0.42 -1.48 1.60 <
28 0 4 8.15 8.73 1.62 o
-30 1 4 10.10 11.96 1.63 o
-29 1 4 12.00 12.74 1.27 o
-28 1 4 1.02 2.04 1.14 <
-27 1 4 9.68 9.52 1.00 o
-26 1 4 11.72 10.64 0.76 o
-25 1 4 38.63 38.58 0.79 o
-24 1 4 21.96 21.41 0.61 o
-23 1 4 23.02 23.38 0.51 o
-22 1 4 2.43 2.01 0.40 o
-21 1 4 2.49 2.28 0.34 o
-20 1 4 2.52 1.47 0.34 o
-19 1 4 8.65 9.86 0.29 o
-18 1 4 9.38 11.74 0.26 o
-17 1 4 1.88 3.11 0.20 o
-16 1 4 22.21 24.13 0.32 o
-15 1 4 30.93 29.69 0.32 o
-14 1 4 45.30 44.96 0.39 o
-13 1 4 0.59 0.32 0.12 <
-12 1 4 39.89 33.40 0.27 o
-11 1 4 341.72 342.12 2.04 o
-10 1 4 477.17 480.16 2.91 o
-9 1 4 81.99 82.16 0.55 o
-8 1 4 17.62 19.60 0.17 o
-7 1 4 0.27 0.37 0.06 o
-6 1 4 204.44 225.65 1.34 o
-5 1 4 158.70 181.74 1.09 o
-4 1 4 468.02 540.43 3.07 o
-3 1 4 57.72 82.18 0.51 o
-2 1 4 0.03 0.30 0.04 o
-1 1 4 5.27 5.82 0.08 o
0 1 4 17.81 17.54 0.16 o
1 1 4 125.35 127.81 0.82 o
2 1 4 394.71 415.94 2.57 o
3 1 4 386.49 400.89 2.48 o
4 1 4 301.51 304.27 1.96 o
5 1 4 231.09 247.00 1.56 o
6 1 4 24.96 30.53 0.24 o
7 1 4 46.47 47.50 0.34 o
8 1 4 955.30 928.55 5.57 o
9 1 4 74.81 71.75 0.50 o
10 1 4 18.77 17.04 92.48 <
11 1 4 192.11 182.97 1.25 o
12 1 4 245.21 234.85 1.58 o
13 1 4 10.77 10.64 0.19 o
14 1 4 110.73 109.61 0.95 o
15 1 4 0.80 0.92 0.21 o
16 1 4 104.39 106.60 1.04 o
17 1 4 44.83 44.74 0.60 o
18 1 4 20.23 18.57 0.40 o
19 1 4 3.85 4.27 0.35 o
20 1 4 2.87 4.05 0.43 o
21 1 4 14.18 14.81 0.53 o
22 1 4 12.76 13.15 0.56 o
23 1 4 2.17 3.16 0.53 o
24 1 4 21.95 23.80 0.75 o
25 1 4 0.40 -0.05 0.69 <
26 1 4 2.93 2.13 1.05 <
27 1 4 0.00 0.65 1.18 <
28 1 4 5.28 6.37 1.69 o
-29 2 4 5.70 5.27 1.63 o
-28 2 4 0.14 -2.04 1.25 <
-27 2 4 3.27 3.40 1.47 <
-26 2 4 43.50 40.78 1.31 o
-25 2 4 0.02 0.45 0.77 <
-24 2 4 2.90 2.28 0.53 o
-23 2 4 0.10 -0.57 0.48 <
-22 2 4 0.31 0.66 0.47 <
-21 2 4 3.68 4.43 0.40 o
-20 2 4 53.59 53.53 0.71 o
-19 2 4 4.42 3.22 0.30 o
-18 2 4 19.47 19.90 0.39 o
-17 2 4 112.27 119.80 1.05 o
-16 2 4 3.21 3.28 0.21 o
-15 2 4 76.13 81.50 0.72 o
-14 2 4 64.04 64.99 0.54 o
-13 2 4 133.65 130.83 0.93 o
-12 2 4 1.32 0.65 0.15 o
-11 2 4 16.32 13.82 0.18 o
-10 2 4 5.58 8.32 0.15 o
-9 2 4 792.02 775.25 4.81 o
-8 2 4 86.75 93.95 0.64 o
-7 2 4 6.19 4.78 0.09 o
-6 2 4 0.03 0.25 0.07 o
-5 2 4 156.70 169.74 1.03 o
-4 2 4 158.06 168.21 1.02 o
-3 2 4 235.65 254.07 1.51 o
-2 2 4 11.98 9.94 0.11 o
-1 2 4 337.40 392.10 2.44 o
0 2 4 42.33 42.51 0.32 o
1 2 4 6.71 7.47 0.10 o
2 2 4 130.09 140.48 0.91 o
3 2 4 22.45 25.55 0.21 o
4 2 4 2.15 2.06 0.08 o
5 2 4 22.37 27.42 0.23 o
6 2 4 63.07 64.89 0.47 o
7 2 4 96.48 94.10 0.65 o
8 2 4 153.27 153.18 1.02 o
9 2 4 16.04 15.85 0.19 o
10 2 4 0.53 0.49 0.14 o
11 2 4 167.30 166.57 1.24 o
12 2 4 2.77 3.52 0.22 o
13 2 4 17.27 14.47 0.29 o
14 2 4 51.36 54.86 0.67 o
15 2 4 32.93 36.44 0.47 o
16 2 4 17.14 20.19 0.35 o
17 2 4 16.26 17.02 0.34 o
18 2 4 3.56 4.23 0.31 o
19 2 4 41.98 43.40 0.67 o
20 2 4 2.36 2.05 0.45 o
21 2 4 3.72 4.02 1.76 <
22 2 4 1.36 0.74 0.59 <
23 2 4 3.44 3.53 0.71 o
24 2 4 16.73 15.40 0.82 o
25 2 4 0.02 -0.18 1.01 <
26 2 4 0.01 -1.50 1.21 <
27 2 4 1.71 1.98 1.55 <
-28 3 4 19.18 19.16 1.53 o
-27 3 4 8.71 8.70 1.31 o
-26 3 4 33.83 35.85 1.15 o
-25 3 4 0.23 -0.50 1.15 <
-24 3 4 0.06 0.96 1.03 <
-23 3 4 32.42 34.07 0.89 o
-22 3 4 2.49 3.77 0.75 o
-21 3 4 2.34 2.29 0.57 o
-20 3 4 0.25 -0.69 0.48 <
-19 3 4 0.13 -0.08 0.44 <
-18 3 4 8.21 8.98 0.35 o
-17 3 4 11.25 9.99 0.34 o
-16 3 4 26.16 26.52 0.46 o
-15 3 4 54.86 58.30 0.66 o
-14 3 4 2.13 1.59 0.24 o
-13 3 4 16.34 17.01 0.28 o
-12 3 4 325.76 333.30 2.68 o
-11 3 4 27.33 28.02 0.35 o
-10 3 4 1.61 1.05 0.19 o
-9 3 4 152.67 150.30 1.09 o
-8 3 4 132.22 130.30 0.95 o
-7 3 4 282.29 280.40 1.80 o
-6 3 4 233.48 250.21 1.61 o
-5 3 4 8.76 8.98 0.15 o
-4 3 4 217.84 236.09 1.56 o
-3 3 4 0.01 0.54 0.11 o
-2 3 4 82.07 85.14 0.63 o
-1 3 4 103.16 104.50 0.79 o
0 3 4 0.45 0.51 0.13 o
1 3 4 10.57 11.81 0.20 o
2 3 4 117.57 124.86 0.93 o
3 3 4 0.02 0.31 0.12 <
4 3 4 2.68 2.67 0.13 o
5 3 4 39.43 43.29 0.40 o
6 3 4 3.38 3.90 0.14 o
7 3 4 60.08 63.68 0.54 o
8 3 4 24.24 24.23 0.29 o
9 3 4 11.94 12.26 0.24 o
10 3 4 3.47 4.07 0.23 o
11 3 4 0.00 0.59 0.30 <
12 3 4 11.99 11.23 0.29 o
13 3 4 53.95 58.32 0.71 o
14 3 4 6.25 6.45 0.32 o
15 3 4 2.10 1.74 0.29 o
16 3 4 2.36 1.92 0.33 o
17 3 4 0.02 0.20 0.33 <
18 3 4 1.84 2.32 0.49 o
19 3 4 0.00 0.58 0.53 <
20 3 4 0.38 0.14 0.69 <
21 3 4 11.57 10.50 0.75 o
22 3 4 5.69 5.94 0.82 o
23 3 4 8.45 7.46 1.15 o
24 3 4 17.22 16.77 1.33 o
25 3 4 18.83 16.60 1.41 o
26 3 4 12.50 9.91 1.77 o
-26 4 4 0.63 2.53 1.81 <
-25 4 4 1.17 -0.65 1.60 <
-24 4 4 1.47 1.61 1.42 <
-23 4 4 8.82 9.15 1.48 o
-22 4 4 7.06 6.70 1.09 o
-21 4 4 26.70 29.10 0.86 o
-20 4 4 11.33 9.65 0.66 o
-19 4 4 1.98 2.52 0.62 o
-18 4 4 25.81 24.14 0.61 o
-17 4 4 4.67 3.81 0.59 o
-16 4 4 0.67 0.46 0.46 <
-15 4 4 18.38 17.68 0.58 o
-14 4 4 116.31 117.86 1.52 o
-13 4 4 72.20 70.77 0.94 o
-12 4 4 9.50 8.79 0.34 o
-11 4 4 0.76 0.41 0.30 <
-10 4 4 57.88 59.00 0.66 o
-9 4 4 5.38 5.46 0.25 o
-8 4 4 119.52 122.96 1.22 o
-7 4 4 209.58 213.15 1.97 o
-6 4 4 368.21 372.95 3.12 o
-5 4 4 42.05 41.82 0.47 o
-4 4 4 0.05 0.17 0.17 <
-3 4 4 6.71 7.08 0.20 o
-2 4 4 2.16 2.46 0.22 o
-1 4 4 17.59 18.56 0.31 o
0 4 4 80.89 83.22 0.76 o
1 4 4 15.04 14.58 0.26 o
2 4 4 6.13 6.18 0.21 o
3 4 4 14.29 14.84 0.26 o
4 4 4 9.39 9.29 0.24 o
5 4 4 63.11 66.65 0.66 o
6 4 4 2.15 2.15 0.24 o
7 4 4 0.71 0.59 0.24 <
8 4 4 7.88 8.17 0.27 o
9 4 4 3.98 3.95 0.29 o
10 4 4 2.67 2.14 0.37 o
11 4 4 67.52 68.29 0.94 o
12 4 4 0.92 0.79 0.35 <
13 4 4 19.29 18.57 0.49 o
14 4 4 7.06 5.90 0.47 o
15 4 4 5.59 5.33 0.57 o
16 4 4 0.28 -0.07 0.46 <
17 4 4 3.95 3.40 0.64 o
18 4 4 6.08 5.71 0.72 o
19 4 4 15.58 15.65 0.83 o
20 4 4 1.54 1.77 0.96 <
21 4 4 3.07 3.91 1.04 o
22 4 4 3.47 4.26 1.25 o
23 4 4 0.05 -1.47 1.35 <
24 4 4 1.01 2.00 1.68 <
-23 5 4 0.02 -1.12 2.19 <
-22 5 4 0.44 1.21 1.52 <
-21 5 4 0.01 0.59 1.24 <
-20 5 4 0.90 1.17 1.14 <
-19 5 4 0.05 -0.69 0.90 <
-18 5 4 1.15 1.68 1.04 <
-17 5 4 4.18 4.81 0.70 o
-16 5 4 3.22 2.53 0.76 o
-15 5 4 21.53 20.45 0.83 o
-14 5 4 0.36 0.71 0.68 <
-13 5 4 0.04 -0.39 0.67 <
-12 5 4 11.91 11.57 0.56 o
-11 5 4 0.91 0.35 0.51 <
-10 5 4 0.70 0.13 0.49 <
-9 5 4 69.86 65.17 0.86 o
-8 5 4 13.83 12.76 0.41 o
-7 5 4 49.38 46.43 0.67 o
-6 5 4 2.14 1.20 0.38 o
-5 5 4 5.83 5.44 0.36 o
-4 5 4 1.11 1.31 0.38 o
-3 5 4 2.57 1.96 0.31 o
-2 5 4 0.46 -0.09 0.25 <
-1 5 4 1.18 0.79 0.26 o
0 5 4 3.15 2.31 0.29 o
1 5 4 0.39 0.30 0.28 <
2 5 4 25.71 24.84 0.43 o
3 5 4 0.88 0.32 0.30 <
4 5 4 0.60 0.69 0.32 <
5 5 4 85.94 83.31 1.01 o
6 5 4 22.41 23.76 0.50 o
7 5 4 98.12 97.01 1.09 o
8 5 4 0.86 1.15 0.39 <
9 5 4 5.70 6.83 0.41 o
10 5 4 0.04 -0.35 0.48 <
11 5 4 0.71 1.10 0.54 <
12 5 4 15.51 15.58 0.62 o
13 5 4 83.85 81.63 1.17 o
14 5 4 9.67 9.17 0.69 o
15 5 4 14.04 14.08 0.68 o
16 5 4 1.12 1.45 0.95 <
17 5 4 11.67 10.67 0.78 o
18 5 4 3.20 2.88 1.05 <
19 5 4 0.44 -1.39 1.07 <
20 5 4 0.81 0.22 1.22 <
21 5 4 0.63 2.13 1.54 <
-19 6 4 0.78 0.79 1.81 <
-18 6 4 0.20 0.51 1.26 <
-17 6 4 2.39 4.50 1.60 <
-16 6 4 4.20 4.36 1.28 o
-15 6 4 0.55 1.00 1.11 <
-14 6 4 0.50 1.58 0.82 <
-13 6 4 1.70 1.27 0.90 <
-12 6 4 5.14 4.45 1.21 o
-11 6 4 7.35 6.05 0.77 o
-10 6 4 0.27 -0.24 0.63 <
-9 6 4 18.23 13.82 0.69 o
-8 6 4 1.12 2.63 0.72 o
-7 6 4 0.11 1.48 0.74 <
-6 6 4 4.98 5.28 0.67 o
-5 6 4 0.00 1.42 0.72 <
-4 6 4 0.37 0.40 0.75 <
-3 6 4 14.42 14.82 0.69 o
-2 6 4 0.25 0.98 0.57 <
-1 6 4 21.30 18.58 0.75 o
0 6 4 23.50 22.01 2.09 o
1 6 4 8.39 6.96 0.54 o
2 6 4 1.10 0.79 0.48 <
3 6 4 0.01 -0.80 0.58 <
4 6 4 5.86 5.49 0.56 o
5 6 4 1.45 3.60 0.60 o
6 6 4 15.46 14.77 0.62 o
7 6 4 11.82 10.14 0.63 o
8 6 4 11.15 11.21 0.76 o
9 6 4 12.52 11.04 1.02 o
10 6 4 4.36 2.90 0.85 o
11 6 4 17.18 17.42 0.78 o
12 6 4 0.43 0.16 0.81 <
13 6 4 13.44 13.94 0.93 o
14 6 4 3.80 2.59 1.19 <
15 6 4 6.76 4.12 1.72 <
16 6 4 1.62 1.20 1.54 <
17 6 4 0.03 -0.44 2.27 <
-13 7 4 3.76 2.35 1.55 <
-12 7 4 0.92 -0.04 1.93 <
-11 7 4 7.00 4.76 1.62 <
-10 7 4 7.68 6.03 1.48 o
-9 7 4 5.09 2.86 1.82 <
-8 7 4 0.94 0.02 1.31 <
-7 7 4 0.94 1.17 1.05 <
-6 7 4 4.96 6.23 1.37 o
-5 7 4 1.26 0.21 1.15 <
-4 7 4 0.28 0.73 0.96 <
-3 7 4 0.62 0.84 1.18 <
-2 7 4 0.00 0.61 1.48 <
-1 7 4 0.22 2.15 1.28 <
0 7 4 0.97 -0.48 1.02 <
1 7 4 0.76 0.48 1.15 <
2 7 4 2.00 2.94 1.29 <
3 7 4 5.13 6.68 1.29 o
4 7 4 3.76 3.74 1.15 o
5 7 4 10.20 9.43 1.00 o
6 7 4 0.74 -1.29 1.49 <
7 7 4 2.16 1.74 1.25 <
8 7 4 26.08 23.71 1.56 o
9 7 4 4.14 6.65 1.51 o
10 7 4 0.07 1.58 1.75 <
11 7 4 15.59 11.36 1.70 o
-30 1 5 0.81 0.18 1.58 <
-29 1 5 0.28 -0.32 1.22 <
-28 1 5 0.38 2.21 1.15 <
-27 1 5 3.40 2.87 0.88 o
-26 1 5 5.84 5.80 0.83 o
-25 1 5 5.33 5.81 0.65 o
-24 1 5 1.20 1.17 0.51 <
-23 1 5 0.02 0.47 0.47 <
-22 1 5 31.16 31.06 0.55 o
-21 1 5 26.07 25.11 0.44 o
-20 1 5 29.16 30.89 0.46 o
-19 1 5 42.72 47.38 0.56 o
-18 1 5 4.79 4.96 0.22 o
-17 1 5 70.20 72.39 0.73 o
-16 1 5 46.35 46.05 0.49 o
-15 1 5 116.91 113.83 0.90 o
-14 1 5 308.55 309.34 2.11 o
-13 1 5 5.21 5.53 0.13 o
-12 1 5 232.31 227.12 1.43 o
-11 1 5 926.13 906.37 5.78 o
-10 1 5 32.35 28.57 0.23 o
-9 1 5 85.12 78.09 0.52 o
-8 1 5 31.00 37.38 0.28 o
-7 1 5 139.49 142.98 0.86 o
-6 1 5 86.71 114.78 0.69 o
-5 1 5 490.08 572.84 3.10 o
-4 1 5 105.28 131.33 0.78 o
-3 1 5 1106.78 1210.48 7.45 o
-2 1 5 1.74 1.70 0.06 o
-1 1 5 1.30 0.96 0.05 o
0 1 5 780.50 825.05 5.23 o
1 1 5 28.25 27.27 0.20 o
2 1 5 460.83 467.95 2.90 o
3 1 5 12.24 15.57 0.15 o
4 1 5 87.59 84.12 0.55 o
5 1 5 11.03 13.87 0.15 o
6 1 5 56.89 52.99 0.38 o
7 1 5 9.00 8.41 0.12 o
8 1 5 815.04 771.00 4.51 o
9 1 5 78.80 70.96 0.49 o
10 1 5 20.11 18.69 0.19 o
11 1 5 156.77 141.29 0.94 o
12 1 5 51.25 48.20 0.41 o
13 1 5 20.26 18.88 0.28 o
14 1 5 122.36 125.57 1.12 o
15 1 5 1.20 1.17 0.24 o
16 1 5 64.44 67.28 0.74 o
17 1 5 12.93 12.64 0.32 o
18 1 5 15.11 15.13 0.39 o
19 1 5 5.38 5.39 0.35 o
20 1 5 13.87 12.59 0.45 o
21 1 5 0.00 -0.19 0.43 <
22 1 5 42.40 43.03 0.76 o
23 1 5 0.04 -0.58 0.54 <
24 1 5 0.66 0.69 0.64 <
25 1 5 0.48 0.03 0.88 <
26 1 5 0.11 0.51 1.11 <
27 1 5 0.11 0.41 1.22 <
28 1 5 6.58 6.97 1.56 o
-29 2 5 2.44 2.98 1.77 <
-28 2 5 1.49 1.08 1.62 <
-27 2 5 4.85 5.09 1.39 o
-26 2 5 30.81 32.79 0.97 o
-25 2 5 64.52 65.80 1.16 o
-24 2 5 10.88 10.98 0.66 o
-23 2 5 0.12 0.95 1.62 <
-22 2 5 8.92 10.01 0.42 o
-21 2 5 0.15 -0.46 0.34 <
-20 2 5 7.43 8.07 0.37 o
-19 2 5 11.38 9.24 0.34 o
-18 2 5 6.07 5.93 0.29 o
-17 2 5 86.63 92.79 0.94 o
-16 2 5 19.96 21.45 0.34 o
-15 2 5 82.32 84.81 0.74 o
-14 2 5 4.06 3.40 0.20 o
-13 2 5 21.83 20.92 0.25 o
-12 2 5 21.88 22.02 0.23 o
-11 2 5 136.02 132.75 0.88 o
-10 2 5 22.78 22.63 0.23 o
-9 2 5 541.52 545.83 3.31 o
-8 2 5 35.81 41.72 0.32 o
-7 2 5 0.98 0.70 0.08 o
-6 2 5 1.98 1.15 0.07 o
-5 2 5 20.80 19.06 0.16 o
-4 2 5 16.72 16.98 0.15 o
-3 2 5 114.04 134.90 0.81 o
-2 2 5 7.45 9.30 0.11 o
-1 2 5 2.72 2.93 0.08 o
0 2 5 380.58 394.08 2.62 o
1 2 5 12.40 13.23 0.14 o
2 2 5 4.50 4.83 0.09 o
3 2 5 17.44 17.99 0.17 o
4 2 5 2.21 1.77 0.08 o
5 2 5 53.54 58.49 0.42 o
6 2 5 547.36 539.60 3.37 o
7 2 5 70.48 70.71 0.52 o
8 2 5 336.72 326.16 2.07 o
9 2 5 42.96 41.37 0.38 o
10 2 5 4.65 5.54 0.18 o
11 2 5 48.48 46.05 0.46 o
12 2 5 30.67 32.28 0.39 o
13 2 5 11.68 11.14 0.27 o
14 2 5 50.93 53.50 0.58 o
15 2 5 12.70 13.79 0.30 o
16 2 5 15.95 15.27 0.33 o
17 2 5 3.31 3.43 0.27 o
18 2 5 0.01 -0.31 0.37 <
19 2 5 10.23 9.96 0.49 o
20 2 5 0.14 -0.53 0.45 <
21 2 5 4.02 3.63 0.52 o
22 2 5 89.00 90.54 1.28 o
23 2 5 31.83 34.95 0.82 o
24 2 5 14.85 14.32 0.91 o
25 2 5 7.85 7.11 0.89 o
26 2 5 4.02 4.41 1.35 o
27 2 5 0.40 0.15 1.54 <
-28 3 5 28.74 27.29 1.96 o
-27 3 5 1.78 2.95 1.51 <
-26 3 5 9.61 6.74 1.19 o
-25 3 5 0.36 -0.80 1.33 <
-24 3 5 0.07 -1.07 1.02 <
-23 3 5 17.08 16.80 0.79 o
-22 3 5 6.97 6.84 0.67 o
-21 3 5 0.02 0.95 0.56 <
-20 3 5 39.08 37.34 0.66 o
-19 3 5 3.63 3.15 0.56 o
-18 3 5 8.09 7.74 0.36 o
-17 3 5 3.40 4.07 0.37 o
-16 3 5 10.14 10.45 0.34 o
-15 3 5 13.61 14.27 0.32 o
-14 3 5 21.09 21.91 0.35 o
-13 3 5 0.00 0.57 0.21 <
-12 3 5 0.11 0.34 0.23 <
-11 3 5 0.02 -0.11 0.24 <
-10 3 5 0.34 0.61 0.25 <
-9 3 5 22.93 22.70 0.29 o
-8 3 5 35.20 35.96 0.34 o
-7 3 5 3.63 3.41 0.16 o
-6 3 5 38.47 42.91 0.35 o
-5 3 5 4.31 2.90 0.12 o
-4 3 5 4.08 3.05 0.13 o
-3 3 5 62.29 65.60 0.51 o
-2 3 5 7.53 8.54 0.14 o
-1 3 5 13.14 14.49 0.18 o
0 3 5 24.13 25.69 0.25 o
1 3 5 0.65 0.38 0.12 o
2 3 5 20.19 20.20 0.23 o
3 3 5 181.21 185.25 1.26 o
4 3 5 0.02 0.28 0.12 <
5 3 5 178.09 185.59 1.38 o
6 3 5 104.51 104.21 0.85 o
7 3 5 4.02 3.14 0.18 o
8 3 5 8.16 8.62 0.24 o
9 3 5 0.07 -0.07 0.19 <
10 3 5 3.23 2.41 0.26 o
11 3 5 44.96 45.01 0.58 o
12 3 5 24.54 24.30 0.42 o
13 3 5 40.66 41.94 0.58 o
14 3 5 33.41 35.15 0.53 o
15 3 5 5.88 5.83 0.33 o
16 3 5 15.61 16.67 0.43 o
17 3 5 59.71 62.97 0.81 o
18 3 5 0.97 0.38 0.47 <
19 3 5 14.55 15.11 0.55 o
20 3 5 10.68 10.97 0.71 o
21 3 5 0.01 -0.37 0.78 <
22 3 5 0.07 0.00 0.90 <
23 3 5 9.38 9.35 1.11 o
24 3 5 5.08 3.32 1.16 <
25 3 5 36.28 36.05 1.63 o
-26 4 5 0.94 1.47 1.77 <
-25 4 5 3.56 3.51 1.58 <
-24 4 5 0.32 0.05 1.46 <
-23 4 5 0.04 -0.61 1.25 <
-22 4 5 0.73 0.54 1.05 <
-21 4 5 0.48 0.48 0.89 <
-20 4 5 2.04 1.02 0.67 <
-19 4 5 4.52 5.23 0.70 o
-18 4 5 0.50 -0.49 0.53 <
-17 4 5 3.32 3.18 0.53 o
-16 4 5 0.90 0.38 0.53 <
-15 4 5 0.34 0.52 0.43 <
-14 4 5 4.47 3.79 0.35 o
-13 4 5 1.78 1.30 0.34 o
-12 4 5 0.70 0.62 0.33 <
-11 4 5 0.23 0.34 0.27 <
-10 4 5 2.65 2.65 0.30 o
-9 4 5 3.81 3.15 0.26 o
-8 4 5 49.14 51.13 0.62 o
-7 4 5 10.41 9.24 0.27 o
-6 4 5 46.11 48.08 0.54 o
-5 4 5 0.05 0.17 0.21 <
-4 4 5 12.03 11.71 0.27 o
-3 4 5 64.95 65.80 0.69 o
-2 4 5 3.48 2.99 0.18 o
-1 4 5 0.68 0.79 0.21 o
0 4 5 84.74 88.66 0.80 o
1 4 5 17.77 18.25 0.31 o
2 4 5 1.64 1.46 0.20 o
3 4 5 37.37 39.23 0.49 o
4 4 5 2.74 2.53 0.20 o
5 4 5 38.13 40.12 0.49 o
6 4 5 12.11 11.45 0.28 o
7 4 5 2.16 2.00 0.24 o
8 4 5 0.38 0.45 0.25 <
9 4 5 0.17 0.01 0.29 <
10 4 5 0.64 0.15 0.32 <
11 4 5 4.57 2.31 0.40 o
12 4 5 1.30 1.70 0.43 o
13 4 5 0.22 0.63 0.41 <
14 4 5 1.18 1.26 0.45 <
15 4 5 0.06 0.52 0.48 <
16 4 5 2.11 2.57 0.54 o
17 4 5 0.00 -0.46 0.73 <
18 4 5 0.46 0.34 0.70 <
19 4 5 0.13 0.37 0.86 <
20 4 5 0.60 0.38 0.90 <
21 4 5 0.21 1.13 2.13 <
22 4 5 4.08 3.23 1.32 <
23 4 5 0.30 0.85 1.42 <
-23 5 5 15.04 16.84 2.38 o
-22 5 5 3.10 3.04 1.68 <
-21 5 5 0.61 0.13 1.36 <
-20 5 5 0.61 0.46 1.05 <
-19 5 5 0.61 0.78 1.01 <
-18 5 5 0.31 1.66 0.98 <
-17 5 5 1.54 1.17 0.79 <
-16 5 5 0.48 -0.73 0.80 <
-15 5 5 1.20 1.69 0.68 <
-14 5 5 7.86 7.62 0.84 o
-13 5 5 0.25 0.85 3.75 <
-12 5 5 0.47 0.65 0.55 <
-11 5 5 7.22 6.05 0.58 o
-10 5 5 4.97 4.40 0.46 o
-9 5 5 14.48 13.69 0.49 o
-8 5 5 36.66 34.89 0.66 o
-7 5 5 23.50 22.11 0.50 o
-6 5 5 0.06 0.00 0.33 <
-5 5 5 8.39 7.74 0.37 o
-4 5 5 0.35 0.40 0.28 <
-3 5 5 9.25 8.79 0.35 o
-2 5 5 63.31 63.62 0.78 o
-1 5 5 80.83 81.86 0.89 o
0 5 5 3.33 2.28 0.28 o
1 5 5 1.81 1.72 0.26 o
2 5 5 29.47 29.87 0.50 o
3 5 5 7.48 8.02 0.35 o
4 5 5 13.25 12.80 0.37 o
5 5 5 85.97 84.14 0.93 o
6 5 5 33.63 32.37 0.59 o
7 5 5 10.27 10.26 0.42 o
8 5 5 2.20 2.21 0.41 o
9 5 5 0.61 0.51 0.40 <
10 5 5 0.07 -0.48 0.47 <
11 5 5 17.68 16.15 0.63 o
12 5 5 3.11 2.32 0.79 <
13 5 5 2.71 1.92 0.59 o
14 5 5 0.35 0.45 0.77 <
15 5 5 1.01 2.15 0.77 <
16 5 5 2.98 2.66 0.90 <
17 5 5 1.90 1.21 1.00 <
18 5 5 0.10 0.98 0.99 <
19 5 5 5.14 5.21 1.42 o
20 5 5 12.07 10.82 1.26 o
21 5 5 1.53 1.91 1.55 <
-19 6 5 4.28 2.91 1.46 <
-18 6 5 3.27 3.75 1.25 o
-17 6 5 13.10 10.34 1.38 o
-16 6 5 9.54 10.06 1.26 o
-15 6 5 11.38 12.15 1.14 o
-14 6 5 15.40 15.34 0.88 o
-13 6 5 0.69 -0.80 0.77 <
-12 6 5 1.06 0.32 1.00 <
-11 6 5 21.17 20.66 0.90 o
-10 6 5 0.99 0.19 0.59 <
-9 6 5 65.06 58.15 1.11 o
-8 6 5 22.22 21.44 0.83 o
-7 6 5 1.20 0.69 0.74 <
-6 6 5 11.09 9.34 0.72 o
-5 6 5 4.74 4.08 0.58 o
-4 6 5 6.11 5.20 0.66 o
-3 6 5 4.35 4.27 0.66 o
-2 6 5 0.18 -0.20 0.67 <
-1 6 5 0.80 0.93 0.58 <
0 6 5 7.37 7.24 0.57 o
1 6 5 4.66 2.66 0.62 o
2 6 5 1.94 1.24 0.60 <
3 6 5 6.96 5.68 0.60 o
4 6 5 0.32 -0.09 0.69 <
5 6 5 19.27 17.73 0.64 o
6 6 5 39.59 38.96 0.84 o
7 6 5 3.66 3.14 0.74 o
8 6 5 25.51 24.31 0.93 o
9 6 5 0.55 2.04 0.92 <
10 6 5 0.50 0.07 0.99 <
11 6 5 10.62 11.49 0.91 o
12 6 5 2.86 2.81 1.03 <
13 6 5 9.60 10.08 0.99 o
14 6 5 4.66 4.21 1.49 <
15 6 5 0.62 -0.43 1.09 <
16 6 5 1.22 2.83 2.10 <
-13 7 5 2.22 0.65 1.92 <
-12 7 5 12.37 12.48 1.98 o
-11 7 5 5.43 2.86 1.71 <
-10 7 5 0.00 -0.48 1.54 <
-9 7 5 1.10 1.25 1.67 <
-8 7 5 0.05 0.29 1.39 <
-7 7 5 0.06 -1.11 1.33 <
-6 7 5 2.27 1.25 1.30 <
-5 7 5 3.20 4.11 1.21 o
-4 7 5 2.28 1.04 1.30 <
-3 7 5 10.56 7.93 1.19 o
-2 7 5 0.16 0.77 1.54 <
-1 7 5 1.23 1.91 1.19 <
0 7 5 7.35 7.65 1.29 o
1 7 5 1.24 1.82 1.41 <
2 7 5 5.43 5.33 1.28 o
3 7 5 1.75 2.54 1.27 <
4 7 5 0.03 -0.27 0.96 <
5 7 5 0.01 0.16 0.95 <
6 7 5 0.02 -0.21 1.17 <
7 7 5 0.11 -0.09 1.39 <
8 7 5 2.84 1.41 1.39 <
9 7 5 5.73 7.41 2.10 o
10 7 5 4.36 4.30 1.98 <
-30 0 6 0.44 2.64 2.02 <
-29 0 6 0.24 0.34 1.58 <
-28 0 6 32.07 34.64 1.27 o
-27 0 6 5.47 5.42 1.48 o
-26 0 6 0.10 -0.18 1.26 <
-25 0 6 19.10 21.07 0.93 o
-24 0 6 22.59 21.67 0.80 o
-23 0 6 56.52 56.49 1.03 o
-22 0 6 1.88 2.38 0.50 o
-21 0 6 72.69 76.28 1.22 o
-20 0 6 70.18 71.31 1.14 o
-19 0 6 249.49 263.07 3.28 o
-18 0 6 129.22 129.82 1.76 o
-17 0 6 172.35 167.50 2.16 o
-16 0 6 1.06 0.57 0.23 <
-15 0 6 12.84 12.94 0.31 o
-14 0 6 233.25 217.89 2.41 o
-13 0 6 1776.15 1752.70 18.18 o
-12 0 6 688.21 666.48 257.02 <
-11 0 6 369.92 356.02 2.95 o
-10 0 6 9.12 9.77 0.17 o
-9 0 6 189.04 202.02 1.70 o
-8 0 6 79.51 77.71 0.70 o
-7 0 6 534.78 601.03 4.86 o
-6 0 6 734.26 831.55 7.03 o
-5 0 6 833.85 977.50 8.24 o
-4 0 6 23.37 27.62 0.29 o
-3 0 6 3.05 3.27 0.09 o
-2 0 6 277.19 291.41 2.51 o
-1 0 6 131.98 139.86 1.18 o
0 0 6 28.01 31.80 0.30 o
1 0 6 146.87 161.38 1.34 o
2 0 6 9.06 8.07 0.13 o
3 0 6 376.17 392.09 3.18 o
4 0 6 25.44 32.08 0.33 o
5 0 6 79.62 80.17 0.72 o
6 0 6 37.93 34.31 0.34 o
7 0 6 6.61 5.15 0.14 o
8 0 6 1.34 1.53 0.12 o
9 0 6 405.16 357.43 2.96 o
10 0 6 38.41 35.02 0.43 o
11 0 6 0.03 0.05 0.21 <
12 0 6 25.02 27.58 0.44 o
13 0 6 31.24 27.31 0.53 o
14 0 6 25.62 27.34 0.55 o
15 0 6 54.58 54.27 1.00 o
16 0 6 2.16 1.69 0.42 o
17 0 6 8.53 8.12 0.47 o
18 0 6 28.84 28.92 0.75 o
19 0 6 10.10 11.36 0.55 o
20 0 6 294.79 304.53 4.27 o
21 0 6 1.21 0.26 0.60 <
22 0 6 24.53 25.23 0.91 o
23 0 6 20.76 22.49 0.83 o
24 0 6 15.21 17.80 1.29 o
25 0 6 10.48 11.78 1.11 o
26 0 6 35.44 36.90 1.31 o
27 0 6 0.04 5.15 2.74 <
-30 1 6 1.10 2.00 1.26 <
-29 1 6 0.81 1.36 1.32 <
-28 1 6 0.07 0.08 1.27 <
-27 1 6 5.35 6.16 0.95 o
-26 1 6 4.38 4.25 0.74 o
-25 1 6 1.31 0.81 0.50 <
-24 1 6 8.79 8.31 0.54 o
-23 1 6 3.65 4.01 0.51 o
-22 1 6 0.16 -0.08 0.38 <
-21 1 6 21.35 21.64 0.42 o
-20 1 6 47.19 46.18 0.61 o
-19 1 6 94.16 98.22 1.01 o
-18 1 6 3.87 3.05 0.24 o
-17 1 6 126.62 126.58 1.12 o
-16 1 6 1.09 1.10 0.20 o
-15 1 6 137.93 136.99 1.14 o
-14 1 6 246.72 251.87 1.75 o
-13 1 6 0.19 0.82 0.15 o
-12 1 6 43.48 44.81 0.39 o
-11 1 6 418.27 412.11 2.60 o
-10 1 6 59.87 65.69 0.47 o
-9 1 6 2.73 3.74 0.09 o
-8 1 6 72.93 89.02 0.56 o
-7 1 6 82.52 94.45 0.59 o
-6 1 6 130.38 151.37 0.88 o
-5 1 6 75.23 89.06 0.56 o
-4 1 6 52.92 54.08 0.37 o
-3 1 6 44.10 35.69 0.26 o
-2 1 6 12.91 14.05 0.14 o
-1 1 6 4.36 4.35 0.08 o
0 1 6 344.60 343.59 2.15 o
1 1 6 364.69 379.13 2.29 o
2 1 6 174.01 188.48 1.14 o
3 1 6 49.32 53.88 0.37 o
4 1 6 37.26 37.07 0.28 o
5 1 6 8.12 7.94 0.11 o
6 1 6 74.22 61.02 0.42 o
7 1 6 280.77 261.58 1.58 o
8 1 6 400.32 364.89 2.07 o
9 1 6 44.19 37.27 0.29 o
10 1 6 0.04 -0.04 0.11 <
11 1 6 8.90 8.44 0.16 o
12 1 6 37.13 33.97 0.39 o
13 1 6 10.06 9.61 0.24 o
14 1 6 0.04 0.31 0.22 <
15 1 6 0.66 0.07 0.20 <
16 1 6 0.35 0.17 0.25 <
17 1 6 4.08 4.01 0.29 o
18 1 6 10.81 11.25 0.38 o
19 1 6 4.93 5.24 0.41 o
20 1 6 6.70 6.26 0.41 o
21 1 6 19.84 18.95 0.54 o
22 1 6 57.74 59.55 0.94 o
23 1 6 6.30 6.93 0.79 o
24 1 6 4.77 5.98 0.80 o
25 1 6 2.30 1.52 0.95 <
26 1 6 20.71 22.65 1.10 o
27 1 6 12.05 10.78 1.65 o
-29 2 6 0.29 1.57 1.88 <
-28 2 6 0.52 -0.07 1.19 <
-27 2 6 2.29 1.60 1.47 <
-26 2 6 0.45 1.61 0.94 <
-25 2 6 4.94 6.16 0.63 o
-24 2 6 4.42 4.88 0.64 o
-23 2 6 3.34 3.83 0.46 o
-22 2 6 37.33 37.21 0.64 o
-21 2 6 0.26 0.10 0.44 <
-20 2 6 7.80 7.67 0.35 o
-19 2 6 0.29 0.27 0.31 <
-18 2 6 14.90 15.47 0.36 o
-17 2 6 14.40 15.05 0.32 o
-16 2 6 47.57 46.37 0.54 o
-15 2 6 0.37 0.55 0.20 <
-14 2 6 169.86 173.24 1.35 o
-13 2 6 0.10 0.50 0.19 <
-12 2 6 1.91 2.90 0.19 o
-11 2 6 55.25 53.13 0.44 o
-10 2 6 19.64 17.16 0.20 o
-9 2 6 12.52 13.14 0.17 o
-8 2 6 75.51 84.31 0.58 o
-7 2 6 20.98 18.66 0.18 o
-6 2 6 90.21 88.71 0.55 o
-5 2 6 188.89 186.98 1.17 o
-4 2 6 3.26 1.76 0.08 o
-3 2 6 12.03 15.82 0.15 o
-2 2 6 172.40 187.65 1.17 o
-1 2 6 0.19 -0.06 0.08 <
0 2 6 59.51 63.04 0.45 o
1 2 6 296.11 293.99 1.81 o
2 2 6 228.57 226.79 1.37 o
3 2 6 30.94 30.23 0.26 o
4 2 6 13.89 11.81 0.15 o
5 2 6 26.25 27.61 0.25 o
6 2 6 643.63 644.13 4.01 o
7 2 6 29.79 28.90 0.28 o
8 2 6 5.29 5.07 0.15 o
9 2 6 5.30 4.25 0.16 o
10 2 6 76.86 72.21 0.62 o
11 2 6 10.45 10.47 0.29 o
12 2 6 121.99 118.68 1.07 o
13 2 6 0.60 0.99 0.22 o
14 2 6 110.75 112.95 1.01 o
15 2 6 19.29 19.47 0.38 o
16 2 6 0.02 -0.21 0.28 <
17 2 6 28.85 28.21 0.54 o
18 2 6 1.49 0.82 0.41 <
19 2 6 7.92 7.22 0.53 o
20 2 6 1.37 1.09 0.60 <
21 2 6 6.57 6.79 0.52 o
22 2 6 1.74 2.32 0.58 o
23 2 6 55.70 54.64 1.13 o
24 2 6 9.98 9.52 0.84 o
25 2 6 0.18 0.29 1.32 <
26 2 6 2.03 4.36 1.39 o
-28 3 6 9.17 8.28 2.67 o
-27 3 6 8.35 8.28 2.14 o
-26 3 6 9.78 9.47 1.29 o
-25 3 6 1.84 0.86 1.12 <
-24 3 6 1.30 1.36 1.18 <
-23 3 6 0.50 0.65 0.68 <
-22 3 6 1.66 1.24 0.64 <
-21 3 6 1.75 1.86 0.57 o
-20 3 6 0.66 0.76 0.53 <
-19 3 6 5.16 4.94 0.43 o
-18 3 6 2.76 3.18 0.34 o
-17 3 6 15.65 14.44 0.40 o
-16 3 6 63.85 63.90 0.69 o
-15 3 6 14.76 15.27 0.32 o
-14 3 6 13.26 12.73 0.31 o
-13 3 6 3.64 3.66 0.24 o
-12 3 6 4.29 4.01 0.26 o
-11 3 6 3.36 3.10 0.23 o
-10 3 6 11.56 13.63 0.27 o
-9 3 6 2.49 3.26 0.25 o
-8 3 6 23.82 24.89 0.32 o
-7 3 6 0.15 0.22 0.17 <
-6 3 6 2.96 3.14 0.15 o
-5 3 6 60.79 56.06 0.46 o
-4 3 6 22.61 23.60 0.25 o
-3 3 6 2.06 2.87 0.14 o
-2 3 6 173.98 172.96 1.14 o
-1 3 6 117.70 118.34 0.89 o
0 3 6 9.06 10.05 0.17 o
1 3 6 193.22 201.74 1.46 o
2 3 6 0.76 1.14 0.15 o
3 3 6 253.59 265.77 1.83 o
4 3 6 229.73 233.55 1.74 o
5 3 6 143.88 144.84 1.14 o
6 3 6 140.84 138.39 1.10 o
7 3 6 0.08 0.02 0.20 <
8 3 6 5.37 5.64 0.25 o
9 3 6 310.67 304.99 2.40 o
10 3 6 17.92 18.30 0.35 o
11 3 6 1.80 1.27 0.26 o
12 3 6 29.86 29.65 0.47 o
13 3 6 21.46 22.80 0.42 o
14 3 6 9.44 8.77 0.39 o
15 3 6 6.65 6.32 0.41 o
16 3 6 0.75 1.13 0.36 o
17 3 6 5.50 5.49 0.43 o
18 3 6 1.32 0.16 0.51 <
19 3 6 2.86 3.13 0.62 o
20 3 6 23.98 23.34 0.77 o
21 3 6 1.90 0.33 0.88 <
22 3 6 0.01 0.92 1.00 <
23 3 6 31.74 31.74 1.10 o
24 3 6 4.63 4.45 1.65 <
25 3 6 21.50 21.60 1.65 o
-26 4 6 0.11 0.08 2.04 <
-25 4 6 7.36 7.56 1.88 o
-24 4 6 0.39 -1.21 1.17 <
-23 4 6 3.25 2.97 0.98 o
-22 4 6 2.24 3.18 1.01 o
-21 4 6 1.94 2.51 1.04 <
-20 4 6 0.32 0.40 0.66 <
-19 4 6 12.43 12.66 0.69 o
-18 4 6 7.56 8.42 0.65 o
-17 4 6 39.14 39.07 0.76 o
-16 4 6 1.01 0.82 0.42 <
-15 4 6 0.04 0.34 0.47 <
-14 4 6 32.33 32.91 0.60 o
-13 4 6 1.88 1.33 0.34 o
-12 4 6 0.19 0.59 0.28 <
-11 4 6 42.94 43.60 0.67 o
-10 4 6 9.16 8.49 0.34 o
-9 4 6 5.10 5.07 0.29 o
-8 4 6 0.00 -0.27 0.24 <
-7 4 6 0.00 0.10 0.26 <
-6 4 6 0.08 -0.28 0.21 <
-5 4 6 26.09 24.40 0.37 o
-4 4 6 18.40 18.65 0.35 o
-3 4 6 138.77 140.08 1.37 o
-2 4 6 9.88 11.15 0.31 o
-1 4 6 0.30 0.27 0.23 <
0 4 6 27.93 27.32 0.42 o
1 4 6 0.03 0.39 0.21 <
2 4 6 12.33 12.71 0.30 o
3 4 6 493.65 510.02 4.47 o
4 4 6 183.84 187.43 1.78 o
5 4 6 229.85 233.94 1.96 o
6 4 6 21.35 20.85 0.35 o
7 4 6 52.15 54.44 0.61 o
8 4 6 2.10 2.61 0.25 o
9 4 6 5.52 5.76 0.38 o
10 4 6 42.52 41.03 0.68 o
11 4 6 132.13 131.32 1.56 o
12 4 6 16.33 14.33 0.49 o
13 4 6 0.00 -0.28 0.45 <
14 4 6 8.40 9.31 0.51 o
15 4 6 14.16 14.21 0.58 o
16 4 6 2.51 2.04 0.62 o
17 4 6 7.40 7.88 0.72 o
18 4 6 17.86 19.71 0.89 o
19 4 6 13.61 13.17 1.10 o
20 4 6 5.85 7.01 0.91 o
21 4 6 1.26 2.41 1.30 <
22 4 6 0.54 0.60 1.48 <
23 4 6 0.16 1.66 1.87 <
-23 5 6 1.47 -1.50 2.96 <
-22 5 6 2.02 2.39 1.88 <
-21 5 6 2.85 2.37 1.38 <
-20 5 6 17.87 17.23 1.49 o
-19 5 6 0.85 0.68 1.13 <
-18 5 6 9.19 10.52 1.14 o
-17 5 6 20.71 20.69 0.89 o
-16 5 6 67.44 67.17 1.22 o
-15 5 6 22.56 23.03 0.78 o
-14 5 6 0.02 -0.48 0.71 <
-13 5 6 1.44 1.49 0.64 <
-12 5 6 3.97 3.85 0.55 o
-11 5 6 1.30 0.55 0.58 <
-10 5 6 50.02 49.84 0.93 o
-9 5 6 33.83 33.98 0.68 o
-8 5 6 52.14 49.69 0.84 o
-7 5 6 0.00 -0.59 0.41 <
-6 5 6 4.57 3.28 0.45 o
-5 5 6 9.15 8.78 0.41 o
-4 5 6 0.02 -0.09 0.30 <
-3 5 6 0.31 0.82 0.37 <
-2 5 6 3.83 3.51 0.40 o
-1 5 6 2.93 2.20 0.34 o
0 5 6 0.35 0.17 0.33 <
1 5 6 0.35 0.56 0.37 <
2 5 6 6.91 7.37 0.39 o
3 5 6 6.47 5.76 0.35 o
4 5 6 18.09 17.87 0.44 o
5 5 6 11.07 11.54 0.50 o
6 5 6 28.94 28.68 0.55 o
7 5 6 7.82 7.08 0.47 o
8 5 6 1.24 0.86 0.41 <
9 5 6 11.14 12.38 0.56 o
10 5 6 0.10 -0.29 0.57 <
11 5 6 2.16 2.56 0.65 o
12 5 6 5.24 3.82 0.67 o
13 5 6 3.57 2.43 0.69 o
14 5 6 0.02 0.67 0.98 <
15 5 6 6.63 6.14 0.68 o
16 5 6 0.57 0.90 1.05 <
17 5 6 9.44 9.82 1.11 o
18 5 6 0.16 -0.29 1.47 <
19 5 6 0.01 1.26 1.25 <
20 5 6 0.14 1.45 1.56 <
-19 6 6 2.81 2.75 2.16 <
-18 6 6 6.96 7.21 1.59 o
-17 6 6 1.57 1.66 1.55 <
-16 6 6 14.62 14.60 1.10 o
-15 6 6 0.06 1.80 1.04 <
-14 6 6 18.40 17.27 1.10 o
-13 6 6 4.90 3.10 1.10 <
-12 6 6 6.26 5.01 1.07 o
-11 6 6 8.66 7.48 0.99 o
-10 6 6 4.17 2.00 0.70 <
-9 6 6 11.06 8.14 0.88 o
-8 6 6 2.30 2.25 0.77 <
-7 6 6 2.80 4.09 0.61 o
-6 6 6 0.43 -0.40 0.68 <
-5 6 6 2.30 2.07 0.63 o
-4 6 6 1.30 0.96 0.85 <
-3 6 6 18.36 16.93 0.70 o
-2 6 6 10.17 9.13 0.65 o
-1 6 6 0.18 -0.03 0.56 <
0 6 6 8.76 6.82 0.55 o
1 6 6 1.92 0.74 0.60 <
2 6 6 0.37 -0.65 0.54 <
3 6 6 8.73 6.25 0.66 o
4 6 6 0.06 -1.01 0.78 <
5 6 6 0.52 2.47 0.72 o
6 6 6 13.47 9.57 0.76 o
7 6 6 0.20 -0.50 0.84 <
8 6 6 2.99 2.90 0.75 o
9 6 6 12.04 12.34 0.94 o
10 6 6 0.64 -0.52 1.08 <
11 6 6 0.23 0.16 1.27 <
12 6 6 0.08 0.80 0.91 <
13 6 6 2.57 2.15 1.55 <
14 6 6 2.29 1.67 1.44 <
15 6 6 0.03 2.79 1.71 <
16 6 6 0.89 0.53 2.10 <
-12 7 6 2.53 3.26 1.93 <
-11 7 6 24.92 21.01 2.00 o
-10 7 6 0.93 2.37 1.60 <
-9 7 6 2.81 3.28 1.88 <
-8 7 6 6.33 5.18 1.38 o
-7 7 6 1.13 0.71 1.20 <
-6 7 6 2.13 0.31 1.49 <
-5 7 6 3.29 1.15 1.57 <
-4 7 6 0.78 0.40 1.26 <
-3 7 6 3.06 3.84 1.52 <
-2 7 6 0.76 0.77 1.75 <
-1 7 6 0.29 -0.38 1.49 <
0 7 6 1.39 -1.20 1.52 <
1 7 6 0.73 1.64 1.65 <
2 7 6 1.19 1.70 1.47 <
3 7 6 1.09 -0.27 1.26 <
4 7 6 0.08 1.61 1.19 <
5 7 6 0.33 -1.63 1.21 <
6 7 6 1.55 1.83 1.49 <
7 7 6 3.47 4.10 1.88 <
8 7 6 4.06 5.47 1.41 o
9 7 6 0.94 2.60 1.49 <
-30 1 7 6.84 6.08 1.64 o
-29 1 7 0.11 0.19 1.29 <
-28 1 7 2.11 2.88 1.12 <
-27 1 7 30.37 29.22 0.94 o
-26 1 7 1.42 1.46 0.78 <
-25 1 7 18.09 18.57 0.67 o
-24 1 7 4.36 5.38 0.61 o
-23 1 7 5.03 4.57 0.52 o
-22 1 7 38.01 37.55 0.57 o
-21 1 7 27.55 27.65 0.49 o
-20 1 7 11.78 11.21 0.35 o
-19 1 7 3.53 3.89 0.26 o
-18 1 7 15.17 15.88 0.34 o
-17 1 7 0.44 0.71 0.21 o
-16 1 7 56.64 53.36 0.58 o
-15 1 7 101.60 102.12 0.86 o
-14 1 7 227.96 224.42 1.70 o
-13 1 7 169.58 166.39 1.24 o
-12 1 7 24.45 23.60 0.24 o
-11 1 7 13.42 13.12 0.17 o
-10 1 7 34.89 37.46 0.31 o
-9 1 7 69.08 67.53 0.47 o
-8 1 7 354.92 341.02 1.98 o
-7 1 7 153.11 154.97 0.91 o
-6 1 7 45.87 42.17 0.30 o
-5 1 7 1.83 3.99 0.09 o
-4 1 7 110.97 110.35 0.70 o
-3 1 7 17.98 19.24 0.17 o
-2 1 7 216.80 208.69 1.30 o
-1 1 7 135.60 123.21 0.77 o
0 1 7 244.93 225.29 1.36 o
1 1 7 0.31 1.39 0.08 o
2 1 7 49.02 47.17 0.32 o
3 1 7 1.48 1.54 0.08 o
4 1 7 0.74 0.46 0.08 o
5 1 7 45.49 41.96 0.32 o
6 1 7 123.40 108.22 0.70 o
7 1 7 5.44 7.17 0.13 o
8 1 7 1.71 2.38 0.12 o
9 1 7 6.13 5.84 0.14 o
10 1 7 66.22 62.95 0.49 o
11 1 7 60.03 58.52 0.52 o
12 1 7 43.23 43.97 0.47 o
13 1 7 49.26 51.54 0.57 o
14 1 7 14.62 15.60 0.34 o
15 1 7 73.95 73.95 0.85 o
16 1 7 10.49 10.28 0.34 o
17 1 7 31.88 32.69 0.57 o
18 1 7 71.01 72.64 0.94 o
19 1 7 0.45 -0.48 0.40 <
20 1 7 80.49 83.90 1.10 o
21 1 7 147.65 150.74 1.68 o
22 1 7 4.91 5.33 0.70 o
23 1 7 20.86 20.98 0.80 o
24 1 7 0.06 -0.01 1.04 <
25 1 7 2.68 2.80 1.08 <
26 1 7 5.56 2.83 1.17 <
-29 2 7 0.15 -1.10 1.85 <
-28 2 7 0.98 2.32 1.33 <
-27 2 7 0.47 0.11 1.11 <
-26 2 7 1.34 0.17 0.97 <
-25 2 7 1.74 1.36 0.73 <
-24 2 7 6.50 5.28 0.63 o
-23 2 7 1.03 1.59 0.59 <
-22 2 7 40.78 39.44 0.65 o
-21 2 7 2.99 2.83 0.50 o
-20 2 7 0.98 1.23 0.36 o
-19 2 7 3.09 3.30 0.33 o
-18 2 7 12.31 12.29 0.40 o
-17 2 7 2.47 2.64 0.31 o
-16 2 7 350.62 354.18 2.87 o
-15 2 7 28.77 28.69 0.40 o
-14 2 7 66.88 69.31 0.66 o
-13 2 7 18.93 21.01 0.30 o
-12 2 7 38.69 39.99 0.40 o
-11 2 7 11.63 10.84 0.19 o
-10 2 7 43.23 45.47 0.39 o
-9 2 7 3.83 4.66 0.14 o
-8 2 7 85.86 97.86 0.65 o
-7 2 7 48.09 33.67 0.27 o
-6 2 7 50.64 45.26 0.34 o
-5 2 7 2.83 5.70 0.11 o
-4 2 7 18.75 20.13 0.19 o
-3 2 7 75.12 72.42 0.50 o
-2 2 7 59.45 68.17 0.51 o
-1 2 7 294.88 301.74 2.03 o
0 2 7 267.27 272.93 1.85 o
1 2 7 569.80 569.21 3.54 o
2 2 7 0.30 0.23 0.09 <
3 2 7 0.73 0.74 0.10 o
4 2 7 16.07 16.56 0.19 o
5 2 7 27.83 26.78 0.26 o
6 2 7 159.60 152.84 1.03 o
7 2 7 254.74 236.88 1.70 o
8 2 7 46.74 44.19 0.42 o
9 2 7 13.39 9.22 0.21 o
10 2 7 41.59 38.66 0.45 o
11 2 7 1.67 2.20 0.25 o
12 2 7 0.81 0.69 0.21 o
13 2 7 13.68 13.28 0.30 o
14 2 7 7.97 7.89 0.30 o
15 2 7 54.08 57.10 0.74 o
16 2 7 3.22 3.78 0.35 o
17 2 7 43.01 43.82 0.70 o
18 2 7 6.83 6.97 0.42 o
19 2 7 6.34 5.59 0.47 o
20 2 7 1.29 1.23 0.65 <
21 2 7 9.33 6.57 0.70 o
22 2 7 0.93 1.77 0.76 <
23 2 7 50.18 50.53 1.12 o
24 2 7 6.19 5.27 1.06 o
25 2 7 0.71 1.49 1.26 <
-28 3 7 0.98 2.88 3.69 <
-27 3 7 1.55 2.80 1.63 <
-26 3 7 0.84 -0.54 1.37 <
-25 3 7 7.76 5.12 1.16 o
-24 3 7 3.31 3.00 1.03 <
-23 3 7 0.04 0.22 0.76 <
-22 3 7 0.00 0.02 0.73 <
-21 3 7 8.36 9.05 0.62 o
-20 3 7 0.05 -0.11 0.49 <
-19 3 7 68.01 69.38 0.87 o
-18 3 7 37.90 35.84 0.54 o
-17 3 7 8.43 8.14 0.35 o
-16 3 7 48.56 46.64 0.60 o
-15 3 7 0.19 0.06 0.28 <
-14 3 7 0.79 0.73 0.26 <
-13 3 7 17.96 18.87 0.34 o
-12 3 7 0.25 1.29 0.24 o
-11 3 7 14.79 16.11 0.30 o
-10 3 7 118.59 120.18 1.12 o
-9 3 7 0.76 0.21 0.20 <
-8 3 7 82.90 81.08 0.73 o
-7 3 7 46.05 43.36 0.44 o
-6 3 7 3.20 3.03 0.17 o
-5 3 7 180.07 171.32 1.31 o
-4 3 7 41.82 43.18 0.38 o
-3 3 7 17.88 17.78 0.23 o
-2 3 7 9.41 10.42 0.19 o
-1 3 7 2.59 2.42 0.15 o
0 3 7 7.34 7.27 0.17 o
1 3 7 197.40 197.77 1.56 o
2 3 7 32.82 33.25 0.47 o
3 3 7 226.62 231.95 1.82 o
4 3 7 313.54 323.82 2.49 o
5 3 7 0.98 0.98 0.18 o
6 3 7 97.99 97.26 0.90 o
7 3 7 3.94 4.67 0.26 o
8 3 7 3.40 4.06 0.23 o
9 3 7 13.58 12.64 0.30 o
10 3 7 27.39 26.67 0.44 o
11 3 7 4.08 2.75 0.28 o
12 3 7 67.94 68.63 0.82 o
13 3 7 0.07 -0.29 0.34 <
14 3 7 0.05 0.49 0.39 <
15 3 7 2.25 2.18 0.39 o
16 3 7 2.14 1.67 0.47 o
17 3 7 4.26 5.00 0.54 o
18 3 7 0.02 -0.02 0.65 <
19 3 7 0.32 -0.13 0.82 <
20 3 7 1.39 1.75 0.87 <
21 3 7 0.87 2.37 1.18 <
22 3 7 0.50 -0.13 1.28 <
23 3 7 0.60 1.21 1.19 <
24 3 7 0.67 -0.21 2.75 <
-26 4 7 4.13 5.07 2.33 <
-25 4 7 2.81 4.09 1.75 <
-24 4 7 0.22 -0.49 1.38 <
-23 4 7 2.21 1.56 1.29 <
-22 4 7 23.53 24.27 0.92 o
-21 4 7 0.20 -0.04 0.83 <
-20 4 7 0.09 0.59 0.71 <
-19 4 7 8.12 11.33 0.62 o
-18 4 7 6.02 6.95 0.57 o
-17 4 7 6.20 7.87 0.62 o
-16 4 7 4.31 3.68 0.53 o
-15 4 7 1.23 1.32 0.43 o
-14 4 7 0.00 -1.11 0.38 <
-13 4 7 1.75 1.86 0.36 o
-12 4 7 2.23 2.32 0.29 o
-11 4 7 9.22 10.85 0.38 o
-10 4 7 2.67 1.91 0.34 o
-9 4 7 2.54 2.53 0.30 o
-8 4 7 7.67 7.92 0.30 o
-7 4 7 4.64 4.48 0.29 o
-6 4 7 14.47 13.78 0.29 o
-5 4 7 3.71 3.91 0.31 o
-4 4 7 3.47 3.15 0.27 o
-3 4 7 0.02 -0.10 0.26 <
-2 4 7 0.09 0.24 0.25 <
-1 4 7 24.13 23.78 0.43 o
0 4 7 23.29 23.46 0.42 o
1 4 7 1.74 1.81 0.25 o
2 4 7 3.35 3.17 0.26 o
3 4 7 8.22 8.13 0.33 o
4 4 7 0.26 -0.10 0.28 <
5 4 7 4.50 5.53 0.32 o
6 4 7 5.56 5.78 0.32 o
7 4 7 42.46 43.15 0.57 o
8 4 7 6.01 6.76 0.35 o
9 4 7 0.03 -0.85 0.32 <
10 4 7 2.18 2.57 0.38 o
11 4 7 6.01 6.13 0.51 o
12 4 7 0.26 0.75 0.50 <
13 4 7 14.04 14.47 0.61 o
14 4 7 3.02 2.75 0.56 o
15 4 7 11.60 12.98 0.69 o
16 4 7 1.26 1.50 1.38 <
17 4 7 0.25 0.28 0.84 <
18 4 7 2.82 3.55 0.94 o
19 4 7 0.23 -1.63 0.92 <
20 4 7 0.17 1.24 1.16 <
21 4 7 0.24 0.73 1.82 <
22 4 7 1.42 0.38 1.79 <
-23 5 7 2.75 3.94 2.25 <
-22 5 7 0.61 1.39 3.49 <
-21 5 7 8.27 9.15 1.65 o
-20 5 7 6.52 7.21 1.50 o
-19 5 7 11.78 10.93 1.08 o
-18 5 7 23.74 26.71 1.13 o
-17 5 7 7.56 6.50 1.06 o
-16 5 7 19.22 22.50 0.93 o
-15 5 7 1.71 2.03 0.76 <
-14 5 7 3.27 3.31 0.70 o
-13 5 7 3.69 4.61 0.63 o
-12 5 7 4.61 3.76 0.54 o
-11 5 7 11.26 10.08 0.52 o
-10 5 7 8.34 7.45 0.54 o
-9 5 7 1.32 1.32 0.49 <
-8 5 7 0.51 0.52 0.46 <
-7 5 7 13.21 10.77 0.52 o
-6 5 7 2.57 1.64 0.42 o
-5 5 7 25.28 23.25 0.62 o
-4 5 7 5.02 5.01 0.41 o
-3 5 7 0.00 0.55 0.38 <
-2 5 7 50.50 48.23 0.73 o
-1 5 7 0.05 0.42 0.32 <
0 5 7 1.53 1.01 0.40 <
1 5 7 74.30 69.38 0.92 o
2 5 7 1.66 1.48 0.33 o
3 5 7 51.20 47.86 0.73 o
4 5 7 75.77 72.16 0.94 o
5 5 7 6.52 5.89 0.45 o
6 5 7 37.78 36.73 0.68 o
7 5 7 1.10 1.89 0.56 o
8 5 7 1.44 0.32 0.51 <
9 5 7 48.53 47.43 0.98 o
10 5 7 3.87 3.00 0.66 o
11 5 7 0.21 0.40 0.75 <
12 5 7 7.30 5.95 0.70 o
13 5 7 2.51 2.19 0.79 <
14 5 7 2.52 3.07 0.84 o
15 5 7 5.87 5.10 1.03 o
16 5 7 0.26 1.06 1.00 <
17 5 7 0.21 -0.51 0.93 <
18 5 7 2.08 0.29 1.36 <
19 5 7 0.09 -1.09 1.65 <
-18 6 7 2.78 3.09 1.69 <
-17 6 7 2.47 2.77 1.29 <
-16 6 7 25.64 24.94 1.17 o
-15 6 7 3.09 3.89 1.09 o
-14 6 7 5.89 8.17 1.15 o
-13 6 7 0.05 0.23 1.09 <
-12 6 7 2.21 2.75 1.03 <
-11 6 7 9.40 10.66 1.15 o
-10 6 7 18.49 15.60 0.83 o
-9 6 7 2.02 2.88 0.80 o
-8 6 7 2.23 2.27 0.96 <
-7 6 7 0.08 0.79 0.94 <
-6 6 7 0.21 0.60 0.86 <
-5 6 7 1.80 2.48 0.81 o
-4 6 7 9.32 8.91 0.78 o
-3 6 7 2.78 1.20 0.64 <
-2 6 7 0.55 0.63 0.55 <
-1 6 7 7.73 6.08 0.63 o
0 6 7 9.28 7.61 0.59 o
1 6 7 21.20 20.14 0.78 o
2 6 7 1.73 2.47 0.75 o
3 6 7 2.76 1.92 0.86 <
4 6 7 2.88 1.93 0.67 <
5 6 7 0.00 1.03 0.70 <
6 6 7 0.70 -0.61 0.66 <
7 6 7 6.45 4.76 0.97 o
8 6 7 1.21 2.05 0.98 <
9 6 7 0.81 0.00 0.98 <
10 6 7 1.00 0.62 0.94 <
11 6 7 2.71 3.57 1.09 o
12 6 7 0.53 -0.41 1.23 <
13 6 7 0.97 2.68 1.46 <
14 6 7 1.47 1.53 1.78 <
15 6 7 7.19 6.95 2.02 o
-11 7 7 5.34 4.58 1.87 <
-10 7 7 0.26 1.59 1.61 <
-9 7 7 0.92 3.05 1.37 <
-8 7 7 0.06 -2.04 1.32 <
-7 7 7 0.06 -0.70 1.58 <
-6 7 7 0.66 0.21 1.67 <
-5 7 7 2.93 2.45 1.42 <
-4 7 7 2.07 0.16 1.23 <
-3 7 7 0.07 -0.53 1.39 <
-2 7 7 2.76 4.04 1.43 <
-1 7 7 0.08 0.90 1.38 <
0 7 7 0.17 1.63 1.71 <
1 7 7 0.16 1.64 1.46 <
2 7 7 0.02 -2.00 1.41 <
3 7 7 0.63 0.17 1.50 <
4 7 7 1.61 1.51 1.72 <
5 7 7 0.00 0.65 1.65 <
6 7 7 1.03 0.52 1.59 <
7 7 7 3.37 4.27 1.92 <
8 7 7 0.48 1.12 1.66 <
-30 0 8 2.48 2.37 2.36 <
-29 0 8 24.89 24.17 2.13 o
-28 0 8 2.11 2.38 1.50 <
-27 0 8 6.29 7.20 1.36 o
-26 0 8 4.60 4.17 0.96 o
-25 0 8 0.01 -0.08 0.75 <
-24 0 8 6.70 6.16 0.74 o
-23 0 8 8.96 8.69 0.63 o
-22 0 8 7.87 8.03 0.58 o
-21 0 8 57.02 57.25 1.02 o
-20 0 8 13.99 14.46 0.56 o
-19 0 8 98.10 97.99 1.45 o
-18 0 8 2.09 1.95 0.32 o
-17 0 8 29.59 27.91 0.67 o
-16 0 8 2.95 2.01 0.34 o
-15 0 8 1.65 1.10 0.30 o
-14 0 8 40.84 38.51 0.53 o
-13 0 8 165.00 165.59 1.73 o
-12 0 8 6.27 6.15 0.21 o
-11 0 8 28.39 27.85 0.39 o
-10 0 8 248.90 215.10 1.93 o
-9 0 8 7.74 4.73 0.15 o
-8 0 8 72.46 60.19 0.59 o
-7 0 8 6.54 7.68 0.17 o
-6 0 8 95.75 95.15 0.90 o
-5 0 8 0.25 0.32 0.10 o
-4 0 8 311.57 305.81 2.52 o
-3 0 8 325.55 321.52 2.51 o
-2 0 8 1830.25 1743.19 13.31 o
-1 0 8 336.41 310.54 2.33 o
0 0 8 1.94 1.57 0.09 o
1 0 8 5.81 3.89 0.11 o
2 0 8 140.29 131.28 1.08 o
3 0 8 105.19 95.78 0.91 o
4 0 8 426.67 353.92 3.06 o
5 0 8 89.91 63.28 0.64 o
6 0 8 121.45 91.99 0.90 o
7 0 8 66.56 53.31 0.58 o
8 0 8 118.10 106.51 1.03 o
9 0 8 126.08 122.73 1.18 o
10 0 8 52.36 48.50 0.58 o
11 0 8 28.00 29.90 0.52 o
12 0 8 91.55 99.26 1.24 o
13 0 8 207.41 213.32 2.67 o
14 0 8 42.82 42.84 0.77 o
15 0 8 19.76 19.85 0.60 o
16 0 8 12.53 13.16 0.54 o
17 0 8 0.00 1.34 0.53 <
18 0 8 76.03 79.15 1.42 o
19 0 8 321.66 328.54 4.58 o
20 0 8 184.46 190.97 2.89 o
21 0 8 49.88 53.72 1.17 o
22 0 8 13.99 14.61 0.86 o
23 0 8 3.97 2.43 1.24 <
24 0 8 20.38 21.74 1.29 o
25 0 8 35.92 35.68 1.84 o
26 0 8 33.24 34.01 2.17 o
-30 1 8 0.82 -1.51 1.92 <
-29 1 8 0.24 -0.45 1.37 <
-28 1 8 0.11 -0.26 1.11 <
-27 1 8 0.01 0.58 1.02 <
-26 1 8 3.72 3.96 0.79 o
-25 1 8 7.07 6.53 0.69 o
-24 1 8 1.62 1.34 0.68 <
-23 1 8 31.41 32.05 0.63 o
-22 1 8 6.44 6.72 0.45 o
-21 1 8 78.64 77.33 0.84 o
-20 1 8 20.46 20.79 0.44 o
-19 1 8 29.68 27.93 0.47 o
-18 1 8 12.12 11.84 0.31 o
-17 1 8 0.87 0.75 0.23 o
-16 1 8 13.64 13.40 0.30 o
-15 1 8 246.82 246.94 2.04 o
-14 1 8 6.84 7.72 0.28 o
-13 1 8 66.26 64.50 0.56 o
-12 1 8 1.50 1.34 0.18 o
-11 1 8 8.27 9.69 0.16 o
-10 1 8 0.04 0.22 0.12 <
-9 1 8 16.43 9.35 0.14 o
-8 1 8 17.51 12.38 0.15 o
-7 1 8 4.59 1.17 0.09 o
-6 1 8 12.80 11.48 0.14 o
-5 1 8 36.82 36.16 0.27 o
-4 1 8 70.60 70.72 0.48 o
-3 1 8 9.28 9.03 0.12 o
-2 1 8 6.24 5.26 0.10 o
-1 1 8 666.59 649.86 3.64 o
0 1 8 168.24 160.91 0.97 o
1 1 8 43.37 41.30 0.31 o
2 1 8 84.05 74.04 0.52 o
3 1 8 22.81 21.42 0.20 o
4 1 8 111.30 101.58 0.68 o
5 1 8 88.02 76.95 0.54 o
6 1 8 31.14 28.69 0.26 o
7 1 8 27.88 19.44 0.21 o
8 1 8 1.05 0.57 0.16 o
9 1 8 2.51 2.95 0.18 o
10 1 8 1.04 0.20 0.20 <
11 1 8 9.11 9.44 0.23 o
12 1 8 24.35 24.95 0.38 o
13 1 8 17.88 20.47 0.37 o
14 1 8 5.57 7.07 0.29 o
15 1 8 32.65 31.85 0.51 o
16 1 8 3.77 4.84 0.33 o
17 1 8 24.53 23.66 0.50 o
18 1 8 160.03 167.01 1.80 o
19 1 8 0.24 -0.17 0.44 <
20 1 8 4.56 3.78 0.52 o
21 1 8 28.41 25.89 0.78 o
22 1 8 22.13 21.45 0.82 o
23 1 8 7.92 8.11 0.86 o
24 1 8 16.69 17.02 0.80 o
25 1 8 3.44 1.90 1.52 <
26 1 8 14.00 12.30 1.60 o
-29 2 8 13.20 13.49 1.61 o
-28 2 8 0.07 -0.38 1.48 <
-27 2 8 21.98 20.03 1.04 o
-26 2 8 0.51 2.24 1.12 <
-25 2 8 5.79 6.14 0.73 o
-24 2 8 3.76 3.86 0.58 o
-23 2 8 2.90 2.60 0.65 o
-22 2 8 16.85 16.01 0.57 o
-21 2 8 82.40 85.50 1.01 o
-20 2 8 2.02 2.10 0.47 o
-19 2 8 16.72 16.42 0.44 o
-18 2 8 4.67 4.32 0.31 o
-17 2 8 59.22 59.63 0.70 o
-16 2 8 106.22 103.92 0.98 o
-15 2 8 1.85 1.71 0.26 o
-14 2 8 1.26 1.41 0.24 o
-13 2 8 14.74 17.33 0.28 o
-12 2 8 0.09 0.25 0.23 <
-11 2 8 0.27 0.97 0.24 o
-10 2 8 187.75 183.29 1.31 o
-9 2 8 24.90 24.18 0.26 o
-8 2 8 9.73 9.56 0.17 o
-7 2 8 174.25 146.25 0.93 o
-6 2 8 19.60 18.03 0.18 o
-5 2 8 65.41 57.11 0.42 o
-4 2 8 160.56 158.48 0.99 o
-3 2 8 68.18 67.30 0.48 o
-2 2 8 9.79 8.94 0.15 o
-1 2 8 74.66 68.31 0.54 o
0 2 8 86.21 87.49 0.64 o
1 2 8 555.96 543.77 3.40 o
2 2 8 12.13 12.14 0.17 o
3 2 8 2.38 1.87 0.13 o
4 2 8 7.14 6.20 0.15 o
5 2 8 54.61 55.22 0.44 o
6 2 8 51.65 48.53 0.43 o
7 2 8 97.95 89.65 0.73 o
8 2 8 9.85 9.23 0.23 o
9 2 8 60.72 55.99 0.56 o
10 2 8 12.10 12.63 0.26 o
11 2 8 7.70 6.17 0.24 o
12 2 8 9.57 9.03 0.31 o
13 2 8 8.77 9.19 0.33 o
14 2 8 0.46 0.93 0.29 o
15 2 8 0.21 0.68 0.31 <
16 2 8 34.75 36.21 0.61 o
17 2 8 5.81 6.29 0.55 o
18 2 8 38.85 40.38 0.77 o
19 2 8 0.56 -0.30 0.50 <
20 2 8 5.87 5.39 0.62 o
21 2 8 31.70 32.56 0.82 o
22 2 8 0.01 0.50 0.79 <
23 2 8 1.25 1.43 0.96 <
24 2 8 20.49 20.94 1.20 o
25 2 8 2.00 3.05 1.74 <
-28 3 8 4.72 1.56 2.64 <
-27 3 8 10.98 14.64 1.89 o
-26 3 8 1.07 0.29 1.46 <
-25 3 8 3.44 4.15 1.20 o
-24 3 8 68.78 66.27 1.15 o
-23 3 8 2.33 2.70 0.86 o
-22 3 8 0.23 0.17 0.95 <
-21 3 8 25.71 28.99 0.73 o
-20 3 8 29.43 30.81 0.73 o
-19 3 8 50.13 53.76 0.74 o
-18 3 8 90.28 84.32 0.93 o
-17 3 8 0.38 1.08 0.41 <
-16 3 8 87.77 88.31 0.94 o
-15 3 8 14.05 13.41 0.37 o
-14 3 8 26.32 27.57 0.43 o
-13 3 8 86.73 93.03 0.95 o
-12 3 8 1.17 0.61 0.29 <
-11 3 8 0.25 0.07 0.23 <
-10 3 8 6.68 7.91 0.26 o
-9 3 8 2.88 3.55 0.21 o
-8 3 8 24.41 22.99 0.35 o
-7 3 8 8.73 11.42 0.25 o
-6 3 8 53.38 47.09 0.45 o
-5 3 8 40.58 35.00 0.36 o
-4 3 8 1.01 0.55 0.16 o
-3 3 8 60.19 58.86 0.54 o
-2 3 8 266.67 269.11 1.93 o
-1 3 8 0.01 -0.21 0.18 <
0 3 8 27.77 26.32 0.33 o
1 3 8 73.19 72.34 0.69 o
2 3 8 195.57 191.39 1.60 o
3 3 8 148.09 149.55 1.35 o
4 3 8 116.02 117.09 1.11 o
5 3 8 3.03 2.87 0.25 o
6 3 8 44.62 42.91 0.53 o
7 3 8 0.05 0.37 0.23 <
8 3 8 67.18 62.25 0.74 o
9 3 8 12.94 11.57 0.32 o
10 3 8 4.16 4.61 0.30 o
11 3 8 17.07 16.82 0.39 o
12 3 8 36.24 34.33 0.54 o
13 3 8 2.32 2.09 0.33 o
14 3 8 1.76 1.25 0.45 <
15 3 8 12.66 14.11 0.46 o
16 3 8 14.65 14.71 0.51 o
17 3 8 3.63 3.57 0.61 o
18 3 8 8.31 8.01 0.67 o
19 3 8 14.29 15.81 0.83 o
20 3 8 1.11 1.88 1.01 <
21 3 8 0.74 1.47 0.98 <
22 3 8 9.13 7.75 2.54 o
23 3 8 5.94 7.38 1.62 o
-25 4 8 11.60 11.97 1.82 o
-24 4 8 3.12 4.49 1.54 <
-23 4 8 5.22 6.36 1.31 o
-22 4 8 24.43 26.84 0.95 o
-21 4 8 7.19 7.00 0.90 o
-20 4 8 45.66 44.52 0.95 o
-19 4 8 54.54 54.79 0.97 o
-18 4 8 207.27 209.70 2.54 o
-17 4 8 13.40 13.74 0.65 o
-16 4 8 0.64 1.53 0.53 <
-15 4 8 4.66 4.39 0.43 o
-14 4 8 0.53 0.72 0.46 <
-13 4 8 12.17 12.60 0.42 o
-12 4 8 76.04 80.33 1.05 o
-11 4 8 18.95 20.84 0.45 o
-10 4 8 29.32 29.33 0.51 o
-9 4 8 17.13 16.58 0.36 o
-8 4 8 12.07 11.19 0.34 o
-7 4 8 16.79 16.64 0.42 o
-6 4 8 4.28 3.64 0.30 o
-5 4 8 2.99 2.86 0.30 o
-4 4 8 190.80 185.62 1.89 o
-3 4 8 11.72 11.40 0.35 o
-2 4 8 6.97 7.30 0.29 o
-1 4 8 0.06 -0.52 0.27 <
0 4 8 26.87 26.52 0.47 o
1 4 8 0.00 0.06 0.29 <
2 4 8 212.54 216.06 2.33 o
3 4 8 17.91 18.43 0.44 o
4 4 8 217.39 210.23 2.12 o
5 4 8 1.71 1.12 0.31 o
6 4 8 10.42 10.96 0.41 o
7 4 8 0.81 0.59 0.39 <
8 4 8 1.89 2.26 0.35 o
9 4 8 0.95 1.69 0.45 o
10 4 8 52.02 49.71 0.81 o
11 4 8 1.28 0.82 0.56 <
12 4 8 0.00 0.27 0.66 <
13 4 8 20.14 20.86 0.64 o
14 4 8 0.01 0.05 0.64 <
15 4 8 32.94 34.00 0.85 o
16 4 8 2.71 1.03 0.72 <
17 4 8 0.00 1.00 0.85 <
18 4 8 0.42 0.72 1.06 <
19 4 8 0.00 0.51 1.18 <
20 4 8 0.65 1.12 1.32 <
21 4 8 20.37 18.42 1.91 o
-22 5 8 0.01 0.10 2.01 <
-21 5 8 2.24 3.72 1.31 <
-20 5 8 7.82 7.68 1.59 o
-19 5 8 1.96 1.68 1.35 <
-18 5 8 9.27 10.48 1.07 o
-17 5 8 1.22 0.85 1.05 <
-16 5 8 25.55 29.39 0.92 o
-15 5 8 0.57 -0.63 0.84 <
-14 5 8 0.82 0.11 2.93 <
-13 5 8 0.05 -0.50 0.89 <
-12 5 8 2.24 1.65 0.82 <
-11 5 8 0.96 1.58 0.65 <
-10 5 8 0.36 1.04 0.66 <
-9 5 8 0.13 -0.06 0.50 <
-8 5 8 1.93 2.78 0.53 o
-7 5 8 15.46 15.50 0.57 o
-6 5 8 14.94 13.64 0.53 o
-5 5 8 24.44 22.36 0.67 o
-4 5 8 0.30 1.02 0.39 <
-3 5 8 0.13 0.29 0.44 <
-2 5 8 9.63 8.57 0.47 o
-1 5 8 0.25 -1.07 0.45 <
0 5 8 14.36 13.97 0.42 o
1 5 8 66.16 63.47 0.87 o
2 5 8 50.92 47.89 0.74 o
3 5 8 19.35 17.50 0.50 o
4 5 8 2.93 2.16 0.45 o
5 5 8 17.08 17.77 0.60 o
6 5 8 0.34 0.63 0.44 <
7 5 8 2.88 3.59 0.52 o
8 5 8 1.89 1.70 0.47 o
9 5 8 1.75 1.70 0.63 <
10 5 8 1.31 1.34 0.73 <
11 5 8 0.66 1.67 0.79 <
12 5 8 4.64 5.03 0.72 o
13 5 8 4.82 4.29 0.90 o
14 5 8 1.62 2.54 0.91 <
15 5 8 17.76 17.36 1.23 o
16 5 8 21.16 19.85 1.14 o
17 5 8 10.81 9.69 1.22 o
18 5 8 0.80 0.11 1.73 <
-18 6 8 0.02 -0.66 1.97 <
-17 6 8 0.96 -0.19 1.60 <
-16 6 8 1.39 0.42 1.39 <
-15 6 8 0.89 1.82 1.50 <
-14 6 8 4.95 5.32 1.26 o
-13 6 8 5.61 5.33 1.09 o
-12 6 8 1.94 2.89 0.90 o
-11 6 8 2.26 3.75 0.73 o
-10 6 8 0.97 0.94 1.03 <
-9 6 8 1.72 0.97 1.13 <
-8 6 8 0.27 -0.11 0.80 <
-7 6 8 2.57 -0.20 0.91 <
-6 6 8 6.32 6.45 0.82 o
-5 6 8 1.41 0.81 0.95 <
-4 6 8 1.09 2.91 0.95 o
-3 6 8 3.25 4.85 0.83 o
-2 6 8 4.06 4.38 0.78 o
-1 6 8 11.25 10.45 0.80 o
0 6 8 0.41 -0.37 0.75 <
1 6 8 18.04 17.67 0.94 o
2 6 8 0.02 0.46 0.98 <
3 6 8 1.99 1.40 0.73 <
4 6 8 2.30 1.16 0.85 <
5 6 8 0.11 -0.38 0.90 <
6 6 8 0.14 -0.13 0.75 <
7 6 8 18.32 19.54 1.09 o
8 6 8 2.35 2.75 0.98 <
9 6 8 4.51 3.54 1.10 o
10 6 8 15.06 14.22 0.93 o
11 6 8 0.00 -1.46 1.47 <
12 6 8 0.57 0.60 1.17 <
13 6 8 0.15 0.20 1.76 <
14 6 8 0.70 0.71 1.96 <
-10 7 8 5.75 7.62 2.50 o
-9 7 8 1.45 1.06 2.08 <
-8 7 8 0.68 0.23 1.65 <
-7 7 8 4.43 4.47 1.89 <
-6 7 8 1.38 2.71 1.79 <
-5 7 8 1.32 1.79 1.55 <
-4 7 8 22.31 21.06 1.71 o
-3 7 8 1.11 0.37 1.68 <
-2 7 8 1.45 -0.33 1.79 <
-1 7 8 11.80 8.41 1.52 o
0 7 8 0.94 1.67 1.57 <
1 7 8 4.85 2.77 1.82 <
2 7 8 6.35 5.90 1.56 o
3 7 8 0.05 1.17 1.75 <
4 7 8 6.24 4.03 1.52 <
5 7 8 0.93 0.52 2.00 <
6 7 8 0.00 0.08 1.68 <
-29 1 9 12.37 11.29 1.40 o
-28 1 9 0.08 -0.72 1.22 <
-27 1 9 1.96 3.91 1.18 o
-26 1 9 0.16 0.32 0.83 <
-25 1 9 5.05 4.82 0.75 o
-24 1 9 11.63 13.19 0.67 o
-23 1 9 31.08 32.34 0.62 o
-22 1 9 4.98 4.38 0.41 o
-21 1 9 3.59 2.92 0.37 o
-20 1 9 0.45 0.38 0.35 <
-19 1 9 0.09 -0.33 0.32 <
-18 1 9 2.84 3.00 0.33 o
-17 1 9 38.03 38.60 0.55 o
-16 1 9 24.17 23.80 0.41 o
-15 1 9 0.19 0.64 0.23 <
-14 1 9 5.93 5.99 0.24 o
-13 1 9 0.05 0.01 0.19 <
-12 1 9 185.55 175.67 1.31 o
-11 1 9 4.29 4.27 0.17 o
-10 1 9 31.11 26.94 0.34 o
-9 1 9 157.89 127.57 0.88 o
-8 1 9 19.80 21.47 0.22 o
-7 1 9 91.34 76.49 0.53 o
-6 1 9 169.50 174.80 1.10 o
-5 1 9 28.27 24.24 0.22 o
-4 1 9 601.02 610.71 3.51 o
-3 1 9 271.89 263.75 1.60 o
-2 1 9 4.83 4.69 0.11 o
-1 1 9 1001.03 936.71 5.23 o
0 1 9 32.03 29.63 0.24 o
1 1 9 22.90 21.96 0.21 o
2 1 9 53.60 47.80 0.37 o
3 1 9 3.14 3.88 0.12 o
4 1 9 22.39 16.93 0.19 o
5 1 9 239.62 200.59 1.28 o
6 1 9 9.05 8.21 0.16 o
7 1 9 139.80 119.88 0.84 o
8 1 9 11.35 9.17 0.22 o
9 1 9 7.12 6.48 0.21 o
10 1 9 42.81 43.69 0.50 o
11 1 9 30.44 31.86 0.42 o
12 1 9 13.90 14.45 0.33 o
13 1 9 4.08 5.17 0.28 o
14 1 9 14.96 15.07 0.38 o
15 1 9 0.93 0.72 0.31 <
16 1 9 6.88 7.24 0.40 o
17 1 9 21.95 21.89 0.56 o
18 1 9 48.71 50.26 0.85 o
19 1 9 35.19 36.22 0.72 o
20 1 9 4.36 4.37 0.61 o
21 1 9 4.87 6.51 0.72 o
22 1 9 5.49 4.80 0.89 o
23 1 9 2.99 3.36 0.96 o
24 1 9 20.52 20.52 1.21 o
25 1 9 8.41 9.15 1.62 o
-29 2 9 4.17 5.10 1.88 <
-28 2 9 0.32 -0.51 1.49 <
-27 2 9 0.23 1.13 1.05 <
-26 2 9 9.93 11.22 1.17 o
-25 2 9 0.05 0.57 0.80 <
-24 2 9 9.99 9.89 0.68 o
-23 2 9 104.97 108.12 1.33 o
-22 2 9 0.13 0.93 0.45 <
-21 2 9 77.59 82.03 1.07 o
-20 2 9 2.89 4.05 0.42 o
-19 2 9 7.25 5.96 0.44 o
-18 2 9 2.45 2.58 0.33 o
-17 2 9 54.33 50.30 0.63 o
-16 2 9 7.91 8.48 0.29 o
-15 2 9 198.45 203.94 1.73 o
-14 2 9 0.93 0.97 0.19 o
-13 2 9 3.13 2.12 0.22 o
-12 2 9 13.83 12.41 0.31 o
-11 2 9 1.61 1.89 0.20 o
-10 2 9 23.54 21.03 0.28 o
-9 2 9 13.84 16.43 0.24 o
-8 2 9 41.96 36.51 0.34 o
-7 2 9 109.26 92.49 0.65 o
-6 2 9 154.71 152.01 0.97 o
-5 2 9 54.70 51.12 0.39 o
-4 2 9 0.03 -0.26 0.13 <
-3 2 9 26.28 23.83 0.23 o
-2 2 9 1.35 1.85 0.14 o
-1 2 9 84.35 80.69 0.59 o
0 2 9 183.97 175.49 1.17 o
1 2 9 168.11 162.15 1.06 o
2 2 9 64.54 59.57 0.46 o
3 2 9 4.33 3.47 0.15 o
4 2 9 0.77 0.98 0.16 o
5 2 9 4.32 4.25 0.19 o
6 2 9 8.62 7.78 0.21 o
7 2 9 4.50 3.08 0.22 o
8 2 9 6.25 7.51 0.22 o
9 2 9 2.18 1.85 0.20 o
10 2 9 103.06 106.74 0.96 o
11 2 9 16.51 17.93 0.36 o
12 2 9 0.75 0.27 0.28 <
13 2 9 5.04 4.81 0.32 o
14 2 9 0.94 1.74 0.39 o
15 2 9 1.15 1.31 0.47 <
16 2 9 147.24 148.38 1.76 o
17 2 9 8.85 8.02 0.49 o
18 2 9 39.34 40.70 0.86 o
19 2 9 27.58 27.87 0.73 o
20 2 9 5.20 5.81 0.68 o
21 2 9 7.78 7.31 0.84 o
22 2 9 4.54 5.89 1.04 o
23 2 9 0.05 -1.01 1.32 <
24 2 9 6.07 6.70 1.61 o
-27 3 9 5.67 4.91 1.89 <
-26 3 9 12.37 13.14 1.45 o
-25 3 9 0.07 0.39 1.10 <
-24 3 9 0.66 2.06 2.21 <
-23 3 9 1.94 2.47 1.06 <
-22 3 9 1.20 1.79 0.81 <
-21 3 9 51.00 51.95 0.93 o
-20 3 9 80.24 84.87 1.12 o
-19 3 9 4.43 5.71 0.56 o
-18 3 9 85.02 81.80 0.92 o
-17 3 9 33.32 30.21 0.51 o
-16 3 9 7.42 5.05 0.38 o
-15 3 9 1.41 0.87 0.32 <
-14 3 9 2.63 3.28 0.31 o
-13 3 9 16.52 17.72 0.36 o
-12 3 9 29.88 33.47 0.50 o
-11 3 9 12.87 11.79 0.28 o
-10 3 9 37.32 33.85 0.47 o
-9 3 9 8.25 7.78 0.28 o
-8 3 9 0.87 1.19 0.28 o
-7 3 9 0.05 -0.04 0.22 <
-6 3 9 11.14 8.92 0.25 o
-5 3 9 1.56 1.11 0.19 o
-4 3 9 11.23 10.78 0.25 o
-3 3 9 1.00 1.02 0.19 o
-2 3 9 0.10 -0.04 0.29 <
-1 3 9 1.76 2.12 0.21 o
0 3 9 0.04 -0.07 0.22 <
1 3 9 0.82 0.83 0.22 o
2 3 9 10.43 9.94 0.26 o
3 3 9 0.65 0.24 0.30 <
4 3 9 3.58 3.83 0.25 o
5 3 9 11.02 12.05 0.31 o
6 3 9 0.62 0.97 0.31 o
7 3 9 28.10 29.81 0.50 o
8 3 9 12.56 13.29 0.35 o
9 3 9 0.42 0.90 0.34 <
10 3 9 3.63 4.20 0.35 o
11 3 9 4.53 4.89 0.40 o
12 3 9 0.88 0.68 0.36 <
13 3 9 91.21 90.40 0.99 o
14 3 9 26.37 27.12 0.62 o
15 3 9 23.47 24.39 2.05 o
16 3 9 53.15 54.27 0.88 o
17 3 9 2.77 2.34 0.70 o
18 3 9 1.15 0.87 0.82 <
19 3 9 0.10 -0.25 1.72 <
20 3 9 0.22 0.42 1.26 <
21 3 9 8.13 7.86 1.39 o
22 3 9 14.83 15.44 1.34 o
-25 4 9 0.01 -0.70 2.30 <
-24 4 9 0.14 -0.43 1.73 <
-23 4 9 8.03 7.05 1.27 o
-22 4 9 2.34 3.27 1.05 o
-21 4 9 1.19 1.75 0.89 <
-20 4 9 2.19 1.06 0.85 <
-19 4 9 0.86 1.44 0.74 <
-18 4 9 0.62 0.09 0.70 <
-17 4 9 5.25 5.25 0.57 o
-16 4 9 0.01 -0.29 0.60 <
-15 4 9 13.32 14.79 0.54 o
-14 4 9 0.15 -0.81 0.48 <
-13 4 9 0.02 -0.21 0.38 <
-12 4 9 7.12 5.13 0.39 o
-11 4 9 0.00 -0.75 0.37 <
-10 4 9 1.30 0.32 0.31 <
-9 4 9 21.10 20.71 0.39 o
-8 4 9 0.58 0.17 0.32 <
-7 4 9 6.03 6.29 0.36 o
-6 4 9 0.59 0.19 0.31 <
-5 4 9 1.69 1.65 0.31 o
-4 4 9 4.64 4.26 0.28 o
-3 4 9 1.13 1.12 0.27 o
-2 4 9 0.60 0.51 0.27 <
-1 4 9 2.24 2.42 0.31 o
0 4 9 1.57 2.18 0.28 o
1 4 9 2.58 3.59 0.31 o
2 4 9 40.90 42.76 0.68 o
3 4 9 0.15 -0.27 0.31 <
4 4 9 21.16 21.16 0.49 o
5 4 9 1.20 1.67 0.40 o
6 4 9 19.43 18.48 0.50 o
7 4 9 19.00 19.44 0.51 o
8 4 9 1.51 0.31 0.40 <
9 4 9 2.66 3.00 0.56 o
10 4 9 37.93 38.34 0.75 o
11 4 9 0.04 0.08 0.54 <
12 4 9 0.76 0.01 0.55 <
13 4 9 8.78 8.78 0.70 o
14 4 9 3.68 5.08 0.70 o
15 4 9 7.84 7.85 0.70 o
16 4 9 4.23 4.86 0.73 o
17 4 9 0.03 0.54 1.00 <
18 4 9 0.20 0.58 1.18 <
19 4 9 0.18 1.47 1.32 <
20 4 9 0.52 1.00 1.97 <
-22 5 9 3.47 3.77 1.65 <
-21 5 9 23.94 21.38 1.53 o
-20 5 9 18.20 15.18 1.37 o
-19 5 9 3.16 2.22 1.13 <
-18 5 9 16.41 15.48 0.92 o
-17 5 9 10.35 10.22 1.02 o
-16 5 9 2.75 5.11 0.86 o
-15 5 9 2.03 2.57 0.84 o
-14 5 9 14.03 14.30 2.27 o
-13 5 9 18.75 18.42 0.73 o
-12 5 9 11.98 10.74 0.69 o
-11 5 9 0.46 0.84 0.55 <
-10 5 9 0.00 0.30 0.64 <
-9 5 9 0.29 -0.75 0.56 <
-8 5 9 2.49 2.43 0.47 o
-7 5 9 6.08 6.54 0.55 o
-6 5 9 0.00 -0.02 0.46 <
-5 5 9 0.13 0.03 0.45 <
-4 5 9 6.76 6.61 0.44 o
-3 5 9 1.14 0.58 0.48 <
-2 5 9 0.48 0.89 0.47 <
-1 5 9 8.11 6.75 0.44 o
0 5 9 4.20 3.42 0.45 o
1 5 9 1.13 0.22 0.46 <
2 5 9 26.99 25.29 0.63 o
3 5 9 2.73 1.91 0.51 o
4 5 9 2.75 2.64 0.46 o
5 5 9 1.37 0.82 0.51 <
6 5 9 0.26 0.35 0.56 <
7 5 9 3.56 2.83 0.70 o
8 5 9 62.57 61.39 1.17 o
9 5 9 12.70 12.89 0.73 o
10 5 9 1.04 0.65 0.86 <
11 5 9 1.95 1.85 0.96 <
12 5 9 4.99 4.59 0.87 o
13 5 9 7.45 5.89 0.99 o
14 5 9 28.01 26.86 1.08 o
15 5 9 11.09 9.24 1.13 o
16 5 9 19.74 17.05 1.38 o
17 5 9 0.50 0.35 1.49 <
-17 6 9 0.23 1.25 1.93 <
-16 6 9 0.11 0.65 1.53 <
-15 6 9 2.97 3.91 1.56 <
-14 6 9 0.16 0.79 1.54 <
-13 6 9 1.63 1.11 1.08 <
-12 6 9 4.29 5.07 1.10 o
-11 6 9 2.32 2.65 0.78 o
-10 6 9 0.03 -1.28 1.15 <
-9 6 9 13.89 12.17 0.87 o
-8 6 9 0.00 -2.31 0.94 <
-7 6 9 14.84 11.76 0.85 o
-6 6 9 41.29 41.19 0.96 o
-5 6 9 0.67 1.42 0.85 <
-4 6 9 22.27 22.72 0.91 o
-3 6 9 0.05 -0.57 0.98 <
-2 6 9 0.06 -0.25 0.65 <
-1 6 9 23.70 22.38 0.82 o
0 6 9 19.54 17.89 0.65 o
1 6 9 20.60 18.56 0.88 o
2 6 9 33.32 31.73 0.88 o
3 6 9 3.42 4.39 1.01 o
4 6 9 4.69 4.28 0.86 o
5 6 9 3.81 2.19 1.02 <
6 6 9 3.21 4.25 0.93 o
7 6 9 3.07 3.31 1.10 o
8 6 9 0.03 0.97 1.17 <
9 6 9 0.43 0.29 1.23 <
10 6 9 3.31 3.46 1.46 <
11 6 9 1.11 1.40 1.35 <
12 6 9 0.29 1.12 1.71 <
13 6 9 0.84 0.51 1.94 <
-8 7 9 0.16 -0.03 1.55 <
-7 7 9 2.25 1.80 2.18 <
-6 7 9 0.00 0.14 1.91 <
-5 7 9 0.87 0.94 1.54 <
-4 7 9 10.22 10.21 1.83 o
-3 7 9 12.13 8.34 1.97 o
-2 7 9 5.09 3.54 1.52 <
-1 7 9 8.38 4.39 1.86 <
0 7 9 1.34 0.17 1.86 <
1 7 9 0.24 -0.65 1.96 <
2 7 9 0.35 1.21 2.21 <
3 7 9 0.05 -0.50 1.60 <
4 7 9 0.79 -0.43 1.90 <
-29 0 10 2.34 1.81 2.43 <
-28 0 10 0.89 0.50 1.59 <
-27 0 10 0.38 0.18 1.49 <
-26 0 10 24.57 24.55 1.00 o
-25 0 10 146.23 146.33 2.11 o
-24 0 10 27.61 27.08 0.90 o
-23 0 10 66.50 68.50 1.22 o
-22 0 10 1.30 1.77 0.81 <
-21 0 10 8.68 9.36 0.56 o
-20 0 10 1.76 1.15 0.48 <
-19 0 10 34.57 33.75 0.74 o
-18 0 10 60.17 60.42 1.16 o
-17 0 10 79.76 87.94 1.49 o
-16 0 10 8.58 6.78 0.42 o
-15 0 10 30.35 29.17 0.68 o
-14 0 10 159.19 157.66 2.04 o
-13 0 10 42.91 39.07 0.69 o
-12 0 10 10.57 7.60 0.28 o
-11 0 10 295.77 253.42 2.61 o
-10 0 10 1.81 1.40 0.38 o
-9 0 10 478.97 422.41 3.68 o
-8 0 10 142.15 142.32 1.34 o
-7 0 10 223.60 215.89 1.94 o
-6 0 10 40.26 42.02 0.49 o
-5 0 10 40.82 38.46 0.49 o
-4 0 10 10.66 9.65 0.21 o
-3 0 10 2784.66 2651.84 21.23 o
-2 0 10 54.75 53.07 0.55 o
-1 0 10 124.50 112.45 0.97 o
0 0 10 12.84 10.34 0.20 o
1 0 10 155.11 141.80 1.19 o
2 0 10 29.21 28.63 0.37 o
3 0 10 394.46 333.51 2.92 o
4 0 10 19.62 17.56 0.28 o
5 0 10 193.64 144.08 1.44 o
6 0 10 0.93 1.14 0.21 o
7 0 10 17.38 15.96 0.37 o
8 0 10 3.67 1.97 0.21 o
9 0 10 8.81 10.03 0.32 o
10 0 10 10.58 11.59 0.35 o
11 0 10 10.82 15.50 0.40 o
12 0 10 1.58 0.61 0.35 <
13 0 10 35.96 35.45 0.72 o
14 0 10 1.44 1.54 0.42 o
15 0 10 23.38 23.77 0.76 o
16 0 10 26.08 25.90 0.74 o
17 0 10 2.61 2.23 0.66 o
18 0 10 6.54 5.64 0.66 o
19 0 10 35.62 37.57 0.97 o
20 0 10 4.61 3.48 0.85 o
21 0 10 3.31 3.93 0.94 o
22 0 10 10.00 10.05 1.19 o
23 0 10 0.16 1.12 1.68 <
24 0 10 0.69 2.05 2.37 <
-29 1 10 8.21 8.69 1.39 o
-28 1 10 2.59 2.08 1.13 <
-27 1 10 7.00 6.54 1.01 o
-26 1 10 0.11 1.64 0.90 <
-25 1 10 0.78 0.05 0.72 <
-24 1 10 5.95 5.99 0.64 o
-23 1 10 111.28 114.44 1.22 o
-22 1 10 3.16 2.80 0.49 o
-21 1 10 7.68 9.11 0.44 o
-20 1 10 7.60 6.29 0.37 o
-19 1 10 11.69 11.76 0.38 o
-18 1 10 2.48 2.58 0.35 o
-17 1 10 19.17 21.19 0.42 o
-16 1 10 0.68 0.93 0.26 o
-15 1 10 0.26 1.22 0.26 o
-14 1 10 8.99 8.86 0.26 o
-13 1 10 2.04 2.08 0.43 o
-12 1 10 0.42 0.50 0.20 <
-11 1 10 53.90 52.63 0.49 o
-10 1 10 80.08 75.69 0.62 o
-9 1 10 128.69 108.37 0.80 o
-8 1 10 13.70 10.89 0.17 o
-7 1 10 117.03 109.19 0.77 o
-6 1 10 0.36 0.25 0.11 <
-5 1 10 398.38 392.36 2.49 o
-4 1 10 226.46 221.38 1.41 o
-3 1 10 20.68 22.10 0.22 o
-2 1 10 73.17 69.35 0.49 o
-1 1 10 289.99 270.77 1.74 o
0 1 10 22.53 24.07 0.22 o
1 1 10 36.06 31.74 0.28 o
2 1 10 14.88 12.03 0.18 o
3 1 10 67.36 53.58 0.45 o
4 1 10 45.10 35.69 0.34 o
5 1 10 13.94 11.78 0.21 o
6 1 10 9.50 9.48 0.21 o
7 1 10 1.57 2.51 0.20 o
8 1 10 28.03 27.54 0.37 o
9 1 10 23.39 28.08 0.39 o
10 1 10 30.05 33.87 0.44 o
11 1 10 103.20 103.75 0.98 o
12 1 10 5.65 4.86 0.31 o
13 1 10 6.71 7.12 0.34 o
14 1 10 5.70 5.55 0.34 o
15 1 10 1.90 2.02 0.38 o
16 1 10 8.30 8.08 0.46 o
17 1 10 110.53 112.52 1.44 o
18 1 10 28.98 28.51 0.65 o
19 1 10 3.69 4.44 0.61 o
20 1 10 1.51 2.06 0.72 <
21 1 10 3.31 2.92 1.00 <
22 1 10 6.51 6.40 1.01 o
23 1 10 3.13 0.51 1.25 <
24 1 10 0.07 1.91 1.56 <
-28 2 10 4.17 2.34 1.59 <
-27 2 10 10.56 10.54 1.06 o
-26 2 10 32.20 32.06 0.91 o
-25 2 10 0.39 1.17 0.95 <
-24 2 10 0.69 0.74 0.76 <
-23 2 10 3.16 3.29 0.73 o
-22 2 10 58.44 60.18 0.92 o
-21 2 10 43.77 45.67 0.75 o
-20 2 10 0.70 1.19 0.43 <
-19 2 10 0.53 0.91 0.43 <
-18 2 10 10.23 10.23 0.38 o
-17 2 10 2.98 3.05 0.39 o
-16 2 10 8.79 9.88 0.41 o
-15 2 10 11.51 13.16 0.36 o
-14 2 10 38.20 40.70 0.51 o
-13 2 10 0.18 0.01 0.23 <
-12 2 10 41.78 39.28 0.47 o
-11 2 10 3.59 3.39 0.23 o
-10 2 10 0.46 0.18 0.20 <
-9 2 10 0.35 0.77 0.19 o
-8 2 10 10.35 7.14 0.20 o
-7 2 10 13.40 11.36 0.19 o
-6 2 10 112.99 122.73 0.84 o
-5 2 10 36.52 35.73 0.32 o
-4 2 10 119.31 114.97 0.81 o
-3 2 10 4.13 3.86 0.16 o
-2 2 10 46.77 46.74 0.43 o
-1 2 10 16.97 15.97 0.22 o
0 2 10 3.58 2.79 0.17 o
1 2 10 18.46 16.98 0.23 o
2 2 10 87.25 82.30 0.60 o
3 2 10 48.54 47.21 0.44 o
4 2 10 3.57 3.13 0.23 o
5 2 10 73.08 73.46 0.66 o
6 2 10 14.56 12.40 0.27 o
7 2 10 0.43 0.46 0.20 <
8 2 10 17.45 17.72 0.30 o
9 2 10 0.15 -0.11 0.24 <
10 2 10 5.49 6.10 0.26 o
11 2 10 98.64 100.27 0.98 o
12 2 10 13.46 13.78 0.35 o
13 2 10 9.52 8.62 0.40 o
14 2 10 8.40 9.02 0.45 o
15 2 10 36.35 37.62 0.65 o
16 2 10 101.11 105.04 1.36 o
17 2 10 1.12 0.84 0.60 <
18 2 10 0.04 0.68 1.61 <
19 2 10 9.81 8.57 0.72 o
20 2 10 10.35 9.89 0.82 o
21 2 10 4.99 5.85 1.03 o
22 2 10 28.83 29.74 1.33 o
23 2 10 5.02 6.01 1.35 o
-27 3 10 1.91 2.25 1.55 <
-26 3 10 0.84 1.76 1.07 <
-25 3 10 30.97 30.73 1.29 o
-24 3 10 29.85 28.93 1.15 o
-23 3 10 4.32 5.02 1.00 o
-22 3 10 10.35 11.35 0.85 o
-21 3 10 0.33 -0.31 0.73 <
-20 3 10 48.57 54.12 0.83 o
-19 3 10 25.60 25.77 0.55 o
-18 3 10 12.20 11.39 0.60 o
-17 3 10 38.72 38.29 0.62 o
-16 3 10 7.02 6.80 0.44 o
-15 3 10 0.19 0.59 0.38 <
-14 3 10 3.09 4.11 0.33 o
-13 3 10 0.35 0.15 0.30 <
-12 3 10 3.81 2.36 0.29 o
-11 3 10 28.91 29.46 0.46 o
-10 3 10 0.16 0.31 0.23 <
-9 3 10 8.18 9.11 0.28 o
-8 3 10 17.23 17.42 0.32 o
-7 3 10 6.69 6.39 0.44 o
-6 3 10 122.36 116.91 1.01 o
-5 3 10 1.57 2.01 0.22 o
-4 3 10 4.45 3.78 0.21 o
-3 3 10 21.93 22.77 0.30 o
-2 3 10 2.30 2.08 0.19 o
-1 3 10 0.64 0.72 0.21 o
0 3 10 25.71 25.01 0.37 o
1 3 10 0.05 0.07 0.23 <
2 3 10 7.61 5.44 0.27 o
3 3 10 0.02 0.03 0.25 <
4 3 10 0.60 0.91 0.26 o
5 3 10 15.54 17.66 0.40 o
6 3 10 4.15 3.66 0.34 o
7 3 10 0.01 0.69 0.32 <
8 3 10 77.11 78.98 0.97 o
9 3 10 0.97 0.85 0.35 <
10 3 10 0.27 -0.25 0.39 <
11 3 10 86.49 88.60 1.03 o
12 3 10 18.87 18.04 362.80 <
13 3 10 66.37 66.35 0.94 o
14 3 10 59.12 58.87 0.88 o
15 3 10 5.42 5.26 0.68 o
16 3 10 31.14 29.81 0.77 o
17 3 10 4.00 3.75 0.79 o
18 3 10 20.40 19.82 0.94 o
19 3 10 59.11 57.47 1.20 o
20 3 10 0.43 -0.74 0.96 <
21 3 10 1.10 0.60 1.38 <
22 3 10 9.79 8.44 1.50 o
-25 4 10 0.48 1.73 2.30 <
-24 4 10 0.98 -0.08 1.63 <
-23 4 10 8.20 8.42 1.46 o
-22 4 10 0.75 -0.82 1.19 <
-21 4 10 0.03 1.37 1.17 <
-20 4 10 52.21 49.39 1.11 o
-19 4 10 16.70 15.70 0.81 o
-18 4 10 42.00 43.89 0.93 o
-17 4 10 0.07 0.11 0.67 <
-16 4 10 0.08 0.37 0.51 <
-15 4 10 13.90 14.47 0.60 o
-14 4 10 5.79 4.12 0.58 o
-13 4 10 0.12 -0.72 390.73 <
-12 4 10 2.24 1.89 0.42 o
-11 4 10 0.52 0.59 0.41 <
-10 4 10 2.59 2.32 0.37 o
-9 4 10 44.95 46.19 0.68 o
-8 4 10 55.17 55.91 0.77 o
-7 4 10 40.05 40.10 0.63 o
-6 4 10 1.63 1.24 0.32 o
-5 4 10 0.01 0.22 0.31 <
-4 4 10 15.82 16.36 0.42 o
-3 4 10 6.72 5.95 0.34 o
-2 4 10 21.94 21.66 0.47 o
-1 4 10 35.89 35.88 0.58 o
0 4 10 32.89 31.40 0.54 o
1 4 10 3.08 3.93 0.32 o
2 4 10 0.63 0.57 0.28 <
3 4 10 5.61 5.49 0.38 o
4 4 10 0.16 0.08 0.44 <
5 4 10 26.12 25.36 0.58 o
6 4 10 32.62 34.29 0.66 o
7 4 10 22.28 23.69 0.62 o
8 4 10 13.48 14.41 0.56 o
9 4 10 0.46 0.94 0.47 <
10 4 10 6.65 7.47 0.58 o
11 4 10 4.72 2.74 0.56 o
12 4 10 45.97 45.66 0.73 o
13 4 10 91.22 91.44 1.18 o
14 4 10 139.36 138.21 1.72 o
15 4 10 9.77 8.73 1.05 o
16 4 10 2.97 3.71 1.00 o
17 4 10 20.94 21.49 1.08 o
18 4 10 0.41 -1.08 1.62 <
19 4 10 0.65 1.48 1.61 <
-21 5 10 0.92 1.82 1.79 <
-20 5 10 20.00 17.61 1.70 o
-19 5 10 0.76 -0.14 1.38 <
-18 5 10 1.76 1.34 1.49 <
-17 5 10 0.95 1.18 1.34 <
-16 5 10 0.33 -0.59 1.09 <
-15 5 10 0.23 0.13 1.11 <
-14 5 10 1.16 2.03 0.93 <
-13 5 10 2.37 1.79 0.77 <
-12 5 10 3.16 2.27 0.60 o
-11 5 10 12.38 11.75 0.67 o
-10 5 10 11.22 11.85 0.64 o
-9 5 10 2.64 2.43 0.53 o
-8 5 10 37.88 36.82 0.77 o
-7 5 10 3.91 3.65 0.70 o
-6 5 10 104.85 106.62 1.50 o
-5 5 10 5.41 4.61 0.54 o
-4 5 10 0.47 -0.07 0.48 <
-3 5 10 1.46 1.11 0.55 <
-2 5 10 2.00 1.37 0.56 <
-1 5 10 0.53 0.97 0.60 <
0 5 10 68.82 69.25 0.95 o
1 5 10 3.13 2.48 0.48 o
2 5 10 30.94 27.99 0.64 o
3 5 10 0.86 1.01 0.54 <
4 5 10 0.53 0.39 0.60 <
5 5 10 4.07 2.84 0.76 o
6 5 10 0.01 0.29 0.78 <
7 5 10 0.03 -0.97 0.61 <
8 5 10 0.28 2.50 0.72 o
9 5 10 0.14 0.66 0.83 <
10 5 10 0.01 -0.43 0.78 <
11 5 10 1.32 0.94 0.88 <
12 5 10 2.10 3.31 0.94 o
13 5 10 4.97 5.69 1.08 o
14 5 10 2.96 3.53 2.79 <
15 5 10 0.69 1.86 3.57 <
16 5 10 3.91 1.41 1.48 <
-16 6 10 0.07 1.16 1.69 <
-15 6 10 4.91 2.42 1.54 <
-14 6 10 7.81 8.49 1.22 o
-13 6 10 1.72 1.67 1.30 <
-12 6 10 19.89 18.59 1.15 o
-11 6 10 0.45 -1.35 1.21 <
-10 6 10 0.05 0.55 1.04 <
-9 6 10 6.97 7.65 0.95 o
-8 6 10 3.20 2.52 0.92 <
-7 6 10 4.00 4.86 0.83 o
-6 6 10 19.68 21.29 0.89 o
-5 6 10 1.52 1.99 0.85 <
-4 6 10 18.40 19.19 0.80 o
-3 6 10 4.21 4.49 0.91 o
-2 6 10 8.33 8.68 0.81 o
-1 6 10 4.09 3.22 0.84 o
0 6 10 6.64 7.56 0.87 o
1 6 10 6.62 6.48 0.83 o
2 6 10 3.99 4.27 0.99 o
3 6 10 1.69 2.07 0.97 <
4 6 10 0.20 0.77 1.03 <
5 6 10 0.79 0.81 1.29 <
6 6 10 7.01 5.25 1.12 o
7 6 10 3.42 2.10 1.16 <
8 6 10 4.88 6.31 1.31 o
9 6 10 0.39 0.64 1.45 <
10 6 10 0.85 0.87 1.55 <
11 6 10 1.06 0.15 1.71 <
-5 7 10 7.34 5.24 1.90 <
-4 7 10 8.47 5.34 1.73 o
-3 7 10 0.11 0.40 1.82 <
-2 7 10 7.15 6.46 1.63 o
-1 7 10 15.47 11.35 1.53 o
0 7 10 4.50 3.63 1.79 <
-29 1 11 2.57 1.84 1.63 <
-28 1 11 26.35 24.98 1.26 o
-27 1 11 10.40 11.52 1.18 o
-26 1 11 26.57 26.23 0.96 o
-25 1 11 71.80 75.25 1.10 o
-24 1 11 24.34 24.95 0.73 o
-23 1 11 46.45 46.78 0.78 o
-22 1 11 7.03 7.68 0.55 o
-21 1 11 0.90 1.34 0.45 <
-20 1 11 27.31 28.51 0.52 o
-19 1 11 13.10 13.80 0.41 o
-18 1 11 1.83 2.07 0.38 o
-17 1 11 70.02 71.48 0.98 o
-16 1 11 36.66 40.76 0.62 o
-15 1 11 15.67 17.37 0.37 o
-14 1 11 6.01 5.88 0.25 o
-13 1 11 34.34 32.49 0.45 o
-12 1 11 15.64 13.24 0.28 o
-11 1 11 65.13 58.88 0.62 o
-10 1 11 1.05 1.90 0.17 o
-9 1 11 0.65 1.21 0.18 o
-8 1 11 17.90 15.56 0.24 o
-7 1 11 3.82 3.44 0.20 o
-6 1 11 22.40 19.49 0.24 o
-5 1 11 253.25 244.91 1.66 o
-4 1 11 33.42 32.19 0.32 o
-3 1 11 80.86 73.89 0.58 o
-2 1 11 55.24 48.31 0.41 o
-1 1 11 3.83 4.66 0.15 o
0 1 11 3.28 2.77 0.14 o
1 1 11 101.68 98.66 0.76 o
2 1 11 64.16 59.22 0.51 o
3 1 11 118.68 107.31 0.83 o
4 1 11 0.11 0.21 0.17 <
5 1 11 8.50 11.07 0.22 o
6 1 11 0.84 0.54 0.18 o
7 1 11 13.34 13.25 0.27 o
8 1 11 61.85 62.87 0.66 o
9 1 11 123.10 122.65 1.19 o
10 1 11 15.35 14.89 0.35 o
11 1 11 2.49 2.53 0.30 o
12 1 11 5.26 5.02 0.35 o
13 1 11 0.00 -0.14 0.33 <
14 1 11 3.06 2.96 0.35 o
15 1 11 20.29 19.82 0.52 o
16 1 11 15.07 14.34 0.57 o
17 1 11 2.91 3.19 0.58 o
18 1 11 1.26 1.09 0.61 <
19 1 11 1.31 1.52 0.69 <
20 1 11 22.10 22.46 0.88 o
21 1 11 0.37 -2.23 1.20 <
22 1 11 5.43 7.09 1.17 o
23 1 11 16.29 21.11 1.70 o
-28 2 11 21.92 19.76 1.58 o
-27 2 11 0.10 0.15 1.28 <
-26 2 11 1.13 1.18 1.05 <
-25 2 11 0.69 1.00 0.94 <
-24 2 11 1.27 0.92 0.89 <
-23 2 11 10.41 9.74 0.74 o
-22 2 11 67.15 73.29 1.10 o
-21 2 11 1.44 2.63 0.53 o
-20 2 11 7.37 8.16 0.50 o
-19 2 11 1.28 0.27 0.41 <
-18 2 11 2.05 2.65 0.44 o
-17 2 11 0.19 -0.19 0.42 <
-16 2 11 2.74 3.55 0.40 o
-15 2 11 1.50 1.76 0.37 o
-14 2 11 26.07 21.32 0.40 o
-13 2 11 41.64 43.17 0.56 o
-12 2 11 46.74 48.51 0.56 o
-11 2 11 25.81 27.89 0.40 o
-10 2 11 5.68 5.54 0.23 o
-9 2 11 2.21 2.19 0.26 o
-8 2 11 35.78 32.15 0.35 o
-7 2 11 46.67 46.80 0.42 o
-6 2 11 320.70 315.20 2.05 o
-5 2 11 186.73 192.18 1.26 o
-4 2 11 4.14 4.83 0.17 o
-3 2 11 22.36 23.42 0.27 o
-2 2 11 60.23 61.22 0.50 o
-1 2 11 14.08 13.42 0.23 o
0 2 11 15.76 12.62 0.25 o
1 2 11 16.39 14.26 0.26 o
2 2 11 28.25 25.48 0.32 o
3 2 11 29.77 34.93 0.41 o
4 2 11 7.80 6.94 0.22 o
5 2 11 0.45 0.69 0.19 o
6 2 11 11.24 10.49 0.25 o
7 2 11 4.65 4.86 0.26 o
8 2 11 7.41 8.25 0.27 o
9 2 11 173.95 178.35 1.57 o
10 2 11 0.63 0.27 0.28 <
11 2 11 147.91 151.99 1.46 o
12 2 11 16.63 16.30 0.39 o
13 2 11 0.87 0.87 0.49 <
14 2 11 2.72 2.43 0.46 o
15 2 11 15.27 15.22 0.58 o
16 2 11 4.26 3.12 0.64 o
17 2 11 56.61 55.55 0.95 o
18 2 11 0.14 -0.22 0.81 <
19 2 11 0.04 -0.64 0.80 <
20 2 11 3.42 3.14 1.00 o
21 2 11 0.11 1.13 1.15 <
22 2 11 0.00 0.17 1.40 <
-26 3 11 1.11 0.95 1.48 <
-25 3 11 0.51 1.31 1.40 <
-24 3 11 0.14 1.00 1.18 <
-23 3 11 0.37 0.56 0.96 <
-22 3 11 0.05 0.17 0.93 <
-21 3 11 0.00 -0.13 0.84 <
-20 3 11 1.14 2.63 1.32 <
-19 3 11 0.74 0.61 0.63 <
-18 3 11 1.86 2.42 0.58 o
-17 3 11 7.99 10.38 0.53 o
-16 3 11 12.42 11.79 0.45 o
-15 3 11 5.17 4.32 0.38 o
-14 3 11 5.88 5.58 0.44 o
-13 3 11 0.90 0.44 0.43 <
-12 3 11 0.13 0.21 0.37 <
-11 3 11 40.33 41.96 0.59 o
-10 3 11 25.43 25.90 0.45 o
-9 3 11 75.39 79.09 0.89 o
-8 3 11 155.82 156.21 1.37 o
-7 3 11 4.23 4.96 0.23 o
-6 3 11 56.21 54.60 0.58 o
-5 3 11 7.09 6.81 0.24 o
-4 3 11 0.37 0.57 0.22 <
-3 3 11 19.06 19.98 0.31 o
-2 3 11 21.70 21.66 0.32 o
-1 3 11 0.65 0.54 0.23 <
0 3 11 119.35 116.96 1.03 o
1 3 11 19.27 18.93 0.35 o
2 3 11 19.00 18.61 0.38 o
3 3 11 47.54 48.97 0.60 o
4 3 11 33.53 33.65 0.52 o
5 3 11 43.74 46.49 0.60 o
6 3 11 34.16 36.53 0.53 o
7 3 11 0.20 -0.27 0.29 <
8 3 11 1.19 1.85 0.33 o
9 3 11 0.07 -0.44 0.38 <
10 3 11 1.29 0.81 0.42 <
11 3 11 47.53 44.88 0.78 o
12 3 11 52.30 51.31 0.84 o
13 3 11 6.47 6.64 0.65 o
14 3 11 77.63 78.33 1.13 o
15 3 11 15.42 15.04 0.66 o
16 3 11 5.26 5.11 0.72 o
17 3 11 0.11 -0.37 0.87 <
18 3 11 0.02 0.95 0.93 <
19 3 11 1.55 2.89 1.21 <
20 3 11 11.42 10.82 1.56 o
21 3 11 0.97 1.32 2.08 <
-24 4 11 0.00 -1.38 1.88 <
-23 4 11 0.87 -0.65 1.57 <
-22 4 11 0.17 -0.88 1.14 <
-21 4 11 6.24 4.88 2.17 <
-20 4 11 10.92 12.38 1.01 o
-19 4 11 6.78 5.52 0.82 o
-18 4 11 4.40 2.42 0.87 <
-17 4 11 0.16 -0.22 0.59 <
-16 4 11 13.91 15.92 0.73 o
-15 4 11 3.00 3.55 0.64 o
-14 4 11 0.59 0.82 0.49 <
-13 4 11 17.22 18.04 0.52 o
-12 4 11 28.58 28.24 0.55 o
-11 4 11 2.69 1.51 0.44 o
-10 4 11 5.20 7.05 0.44 o
-9 4 11 2.72 3.97 0.46 o
-8 4 11 10.48 13.15 0.40 o
-7 4 11 9.10 9.06 0.40 o
-6 4 11 5.39 5.20 0.39 o
-5 4 11 0.27 0.70 0.37 <
-4 4 11 0.10 -0.30 0.34 <
-3 4 11 0.35 0.70 0.35 <
-2 4 11 3.54 4.39 0.38 o
-1 4 11 4.57 4.52 0.38 o
0 4 11 1.26 0.77 0.33 <
1 4 11 0.71 1.18 0.32 o
2 4 11 1.16 1.60 0.42 o
3 4 11 1.64 2.00 0.38 o
4 4 11 3.73 3.53 0.36 o
5 4 11 2.11 1.84 0.48 o
6 4 11 0.39 0.91 0.49 <
7 4 11 0.25 0.28 0.44 <
8 4 11 0.01 1.53 2.96 <
9 4 11 10.40 10.41 0.63 o
10 4 11 1.02 1.31 0.59 <
11 4 11 0.16 0.66 0.63 <
12 4 11 1.64 1.61 0.84 <
13 4 11 1.84 0.57 0.81 <
14 4 11 1.35 0.72 0.98 <
15 4 11 4.64 5.02 0.98 o
16 4 11 0.02 0.48 1.16 <
17 4 11 11.27 12.50 1.44 o
18 4 11 0.13 0.19 1.61 <
-21 5 11 1.07 7.65 2.23 o
-20 5 11 11.39 9.31 2.32 o
-19 5 11 2.35 1.90 1.73 <
-18 5 11 1.32 3.00 1.81 <
-17 5 11 3.24 2.28 1.77 <
-16 5 11 1.17 1.24 1.42 <
-15 5 11 1.57 1.67 1.00 <
-14 5 11 48.25 47.98 1.11 o
-13 5 11 0.40 0.45 0.89 <
-12 5 11 0.98 0.94 0.92 <
-11 5 11 26.62 27.11 0.87 o
-10 5 11 0.00 -0.57 0.79 <
-9 5 11 8.33 8.34 0.66 o
-8 5 11 73.39 75.78 1.14 o
-7 5 11 0.59 0.11 0.68 <
-6 5 11 24.98 27.21 0.66 o
-5 5 11 0.93 1.03 0.60 <
-4 5 11 0.35 0.40 0.58 <
-3 5 11 4.62 5.24 0.46 o
-2 5 11 14.92 14.27 0.52 o
-1 5 11 1.26 0.75 0.50 <
0 5 11 11.51 10.86 0.63 o
1 5 11 0.07 -0.75 0.49 <
2 5 11 0.32 -0.11 0.62 <
3 5 11 8.84 8.90 0.61 o
4 5 11 0.18 0.68 2.12 <
5 5 11 5.40 4.83 0.85 o
6 5 11 8.46 8.45 0.74 o
7 5 11 4.67 5.16 0.77 o
8 5 11 12.68 11.21 0.81 o
9 5 11 0.15 -0.02 0.95 <
10 5 11 2.07 2.21 0.96 <
11 5 11 19.90 17.60 0.91 o
12 5 11 12.81 12.50 1.26 o
13 5 11 0.74 2.09 1.29 <
14 5 11 19.16 16.91 1.20 o
15 5 11 10.73 11.47 1.72 o
-15 6 11 0.00 2.15 1.96 <
-14 6 11 0.41 -0.40 1.50 <
-13 6 11 4.06 3.34 1.77 <
-12 6 11 3.34 2.82 1.48 <
-11 6 11 0.06 -1.58 1.17 <
-10 6 11 1.03 0.93 1.33 <
-9 6 11 6.04 6.83 1.03 o
-8 6 11 7.44 7.62 1.16 o
-7 6 11 1.17 2.64 1.06 <
-6 6 11 17.43 17.50 1.14 o
-5 6 11 12.61 11.85 0.96 o
-4 6 11 1.41 2.03 0.95 <
-3 6 11 0.34 -0.65 0.87 <
-2 6 11 4.10 4.30 0.98 o
-1 6 11 1.23 1.97 0.82 <
0 6 11 11.91 10.25 0.92 o
1 6 11 0.00 0.39 0.97 <
2 6 11 0.08 0.30 2.33 <
3 6 11 0.08 -0.13 1.31 <
4 6 11 1.72 2.46 1.11 <
5 6 11 0.82 -0.72 1.25 <
6 6 11 11.00 11.72 1.36 o
7 6 11 0.86 1.25 1.45 <
8 6 11 0.01 1.30 1.36 <
9 6 11 6.42 7.51 1.72 o
10 6 11 0.08 0.99 1.45 <
-28 0 12 16.80 16.21 1.29 o
-27 0 12 24.43 24.94 1.44 o
-26 0 12 24.22 23.93 1.15 o
-25 0 12 191.76 194.55 2.67 o
-24 0 12 20.72 23.09 0.87 o
-23 0 12 4.04 4.06 0.83 o
-22 0 12 3.22 3.62 0.65 o
-21 0 12 2.28 2.17 0.55 o
-20 0 12 0.15 -1.13 0.59 <
-19 0 12 79.08 78.11 1.44 o
-18 0 12 4.45 5.59 0.46 o
-17 0 12 5.62 7.17 0.49 o
-16 0 12 0.34 -1.24 0.41 <
-15 0 12 0.40 1.23 0.38 o
-14 0 12 1.51 1.89 0.33 o
-13 0 12 27.14 28.39 0.61 o
-12 0 12 21.00 17.72 0.48 o
-11 0 12 31.60 27.03 0.49 o
-10 0 12 66.42 58.84 0.79 o
-9 0 12 54.20 49.78 0.69 o
-8 0 12 0.31 -0.06 0.19 <
-7 0 12 62.52 63.62 0.81 o
-6 0 12 0.32 0.62 0.20 o
-5 0 12 4.25 4.50 0.23 o
-4 0 12 72.60 63.99 0.76 o
-3 0 12 45.94 37.82 0.52 o
-2 0 12 1.66 2.76 0.22 o
-1 0 12 28.19 31.05 0.43 o
0 0 12 133.65 132.41 1.47 o
1 0 12 58.63 67.83 0.85 o
2 0 12 0.65 1.64 0.23 o
3 0 12 0.35 0.85 0.21 o
4 0 12 10.10 8.84 0.30 o
5 0 12 2.22 2.32 0.27 o
6 0 12 148.73 153.90 1.83 o
7 0 12 415.62 439.39 4.76 o
8 0 12 180.32 188.02 2.20 o
9 0 12 195.43 197.27 2.30 o
10 0 12 19.20 19.23 0.49 o
11 0 12 4.52 4.75 0.40 o
12 0 12 28.70 30.92 0.70 o
13 0 12 46.34 45.07 0.87 o
14 0 12 45.96 46.81 0.96 o
15 0 12 95.13 95.92 1.65 o
16 0 12 6.11 4.98 1.13 o
17 0 12 3.67 4.40 0.74 o
18 0 12 43.16 46.46 1.31 o
19 0 12 2.24 2.17 1.44 <
20 0 12 12.04 15.16 1.59 o
21 0 12 10.25 13.92 1.38 o
22 0 12 0.09 1.23 2.01 <
-28 1 12 0.56 0.82 1.32 <
-27 1 12 34.04 35.31 1.13 o
-26 1 12 0.28 1.65 0.94 <
-25 1 12 4.39 3.52 0.83 o
-24 1 12 18.55 19.18 0.79 o
-23 1 12 14.91 16.23 0.70 o
-22 1 12 2.14 2.45 0.51 o
-21 1 12 3.02 2.43 0.52 o
-20 1 12 0.01 -1.09 0.44 <
-19 1 12 3.37 3.49 0.39 o
-18 1 12 0.00 0.05 0.33 <
-17 1 12 0.01 0.18 0.31 <
-16 1 12 12.77 10.11 0.38 o
-15 1 12 0.57 0.20 0.31 <
-14 1 12 3.46 3.54 0.26 o
-13 1 12 114.53 112.23 1.11 o
-12 1 12 2.93 2.17 0.21 o
-11 1 12 126.19 122.78 1.13 o
-10 1 12 9.04 7.40 0.21 o
-9 1 12 24.07 23.62 0.33 o
-8 1 12 11.76 11.10 0.23 o
-7 1 12 9.63 11.57 0.23 o
-6 1 12 4.24 3.35 0.16 o
-5 1 12 315.01 309.99 2.23 o
-4 1 12 4.35 4.18 0.18 o
-3 1 12 21.61 21.22 0.28 o
-2 1 12 0.01 0.05 0.14 <
-1 1 12 10.67 9.23 0.22 o
0 1 12 0.43 0.21 0.18 <
1 1 12 8.89 12.52 0.22 o
2 1 12 3.74 3.15 0.17 o
3 1 12 8.39 13.12 0.25 o
4 1 12 0.57 0.83 0.18 o
5 1 12 16.08 17.56 0.29 o
6 1 12 29.59 31.69 0.43 o
7 1 12 3.68 3.30 0.22 o
8 1 12 6.16 5.62 0.27 o
9 1 12 179.65 191.87 1.75 o
10 1 12 1.74 1.60 0.28 o
11 1 12 2.94 3.39 0.35 o
12 1 12 22.07 23.16 0.48 o
13 1 12 29.18 27.62 0.55 o
14 1 12 36.17 37.41 0.65 o
15 1 12 19.57 18.02 0.55 o
16 1 12 0.54 0.63 0.68 <
17 1 12 5.54 6.17 0.59 o
18 1 12 1.66 1.86 0.78 <
19 1 12 3.04 2.07 0.87 <
20 1 12 0.01 -0.41 1.11 <
21 1 12 3.74 4.09 1.31 o
22 1 12 1.92 3.61 1.63 <
-27 2 12 18.64 18.09 1.28 o
-26 2 12 3.59 5.21 1.07 o
-25 2 12 1.83 2.17 1.09 <
-24 2 12 0.78 1.05 0.88 <
-23 2 12 0.54 0.23 0.66 <
-22 2 12 0.28 -1.03 0.73 <
-21 2 12 5.87 5.27 0.59 o
-20 2 12 0.13 -0.43 0.58 <
-19 2 12 50.30 49.29 0.89 o
-18 2 12 7.90 6.94 0.48 o
-17 2 12 27.06 24.50 0.58 o
-16 2 12 0.07 0.32 0.45 <
-15 2 12 19.03 17.85 0.42 o
-14 2 12 0.92 1.35 0.33 o
-13 2 12 0.70 -0.25 0.32 <
-12 2 12 49.03 50.12 0.62 o
-11 2 12 146.56 150.29 1.34 o
-10 2 12 4.18 3.11 0.21 o
-9 2 12 5.32 5.20 0.22 o
-8 2 12 2.75 2.48 0.22 o
-7 2 12 159.09 158.69 1.22 o
-6 2 12 68.66 67.46 0.61 o
-5 2 12 0.43 0.37 0.18 <
-4 2 12 3.04 3.55 0.19 o
-3 2 12 37.14 37.41 0.42 o
-2 2 12 2.98 2.77 0.18 o
-1 2 12 32.24 31.56 0.38 o
0 2 12 76.49 75.05 0.68 o
1 2 12 67.43 62.96 0.63 o
2 2 12 2.49 3.22 0.22 o
3 2 12 34.29 35.39 0.44 o
4 2 12 13.27 12.63 0.30 o
5 2 12 11.36 11.72 0.29 o
6 2 12 63.69 61.88 0.64 o
7 2 12 0.38 0.83 0.28 <
8 2 12 0.07 -0.14 0.25 <
9 2 12 27.45 27.47 0.45 o
10 2 12 69.24 65.95 0.78 o
11 2 12 80.30 81.78 0.92 o
12 2 12 3.03 3.23 0.43 o
13 2 12 1.78 2.01 1.63 <
14 2 12 5.90 4.51 0.64 o
15 2 12 6.30 6.24 0.62 o
16 2 12 19.87 19.42 0.75 o
17 2 12 23.03 23.51 0.88 o
18 2 12 8.51 9.96 0.84 o
19 2 12 3.11 3.02 1.18 <
20 2 12 0.89 1.70 1.18 <
21 2 12 5.42 6.22 1.69 o
-26 3 12 0.08 -0.90 1.69 <
-25 3 12 0.02 0.13 1.28 <
-24 3 12 0.03 0.91 1.13 <
-23 3 12 0.97 2.90 1.33 <
-22 3 12 0.27 -1.06 1.12 <
-21 3 12 2.93 3.18 0.91 o
-20 3 12 0.01 -0.41 0.83 <
-19 3 12 1.69 1.41 0.75 <
-18 3 12 14.39 14.68 0.61 o
-17 3 12 15.34 15.86 0.54 o
-16 3 12 3.03 2.16 0.56 o
-15 3 12 23.64 23.44 0.56 o
-14 3 12 111.11 111.39 1.29 o
-13 3 12 2.99 3.40 0.45 o
-12 3 12 13.00 13.25 0.44 o
-11 3 12 26.45 28.48 0.51 o
-10 3 12 87.39 94.81 1.04 o
-9 3 12 80.45 83.73 0.94 o
-8 3 12 111.70 108.57 1.03 o
-7 3 12 19.77 19.24 0.37 o
-6 3 12 38.40 39.41 0.49 o
-5 3 12 12.33 12.81 0.31 o
-4 3 12 104.02 108.57 0.94 o
-3 3 12 49.03 50.79 0.55 o
-2 3 12 0.01 0.23 0.29 <
-1 3 12 2.46 2.59 0.25 o
0 3 12 11.58 10.96 0.29 o
1 3 12 3.63 3.99 0.29 o
2 3 12 9.65 9.34 0.34 o
3 3 12 1.44 1.89 0.30 o
4 3 12 29.34 31.55 0.55 o
5 3 12 4.87 5.69 0.40 o
6 3 12 4.34 4.30 0.35 o
7 3 12 25.66 24.99 0.46 o
8 3 12 38.85 36.92 0.61 o
9 3 12 0.36 0.32 0.48 <
10 3 12 37.74 38.60 0.72 o
11 3 12 2.62 3.65 0.55 o
12 3 12 59.61 56.55 0.92 o
13 3 12 28.98 28.51 0.77 o
14 3 12 21.39 21.85 0.74 o
15 3 12 2.67 1.76 0.88 <
16 3 12 1.19 0.87 1.00 <
17 3 12 1.68 1.49 1.01 <
18 3 12 13.35 12.32 1.21 o
19 3 12 2.30 1.74 1.50 <
-23 4 12 0.13 -0.06 1.84 <
-22 4 12 2.62 1.76 1.57 <
-21 4 12 3.09 5.25 1.49 o
-20 4 12 1.84 1.04 1.14 <
-19 4 12 1.97 1.45 1.02 <
-18 4 12 2.16 2.17 1.00 <
-17 4 12 0.05 0.04 1.01 <
-16 4 12 73.94 74.08 1.03 o
-15 4 12 2.82 3.67 0.71 o
-14 4 12 3.97 4.48 0.64 o
-13 4 12 12.84 13.37 0.59 o
-12 4 12 13.61 13.86 0.61 o
-11 4 12 8.85 9.33 0.53 o
-10 4 12 188.07 187.93 1.98 o
-9 4 12 1.67 0.86 0.50 <
-8 4 12 295.00 297.62 2.95 o
-7 4 12 1.07 0.90 0.42 <
-6 4 12 2.22 2.52 0.45 o
-5 4 12 4.50 4.12 0.48 o
-4 4 12 0.55 -0.32 0.40 <
-3 4 12 0.14 -0.43 0.38 <
-2 4 12 108.93 108.69 1.20 o
-1 4 12 0.05 -0.05 0.37 <
0 4 12 10.32 8.58 0.40 o
1 4 12 13.61 12.36 0.46 o
2 4 12 0.02 0.20 0.44 <
3 4 12 4.57 4.78 0.51 o
4 4 12 5.50 5.37 0.51 o
5 4 12 3.40 2.00 0.52 o
6 4 12 61.57 59.90 0.87 o
7 4 12 0.54 0.37 0.64 <
8 4 12 0.07 0.63 0.61 <
9 4 12 0.05 -0.78 0.72 <
10 4 12 4.64 3.54 0.72 o
11 4 12 5.80 5.64 2.02 <
12 4 12 65.98 63.62 1.11 o
13 4 12 2.10 3.16 1.04 o
14 4 12 25.42 25.08 1.01 o
15 4 12 0.42 2.43 1.18 <
16 4 12 5.89 5.64 1.44 o
17 4 12 0.00 0.37 1.63 <
-20 5 12 1.48 -0.54 2.70 <
-19 5 12 3.84 3.18 4.60 <
-18 5 12 0.13 0.48 3.02 <
-17 5 12 0.18 -0.61 1.68 <
-16 5 12 0.19 0.70 0.96 <
-15 5 12 3.01 3.30 1.31 <
-14 5 12 5.98 6.58 1.04 o
-13 5 12 0.06 -1.02 0.81 <
-12 5 12 0.10 1.59 0.81 <
-11 5 12 1.13 1.65 0.87 <
-10 5 12 13.70 12.72 0.85 o
-9 5 12 5.22 4.61 0.83 o
-8 5 12 4.83 4.93 0.85 o
-7 5 12 3.80 4.44 0.80 o
-6 5 12 15.73 17.51 0.82 o
-5 5 12 0.53 0.73 0.72 <
-4 5 12 2.99 2.31 0.60 o
-3 5 12 0.05 0.24 0.72 <
-2 5 12 3.96 2.90 0.63 o
-1 5 12 0.72 0.77 0.72 <
0 5 12 0.11 1.10 0.65 <
1 5 12 2.10 2.18 0.66 o
2 5 12 4.25 3.98 0.71 o
3 5 12 10.13 10.02 0.70 o
4 5 12 20.34 21.24 0.76 o
5 5 12 4.75 4.75 0.65 o
6 5 12 1.18 -0.25 0.82 <
7 5 12 0.19 -1.02 0.99 <
8 5 12 1.99 2.44 0.87 <
9 5 12 0.21 -0.32 1.16 <
10 5 12 19.62 19.97 1.11 o
11 5 12 11.09 10.77 1.03 o
12 5 12 29.59 29.33 1.29 o
13 5 12 0.44 0.39 1.56 <
-14 6 12 1.31 2.38 1.74 <
-13 6 12 2.37 1.96 1.93 <
-12 6 12 2.56 1.54 1.73 <
-11 6 12 2.60 2.98 1.68 <
-10 6 12 3.66 5.46 1.38 o
-9 6 12 2.81 2.30 1.28 <
-8 6 12 0.10 -0.34 1.53 <
-7 6 12 3.24 4.42 1.09 o
-6 6 12 0.55 1.51 1.02 <
-5 6 12 0.21 -0.09 1.15 <
-4 6 12 8.60 7.36 1.09 o
-3 6 12 3.56 3.37 1.13 <
-2 6 12 3.65 5.11 1.30 o
-1 6 12 0.18 1.78 1.13 <
0 6 12 0.59 -0.06 1.22 <
1 6 12 1.33 1.71 1.21 <
2 6 12 0.04 0.33 1.00 <
3 6 12 1.04 2.74 1.21 <
4 6 12 3.79 3.45 1.34 <
5 6 12 0.60 0.63 1.39 <
6 6 12 1.41 1.98 1.74 <
7 6 12 1.03 3.52 1.49 <
8 6 12 1.56 1.01 1.80 <
-28 1 13 0.00 1.26 1.73 <
-27 1 13 33.57 32.51 1.10 o
-26 1 13 1.00 -0.19 0.98 <
-25 1 13 2.12 2.31 1.00 <
-24 1 13 1.83 2.79 0.80 o
-23 1 13 0.78 0.51 0.71 <
-22 1 13 0.00 0.29 0.66 <
-21 1 13 46.59 46.79 0.71 o
-20 1 13 0.00 0.04 0.51 <
-19 1 13 20.71 19.58 0.51 o
-18 1 13 0.84 0.29 0.37 <
-17 1 13 5.34 5.05 0.38 o
-16 1 13 6.97 6.32 0.46 o
-15 1 13 55.38 55.19 0.73 o
-14 1 13 1.90 2.01 0.28 o
-13 1 13 111.05 116.89 1.16 o
-12 1 13 0.06 -0.59 0.22 <
-11 1 13 3.50 3.80 0.23 o
-10 1 13 0.06 -0.06 0.19 <
-9 1 13 1.63 1.68 0.19 o
-8 1 13 0.45 0.64 0.19 o
-7 1 13 95.81 101.45 0.92 o
-6 1 13 5.65 5.03 0.19 o
-5 1 13 4.35 6.19 0.21 o
-4 1 13 23.51 24.04 0.33 o
-3 1 13 10.57 10.84 0.23 o
-2 1 13 149.26 151.26 1.17 o
-1 1 13 17.81 20.55 0.32 o
0 1 13 0.06 0.96 0.18 o
1 1 13 69.63 72.89 0.74 o
2 1 13 37.79 38.29 0.42 o
3 1 13 20.44 20.40 0.31 o
4 1 13 85.92 83.58 0.84 o
5 1 13 20.08 20.07 0.38 o
6 1 13 98.76 100.33 0.97 o
7 1 13 209.76 216.60 1.87 o
8 1 13 48.81 48.84 0.60 o
9 1 13 135.53 138.92 1.29 o
10 1 13 35.21 37.20 0.54 o
11 1 13 1.41 0.91 0.38 <
12 1 13 16.07 14.59 0.46 o
13 1 13 7.74 7.32 0.52 o
14 1 13 0.02 -0.04 0.47 <
15 1 13 42.19 44.44 0.80 o
16 1 13 18.39 20.66 0.72 o
17 1 13 6.84 7.04 0.83 o
18 1 13 1.64 2.31 1.03 <
19 1 13 2.97 4.00 1.08 o
20 1 13 0.28 2.65 1.40 <
21 1 13 3.40 2.83 1.54 <
-27 2 13 24.29 22.36 1.29 o
-26 2 13 0.94 2.30 1.22 <
-25 2 13 0.87 0.55 0.95 <
-24 2 13 3.31 2.51 0.82 o
-23 2 13 1.03 1.73 0.79 <
-22 2 13 0.28 -0.23 0.66 <
-21 2 13 5.76 5.72 0.78 o
-20 2 13 7.41 7.85 0.67 o
-19 2 13 11.17 12.33 0.59 o
-18 2 13 0.04 -0.56 0.60 <
-17 2 13 1.62 2.60 0.66 o
-16 2 13 20.96 22.03 0.55 o
-15 2 13 5.99 5.88 0.39 o
-14 2 13 0.40 -0.19 0.30 <
-13 2 13 192.59 194.55 1.79 o
-12 2 13 64.61 69.58 0.79 o
-11 2 13 53.74 56.75 0.65 o
-10 2 13 12.25 13.76 0.31 o
-9 2 13 11.63 10.59 0.29 o
-8 2 13 0.12 0.23 0.22 <
-7 2 13 71.64 71.01 0.68 o
-6 2 13 13.54 13.75 0.27 o
-5 2 13 113.65 115.46 0.98 o
-4 2 13 1.55 2.31 0.22 o
-3 2 13 9.21 7.52 0.26 o
-2 2 13 1.14 1.30 0.21 o
-1 2 13 0.62 1.00 0.27 o
0 2 13 12.21 11.55 0.36 o
1 2 13 4.81 3.12 0.24 o
2 2 13 48.11 48.17 0.57 o
3 2 13 15.92 17.30 0.38 o
4 2 13 126.19 130.82 1.16 o
5 2 13 0.23 0.30 0.30 <
6 2 13 0.64 0.61 0.34 <
7 2 13 14.20 14.07 0.38 o
8 2 13 1.07 1.09 0.43 <
9 2 13 5.18 5.85 0.44 o
10 2 13 76.44 78.99 0.90 o
11 2 13 2.66 1.69 0.46 o
12 2 13 15.48 15.86 0.64 o
13 2 13 3.41 3.22 0.72 o
14 2 13 0.70 1.03 0.74 <
15 2 13 0.77 1.04 0.82 <
16 2 13 1.22 1.24 0.95 <
17 2 13 0.05 -1.04 1.14 <
18 2 13 2.61 3.75 1.05 o
19 2 13 6.03 7.38 1.09 o
20 2 13 9.63 10.12 1.21 o
-25 3 13 3.60 1.83 1.71 <
-24 3 13 5.50 4.59 1.17 o
-23 3 13 7.82 7.74 1.55 o
-22 3 13 11.45 10.96 1.18 o
-21 3 13 21.93 19.97 1.19 o
-20 3 13 0.08 1.33 0.99 <
-19 3 13 4.64 4.24 0.79 o
-18 3 13 37.33 39.99 0.83 o
-17 3 13 0.32 0.66 0.59 <
-16 3 13 20.49 20.06 0.57 o
-15 3 13 0.42 -0.41 0.51 <
-14 3 13 1.48 1.23 0.50 <
-13 3 13 4.90 6.03 0.39 o
-12 3 13 23.27 23.63 0.55 o
-11 3 13 17.81 17.01 0.49 o
-10 3 13 142.39 152.98 1.55 o
-9 3 13 17.53 15.79 0.50 o
-8 3 13 40.44 38.75 0.59 o
-7 3 13 49.91 46.10 0.59 o
-6 3 13 0.44 0.39 0.35 <
-5 3 13 2.61 2.42 0.34 o
-4 3 13 11.15 12.72 0.33 o
-3 3 13 0.37 0.09 0.32 <
-2 3 13 18.20 18.60 0.35 o
-1 3 13 23.75 21.30 0.39 o
0 3 13 5.44 4.32 0.31 o
1 3 13 0.06 0.33 0.30 <
2 3 13 0.83 1.41 0.33 o
3 3 13 3.13 3.36 0.36 o
4 3 13 0.23 0.24 0.35 <
5 3 13 0.37 0.47 0.35 <
6 3 13 0.25 -0.25 0.44 <
7 3 13 1.18 0.56 0.50 <
8 3 13 0.36 0.32 0.47 <
9 3 13 2.18 1.95 0.61 o
10 3 13 0.67 0.81 0.64 <
11 3 13 0.11 0.36 0.57 <
12 3 13 0.01 0.50 0.66 <
13 3 13 0.04 0.64 0.91 <
14 3 13 0.34 0.98 0.95 <
15 3 13 6.52 5.77 1.02 o
16 3 13 3.72 4.90 1.19 o
17 3 13 2.49 3.91 1.45 <
18 3 13 4.27 3.97 1.67 <
-22 4 13 1.06 1.01 1.70 <
-21 4 13 1.08 1.31 1.22 <
-20 4 13 0.00 -0.38 1.23 <
-19 4 13 4.50 4.00 1.28 o
-18 4 13 3.98 2.59 1.24 <
-17 4 13 1.40 2.74 0.88 o
-16 4 13 0.06 0.85 0.93 <
-15 4 13 0.00 -0.06 0.86 <
-14 4 13 2.13 1.86 0.73 <
-13 4 13 11.16 12.18 0.79 o
-12 4 13 0.63 0.40 0.62 <
-11 4 13 1.01 2.24 0.69 o
-10 4 13 7.15 4.50 0.54 o
-9 4 13 0.01 -0.82 0.53 <
-8 4 13 0.32 0.23 0.53 <
-7 4 13 10.74 9.82 0.47 o
-6 4 13 6.04 5.21 0.44 o
-5 4 13 9.84 10.75 0.48 o
-4 4 13 0.20 0.46 0.55 <
-3 4 13 0.14 0.09 0.51 <
-2 4 13 9.58 7.63 0.50 o
-1 4 13 1.97 1.11 0.46 <
0 4 13 0.45 1.06 3522.14 <
1 4 13 14.57 15.22 0.51 o
2 4 13 5.15 5.33 0.51 o
3 4 13 3.21 4.09 0.56 o
4 4 13 0.04 -0.25 0.63 <
5 4 13 1.14 1.41 0.70 <
6 4 13 1.08 0.32 0.64 <
7 4 13 0.28 -0.48 0.76 <
8 4 13 0.01 -0.42 0.78 <
9 4 13 1.99 2.08 0.86 <
10 4 13 0.08 0.75 0.93 <
11 4 13 1.57 1.81 0.83 <
12 4 13 9.55 11.30 1.35 o
13 4 13 2.31 2.37 1.19 <
14 4 13 1.40 1.60 1.27 <
15 4 13 0.06 1.02 1.74 <
16 4 13 5.82 7.40 1.86 o
-19 5 13 3.07 3.84 2.64 <
-18 5 13 4.68 1.24 2.10 <
-17 5 13 1.64 1.96 1.47 <
-16 5 13 2.20 2.38 1.61 <
-15 5 13 9.23 9.65 1.18 o
-14 5 13 1.48 1.48 1.02 <
-13 5 13 0.12 -0.60 1.06 <
-12 5 13 15.63 15.01 1.09 o
-11 5 13 11.85 11.95 1.26 o
-10 5 13 38.20 32.10 1.08 o
-9 5 13 3.15 2.92 0.89 o
-8 5 13 4.52 4.52 0.71 o
-7 5 13 16.58 16.42 0.97 o
-6 5 13 1.66 2.28 0.91 <
-5 5 13 1.22 1.38 0.72 <
-4 5 13 30.52 30.87 0.91 o
-3 5 13 2.72 3.29 0.77 o
-2 5 13 7.33 5.79 0.78 o
-1 5 13 1.64 0.63 0.76 <
0 5 13 0.33 0.23 0.78 <
1 5 13 0.00 0.80 2.02 <
2 5 13 6.73 6.91 0.79 o
3 5 13 3.08 2.51 0.79 o
4 5 13 1.68 1.24 0.75 <
5 5 13 0.67 1.19 0.91 <
6 5 13 0.75 1.48 0.96 <
7 5 13 0.69 -0.23 1.24 <
8 5 13 2.00 2.08 1.13 <
9 5 13 2.19 2.93 1.39 <
10 5 13 0.53 1.68 1.28 <
11 5 13 0.24 1.04 1.67 <
12 5 13 3.78 2.77 1.38 <
-12 6 13 6.78 4.73 2.70 <
-11 6 13 4.14 3.93 1.70 <
-10 6 13 6.76 5.99 1.86 o
-9 6 13 1.10 1.00 1.25 <
-8 6 13 0.00 -1.09 1.14 <
-7 6 13 0.36 1.18 1.22 <
-6 6 13 0.95 0.82 1.37 <
-5 6 13 1.72 1.17 1.07 <
-4 6 13 0.54 0.54 1.22 <
-3 6 13 1.18 1.20 1.44 <
-2 6 13 2.28 1.80 1.50 <
-1 6 13 1.96 2.20 1.27 <
0 6 13 0.21 -0.48 1.16 <
1 6 13 9.50 8.97 1.14 o
2 6 13 3.92 3.64 1.43 <
3 6 13 0.90 0.65 1.38 <
4 6 13 29.59 26.72 1.37 o
5 6 13 3.17 3.71 1.91 <
-27 0 14 0.68 -0.40 2.06 <
-26 0 14 3.93 3.82 1.42 <
-25 0 14 0.00 1.99 1.27 <
-24 0 14 0.56 0.89 1.17 <
-23 0 14 33.15 33.99 1.04 o
-22 0 14 2.75 2.60 0.68 o
-21 0 14 43.32 43.90 0.96 o
-20 0 14 2.49 1.83 0.72 <
-19 0 14 10.31 11.16 0.73 o
-18 0 14 11.82 11.97 0.63 o
-17 0 14 22.38 21.67 0.72 o
-16 0 14 9.46 9.48 0.56 o
-15 0 14 499.72 511.33 6.12 o
-14 0 14 2.44 1.87 0.43 o
-13 0 14 75.36 74.99 1.19 o
-12 0 14 12.68 11.81 0.44 o
-11 0 14 18.82 19.90 0.49 o
-10 0 14 0.07 0.08 0.30 <
-9 0 14 121.53 132.30 1.53 o
-8 0 14 4.47 4.51 0.28 o
-7 0 14 132.53 138.25 1.57 o
-6 0 14 42.29 41.79 0.64 o
-5 0 14 0.00 0.01 0.26 <
-4 0 14 163.89 164.74 1.81 o
-3 0 14 0.12 0.11 0.28 <
-2 0 14 0.00 0.63 0.30 <
-1 0 14 185.82 198.80 2.31 o
0 0 14 37.58 37.72 0.65 o
1 0 14 160.69 172.95 1.90 o
2 0 14 30.19 28.14 0.57 o
3 0 14 48.88 50.96 0.81 o
4 0 14 8.60 7.76 0.35 o
5 0 14 72.87 74.54 1.07 o
6 0 14 65.28 64.91 0.90 o
7 0 14 623.24 648.74 6.44 o
8 0 14 13.00 13.56 0.52 o
9 0 14 1.43 0.34 0.47 <
10 0 14 0.03 0.46 0.50 <
11 0 14 30.49 31.63 0.85 o
12 0 14 15.56 14.41 0.98 o
13 0 14 101.80 97.92 2.00 o
14 0 14 3.89 3.82 1.22 o
15 0 14 18.68 19.37 1.18 o
16 0 14 1.80 3.89 1.29 o
17 0 14 4.35 2.31 1.37 <
18 0 14 0.75 -0.78 1.56 <
19 0 14 7.76 7.86 2.03 o
20 0 14 1.46 1.09 2.10 <
-27 1 14 5.86 6.14 1.53 o
-26 1 14 9.48 10.44 1.14 o
-25 1 14 1.09 1.00 1.17 <
-24 1 14 0.01 -0.44 0.84 <
-23 1 14 0.74 1.18 0.81 <
-22 1 14 5.64 6.10 0.67 o
-21 1 14 9.33 9.09 0.67 o
-20 1 14 3.04 3.73 0.48 o
-19 1 14 12.18 12.52 0.51 o
-18 1 14 1.74 2.12 0.44 o
-17 1 14 21.80 20.34 0.54 o
-16 1 14 1.49 1.11 0.45 <
-15 1 14 1.41 2.32 0.33 o
-14 1 14 50.46 52.65 0.65 o
-13 1 14 120.53 126.18 1.20 o
-12 1 14 22.59 22.17 0.42 o
-11 1 14 0.43 0.75 0.25 <
-10 1 14 3.86 3.66 0.26 o
-9 1 14 36.97 37.21 0.48 o
-8 1 14 10.96 11.10 0.27 o
-7 1 14 13.65 15.76 0.29 o
-6 1 14 0.14 0.20 0.20 <
-5 1 14 0.02 -0.18 0.19 <
-4 1 14 0.01 -0.45 0.20 <
-3 1 14 1.14 0.93 0.23 o
-2 1 14 0.52 0.65 0.19 o
-1 1 14 47.36 50.50 0.56 o
0 1 14 34.06 35.83 0.46 o
1 1 14 34.99 37.18 0.48 o
2 1 14 24.96 24.71 0.40 o
3 1 14 6.36 6.61 0.26 o
4 1 14 0.00 -0.42 0.33 <
5 1 14 231.51 241.55 2.07 o
6 1 14 27.75 28.80 0.49 o
7 1 14 18.11 17.94 0.41 o
8 1 14 20.97 19.65 0.42 o
9 1 14 52.55 52.44 0.67 o
10 1 14 8.77 9.80 0.45 o
11 1 14 17.38 17.72 0.51 o
12 1 14 0.01 -0.76 0.53 <
13 1 14 19.29 18.39 0.62 o
14 1 14 9.84 10.09 0.68 o
15 1 14 5.12 5.11 0.84 o
16 1 14 2.13 2.33 0.82 <
17 1 14 0.23 0.38 1.18 <
18 1 14 4.17 4.99 2.62 <
19 1 14 9.56 11.09 1.43 o
20 1 14 0.00 0.90 2.38 <
-26 2 14 0.89 1.85 1.45 <
-25 2 14 0.18 0.42 1.19 <
-24 2 14 7.38 6.93 1.06 o
-23 2 14 16.20 15.62 0.81 o
-22 2 14 5.56 4.76 0.91 o
-21 2 14 3.39 2.80 0.77 o
-20 2 14 21.95 21.61 0.68 o
-19 2 14 3.46 3.37 0.67 o
-18 2 14 5.33 4.37 0.52 o
-17 2 14 31.25 31.39 0.64 o
-16 2 14 49.98 49.04 0.72 o
-15 2 14 2.83 3.65 0.44 o
-14 2 14 2.99 3.08 0.41 o
-13 2 14 0.10 -0.02 0.37 <
-12 2 14 118.78 123.60 1.24 o
-11 2 14 28.30 29.64 0.46 o
-10 2 14 0.13 1.24 0.29 o
-9 2 14 4.78 5.26 0.27 o
-8 2 14 14.97 15.48 0.32 o
-7 2 14 1.18 0.45 0.26 <
-6 2 14 33.66 36.55 0.45 o
-5 2 14 2.33 2.84 0.26 o
-4 2 14 45.18 47.95 0.55 o
-3 2 14 3.45 3.35 0.29 o
-2 2 14 6.83 7.00 0.28 o
-1 2 14 1.88 2.21 0.30 o
0 2 14 0.46 1.05 0.28 o
1 2 14 3.88 4.63 0.32 o
2 2 14 0.00 0.37 0.30 <
3 2 14 20.90 23.44 0.45 o
4 2 14 49.45 52.07 0.64 o
5 2 14 44.29 44.77 0.58 o
6 2 14 11.95 11.27 0.43 o
7 2 14 0.03 -0.52 0.41 <
8 2 14 29.68 31.36 0.54 o
9 2 14 0.65 0.50 0.49 <
10 2 14 0.20 -0.85 0.62 <
11 2 14 24.18 23.68 0.67 o
12 2 14 20.51 21.91 1.52 o
13 2 14 18.08 20.07 0.82 o
14 2 14 4.96 4.35 0.93 o
15 2 14 5.93 6.16 1.05 o
16 2 14 7.53 9.63 1.16 o
17 2 14 0.41 1.27 1.62 <
18 2 14 0.11 -0.14 1.49 <
19 2 14 0.09 -1.84 2.24 <
-24 3 14 1.26 1.21 1.33 <
-23 3 14 0.07 -0.50 1.30 <
-22 3 14 0.00 0.17 1.44 <
-21 3 14 2.18 1.64 1.26 <
-20 3 14 2.70 2.89 1.22 <
-19 3 14 6.12 6.15 0.82 o
-18 3 14 26.31 27.47 0.81 o
-17 3 14 0.22 0.27 0.65 <
-16 3 14 5.78 5.63 0.66 o
-15 3 14 57.19 59.27 0.93 o
-14 3 14 13.99 14.50 0.57 o
-13 3 14 0.84 0.04 0.50 <
-12 3 14 28.00 30.35 0.65 o
-11 3 14 16.01 15.76 0.54 o
-10 3 14 60.51 64.64 0.95 o
-9 3 14 31.78 29.88 0.58 o
-8 3 14 2.39 1.50 0.49 o
-7 3 14 33.38 33.20 0.55 o
-6 3 14 1.90 1.94 0.39 o
-5 3 14 6.49 5.60 0.37 o
-4 3 14 0.26 0.31 0.40 <
-3 3 14 1.89 1.73 0.33 o
-2 3 14 0.24 -0.05 0.34 <
-1 3 14 39.21 38.40 0.55 o
0 3 14 1.64 2.16 0.31 o
1 3 14 6.16 6.11 0.38 o
2 3 14 17.44 18.10 0.54 o
3 3 14 1.67 1.49 0.46 o
4 3 14 49.14 49.30 501.22 <
5 3 14 13.70 11.41 0.49 o
6 3 14 2.43 3.52 0.48 o
7 3 14 13.03 13.52 0.63 o
8 3 14 2.75 2.97 0.78 o
9 3 14 4.33 5.01 0.67 o
10 3 14 10.44 10.99 0.76 o
11 3 14 0.28 0.28 0.87 <
12 3 14 0.33 0.40 0.86 <
13 3 14 0.15 0.22 1.16 <
14 3 14 0.00 0.88 1.16 <
15 3 14 0.70 0.90 1.47 <
16 3 14 0.15 0.24 1.44 <
17 3 14 1.00 1.28 1.53 <
-21 4 14 5.61 6.61 2.12 o
-20 4 14 0.00 1.03 1.78 <
-19 4 14 0.32 -0.66 1.30 <
-18 4 14 2.10 0.30 1.59 <
-17 4 14 21.50 21.45 0.97 o
-16 4 14 24.20 23.05 1.15 o
-15 4 14 4.29 3.63 1.00 o
-14 4 14 0.11 0.32 0.87 <
-13 4 14 7.96 8.66 0.73 o
-12 4 14 0.52 -0.19 0.89 <
-11 4 14 10.87 10.04 0.79 o
-10 4 14 33.84 31.01 0.77 o
-9 4 14 42.42 42.12 0.80 o
-8 4 14 16.24 14.98 0.62 o
-7 4 14 1.22 1.82 0.65 <
-6 4 14 0.86 1.66 0.54 o
-5 4 14 4.55 3.98 0.54 o
-4 4 14 7.55 7.40 0.59 o
-3 4 14 5.36 5.62 0.56 o
-2 4 14 0.55 0.74 0.59 <
-1 4 14 0.98 1.89 0.61 o
0 4 14 13.51 13.36 0.59 o
1 4 14 21.89 22.34 0.68 o
2 4 14 79.57 82.25 1.11 o
3 4 14 3.14 3.66 0.61 o
4 4 14 3.88 4.23 0.65 o
5 4 14 0.26 0.14 0.73 <
6 4 14 1.69 2.28 0.76 <
7 4 14 0.86 0.82 2.27 <
8 4 14 27.98 28.26 0.95 o
9 4 14 3.61 2.13 1.02 <
10 4 14 18.54 16.67 1.22 o
11 4 14 0.00 0.74 1.13 <
12 4 14 0.02 1.36 1.26 <
13 4 14 5.82 5.96 1.48 o
14 4 14 1.61 1.35 2.04 <
-17 5 14 0.00 1.21 2.06 <
-16 5 14 0.10 -1.28 1.94 <
-15 5 14 2.22 2.31 1.60 <
-14 5 14 0.14 0.12 1.53 <
-13 5 14 0.68 0.55 1.22 <
-12 5 14 28.21 25.39 1.41 o
-11 5 14 1.55 0.87 1.22 <
-10 5 14 26.62 24.36 1.36 o
-9 5 14 5.71 4.34 1.32 o
-8 5 14 0.04 0.63 0.91 <
-7 5 14 2.15 2.69 1.18 <
-6 5 14 0.94 1.57 1.01 <
-5 5 14 0.02 -0.43 0.77 <
-4 5 14 0.05 -0.65 0.77 <
-3 5 14 1.98 1.64 0.85 <
-2 5 14 0.36 0.47 1.70 <
-1 5 14 9.83 10.04 1.10 o
0 5 14 0.37 -1.04 1.05 <
1 5 14 0.09 1.22 1.02 <
2 5 14 25.93 24.53 0.98 o
3 5 14 2.08 1.52 1.02 <
4 5 14 38.91 41.57 1.04 o
5 5 14 0.03 0.37 1.12 <
6 5 14 1.18 0.89 1.20 <
7 5 14 0.35 -0.33 1.14 <
8 5 14 0.48 0.41 1.21 <
9 5 14 3.32 3.17 2.95 <
10 5 14 21.77 18.25 1.53 o
-9 6 14 0.57 1.99 1.80 <
-8 6 14 0.04 0.19 1.82 <
-7 6 14 2.66 2.40 2.06 <
-6 6 14 4.26 5.02 2.04 <
-5 6 14 1.19 0.23 1.66 <
-4 6 14 8.88 6.48 1.70 o
-3 6 14 6.32 7.15 1.92 o
-2 6 14 6.54 6.66 1.52 o
-1 6 14 0.00 0.98 1.56 <
0 6 14 0.13 1.53 1.86 <
1 6 14 3.58 4.84 2.32 <
2 6 14 0.15 0.59 2.00 <
-26 1 15 2.79 1.13 1.19 <
-25 1 15 13.62 13.48 1.10 o
-24 1 15 12.12 11.77 0.94 o
-23 1 15 11.41 11.91 0.71 o
-22 1 15 5.65 5.91 0.81 o
-21 1 15 2.76 3.27 0.73 o
-20 1 15 8.00 6.97 0.64 o
-19 1 15 12.89 13.04 0.53 o
-18 1 15 42.35 42.03 0.73 o
-17 1 15 87.65 87.15 1.12 o
-16 1 15 0.46 0.60 0.43 <
-15 1 15 94.39 94.09 1.03 o
-14 1 15 135.00 138.04 1.31 o
-13 1 15 13.36 13.79 0.37 o
-12 1 15 10.09 10.85 0.33 o
-11 1 15 7.03 7.39 0.28 o
-10 1 15 18.11 19.03 0.35 o
-9 1 15 31.92 32.54 0.44 o
-8 1 15 32.30 33.18 0.44 o
-7 1 15 22.93 22.90 0.35 o
-6 1 15 55.75 57.01 0.60 o
-5 1 15 0.90 0.95 0.26 o
-4 1 15 0.01 0.07 0.24 <
-3 1 15 19.21 18.85 0.34 o
-2 1 15 0.14 0.62 0.22 <
-1 1 15 18.93 20.78 0.36 o
0 1 15 0.36 0.54 0.26 <
1 1 15 3.77 3.19 0.27 o
2 1 15 4.47 5.48 0.32 o
3 1 15 2.36 1.93 0.35 o
4 1 15 0.29 -0.04 0.28 <
5 1 15 71.68 73.66 0.82 o
6 1 15 1.67 1.88 0.34 o
7 1 15 2.20 2.45 0.37 o
8 1 15 5.70 5.57 0.41 o
9 1 15 2.62 1.87 0.52 o
10 1 15 0.00 -0.27 0.56 <
11 1 15 46.91 51.06 0.80 o
12 1 15 0.08 1.04 0.69 <
13 1 15 21.24 23.54 0.76 o
14 1 15 0.33 0.30 0.86 <
15 1 15 2.90 2.29 1.11 <
16 1 15 1.62 1.41 1.32 <
17 1 15 13.76 13.20 1.45 o
18 1 15 2.51 2.84 1.56 <
-25 2 15 0.62 0.77 1.43 <
-24 2 15 0.25 1.39 1.17 <
-23 2 15 1.38 1.60 0.93 <
-22 2 15 2.50 3.76 0.85 o
-21 2 15 0.39 0.39 0.85 <
-20 2 15 31.21 32.65 0.80 o
-19 2 15 4.60 3.71 0.73 o
-18 2 15 45.41 44.74 0.85 o
-17 2 15 4.17 3.14 0.66 o
-16 2 15 3.46 3.07 0.55 o
-15 2 15 0.00 0.38 0.51 <
-14 2 15 6.56 6.80 0.49 o
-13 2 15 0.24 0.49 0.51 <
-12 2 15 83.42 88.36 0.97 o
-11 2 15 4.87 5.31 0.37 o
-10 2 15 2.49 3.11 0.33 o
-9 2 15 1.31 1.06 0.36 <
-8 2 15 3.50 3.87 0.28 o
-7 2 15 1.69 1.40 0.35 o
-6 2 15 0.07 -0.44 0.30 <
-5 2 15 4.83 4.26 0.34 o
-4 2 15 14.38 12.93 0.40 o
-3 2 15 88.69 93.70 1.01 o
-2 2 15 1.79 2.09 0.28 o
-1 2 15 24.70 27.65 0.47 o
0 2 15 10.06 10.68 0.34 o
1 2 15 0.00 -0.06 0.32 <
2 2 15 13.57 12.52 0.40 o
3 2 15 85.78 85.74 1.01 o
4 2 15 31.48 30.93 0.57 o
5 2 15 112.10 115.35 1.20 o
6 2 15 9.92 9.43 0.55 o
7 2 15 1.40 0.55 0.46 <
8 2 15 23.37 24.39 0.61 o
9 2 15 3.20 3.47 0.57 o
10 2 15 0.77 0.59 0.66 <
11 2 15 5.77 5.61 0.68 o
12 2 15 4.73 4.61 2.08 <
13 2 15 7.69 7.82 1.06 o
14 2 15 0.01 -1.00 1.18 <
15 2 15 0.36 0.79 1.21 <
16 2 15 0.91 -1.32 1.48 <
17 2 15 0.02 -0.65 1.87 <
-23 3 15 2.88 2.74 1.30 <
-22 3 15 0.06 0.38 1.53 <
-21 3 15 0.47 -0.04 1.34 <
-20 3 15 2.58 3.04 1.20 <
-19 3 15 0.21 -1.01 1.11 <
-18 3 15 0.05 0.66 0.85 <
-17 3 15 1.21 0.76 0.78 <
-16 3 15 0.25 0.91 0.78 <
-15 3 15 1.03 2.02 0.68 <
-14 3 15 1.75 2.00 0.59 o
-13 3 15 0.16 0.39 0.68 <
-12 3 15 1.49 2.01 0.56 o
-11 3 15 0.15 -0.35 0.60 <
-10 3 15 0.03 -0.48 0.51 <
-9 3 15 0.53 0.55 0.53 <
-8 3 15 7.67 7.67 0.48 o
-7 3 15 5.88 6.56 0.48 o
-6 3 15 24.85 25.28 0.56 o
-5 3 15 0.01 0.07 0.46 <
-4 3 15 1.95 1.56 0.44 o
-3 3 15 0.23 0.61 0.42 <
-2 3 15 0.72 0.88 0.40 <
-1 3 15 27.31 28.94 0.52 o
0 3 15 73.70 74.62 0.88 o
1 3 15 4.54 4.18 0.48 o
2 3 15 102.06 103.54 1.13 o
3 3 15 33.94 35.53 0.67 o
4 3 15 7.91 7.90 0.60 o
5 3 15 5.42 5.66 0.60 o
6 3 15 0.01 -0.09 0.60 <
7 3 15 3.26 3.01 0.68 o
8 3 15 18.29 19.31 3.24 o
9 3 15 5.58 7.79 1.07 o
10 3 15 24.58 25.61 1.04 o
11 3 15 17.02 17.16 1.42 o
12 3 15 0.20 1.28 1.14 <
13 3 15 6.49 7.21 1.50 o
14 3 15 15.92 17.31 1.65 o
15 3 15 1.11 0.18 2.81 <
-20 4 15 1.19 -0.55 2.07 <
-19 4 15 0.14 0.62 1.59 <
-18 4 15 0.01 1.03 1.96 <
-17 4 15 0.89 1.44 1.32 <
-16 4 15 1.03 1.02 1.42 <
-15 4 15 1.16 0.93 1.16 <
-14 4 15 0.42 -1.16 0.97 <
-13 4 15 1.29 1.68 0.90 <
-12 4 15 0.11 0.00 0.96 <
-11 4 15 12.39 12.91 0.87 o
-10 4 15 5.22 4.56 0.78 o
-9 4 15 11.62 11.92 0.65 o
-8 4 15 0.62 1.00 0.77 <
-7 4 15 1.87 1.06 0.70 <
-6 4 15 10.34 10.68 1.81 o
-5 4 15 1.83 1.11 0.56 <
-4 4 15 0.04 0.10 0.68 <
-3 4 15 24.74 23.61 0.70 o
-2 4 15 5.73 4.64 0.72 o
-1 4 15 0.85 0.45 0.56 <
0 4 15 5.28 5.32 0.84 o
1 4 15 0.03 0.73 0.73 <
2 4 15 4.32 6.54 0.80 o
3 4 15 6.92 5.99 0.87 o
4 4 15 0.87 1.15 0.71 <
5 4 15 1.17 1.33 0.81 <
6 4 15 0.49 1.19 0.85 <
7 4 15 0.01 0.02 1.22 <
8 4 15 0.89 1.24 1.31 <
9 4 15 0.84 1.78 1.05 <
10 4 15 0.21 -0.35 1.37 <
11 4 15 0.00 1.14 1.57 <
12 4 15 0.14 0.09 1.56 <
-16 5 15 0.22 -0.69 2.54 <
-15 5 15 0.06 2.24 1.87 <
-14 5 15 3.93 2.69 1.52 <
-13 5 15 1.22 0.19 1.39 <
-12 5 15 0.25 0.96 1.36 <
-11 5 15 3.07 3.32 1.54 <
-10 5 15 6.02 4.15 1.32 o
-9 5 15 3.72 4.39 1.11 o
-8 5 15 0.21 1.79 1.31 <
-7 5 15 2.54 1.77 1.04 <
-6 5 15 4.82 4.48 1.05 o
-5 5 15 11.56 14.43 1.30 o
-4 5 15 26.68 24.79 1.25 o
-3 5 15 0.06 0.28 1.28 <
-2 5 15 1.87 2.41 1.42 <
-1 5 15 17.76 18.30 1.18 o
0 5 15 6.98 7.16 2.24 o
1 5 15 0.48 1.44 1.16 <
2 5 15 42.31 39.66 1.18 o
3 5 15 10.89 10.81 1.16 o
4 5 15 6.53 6.72 1.24 o
5 5 15 0.13 -0.09 1.24 <
6 5 15 0.25 1.32 1.44 <
7 5 15 0.44 -0.28 1.70 <
8 5 15 8.59 8.79 1.82 o
-25 0 16 0.21 1.51 1.61 <
-24 0 16 12.18 11.43 1.35 o
-23 0 16 21.89 21.12 1.27 o
-22 0 16 43.83 44.04 1.19 o
-21 0 16 33.10 33.05 1.03 o
-20 0 16 26.62 24.95 0.89 o
-19 0 16 0.13 1.26 0.93 <
-18 0 16 5.94 5.81 0.85 o
-17 0 16 39.38 40.83 1.01 o
-16 0 16 187.20 189.66 2.89 o
-15 0 16 138.04 140.45 2.00 o
-14 0 16 44.99 48.12 0.96 o
-13 0 16 0.07 -1.04 0.55 <
-12 0 16 16.24 16.99 0.59 o
-11 0 16 0.44 -0.79 0.44 <
-10 0 16 20.33 18.44 0.55 o
-9 0 16 51.48 50.04 0.85 o
-8 0 16 19.19 22.83 0.55 o
-7 0 16 1.98 1.95 0.31 o
-6 0 16 6.50 6.76 0.38 o
-5 0 16 3.23 3.75 0.39 o
-4 0 16 0.32 0.35 0.43 <
-3 0 16 44.99 42.66 0.78 o
-2 0 16 5.98 4.67 0.43 o
-1 0 16 2.53 3.51 0.41 o
0 0 16 30.46 29.55 0.74 o
1 0 16 1.44 0.03 0.47 <
2 0 16 0.85 1.69 0.66 <
3 0 16 51.23 50.82 0.96 o
4 0 16 0.31 -0.06 0.57 <
5 0 16 9.93 9.10 0.56 o
6 0 16 10.82 10.48 0.70 o
7 0 16 7.87 7.53 2.75 <
8 0 16 10.49 11.09 0.65 o
9 0 16 21.55 26.60 0.88 o
10 0 16 9.55 10.49 0.98 o
11 0 16 22.65 27.75 1.29 o
12 0 16 4.76 5.96 1.33 o
13 0 16 0.31 1.86 1.11 <
14 0 16 0.03 -0.52 1.30 <
15 0 16 8.13 10.21 1.44 o
16 0 16 9.29 12.09 1.49 o
17 0 16 130.03 143.23 3.29 o
-25 1 16 0.84 -0.45 1.39 <
-24 1 16 5.19 3.76 1.10 o
-23 1 16 15.16 15.17 0.98 o
-22 1 16 17.00 17.83 0.79 o
-21 1 16 1.75 1.58 0.78 <
-20 1 16 31.34 30.27 0.73 o
-19 1 16 0.01 -0.93 0.67 <
-18 1 16 11.85 12.10 0.53 o
-17 1 16 77.51 75.62 1.03 o
-16 1 16 2.25 2.28 0.46 o
-15 1 16 11.59 11.69 0.50 o
-14 1 16 27.93 28.86 0.51 o
-13 1 16 11.68 11.89 0.41 o
-12 1 16 0.00 -0.19 0.38 <
-11 1 16 4.08 3.45 0.37 o
-10 1 16 3.25 3.82 0.30 o
-9 1 16 5.50 5.82 0.31 o
-8 1 16 0.37 0.81 0.28 <
-7 1 16 1.01 1.13 0.29 o
-6 1 16 8.70 7.67 0.33 o
-5 1 16 4.20 5.18 0.29 o
-4 1 16 0.73 1.26 0.27 o
-3 1 16 85.67 92.01 0.94 o
-2 1 16 31.46 31.09 0.46 o
-1 1 16 41.82 42.04 0.57 o
0 1 16 0.60 0.41 0.28 <
1 1 16 10.94 11.03 0.37 o
2 1 16 0.18 0.17 0.30 <
3 1 16 11.12 10.54 0.39 o
4 1 16 29.54 29.83 0.55 o
5 1 16 78.73 80.82 0.94 o
6 1 16 5.46 5.44 0.37 o
7 1 16 0.20 -0.28 0.42 <
8 1 16 0.21 0.71 0.48 <
9 1 16 4.80 4.51 0.50 o
10 1 16 0.58 0.21 0.57 <
11 1 16 0.73 1.71 0.80 <
12 1 16 0.16 0.37 0.85 <
13 1 16 1.11 1.24 0.91 <
14 1 16 2.00 2.45 1.16 <
15 1 16 5.59 5.02 1.35 o
16 1 16 4.81 4.29 1.22 o
17 1 16 0.00 1.48 2.21 <
-24 2 16 1.21 0.55 1.47 <
-23 2 16 0.14 1.91 1.38 <
-22 2 16 1.87 2.14 1.03 <
-21 2 16 2.59 3.68 0.95 o
-20 2 16 0.00 -1.16 0.82 <
-19 2 16 15.88 14.75 0.86 o
-18 2 16 0.30 0.41 0.72 <
-17 2 16 37.54 37.15 0.79 o
-16 2 16 0.26 0.82 0.62 <
-15 2 16 0.05 0.35 0.62 <
-14 2 16 0.50 0.48 0.60 <
-13 2 16 0.10 0.55 0.49 <
-12 2 16 0.58 0.67 0.47 <
-11 2 16 29.85 29.88 0.58 o
-10 2 16 4.36 3.95 0.44 o
-9 2 16 37.15 37.03 0.56 o
-8 2 16 27.77 26.06 0.51 o
-7 2 16 4.65 4.29 0.35 o
-6 2 16 0.51 0.38 0.44 <
-5 2 16 8.54 9.19 0.38 o
-4 2 16 0.00 -0.89 0.33 <
-3 2 16 0.12 -0.16 0.37 <
-2 2 16 64.29 64.95 0.80 o
-1 2 16 59.02 59.51 0.76 o
0 2 16 12.11 11.47 0.42 o
1 2 16 0.56 0.42 0.44 <
2 2 16 1.61 2.53 0.40 o
3 2 16 82.82 84.64 0.98 o
4 2 16 12.48 12.06 0.59 o
5 2 16 0.33 0.16 0.49 <
6 2 16 8.09 7.49 0.47 o
7 2 16 11.58 11.42 0.61 o
8 2 16 0.68 1.44 0.68 <
9 2 16 32.34 33.58 0.86 o
10 2 16 2.89 2.29 0.79 <
11 2 16 20.46 21.69 0.95 o
12 2 16 3.56 3.98 2.34 <
13 2 16 0.17 1.28 1.19 <
14 2 16 1.22 1.87 1.82 <
15 2 16 3.81 2.75 1.60 <
16 2 16 9.23 13.50 2.03 o
-22 3 16 1.90 1.95 1.55 <
-21 3 16 0.91 -0.32 1.31 <
-20 3 16 6.13 4.04 1.41 <
-19 3 16 15.95 15.53 1.25 o
-18 3 16 5.79 6.02 1.09 o
-17 3 16 12.74 11.01 0.83 o
-16 3 16 2.78 3.69 0.93 o
-15 3 16 0.02 -0.58 1.08 <
-14 3 16 0.10 0.31 0.78 <
-13 3 16 0.08 -0.38 0.87 <
-12 3 16 0.07 -0.22 0.75 <
-11 3 16 2.87 2.81 0.77 o
-10 3 16 0.17 0.15 0.61 <
-9 3 16 1.31 1.33 0.62 <
-8 3 16 11.77 12.68 0.55 o
-7 3 16 7.70 7.79 0.60 o
-6 3 16 1.22 1.20 0.62 <
-5 3 16 41.69 42.45 0.69 o
-4 3 16 34.51 35.12 0.64 o
-3 3 16 7.01 8.15 0.59 o
-2 3 16 37.52 39.20 0.63 o
-1 3 16 1.15 1.16 0.49 <
0 3 16 64.25 68.88 0.86 o
1 3 16 45.20 44.12 0.76 o
2 3 16 29.47 27.74 0.64 o
3 3 16 25.94 24.87 2.03 o
4 3 16 0.86 0.89 0.64 <
5 3 16 0.00 0.72 0.69 <
6 3 16 60.16 61.96 1.08 o
7 3 16 6.15 5.95 0.85 o
8 3 16 0.01 -0.06 0.87 <
9 3 16 4.96 4.19 1.02 o
10 3 16 4.52 4.62 1.17 o
11 3 16 1.25 1.48 1.30 <
12 3 16 1.46 2.23 1.57 <
13 3 16 0.46 0.82 1.66 <
14 3 16 5.45 4.55 1.73 <
-19 4 16 0.48 1.47 2.19 <
-18 4 16 0.07 -0.53 1.42 <
-17 4 16 2.09 4.71 1.21 o
-16 4 16 0.42 1.09 1.50 <
-15 4 16 0.60 0.45 1.24 <
-14 4 16 20.17 20.20 0.94 o
-13 4 16 2.29 2.22 1.08 <
-12 4 16 4.82 4.68 0.96 o
-11 4 16 8.19 7.70 1.01 o
-10 4 16 0.01 -0.74 1.08 <
-9 4 16 3.67 3.46 0.94 o
-8 4 16 10.80 11.77 0.90 o
-7 4 16 3.38 3.07 0.86 o
-6 4 16 52.43 56.72 1.10 o
-5 4 16 1.11 0.31 1.53 <
-4 4 16 1.21 1.75 0.77 <
-3 4 16 9.36 10.70 0.85 o
-2 4 16 0.08 0.58 0.83 <
-1 4 16 0.32 0.46 0.86 <
0 4 16 134.98 139.59 1.88 o
1 4 16 27.70 26.84 1.04 o
2 4 16 87.18 87.96 1.41 o
3 4 16 6.17 6.30 0.96 o
4 4 16 7.69 8.56 1.24 o
5 4 16 0.95 1.24 1.09 <
6 4 16 1.43 1.63 3.38 <
7 4 16 5.04 2.73 1.30 <
8 4 16 35.19 32.29 1.24 o
9 4 16 1.91 2.34 1.32 <
10 4 16 0.13 -0.75 2.00 <
-14 5 16 0.14 2.64 2.88 <
-13 5 16 4.94 3.87 1.59 <
-12 5 16 8.36 9.74 1.83 o
-11 5 16 4.45 4.24 1.74 <
-10 5 16 0.25 -0.66 1.50 <
-9 5 16 0.98 1.89 1.43 <
-8 5 16 0.00 -0.56 1.40 <
-7 5 16 0.06 2.27 1.38 <
-6 5 16 0.34 -0.28 1.33 <
-5 5 16 1.49 3.07 1.42 <
-4 5 16 1.85 1.24 1.50 <
-3 5 16 0.12 1.29 1.66 <
-2 5 16 1.00 3.73 1.42 <
-1 5 16 0.39 0.39 1.54 <
0 5 16 12.54 11.38 1.59 o
1 5 16 1.58 2.22 2.39 <
2 5 16 0.47 0.24 1.59 <
3 5 16 1.00 1.83 1.47 <
4 5 16 3.85 4.23 1.62 <
5 5 16 0.72 1.24 1.66 <
-24 1 17 1.16 -0.48 1.46 <
-23 1 17 2.64 3.40 1.10 o
-22 1 17 0.05 1.01 1.02 <
-21 1 17 2.30 2.42 0.90 <
-20 1 17 0.31 0.35 0.73 <
-19 1 17 2.63 2.74 0.77 o
-18 1 17 6.10 5.45 0.84 o
-17 1 17 27.11 26.83 0.74 o
-16 1 17 4.33 4.44 0.74 o
-15 1 17 0.06 0.42 0.60 <
-14 1 17 0.21 0.18 0.51 <
-13 1 17 0.07 -0.16 0.43 <
-12 1 17 3.49 4.22 0.47 o
-11 1 17 55.04 55.63 0.67 o
-10 1 17 10.34 10.97 0.38 o
-9 1 17 8.45 8.04 0.37 o
-8 1 17 5.33 5.11 0.31 o
-7 1 17 0.01 0.18 0.34 <
-6 1 17 3.90 4.14 0.40 o
-5 1 17 93.64 95.89 0.99 o
-4 1 17 17.42 17.81 0.39 o
-3 1 17 68.89 71.49 0.85 o
-2 1 17 6.61 7.30 0.41 o
-1 1 17 2.03 1.89 0.44 o
0 1 17 0.02 -0.75 0.45 <
1 1 17 4.62 4.07 0.43 o
2 1 17 2.26 2.56 0.43 o
3 1 17 48.14 46.76 0.70 o
4 1 17 2.77 3.19 0.46 o
5 1 17 0.69 1.44 0.50 <
6 1 17 15.06 16.68 0.57 o
7 1 17 18.31 19.07 0.65 o
8 1 17 19.67 21.30 0.73 o
9 1 17 15.47 19.92 0.69 o
10 1 17 6.10 6.68 0.69 o
11 1 17 5.04 5.82 2.44 <
12 1 17 9.40 10.00 1.06 o
13 1 17 3.70 3.84 1.35 <
14 1 17 12.07 12.13 1.36 o
15 1 17 21.28 20.88 1.44 o
-23 2 17 0.16 2.06 1.48 <
-22 2 17 0.03 1.05 1.22 <
-21 2 17 0.65 1.18 1.37 <
-20 2 17 1.34 0.23 0.92 <
-19 2 17 69.66 68.54 1.28 o
-18 2 17 2.13 2.15 0.71 o
-17 2 17 29.62 29.45 0.92 o
-16 2 17 9.24 9.89 0.74 o
-15 2 17 5.47 4.84 0.74 o
-14 2 17 6.19 8.19 0.61 o
-13 2 17 0.96 1.52 0.55 <
-12 2 17 0.34 -0.12 0.57 <
-11 2 17 5.18 4.17 0.52 o
-10 2 17 12.35 13.02 0.56 o
-9 2 17 7.52 8.96 0.52 o
-8 2 17 1.87 2.25 0.44 o
-7 2 17 1.97 1.79 0.47 o
-6 2 17 7.39 7.26 0.50 o
-5 2 17 7.86 9.37 0.43 o
-4 2 17 25.13 25.91 0.51 o
-3 2 17 56.83 59.82 0.78 o
-2 2 17 98.96 105.04 1.14 o
-1 2 17 1.67 2.80 0.44 o
0 2 17 5.39 6.87 0.43 o
1 2 17 6.85 7.80 0.46 o
2 2 17 2.34 1.97 2.03 <
3 2 17 15.21 14.35 0.51 o
4 2 17 22.34 21.86 0.58 o
5 2 17 10.99 10.52 0.57 o
6 2 17 0.11 0.01 0.71 <
7 2 17 2.10 1.95 0.84 <
8 2 17 0.05 -0.05 1.01 <
9 2 17 0.24 0.26 0.95 <
10 2 17 2.49 2.88 1.14 <
11 2 17 2.01 0.20 1.35 <
12 2 17 13.48 13.69 1.97 o
13 2 17 0.43 0.46 1.82 <
14 2 17 20.84 22.26 1.98 o
-21 3 17 7.83 7.19 1.49 o
-20 3 17 7.69 7.63 1.60 o
-19 3 17 20.52 15.95 1.51 o
-18 3 17 0.05 0.37 1.21 <
-17 3 17 0.03 -0.32 1.14 <
-16 3 17 5.03 5.00 1.19 o
-15 3 17 0.21 -0.82 0.92 <
-14 3 17 8.39 10.47 0.91 o
-13 3 17 29.72 31.24 0.82 o
-12 3 17 1.71 1.90 0.89 <
-11 3 17 27.50 26.31 0.86 o
-10 3 17 5.13 6.67 0.87 o
-9 3 17 0.00 0.07 0.70 <
-8 3 17 33.11 36.12 0.78 o
-7 3 17 3.42 2.59 0.55 o
-6 3 17 5.99 7.00 0.65 o
-5 3 17 0.46 1.49 0.67 <
-4 3 17 0.39 -0.50 0.73 <
-3 3 17 0.90 1.26 0.65 <
-2 3 17 25.40 28.21 0.63 o
-1 3 17 1.08 0.43 0.64 <
0 3 17 43.84 46.69 0.78 o
1 3 17 30.51 30.39 0.71 o
2 3 17 0.65 0.89 0.68 <
3 3 17 11.48 11.66 0.74 o
4 3 17 0.09 -0.03 0.74 <
5 3 17 0.83 1.16 0.86 <
6 3 17 6.59 5.77 0.98 o
7 3 17 2.62 2.46 2.53 <
8 3 17 1.38 2.93 1.30 <
9 3 17 6.30 6.68 1.39 o
10 3 17 0.44 0.49 1.53 <
11 3 17 1.01 2.12 1.82 <
12 3 17 2.44 2.65 1.59 <
-17 4 17 0.00 -0.39 2.09 <
-16 4 17 0.61 0.95 1.50 <
-15 4 17 0.22 -0.07 1.22 <
-14 4 17 1.49 2.09 1.25 <
-13 4 17 2.45 2.00 1.17 <
-12 4 17 0.65 -0.64 1.22 <
-11 4 17 0.20 3.38 1.39 <
-10 4 17 0.01 -0.13 1.03 <
-9 4 17 2.89 3.06 1.19 <
-8 4 17 3.11 3.42 2.37 <
-7 4 17 0.45 -0.32 0.97 <
-6 4 17 0.00 0.00 0.99 <
-5 4 17 0.01 0.24 0.94 <
-4 4 17 3.39 4.68 0.88 o
-3 4 17 3.13 3.86 0.92 o
-2 4 17 0.20 -0.86 0.88 <
-1 4 17 0.76 1.51 1.01 <
0 4 17 5.06 4.33 0.98 o
1 4 17 1.24 1.89 1.00 <
2 4 17 0.28 -0.84 1.07 <
3 4 17 3.33 2.99 1.10 <
4 4 17 6.99 6.54 1.15 o
5 4 17 1.52 1.97 1.38 <
6 4 17 0.15 0.58 1.41 <
7 4 17 1.06 1.52 1.57 <
8 4 17 2.32 1.44 1.46 <
-10 5 17 2.59 2.34 1.28 <
-9 5 17 0.65 0.32 1.47 <
-8 5 17 4.65 2.56 1.71 <
-7 5 17 0.13 0.74 1.99 <
-6 5 17 0.06 1.63 1.44 <
-5 5 17 7.88 8.71 1.49 o
-4 5 17 0.06 0.36 1.75 <
-3 5 17 0.30 1.01 1.82 <
-2 5 17 13.60 10.53 2.30 o
-1 5 17 0.00 0.45 1.63 <
0 5 17 12.23 13.74 1.90 o
1 5 17 8.06 7.31 1.76 o
-23 0 18 1.03 1.48 1.76 <
-22 0 18 16.75 16.79 1.66 o
-21 0 18 0.25 0.53 1.25 <
-20 0 18 2.25 3.23 0.93 o
-19 0 18 2.20 3.63 1.27 <
-18 0 18 7.07 8.00 1.12 o
-17 0 18 4.38 4.69 0.93 o
-16 0 18 0.48 1.10 0.97 <
-15 0 18 1.40 1.96 0.99 <
-14 0 18 0.92 0.86 0.78 <
-13 0 18 62.16 66.41 1.27 o
-12 0 18 3.04 3.22 0.66 o
-11 0 18 26.76 26.45 0.78 o
-10 0 18 0.97 0.65 0.51 <
-9 0 18 4.28 3.96 0.66 o
-8 0 18 10.53 11.80 0.70 o
-7 0 18 76.81 80.30 1.33 o
-6 0 18 23.90 25.27 0.74 o
-5 0 18 345.83 358.54 4.44 o
-4 0 18 67.68 70.96 1.22 o
-3 0 18 8.37 8.69 0.55 o
-2 0 18 5.61 6.90 0.57 o
-1 0 18 14.71 15.77 0.66 o
0 0 18 5.16 4.04 0.59 o
1 0 18 73.58 73.48 1.27 o
2 0 18 15.03 16.29 0.68 o
3 0 18 35.27 32.64 0.94 o
4 0 18 21.51 22.31 0.85 o
5 0 18 12.09 12.25 0.80 o
6 0 18 27.44 28.52 1.18 o
7 0 18 5.52 6.90 1.06 o
8 0 18 4.55 4.92 1.26 o
9 0 18 18.24 23.12 1.55 o
10 0 18 27.12 27.90 1.61 o
11 0 18 14.31 15.48 1.73 o
12 0 18 4.86 3.87 1.73 <
13 0 18 3.49 5.12 2.62 <
14 0 18 0.03 0.78 2.34 <
-23 1 18 2.72 3.49 1.46 <
-22 1 18 1.02 1.66 1.05 <
-21 1 18 0.51 0.25 1.12 <
-20 1 18 0.83 0.26 0.96 <
-19 1 18 3.13 2.59 0.91 <
-18 1 18 22.41 23.76 0.89 o
-17 1 18 1.86 2.33 0.82 <
-16 1 18 12.90 13.57 0.77 o
-15 1 18 0.15 0.68 0.64 <
-14 1 18 0.06 0.28 0.62 <
-13 1 18 0.23 0.62 0.57 <
-12 1 18 6.62 6.89 0.61 o
-11 1 18 6.29 6.93 0.47 o
-10 1 18 9.08 9.39 0.49 o
-9 1 18 2.36 2.20 0.42 o
-8 1 18 0.86 0.89 0.41 <
-7 1 18 25.94 26.59 0.50 o
-6 1 18 1.31 1.02 0.44 <
-5 1 18 0.37 -0.69 0.37 <
-4 1 18 60.30 63.52 0.81 o
-3 1 18 29.07 29.79 0.55 o
-2 1 18 11.46 10.64 0.48 o
-1 1 18 8.01 10.89 1.80 o
0 1 18 0.59 0.94 0.56 <
1 1 18 26.11 25.15 0.63 o
2 1 18 6.70 7.52 0.60 o
3 1 18 2.51 2.96 0.58 o
4 1 18 0.19 -0.11 0.60 <
5 1 18 0.46 0.74 0.77 <
6 1 18 1.55 1.63 0.69 <
7 1 18 1.26 1.41 0.72 <
8 1 18 1.57 1.59 0.96 <
9 1 18 13.63 14.80 1.16 o
10 1 18 3.23 3.04 1.24 <
11 1 18 1.38 1.93 1.26 <
12 1 18 5.59 4.72 1.66 <
13 1 18 0.25 -0.01 1.90 <
-21 2 18 0.89 0.61 1.29 <
-20 2 18 3.63 4.77 1.11 o
-19 2 18 10.52 9.32 1.20 o
-18 2 18 0.46 0.99 0.80 <
-17 2 18 0.02 0.32 0.99 <
-16 2 18 6.22 6.91 0.86 o
-15 2 18 2.28 2.45 0.97 <
-14 2 18 1.77 2.56 0.82 o
-13 2 18 30.87 29.88 0.97 o
-12 2 18 0.24 0.70 0.68 <
-11 2 18 0.72 0.20 0.65 <
-10 2 18 17.19 19.42 0.63 o
-9 2 18 0.11 -0.04 0.55 <
-8 2 18 1.87 3.18 0.53 o
-7 2 18 42.06 41.67 0.70 o
-6 2 18 13.65 13.50 0.55 o
-5 2 18 3.90 4.83 0.50 o
-4 2 18 12.15 13.66 0.51 o
-3 2 18 5.21 4.81 0.50 o
-2 2 18 59.07 63.21 0.83 o
-1 2 18 9.03 8.50 0.51 o
0 2 18 1.03 0.29 0.58 <
1 2 18 7.75 7.59 0.65 o
2 2 18 2.11 2.66 0.65 o
3 2 18 1.13 0.19 0.69 <
4 2 18 26.09 27.59 0.75 o
5 2 18 0.80 0.91 0.74 <
6 2 18 10.02 11.90 0.85 o
7 2 18 2.28 3.46 0.90 o
8 2 18 0.02 -0.08 1.06 <
9 2 18 0.00 0.38 3.22 <
10 2 18 0.10 0.49 1.84 <
11 2 18 1.12 0.05 1.62 <
12 2 18 0.84 0.56 2.10 <
-19 3 18 14.43 13.47 1.52 o
-18 3 18 2.02 3.49 1.56 <
-17 3 18 1.04 -0.42 1.38 <
-16 3 18 12.84 12.99 1.28 o
-15 3 18 0.79 0.08 1.05 <
-14 3 18 0.42 0.36 0.99 <
-13 3 18 0.61 0.77 1.15 <
-12 3 18 0.10 -0.73 1.08 <
-11 3 18 2.50 2.66 0.86 o
-10 3 18 0.59 -0.41 0.86 <
-9 3 18 9.76 8.79 0.93 o
-8 3 18 16.25 17.17 0.79 o
-7 3 18 1.39 0.89 0.86 <
-6 3 18 6.74 5.59 0.88 o
-5 3 18 25.58 26.45 0.82 o
-4 3 18 1.75 2.25 0.82 <
-3 3 18 2.63 3.41 0.79 o
-2 3 18 10.62 11.75 0.79 o
-1 3 18 20.25 19.24 0.82 o
0 3 18 22.60 22.60 0.81 o
1 3 18 13.18 12.99 0.87 o
2 3 18 0.00 0.91 2.63 <
3 3 18 5.92 7.00 0.82 o
4 3 18 0.93 0.73 0.95 <
5 3 18 3.46 4.07 1.12 o
6 3 18 0.00 0.92 1.13 <
7 3 18 4.91 4.64 1.31 o
8 3 18 1.39 0.47 1.40 <
9 3 18 11.02 10.62 1.66 o
10 3 18 2.37 1.65 3.25 <
-15 4 18 7.59 7.41 1.55 o
-14 4 18 5.40 5.50 1.36 o
-13 4 18 3.05 4.15 1.56 <
-12 4 18 0.77 0.33 1.37 <
-11 4 18 1.56 0.91 1.59 <
-10 4 18 0.00 -0.89 1.43 <
-9 4 18 0.10 0.86 1.27 <
-8 4 18 0.00 -0.17 1.27 <
-7 4 18 21.75 20.94 1.23 o
-6 4 18 3.85 3.93 1.32 <
-5 4 18 2.32 1.28 1.67 <
-4 4 18 0.33 0.52 0.98 <
-3 4 18 3.10 2.64 1.00 <
-2 4 18 1.93 2.21 1.28 <
-1 4 18 14.42 11.77 0.99 o
0 4 18 2.79 4.01 1.10 o
1 4 18 14.39 12.84 1.13 o
2 4 18 3.06 1.55 1.46 <
3 4 18 2.74 3.45 1.66 <
4 4 18 1.69 2.77 1.38 <
5 4 18 0.07 -0.45 1.92 <
-21 1 19 2.84 3.40 1.46 <
-20 1 19 9.31 8.64 1.01 o
-19 1 19 8.86 8.24 1.07 o
-18 1 19 4.07 3.92 0.92 o
-17 1 19 2.39 1.86 0.91 <
-16 1 19 2.01 2.54 0.89 <
-15 1 19 35.79 35.69 0.92 o
-14 1 19 1.11 0.45 0.87 <
-13 1 19 9.43 11.61 0.85 o
-12 1 19 15.08 17.37 0.73 o
-11 1 19 0.19 -0.15 0.71 <
-10 1 19 5.29 6.82 1.58 o
-9 1 19 24.00 24.31 0.60 o
-8 1 19 6.11 6.28 0.59 o
-7 1 19 89.39 92.78 1.07 o
-6 1 19 26.13 27.30 0.61 o
-5 1 19 11.34 11.87 0.51 o
-4 1 19 101.72 107.75 1.18 o
-3 1 19 0.49 0.83 0.49 <
-2 1 19 2.30 2.38 0.60 o
-1 1 19 10.56 9.67 0.58 o
0 1 19 0.22 0.13 0.66 <
1 1 19 10.99 10.99 0.71 o
2 1 19 29.31 29.99 0.80 o
3 1 19 0.00 -1.05 0.72 <
4 1 19 12.90 14.78 0.82 o
5 1 19 0.00 -0.16 0.89 <
6 1 19 1.23 1.24 0.99 <
7 1 19 0.32 0.49 1.23 <
8 1 19 0.62 1.49 1.27 <
9 1 19 0.51 1.51 1.44 <
10 1 19 0.07 -0.27 1.45 <
11 1 19 1.22 1.95 1.67 <
-20 2 19 2.75 2.04 1.40 <
-19 2 19 1.40 1.10 1.45 <
-18 2 19 16.59 16.34 1.22 o
-17 2 19 2.47 0.93 1.35 <
-16 2 19 0.93 0.60 1.11 <
-15 2 19 0.00 0.58 1.08 <
-14 2 19 0.19 0.23 0.94 <
-13 2 19 1.12 0.93 1.04 <
-12 2 19 1.44 0.74 0.89 <
-11 2 19 3.85 3.38 0.77 o
-10 2 19 25.38 27.27 0.91 o
-9 2 19 30.50 31.04 0.88 o
-8 2 19 14.23 15.32 0.77 o
-7 2 19 10.82 11.23 0.74 o
-6 2 19 7.83 8.22 0.61 o
-5 2 19 0.55 0.55 0.67 <
-4 2 19 1.64 2.83 0.63 o
-3 2 19 9.03 10.51 0.55 o
-2 2 19 19.28 20.69 0.76 o
-1 2 19 7.29 6.34 0.71 o
0 2 19 0.04 0.36 0.72 <
1 2 19 0.07 0.62 0.73 <
2 2 19 1.64 0.86 0.74 <
3 2 19 0.33 0.66 0.82 <
4 2 19 0.16 1.17 0.84 <
5 2 19 5.32 4.31 1.04 o
6 2 19 0.04 -0.33 1.08 <
7 2 19 32.85 34.94 1.27 o
8 2 19 4.77 6.77 1.30 o
9 2 19 3.13 2.42 1.49 <
10 2 19 4.39 4.11 1.85 <
-17 3 19 0.43 -0.23 2.00 <
-16 3 19 4.56 3.88 1.69 <
-15 3 19 1.74 2.55 1.42 <
-14 3 19 0.16 1.03 1.16 <
-13 3 19 1.07 0.00 1.02 <
-12 3 19 0.87 1.67 1.41 <
-11 3 19 0.36 1.05 1.19 <
-10 3 19 6.80 7.51 1.24 o
-9 3 19 0.47 1.11 1.03 <
-8 3 19 0.08 0.74 1.07 <
-7 3 19 0.02 0.31 1.16 <
-6 3 19 0.01 0.86 1.09 <
-5 3 19 0.19 -0.12 1.02 <
-4 3 19 3.30 2.98 1.04 <
-3 3 19 0.92 1.16 1.07 <
-2 3 19 2.19 1.27 0.97 <
-1 3 19 2.64 3.44 1.01 o
0 3 19 0.07 0.22 0.94 <
1 3 19 1.39 1.77 0.96 <
2 3 19 10.04 11.51 1.17 o
3 3 19 0.03 -0.61 1.16 <
4 3 19 10.33 12.20 1.21 o
5 3 19 1.50 2.37 1.37 <
6 3 19 0.01 1.14 1.89 <
7 3 19 0.00 -2.55 1.65 <
-11 4 19 0.06 -0.47 1.98 <
-10 4 19 1.48 2.00 1.81 <
-9 4 19 0.04 1.42 2.22 <
-8 4 19 0.07 1.65 1.82 <
-7 4 19 0.34 1.49 1.54 <
-6 4 19 0.80 0.85 1.65 <
-5 4 19 0.30 -1.83 1.55 <
-4 4 19 0.98 1.74 1.37 <
-3 4 19 0.29 -2.19 1.39 <
-2 4 19 0.11 0.91 1.42 <
-1 4 19 7.04 6.63 1.56 o
0 4 19 0.09 1.55 1.64 <
1 4 19 3.79 4.73 1.78 <
-20 0 20 10.48 9.28 2.56 o
-19 0 20 0.52 0.81 2.33 <
-18 0 20 9.49 9.26 2.06 o
-17 0 20 17.53 16.58 1.68 o
-16 0 20 8.74 7.65 1.42 o
-15 0 20 0.53 -0.19 1.34 <
-14 0 20 28.53 30.16 1.24 o
-13 0 20 2.74 4.24 1.21 o
-12 0 20 51.36 53.73 1.25 o
-11 0 20 15.66 14.26 1.20 o
-10 0 20 17.65 17.63 1.00 o
-9 0 20 0.48 0.83 0.93 <
-8 0 20 1.36 1.48 1.06 <
-7 0 20 2.47 3.61 0.80 o
-6 0 20 185.58 196.94 2.67 o
-5 0 20 15.57 14.48 0.87 o
-4 0 20 10.27 12.25 0.90 o
-3 0 20 0.09 1.49 2.83 <
-2 0 20 11.14 10.82 0.98 o
-1 0 20 0.00 0.91 0.81 <
0 0 20 29.91 27.71 1.32 o
1 0 20 5.36 3.74 1.41 <
2 0 20 7.40 8.33 1.06 o
3 0 20 1.89 1.41 1.26 <
4 0 20 5.16 4.24 1.61 <
5 0 20 10.01 13.29 1.67 o
6 0 20 3.59 5.10 1.69 o
7 0 20 17.66 17.90 2.08 o
8 0 20 0.27 -0.22 1.80 <
9 0 20 0.00 0.93 2.51 <
-19 1 20 0.72 2.46 1.52 <
-18 1 20 0.75 1.05 1.66 <
-17 1 20 0.09 0.73 1.35 <
-16 1 20 0.45 1.82 1.16 <
-15 1 20 1.57 1.98 1.01 <
-14 1 20 11.09 12.11 1.14 o
-13 1 20 14.09 13.85 1.39 o
-12 1 20 11.78 12.28 0.93 o
-11 1 20 0.43 1.16 0.93 <
-10 1 20 15.24 16.41 0.80 o
-9 1 20 1.94 2.47 0.84 <
-8 1 20 35.05 35.69 0.85 o
-7 1 20 42.65 40.67 0.80 o
-6 1 20 8.59 9.77 0.75 o
-5 1 20 6.25 6.13 0.73 o
-4 1 20 13.26 14.45 1.52 o
-3 1 20 5.65 5.47 0.72 o
-2 1 20 1.57 2.06 0.71 <
-1 1 20 0.71 0.31 0.82 <
0 1 20 3.22 2.96 0.82 o
1 1 20 2.26 1.37 0.71 <
2 1 20 0.98 -0.07 0.90 <
3 1 20 1.05 0.24 0.98 <
4 1 20 0.66 0.44 1.01 <
5 1 20 3.34 2.51 1.10 <
6 1 20 5.10 6.43 1.17 o
7 1 20 11.15 14.12 1.49 o
8 1 20 18.27 18.42 1.59 o
9 1 20 2.40 3.69 2.26 <
-17 2 20 4.12 3.05 1.71 <
-16 2 20 0.12 0.34 1.96 <
-15 2 20 4.05 2.74 1.44 <
-14 2 20 0.57 1.35 2.31 <
-13 2 20 0.04 -0.70 1.24 <
-12 2 20 4.48 3.89 1.01 o
-11 2 20 0.15 1.01 1.08 <
-10 2 20 0.10 -1.51 0.95 <
-9 2 20 23.67 23.49 0.85 o
-8 2 20 2.35 1.50 0.86 <
-7 2 20 17.34 18.75 0.96 o
-6 2 20 0.00 0.60 0.82 <
-5 2 20 2.43 2.84 0.81 o
-4 2 20 0.01 0.07 0.83 <
-3 2 20 1.45 1.88 0.88 <
-2 2 20 0.52 0.14 0.86 <
-1 2 20 23.30 25.53 0.89 o
0 2 20 10.40 11.72 0.95 o
1 2 20 2.90 3.18 1.00 o
2 2 20 12.84 15.34 1.07 o
3 2 20 0.01 0.71 1.05 <
4 2 20 0.65 1.22 1.35 <
5 2 20 0.11 -0.68 1.20 <
6 2 20 0.14 -0.07 1.25 <
7 2 20 0.01 0.82 1.65 <
-14 3 20 5.06 5.97 1.61 o
-13 3 20 0.47 -0.91 1.77 <
-12 3 20 2.97 4.10 2.24 <
-11 3 20 3.24 3.67 1.63 <
-10 3 20 1.79 0.92 1.32 <
-9 3 20 23.38 22.63 1.36 o
-8 3 20 0.11 0.43 1.24 <
-7 3 20 4.41 5.15 1.30 o
-6 3 20 8.43 8.58 1.33 o
-5 3 20 0.10 -0.08 1.21 <
-4 3 20 0.78 1.99 1.37 <
-3 3 20 0.83 0.67 1.41 <
-2 3 20 0.00 -0.61 1.35 <
-1 3 20 0.42 0.85 1.71 <
0 3 20 0.07 -0.39 1.43 <
1 3 20 0.31 1.79 1.80 <
2 3 20 2.70 3.81 1.58 <
3 3 20 1.28 2.33 1.51 <
-16 1 21 0.90 1.08 1.67 <
-15 1 21 0.22 0.42 2.62 <
-14 1 21 1.10 0.68 1.32 <
-13 1 21 0.56 1.20 1.34 <
-12 1 21 0.16 1.34 1.42 <
-11 1 21 2.17 1.22 1.47 <
-10 1 21 0.22 -0.42 1.21 <
-9 1 21 0.09 1.16 0.93 <
-8 1 21 8.07 8.47 1.06 o
-7 1 21 3.75 3.35 0.95 o
-6 1 21 0.36 0.92 1.06 <
-5 1 21 0.01 -0.15 1.01 <
-4 1 21 1.60 2.53 0.93 <
-3 1 21 2.34 2.21 0.93 <
-2 1 21 10.60 10.48 0.91 o
-1 1 21 12.79 13.36 0.79 o
0 1 21 10.67 11.55 0.99 o
1 1 21 1.17 1.51 1.02 <
2 1 21 3.62 4.20 1.16 o
3 1 21 4.18 3.15 1.22 <
4 1 21 0.82 1.17 1.22 <
5 1 21 29.59 32.86 1.69 o
6 1 21 28.66 30.47 2.93 o
-14 2 21 9.54 10.93 2.26 o
-13 2 21 0.27 0.28 1.61 <
-12 2 21 0.24 0.38 1.83 <
-11 2 21 1.80 1.32 1.36 <
-10 2 21 2.73 2.57 1.29 <
-9 2 21 40.45 39.95 1.07 o
-8 2 21 19.62 19.60 1.18 o
-7 2 21 3.95 4.42 1.20 o
-6 2 21 6.83 7.96 1.25 o
-5 2 21 7.59 7.59 1.11 o
-4 2 21 2.32 2.88 1.27 <
-3 2 21 0.10 0.54 1.22 <
-2 2 21 0.64 -0.91 1.03 <
-1 2 21 1.99 3.02 1.23 <
0 2 21 7.18 9.04 1.10 o
1 2 21 0.52 0.33 1.42 <
2 2 21 1.90 3.22 1.51 <
3 2 21 0.18 -0.83 1.26 <
-9 3 21 15.26 13.80 2.59 o
-8 3 21 0.64 -0.09 1.77 <
-7 3 21 0.00 -0.95 1.59 <
-6 3 21 4.18 3.06 1.69 <
-5 3 21 2.00 1.62 1.48 <
-4 3 21 0.99 2.38 1.69 <
-3 3 21 21.13 24.15 1.86 o
-2 3 21 1.54 2.66 2.92 <
-14 0 22 0.06 2.33 2.76 <
-13 0 22 2.65 2.68 1.99 <
-12 0 22 5.08 4.57 1.87 <
-11 0 22 1.45 2.11 2.01 <
-10 0 22 8.56 8.38 1.71 o
-9 0 22 2.16 0.30 2.08 <
-8 0 22 11.13 10.27 1.50 o
-7 0 22 0.77 1.02 1.60 <
-6 0 22 0.09 2.51 1.58 <
-5 0 22 6.99 8.25 1.87 o
-4 0 22 3.79 4.19 1.52 <
-3 0 22 24.55 27.47 1.71 o
-2 0 22 11.25 13.68 1.72 o
-1 0 22 2.78 3.46 1.46 <
0 0 22 0.29 -0.03 1.52 <
1 0 22 0.00 2.93 2.22 <
2 0 22 0.11 1.69 2.53 <
-13 1 22 0.15 0.48 1.87 <
-12 1 22 0.81 3.06 1.65 <
-11 1 22 0.05 0.87 1.51 <
-10 1 22 0.26 -0.76 1.38 <
-9 1 22 0.00 0.98 1.41 <
-8 1 22 19.37 18.70 1.21 o
-7 1 22 0.03 -0.17 1.06 <
-6 1 22 2.90 3.47 1.16 <
-5 1 22 0.00 -1.05 1.09 <
-4 1 22 0.24 -0.63 1.21 <
-3 1 22 0.06 -1.23 1.35 <
-2 1 22 2.41 3.09 1.56 <
-1 1 22 0.34 1.67 1.39 <
0 1 22 4.63 5.11 1.46 o
1 1 22 0.15 1.25 1.55 <
-9 2 22 5.09 5.48 2.56 <
-8 2 22 1.24 0.84 1.68 <
-7 2 22 0.72 -0.04 1.45 <
-6 2 22 5.56 6.66 1.50 o
-5 2 22 3.42 3.72 1.56 <
-4 2 22 1.23 1.33 1.57 <
-3 2 22 11.21 11.71 1.32 o
loop_
_restr_angle_atom_site_label_1
_restr_angle_site_symmetry_1
_restr_angle_atom_site_label_2
_restr_angle_site_symmetry_2
_restr_angle_atom_site_label_3
_restr_angle_site_symmetry_3
_restr_angle_target
_restr_angle_target_weight_param
? ? ? ? ? ? ? ?
loop_
_restr_distance_atom_site_label_1
_restr_distance_site_symmetry_1
_restr_distance_atom_site_label_2
_restr_distance_site_symmetry_2
_restr_distance_target
_restr_distance_target_weight_param
? ? ? ? ? ?
loop_
_restr_equal_angle_atom_site_label_1
_restr_equal_angle_site_symmetry_1
_restr_equal_angle_atom_site_label_2
_restr_equal_angle_site_symmetry_2
_restr_equal_angle_atom_site_label_3
_restr_equal_angle_site_symmetry_3
_restr_equal_angle_class_class_id
_restr_equal_angle_class_target_weight_param
? ? ? ? ? ? ? ?
loop_
_restr_equal_distance_atom_site_label_1
_restr_equal_distance_site_symmetry_1
_restr_equal_distance_atom_site_label_2
_restr_equal_distance_site_symmetry_2
_restr_equal_distance_class_class_id
_restr_equal_distance_class_target_weight_param
? ? ? ? ? ?
loop_
_restr_equal_torsion_atom_site_label_1
_restr_equal_torsion_site_symmetry_1
_restr_equal_torsion_atom_site_label_2
_restr_equal_torsion_site_symmetry_2
_restr_equal_torsion_atom_site_label_3
_restr_equal_torsion_site_symmetry_3
_restr_equal_torsion_atom_site_label_4
_restr_equal_torsion_site_symmetry_4
_restr_equal_torsion_class_class_id
_restr_equal_torsion_class_target_weight_param
? ? ? ? ? ? ? ? ? ?
loop_
_restr_torsion_atom_site_label_1
_restr_torsion_site_symmetry_1
_restr_torsion_atom_site_label_2
_restr_torsion_site_symmetry_2
_restr_torsion_atom_site_label_3
_restr_torsion_site_symmetry_3
_restr_torsion_atom_site_label_4
_restr_torsion_site_symmetry_4
_restr_torsion_angle_target
_restr_torsion_weight_param
? ? ? ? ? ? ? ? ? ?
loop_
_twin_individual_id
_twin_individual_mass_fraction_refined
_twin_individual_twin_matrix_11
_twin_individual_twin_matrix_12
_twin_individual_twin_matrix_13
_twin_individual_twin_matrix_21
_twin_individual_twin_matrix_22
_twin_individual_twin_matrix_23
_twin_individual_twin_matrix_31
_twin_individual_twin_matrix_32
_twin_individual_twin_matrix_33
? ? ? ? ? ? ? ? ? ? ?
loop_
_twin_refln_datum_id
_twin_refln_individual_id
_twin_refln_index_h
_twin_refln_index_k
_twin_refln_index_l
_twin_refln_F_squared_calc
_twin_refln_F_squared_meas
_twin_refln_F_squared_sigma
_twin_refln_include_status
? ? ? ? ? ? ? ? ?
loop_
_jana_atom_site_adp_c_label
_jana_atom_site_adp_c_type_symbol
_jana_atom_site_adp_c_111
_jana_atom_site_adp_c_112
_jana_atom_site_adp_c_113
_jana_atom_site_adp_c_122
_jana_atom_site_adp_c_123
_jana_atom_site_adp_c_133
_jana_atom_site_adp_c_222
_jana_atom_site_adp_c_223
_jana_atom_site_adp_c_233
_jana_atom_site_adp_c_333
? ? ? ? ? ? ? ? ? ? ? ?
loop_
_jana_atom_site_adp_d_label
_jana_atom_site_adp_d_type_symbol
_jana_atom_site_adp_d_1111
_jana_atom_site_adp_d_1112
_jana_atom_site_adp_d_1113
_jana_atom_site_adp_d_1122
_jana_atom_site_adp_d_1123
_jana_atom_site_adp_d_1133
_jana_atom_site_adp_d_1222
_jana_atom_site_adp_d_1223
_jana_atom_site_adp_d_1233
_jana_atom_site_adp_d_1333
_jana_atom_site_adp_d_2222
_jana_atom_site_adp_d_2223
_jana_atom_site_adp_d_2233
_jana_atom_site_adp_d_2333
_jana_atom_site_adp_d_3333
? ? ? ? ? ? ? ? ? ? ? ? ? ? ? ? ?
loop_
_jana_atom_site_adp_e_label
_jana_atom_site_adp_e_type_symbol
_jana_atom_site_adp_e_11111
_jana_atom_site_adp_e_11112
_jana_atom_site_adp_e_11113
_jana_atom_site_adp_e_11122
_jana_atom_site_adp_e_11123
_jana_atom_site_adp_e_11133
_jana_atom_site_adp_e_11222
_jana_atom_site_adp_e_11223
_jana_atom_site_adp_e_11233
_jana_atom_site_adp_e_11333
_jana_atom_site_adp_e_12222
_jana_atom_site_adp_e_12223
_jana_atom_site_adp_e_12233
_jana_atom_site_adp_e_12333
_jana_atom_site_adp_e_13333
_jana_atom_site_adp_e_22222
_jana_atom_site_adp_e_22223
_jana_atom_site_adp_e_22233
_jana_atom_site_adp_e_22333
_jana_atom_site_adp_e_23333
_jana_atom_site_adp_e_33333
? ? ? ? ? ? ? ? ? ? ? ? ? ? ? ? ? ? ? ? ? ? ?
loop_
_jana_atom_site_adp_f_label
_jana_atom_site_adp_f_type_symbol
_jana_atom_site_adp_f_111111
_jana_atom_site_adp_f_111112
_jana_atom_site_adp_f_111113
_jana_atom_site_adp_f_111122
_jana_atom_site_adp_f_111123
_jana_atom_site_adp_f_111133
_jana_atom_site_adp_f_111222
_jana_atom_site_adp_f_111223
_jana_atom_site_adp_f_111233
_jana_atom_site_adp_f_111333
_jana_atom_site_adp_f_112222
_jana_atom_site_adp_f_112223
_jana_atom_site_adp_f_112233
_jana_atom_site_adp_f_112333
_jana_atom_site_adp_f_113333
_jana_atom_site_adp_f_122222
_jana_atom_site_adp_f_122223
_jana_atom_site_adp_f_122233
_jana_atom_site_adp_f_122333
_jana_atom_site_adp_f_123333
_jana_atom_site_adp_f_133333
_jana_atom_site_adp_f_222222
_jana_atom_site_adp_f_222223
_jana_atom_site_adp_f_222233
_jana_atom_site_adp_f_222333
_jana_atom_site_adp_f_223333
_jana_atom_site_adp_f_233333
_jana_atom_site_adp_f_333333
? ? ? ? ? ? ? ? ? ? ? ? ? ? ? ? ? ? ? ? ? ? ? ? ? ? ? ? ? ?
