#------------------------------------------------------------------------------
#$Date: 2022-09-02 04:49:51 +0300 (Fri, 02 Sep 2022) $
#$Revision: 277573 $
#$URL: file:///home/coder/svn-repositories/cod/cif/2/10/90/2109037.cif $
#------------------------------------------------------------------------------
#
# This file is available in the Crystallography Open Database (COD),
# http://www.crystallography.net/. The original data for this entry
# were provided by IUCr Journals, http://journals.iucr.org/.
#
# The file may be used within the scientific community so long as
# proper attribution is given to the journal article from which the
# data were obtained.
#
data_2109037
loop_
_publ_author_name
'Bogdanov, Nikita E.'
'Korabel'nikov, Dmitry V.'
'Fedorov, Igor A.'
'Zakharov, Boris A.'
'Boldyreva, Elena V.'
_publ_section_title
;
 The effect of hydrostatic compression on the crystal structure of
 glycinium phosphite
;
_journal_issue                   5
_journal_name_full               'Acta Crystallographica Section B'
_journal_page_first
;
;
_journal_paper_doi               10.1107/S2052520622008289
_journal_volume                  78
_journal_year                    2022
_chemical_formula_moiety         'C2 H6 N O2, H2 O3 P'
_chemical_formula_sum            'C2 H8 N O5 P'
_chemical_formula_weight         157.06
_space_group_crystal_system      monoclinic
_space_group_IT_number           14
_space_group_name_Hall           '-P 2yab'
_space_group_name_H-M_alt        'P 1 21/a 1'
_atom_sites_solution_hydrogens   geom
_atom_sites_solution_primary     direct
_atom_sites_solution_secondary   difmap
_audit_creation_method           SHELXL-2018/3
_cell_angle_alpha                90
_cell_angle_beta                 100.76(4)
_cell_angle_gamma                90
_cell_formula_units_Z            4
_cell_length_a                   9.2779(11)
_cell_length_b                   8.5031(6)
_cell_length_c                   6.835(7)
_cell_measurement_pressure       3600000
_cell_measurement_reflns_used    808
_cell_measurement_temperature    293(2)
_cell_measurement_theta_max      25.6710
_cell_measurement_theta_min      3.2620
_cell_volume                     529.7(6)
_computing_cell_refinement       'CrysAlisPro 1.171.40.53 (Rigaku OD, 2019)'
_computing_data_collection       'CrysAlisPro 1.171.40.53 (Rigaku OD, 2019)'
_computing_data_reduction        'CrysAlisPro 1.171.40.53 (Rigaku OD, 2019)'
_computing_structure_refinement  'SHELXL-2018/3 (Sheldrick, 2018)'
_diffrn_ambient_pressure         3600000
_diffrn_ambient_temperature      293(2)
_diffrn_detector                 'CCD plate'
_diffrn_detector_area_resol_mean 10.3457
_diffrn_detector_type            Ruby
_diffrn_measured_fraction_theta_full 0.358
_diffrn_measured_fraction_theta_max 0.324
_diffrn_measurement_device       'four-circle diffractometer'
_diffrn_measurement_device_type  'Xcalibur, Ruby, Gemini ultra'
_diffrn_radiation_monochromator  graphite
_diffrn_radiation_probe          x-ray
_diffrn_radiation_type           'Mo K\a'
_diffrn_radiation_wavelength     0.71073
_diffrn_reflns_av_R_equivalents  0.0900
_diffrn_reflns_av_unetI/netI     0.0679
_diffrn_reflns_Laue_measured_fraction_full 0.358
_diffrn_reflns_Laue_measured_fraction_max 0.324
_diffrn_reflns_limit_h_max       11
_diffrn_reflns_limit_h_min       -12
_diffrn_reflns_limit_k_max       11
_diffrn_reflns_limit_k_min       -11
_diffrn_reflns_limit_l_max       3
_diffrn_reflns_limit_l_min       -3
_diffrn_reflns_number            2715
_diffrn_reflns_point_group_measured_fraction_full 0.358
_diffrn_reflns_point_group_measured_fraction_max 0.324
_diffrn_reflns_theta_full        25.242
_diffrn_reflns_theta_max         27.925
_diffrn_reflns_theta_min         3.277
_diffrn_source                   'fine-focus sealed X-ray tube'
_diffrn_source_type              'Enhance (Mo) X-ray Source'
_exptl_absorpt_coefficient_mu    0.468
_exptl_absorpt_correction_T_max  1.00000
_exptl_absorpt_correction_T_min  0.09111
_exptl_absorpt_correction_type   multi-scan
_exptl_absorpt_process_details
;
CrysAlisPro 1.171.40.53 (Rigaku Oxford Diffraction, 2019)
Empirical absorption correction using spherical harmonics,
 implemented in SCALE3 ABSPACK scaling algorithm.
;
_exptl_crystal_colour            white
_exptl_crystal_density_diffrn    1.969
_exptl_crystal_description       plates
_exptl_crystal_F_000             328
_exptl_crystal_size_max          0.21
_exptl_crystal_size_mid          0.10
_exptl_crystal_size_min          0.05
_refine_diff_density_max         0.370
_refine_diff_density_min         -0.312
_refine_diff_density_rms         0.071
_refine_ls_extinction_method     none
_refine_ls_goodness_of_fit_ref   1.097
_refine_ls_hydrogen_treatment    constr
_refine_ls_matrix_type           full
_refine_ls_number_parameters     69
_refine_ls_number_reflns         412
_refine_ls_number_restraints     28
_refine_ls_restrained_S_all      1.107
_refine_ls_R_factor_all          0.0934
_refine_ls_R_factor_gt           0.0558
_refine_ls_shift/su_max          0.000
_refine_ls_shift/su_mean         0.000
_refine_ls_structure_factor_coef Fsqd
_refine_ls_weighting_details
'w=1/[\s^2^(Fo^2^)+(0.0689P)^2^+0.7949P] where P=(Fo^2^+2Fc^2^)/3'
_refine_ls_weighting_scheme      calc
_refine_ls_wR_factor_gt          0.1248
_refine_ls_wR_factor_ref         0.1444
_reflns_Friedel_coverage         0.000
_reflns_number_gt                291
_reflns_number_total             412
_reflns_threshold_expression     'I > 2\s(I)'
_cod_data_source_file            xk5096sup1.cif
_cod_data_source_block           3.60
_cod_original_cell_volume        529.8(6)
_cod_original_sg_symbol_H-M      'P 21/a'
_cod_database_code               2109037
_shelx_shelxl_version_number     2018/3
_shelx_space_group_comment
;
The symmetry employed for this shelxl refinement is uniquely defined
by the following loop, which should always be used as a source of
symmetry information in preference to the above space-group names.
They are only intended as comments.
;
_oxdiff_exptl_absorpt_empirical_full_min 0.711
_oxdiff_exptl_absorpt_empirical_full_max 7.568
_oxdiff_exptl_absorpt_empirical_details
;
Empirical correction (ABSPACK) includes:
- Absorption correction using spherical harmonics
- Frame scaling
;
_shelx_res_file
;
TITL GPI_3 in P2(1)/c
    3.60.res
    created by SHELXL-2018/3 at 16:40:54 on 15-Aug-2022
REM  transformed to space group : P21/a:b3
REM P2(1)/c (#14 in standard setting)
CELL   0.71073  9.2779  8.5031  6.8353   90.000  100.765   90.000
ZERR   4        0.0011  0.0006  0.0072    0.000    0.037    0.000
LATT    1
SYMM   1/2-X,1/2+Y,-Z
SFAC C H N O P
UNIT 8 32 4 20 4
LIST 4 ! automatically inserted. Change 6 to 4 for CHECKCIF!!
PLAN 30
FMAP 2
L.S. 20
BOND
BOND $H
CONF
ACTA
EQIV $1 1-X, 1-Y,1-Z
EQIV $2 1/2+X, 3/2-Y,Z
EQIV $3 1-X, 2-Y, 2-Z
EQIV $4 1-X, 2-Y, 1-Z
EQIV $5 1/2+X, 1/2-Y, Z
HTAB N1 O2_$1
HTAB N1 O3_$2
HTAB N1 O2
HTAB O1 O1_$3
HTAB O3 O3_$4
HTAB O5 O2_$5
DFIX 1.66 0.04 H1 O1_$3
DFIX 1.70 0.04 H3 O3_$4
SIMU 0.001 C1 C2
DELU 0.001 C1 C2
SIMU 0.005 O1 O2 O3 P1
DELU 0.005 O1 O2 O3 P1
WGHT    0.068900    0.794900
FVAR       1.74981
C1    1    0.680650    0.287313    0.791284    11.00000    0.01659    0.01425 =
         0.06898   -0.00026    0.00397   -0.00105
AFIX  23
H1D   2    0.585217    0.236836    0.768358    11.00000   -1.20000
H1E   2    0.703248    0.321005    0.929202    11.00000   -1.20000
AFIX   0
C2    1    0.793889    0.173966    0.751233    11.00000    0.01665    0.01376 =
         0.06898   -0.00032    0.00392   -0.00116
N1    3    0.677402    0.425390    0.658292    11.00000    0.01598
AFIX 137
H1A   2    0.639397    0.397402    0.533882    11.00000   -1.20000
H1B   2    0.768281    0.460939    0.663647    11.00000   -1.20000
H1C   2    0.622578    0.500767    0.697464    11.00000   -1.20000
AFIX   0
O1    4    0.521671    0.861552    0.973522    11.00000    0.02780
AFIX 141
H1    2    0.527626    0.957706    0.979578    10.50000   -1.20000
AFIX   0
O2    4    0.463027    0.644340    0.725063    11.00000    0.02444    0.01459 =
         0.01471   -0.00164   -0.00271   -0.00375
O3    4    0.443760    0.926589    0.619938    11.00000    0.02362
AFIX 141
H3    2    0.499217    0.961906    0.550374    10.50000   -1.20000
AFIX   0
O4    4    0.857209    0.186459    0.609964    11.00000    0.02171    0.01958 =
         0.02081    0.00259   -0.00044    0.00222
O5    4    0.809741    0.055676    0.880808    11.00000    0.03259    0.01670 =
         0.02404    0.00622    0.01092    0.00592
AFIX 147
H5    2    0.866860   -0.009238    0.849797    11.00000   -1.20000
AFIX   0
P1    5    0.524637    0.808506    0.763890    11.00000    0.01786    0.01335 =
         0.01775    0.00164    0.00474    0.00039
AFIX  13
H1P   2    0.627165    0.806776    0.746760    11.00000   -1.20000
AFIX   0
HKLF 4




REM  GPI_3 in P2(1)/c
REM wR2 = 0.1444, GooF = S = 1.097, Restrained GooF = 1.107 for all data
REM R1 = 0.0558 for 291 Fo > 4sig(Fo) and 0.0934 for all 412 data
REM 69 parameters refined using 28 restraints

END

WGHT      0.0689      0.7949

REM Highest difference peak  0.370,  deepest hole -0.312,  1-sigma level  0.071
Q1    1   0.4577  0.8518  0.9660  11.00000  0.05    0.37
Q2    1   0.6047  0.8600  1.1230  11.00000  0.05    0.30
Q3    1   0.5836  0.8714  1.0834  11.00000  0.05    0.29
Q4    1   0.5651  0.9149  0.8948  11.00000  0.05    0.25
Q5    1   0.6911  0.7711  0.8369  11.00000  0.05    0.24
Q6    1   0.4802  0.3386  0.7486  11.00000  0.05    0.22
Q7    1   0.6774  0.8518  0.7165  11.00000  0.05    0.21
Q8    1   0.6012  0.2916  0.4621  11.00000  0.05    0.20
Q9    1   0.4927  0.6962  0.6324  11.00000  0.05    0.19
Q10   1   0.6738  0.2276  1.1435  11.00000  0.05    0.19
Q11   1   0.6147  0.2968  0.5147  11.00000  0.05    0.18
Q12   1   0.7011  0.2247  0.8507  11.00000  0.05    0.18
Q13   1   0.8630  0.4335  0.5586  11.00000  0.05    0.17
Q14   1   0.4974  1.0425  0.8224  11.00000  0.05    0.17
Q15   1   0.5448  0.2241  0.8293  11.00000  0.05    0.17
Q16   1   0.5748  0.1443  0.7645  11.00000  0.05    0.17
Q17   1   0.4980  1.0308  0.8757  11.00000  0.05    0.16
Q18   1   0.5979  0.6705  0.8542  11.00000  0.05    0.16
Q19   1   0.4214  0.9069  0.7264  11.00000  0.05    0.16
Q20   1   0.5360  0.5533  0.7494  11.00000  0.05    0.16
Q21   1   0.6219  1.0282  0.8769  11.00000  0.05    0.16
Q22   1   0.7377  0.2442  0.6596  11.00000  0.05    0.16
Q23   1   0.4682  0.9171  0.4715  11.00000  0.05    0.15
Q24   1   0.7614  0.5154  0.8996  11.00000  0.05    0.15
Q25   1   0.3475  0.7935  0.5720  11.00000  0.05    0.15
Q26   1   0.6589  0.3524  0.4451  11.00000  0.05    0.14
Q27   1   0.6437  0.4293  0.8945  11.00000  0.05    0.14
Q28   1   0.7737  0.2931  0.4811  11.00000  0.05    0.14
Q29   1   0.5066  1.0144  0.5706  11.00000  0.05    0.14
Q30   1   0.7026 -0.0002  0.6970  11.00000  0.05    0.14
;
_shelx_res_checksum              78839
_shelx_hkl_file
;
   1   0   0 3.63583 2.56302   7 0.03889 0.03890-0.01159 0.01157 0.98878-0.97421
  -1   0   0 3.09906 2.85254   8-0.03888-0.03888 0.03967-0.03966-0.98807 0.97351
   2   0   0 7296.19 214.956   7 0.07779 0.07779-0.00445 0.00441 0.99389-0.96475
  -2   0   0 7249.30 207.927   8-0.07776-0.07777 0.02478-0.02476-0.99359 0.96446
  -2   0   0 7813.26 140.224   9-0.07778-0.07778-0.33575 0.33579-0.93668 0.90753
   2   0   0 7632.79 145.776   6 0.07787 0.07787-0.31132 0.31137 0.94494-0.91576
   2   0   0 7745.90 143.751   4 0.07780 0.07780-0.31202 0.31200 0.94470-0.91557
   3   0   0 1.82802 6.53302   4 0.11671 0.11670-0.21787 0.21786 0.97369-0.92998
   3   0   0 -0.5654 11.6694   7 0.11668 0.11669 0.00272-0.00279 0.99744-0.95373
   3   0   0 3.23017 5.88406   6 0.11678 0.11678-0.21719 0.21727 0.97384-0.93009
  -3   0   0 13.7043 15.4017   8-0.11665-0.11665 0.00980-0.00977-0.99740 0.95370
  -3   0   0 2.62143 7.90393   9-0.11667-0.11667-0.24702 0.24706-0.96679 0.92307
   4   0   0 4999.28 159.200   4 0.15563 0.15561-0.11798 0.11797 0.99254-0.93425
  -4   0   0 4763.88 240.778   8-0.15553-0.15553-0.00527 0.00532-0.99947 0.94120
   4   0   0 4833.24 252.853   7 0.15556 0.15559 0.00993-0.01001 0.99943-0.94115
   4   0   0 4822.76 157.776   6 0.15565 0.15566-0.11740 0.11750 0.99261-0.93429
   5   0   0 6.87595 11.7952   6 0.19451 0.19452-0.01121 0.01133 0.99991-0.92704
  -5   0   0 -2.9476 10.1395   1-0.19439-0.19429 0.02117-0.02137-0.99975 0.92697
   5   0   0 -0.9180 29.0477   7 0.19445 0.19449 0.01716-0.01727 0.99983-0.92697
  -5   0   0 -4.7270 28.1831   8-0.19441-0.19442-0.02045 0.02050-0.99976 0.92694
   6   0   0 7373.87 390.779   7 0.23333 0.23339 0.02443-0.02456 0.99859-0.91116
   6   0   0 8145.01 235.002   6 0.23333 0.23335 0.10261-0.10248 0.99356-0.90615
  -6   0   0 7753.10 386.304   8-0.23331-0.23331-0.03572 0.03579-0.99825 0.91085
   7   0   0 -10.100 48.2523   7 0.27222 0.27230 0.03173-0.03188 0.99568-0.89367
  -7   0   0 -12.969 36.3489   2-0.27213-0.27199 0.05184-0.05196-0.99483 0.89295
  -7   0   0 33.0801 48.1888   8-0.27219-0.27219-0.05110 0.05117-0.99486 0.89289
   8   0   0 473.206 133.679   7 0.31110 0.31120 0.03906-0.03924 0.99104-0.87444
   8   0   0 549.669 115.153   3 0.31126 0.31129-0.08410 0.08403 0.98814-0.87154
  -8   0   0 491.051 123.788   8-0.31107-0.31108-0.06658 0.06667-0.98954 0.87300
  -8   0   0 543.191 106.606   2-0.31103-0.31085 0.10006-0.10017-0.98665 0.87022
   9   0   0 -17.710 61.3969   7 0.34998 0.35010 0.04643-0.04662 0.98460-0.85342
   9   0   0 -30.897 73.7626   3 0.35015 0.35019-0.11874 0.11866 0.97827-0.84710
  -9   0   0 44.4454 99.1303   8-0.34996-0.34997-0.08217 0.08228-0.98219 0.85108
  10   0   0 26.0881 71.8537   7 0.38885 0.38901 0.05382-0.05405 0.97628-0.83051
 -10   0   0 -30.160 104.159   8-0.38886-0.38886-0.09789 0.09800-0.97271 0.82702
 -11   0   0 -149.35 127.642   5-0.42791-0.42837 0.14039-0.14043-0.95719 0.79660
 -11   0   0 194.092 163.977   8-0.42774-0.42775-0.11373 0.11385-0.96097 0.80071
  11   0   0 74.0835 95.7095   7 0.42773 0.42791 0.06127-0.06153 0.96598-0.80562
   0   1   0 2.42304 3.90312   4 0.21308-0.21307 0.04172 0.04172 0.99878-0.99878
   0  -1   0 -3.7817 2.39717   9-0.19865 0.19865-0.04167-0.04167-0.99906 0.99906
   0  -1   0 0.29899 3.13137   1-0.20478 0.20475-0.04168-0.04168-0.99897 0.99897
   0   1   0 5.47562 2.26730   6 0.21291-0.21294 0.04167 0.04169 0.99878-0.99878
  -1  -1   0 343.628 37.4101   8-0.10063 0.02288 0.01598-0.09928-0.99604 0.98148
  -1  -1   0 384.728 38.3813   7-0.05315-0.02462-0.02837-0.05498 0.97057-0.98513
  -1   1   0 396.455 30.1316   6 0.31226-0.39004 0.36929-0.28608 0.91828-0.93280
   1   1   0 408.235 41.7742   4 0.16971-0.09189-0.08027 0.16370 0.99662-0.98205
  -1  -1   0 389.478 40.6376   1-0.18181 0.10400 0.09161-0.17499-0.99578 0.98122
   1  -1   0 406.575 40.4740   9-0.13482 0.21259-0.20377 0.12039-0.97778 0.99235
   1  -1   0 424.186 35.0717   1-0.23888 0.31663-0.30074 0.21747-0.95171 0.96625
   1  -1   0 367.907 28.1701   4 0.25053-0.17270 0.15561-0.23907 0.98554-0.97096
  -1   1   0 425.563 33.7229   7-0.12862 0.05081-0.04201 0.12540 0.94918-0.96376
   1  -1   0 404.028 29.8962   6 0.25046-0.17268 0.15580-0.23906 0.98551-0.97096
  -1   1   0 406.988 33.6483   1-0.21727 0.13954-0.12478 0.20806-0.99167 0.97711
   1   1   0 359.738 35.7575   7 0.08657-0.00882-0.00283 0.08618 0.99483-0.98026
   1   1   0 382.898 40.7188   8 0.01789 0.05986 0.06124 0.02207-0.97695 0.99151
   1   1   0 405.465 40.6773   1-0.15555 0.23338 0.22310-0.13971-0.97441 0.98898
   1  -1   0 386.389 30.3970   7 0.07907-0.00127-0.00421-0.07918 0.99403-0.97945
  -1  -1   0 414.782 30.9065   9-0.27509 0.19735 0.17876-0.26203-0.97946 0.96491
   1   1   0 390.073 41.9127   6 0.16955-0.09174-0.08020 0.16365 0.99663-0.98204
   1   1   0 397.151 30.4865   9-0.33705 0.41478 0.39237-0.30912-0.90380 0.91834
   2  -1   0 698.792 62.6024   9-0.07870 0.23426-0.33371 0.25029-0.93750 0.96666
   2   1   0 674.084 69.2593   7 0.10027 0.05529-0.00031 0.08364 0.99613-0.96700
  -2  -1   0 839.033 70.7575   4 0.07306-0.22869-0.32310 0.23970 0.94053-0.96966
  -2  -1   0 796.755 75.0213   8-0.10726-0.04826 0.01343-0.09671-0.99664 0.96751
  -2   1   0 729.664 58.8062   8-0.08917-0.06638 0.02040 0.06294-0.99489 0.96575
   2  -1   0 785.255 67.7344   7 0.09995 0.05565-0.00036-0.08305 0.99610-0.96696
  -2  -1   0 838.572 64.8520   1-0.17327 0.01770 0.13643-0.21983-0.99057 0.96144
  -2   1   0 786.967 45.8746   1-0.23316 0.07768-0.24836 0.33154-0.96722 0.93814
   2   1   0 703.154 64.0343   6 0.15872-0.00305-0.10925 0.19274 0.99362-0.96445
   3   1   0 19969.8 450.257   7 0.12970 0.10363 0.00513 0.07818 0.99829-0.95458
  -3  -1   0 19405.6 443.905   8-0.13279-0.10049 0.00356-0.08684-0.99847 0.95478
  -3   1   0 19836.8 391.256   8-0.12986-0.10345 0.00469 0.07867-0.99830 0.95460
   3   1   0 20322.3 376.944   6 0.16484 0.06867-0.09292 0.17643 0.99543-0.95168
  -3  -1   0 21514.6 401.030   4 0.02364-0.25707-0.43433 0.35095 0.88895-0.93263
   3  -1   0 21003.8 392.711   9-0.02707 0.26043-0.44411 0.36066-0.88478 0.92853
   3  -1   0 20160.0 430.229   7 0.13368 0.09970 0.00587-0.08931 0.99851-0.95479
  -4   1   0 38.5562 24.7851   8-0.16958-0.14150-0.01075 0.09412-0.99978 0.94151
  -4  -1   0 13.9419 23.6472   8-0.16435-0.14670-0.00871-0.07457-0.99969 0.94144
   4  -1   0 -14.185 14.4205   9 0.02182 0.28936-0.54101 0.45752-0.82176 0.88012
   4  -1   0 40.6329 36.6372   7 0.17013 0.14103 0.01263-0.09610 0.99977-0.94148
   4   1   0 48.3240 31.7603   7 0.16364 0.14748 0.01143 0.07186 0.99965-0.94137
  -4  -1   0 14.2802 14.1909   4-0.02376-0.28745-0.53343 0.45008 0.82611-0.88433
  -4  -1   0 15.9164 9.62882   9-0.07527-0.23585-0.34132 0.25800-0.93444 0.87615
   4   1   0 4.77050 21.7483   6 0.18038 0.13093-0.05064 0.13415 0.99869-0.94037
  -5  -1   0 665.558 111.791   8-0.19860-0.19021-0.02209-0.06118-0.99969 0.92687
   5  -1   0 596.206 105.637   7 0.20761 0.18134 0.01962-0.10310 0.99959-0.92672
  -5   1   0 742.811 107.446   8-0.20895-0.17990-0.02615 0.10953-0.99941 0.92657
  -5  -1   0 569.826 42.3006   9-0.18875-0.20003-0.06795-0.01532-0.99769 0.92487
   5   1   0 652.433 107.952   7 0.19948 0.18943 0.01810 0.06517 0.99976-0.92691
   5   1   0 612.550 77.9250   6 0.20155 0.18751 0.00884 0.07466 0.99986-0.92697
  -6  -1   0 222.388 75.0652   8-0.23429-0.23230-0.03611-0.04715-0.99819 0.91080
   6   1   0 320.374 87.7958   7 0.23629 0.23040 0.02498 0.05827 0.99843-0.91101
  -6   1   0 171.790 43.3099   8-0.24818-0.21845-0.04159 0.12499-0.99718 0.90976
   6   1   0 243.291 53.0428   6 0.22628 0.24050 0.08131 0.00218 0.99587-0.90842
   6  -1   0 259.916 79.1405   7 0.24557 0.22117 0.02672-0.11023 0.99786-0.91041
  -7   1   0 -10.182 43.0736   8-0.28732-0.25709-0.05711 0.14052-0.99302 0.89104
  -7   1   0 31.7315 46.3559   2-0.27080-0.27327 0.05021 0.03298-0.99503 0.89317
   7  -1   0 13.2302 36.4933   7 0.28381 0.26071 0.03391-0.11745 0.99448-0.89246
  -7  -1   0 -63.175 68.4545   8-0.27082-0.27354-0.05055-0.03269-0.99501 0.89306
   7   1   0 26.6573 29.5983   6 0.25333 0.29113 0.16490-0.08144 0.98380-0.88181
   7   1   0 -8.5667 40.7471   7 0.27368 0.27081 0.03200 0.05123 0.99554-0.89354
  -7  -1   0 -26.110 26.6561   2-0.28983-0.25437 0.07363-0.15707-0.99164 0.88974
  -8  -1   0 553.295 137.376   8-0.30789-0.31423-0.06531-0.01792-0.99005 0.87353
   8  -1   0 647.090 132.685   3 0.30619 0.31638-0.07962-0.00383 0.98920-0.87258
   8  -1   0 493.566 134.560   7 0.32222 0.30009 0.04116-0.12472 0.98938-0.87277
  -8   1   0 841.251 139.663   2-0.30432-0.31752 0.09165-0.00844-0.98837 0.87197
  -8   1   0 545.275 112.761   8-0.32641-0.29578-0.07271 0.15614-0.98689 0.87033
   8   1   0 715.930 125.260   3 0.33036 0.29215-0.10104 0.18434 0.98370-0.86712
   8   1   0 851.640 169.422   7 0.31142 0.31086 0.03912 0.04409 0.99099-0.87441
  -9  -1   0 242.740 128.089   8-0.34535-0.35456-0.08032-0.00290-0.98317 0.85208
  -9   1   0 96.6155 84.9660   2-0.33878-0.36081 0.13519-0.05196-0.97808 0.84714
  -9   1   0 39.1145 56.3508   8-0.36546-0.33450-0.08843 0.17186-0.97867 0.84753
   9  -1   0 33.1106 56.4196   7 0.36073 0.33936 0.04847-0.13205 0.98249-0.85129
   9  -1   0 86.0500 91.3938   3 0.34187 0.35850-0.11132 0.02786 0.98065-0.84945
   9   1   0 41.4035 69.5031   7 0.34940 0.35066 0.04632 0.03687 0.98471-0.85354
 -10   1   0 1856.10 284.383   8-0.40450-0.37324-0.10425 0.18770-0.96826 0.82255
  10   1   0 1816.27 332.237   7 0.38756 0.39029 0.05357 0.02958 0.97659-0.83083
  10  -1   0 1951.70 314.311   7 0.39932 0.37854 0.05582-0.13944 0.97371-0.82792
  10  -1   0 2061.37 290.713   3 0.37809 0.40008-0.14399 0.06053 0.96913-0.82336
 -10  -1   0 2275.99 333.920   8-0.38307-0.39461-0.09555 0.01233-0.97426 0.82860
 -11  -1   0 253.582 156.583   8-0.42098-0.43447-0.11097 0.02776-0.96318 0.80295
  11   1   0 384.230 202.411   7 0.42584 0.42979 0.06090 0.02223 0.96653-0.80618
 -11   1   0 -105.36 118.174   8-0.44352-0.41200-0.12019 0.20365-0.95553 0.79524
  11  -1   0 258.708 187.040   7 0.43797 0.41767 0.06323-0.14688 0.96292-0.80254
 -11   1   0 248.936 139.048   5-0.41886-0.43749 0.13487-0.05150-0.96054 0.79993
   0   2   0 4567.95 170.266   6 0.22696-0.22703 0.08335 0.08339 0.99567-0.99566
   0  -2   0 4905.61 106.817   8-0.35281 0.35278-0.08332-0.08331-0.98157 0.98157
   0  -2   0 4899.69 139.061   3 0.31043-0.31045-0.08337-0.08338 0.98832-0.98831
   0  -2   0 4736.01 170.471   9-0.18287 0.18286-0.08334-0.08332-0.99651 0.99652
   0   2   0 5112.10 109.824   8 0.07656-0.07659 0.08332 0.08333-0.96166 0.96165
   0   2   0 4895.40 153.353   2-0.29767 0.29767 0.08337 0.08335-0.98994 0.98995
   1   2   0 164.790 36.0846   6 0.20116-0.12337 0.00768 0.15916 0.99987-0.98529
   1   2   0 184.425 27.3704   7 0.18466-0.10693 0.01534 0.15138 0.99988-0.98531
  -1  -2   0 199.885 33.1988   8-0.18308 0.10533-0.01602-0.15059-0.99986 0.98530
  -1   2   0 195.513 32.2063   6 0.27287-0.35073 0.22875-0.06217 0.96903-0.98357
   1  -2   0 172.272 35.1839   9-0.14837 0.22612-0.17073 0.00401-0.98463 0.99920
  -1  -2   0 181.787 31.4327   9-0.21331 0.13556-0.00194-0.16468-0.99965 0.98509
  -1  -2   0 195.544 31.3961   7-0.12783 0.05009-0.04187-0.12487 0.94943-0.96399
   1   2   0 221.098 27.8300   2-0.47932 0.55710 0.32509-0.15825-0.89055 0.90514
  -1   2   0 183.574 33.2637   1-0.19632 0.11863 0.00988 0.15676-0.99991 0.98535
   1  -2   0 188.257 31.9287   4 0.19484-0.11704-0.01074-0.15616 0.99991-0.98534
   2   2   0 2208.55 141.180   6 0.19070-0.03506-0.02193 0.18882 0.99975-0.97059
   2   2   0 2245.17 129.027   7 0.15630-0.00078 0.01006 0.15664 0.99945-0.97033
  -2   2   0 2356.85 108.725   6 0.33710-0.49265 0.47031-0.30393 0.86430-0.89328
   2  -2   0 2193.46 137.958   9-0.11123 0.26675-0.25973 0.09297-0.96311 0.99226
  -2   2   0 2256.62 114.496   1-0.20357 0.04813-0.03409 0.20066-0.99928 0.97017
   2  -2   0 2255.64 104.731   7 0.18335-0.02774 0.01509-0.18187 0.99988-0.97073
  -2  -2   0 2209.48 141.849   4 0.10289-0.25854-0.25194 0.08509 0.96450-0.99364
   2  -2   0 2432.20 104.112   6 0.21346-0.05791 0.04329-0.20987 0.99870-0.96958
   2  -2   0 2350.46 101.940   4 0.21357-0.05792 0.04314-0.21005 0.99870-0.96955
  -2  -2   0 2247.31 134.950   8-0.15964 0.00414-0.00688-0.15972-0.99958 0.97046
  -2   2   0 2258.48 86.0508   8-0.18503 0.02948-0.01678 0.18347-0.99986 0.97071
  -2  -2   0 2267.45 102.109   9-0.23735 0.08187 0.06561-0.23220-0.99651 0.96740
   3  -2   0 1219.40 100.560   7 0.18763 0.04576 0.01589-0.18270 0.99987-0.95615
   3   2   0 1147.82 109.304   6 0.19112 0.04236-0.02073 0.18765 0.99978-0.95603
   3  -2   0 1083.78 62.6049   4 0.21929 0.01417 0.06002-0.22691 0.99765-0.95392
  -3   2   0 1139.18 79.9781   1-0.20446-0.02872-0.03966 0.20615-0.99906 0.95541
   3  -2   0 1151.98 64.8538   6 0.21922 0.01407 0.06026-0.22680 0.99764-0.95397
   3   2   0 1043.15 107.321   7 0.16751 0.06579 0.01215 0.15454 0.99972-0.95603
   3  -2   0 1071.30 105.477   9-0.07229 0.30561-0.34788 0.18106-0.93174 0.97548
  -3  -2   0 1033.81 108.431   8-0.16871-0.06456-0.01041-0.15618-0.99977 0.95608
  -3  -2   0 1162.50 65.8833   9-0.25058 0.01738 0.10421-0.27078-0.99237 0.94871
  -3  -2   0 1199.67 113.655   4 0.06613-0.29959-0.33919 0.17237 0.93418-0.97787
  -3   2   0 1059.16 81.5882   8-0.18938-0.04394-0.01848 0.18518-0.99983 0.95612
   4  -2   0 640.441 44.7651   6 0.19507 0.11604-0.00963-0.15696 0.99992-0.94167
  -4  -2   0 636.168 104.039   8-0.19009-0.12093-0.01876-0.14783-0.99982 0.94158
  -4   2   0 522.732 79.7526   8-0.21559-0.09550-0.02876 0.19547-0.99917 0.94088
   4   2   0 562.343 91.4047   6 0.19919 0.11211 0.00209 0.16483 0.99992-0.94160
  -4   2   0 568.629 56.8498   1-0.19702-0.11387 0.00576 0.16070-0.99993 0.94173
  -4  -2   0 579.279 96.3234   4 0.02775-0.33901-0.42538 0.25859 0.89378-0.95203
   4   2   0 611.699 104.853   7 0.19130 0.11979 0.01657 0.15010 0.99985-0.94159
   4  -2   0 763.797 107.861   7 0.21114 0.10003 0.02028-0.18712 0.99950-0.94120
   4  -2   0 694.041 103.460   9-0.03212 0.34323-0.43369 0.26682-0.89056 0.94891
   4  -2   0 667.600 45.1937   4 0.19527 0.11600-0.00951-0.15737 0.99992-0.94162
  -4  -2   0 438.300 35.6669   9-0.24112-0.06981 0.07653-0.24311-0.99551 0.93729
   5   2   0 1766.42 152.716   6 0.21267 0.17642 0.04101 0.12589 0.99882-0.92592
  -5  -2   0 1856.19 184.564   8-0.21746-0.17133-0.02949-0.13709-0.99909 0.92628
  -5  -2   0 1892.17 169.868   4-0.01185-0.37720-0.50921 0.34245 0.84312-0.91591
  -5   2   0 1769.88 148.983   8-0.24794-0.14094-0.04150 0.20822-0.99720 0.92434
   5   2   0 1824.60 180.700   7 0.22068 0.16821 0.02206 0.14459 0.99917-0.92633
   5  -2   0 1914.18 172.815   9 0.00896 0.37997-0.51622 0.34932-0.83957 0.91252
   5  -2   0 1767.41 161.207   7 0.24134 0.14761 0.02593-0.19279 0.99813-0.92525
   6   2   0 936.558 146.783   7 0.25302 0.21365 0.02812 0.13851 0.99733-0.90992
   6  -2   0 762.485 126.668   7 0.27465 0.19209 0.03218-0.19907 0.99544-0.90798
  -6   2   0 923.351 121.175   8-0.28285-0.18381-0.05533 0.22207-0.99360 0.90617
  -6  -2   0 955.264 86.3836   2-0.28909-0.17743 0.07272-0.23952-0.99179 0.90442
  -6   2   0 728.660 118.699   2-0.25286-0.21346 0.02836 0.13815-0.99733 0.91003
  -6  -2   0 965.191 151.058   8-0.24818-0.21837-0.04159-0.12497-0.99718 0.90981
   6  -2   0 539.855 111.365   9 0.05072 0.41603-0.59481 0.42787-0.77856 0.86613
   6   2   0 1032.96 130.357   6 0.23006 0.23680 0.09266 0.07420 0.99470-0.90723
  -7   2   0 2221.33 216.206   2-0.27913-0.26492 0.06042 0.10609-0.99367 0.89183
   7  -2   0 2101.38 215.772   7 0.30966 0.23487 0.03879-0.20570 0.99124-0.88920
   7   2   0 2175.09 247.992   7 0.28712 0.25734 0.03453 0.13209 0.99411-0.89212
   7   2   0 2301.30 195.822   6 0.25025 0.29433 0.15512 0.01171 0.98563-0.88360
  -7   2   0 2046.31 191.440   8-0.31909-0.22535-0.06978 0.23654-0.98819 0.88619
   7   2   0 2327.51 179.906   3 0.32819 0.21647-0.09911 0.26579 0.98424-0.88225
  -7  -2   0 2073.50 230.092   8-0.28096-0.26336-0.05458-0.11197-0.99383 0.89190
  -8   2   0 452.615 106.101   8-0.35609-0.26612-0.08464 0.25141-0.98084 0.86425
  -8  -2   0 608.449 144.854   8-0.31511-0.30700-0.06819-0.09836-0.98887 0.87237
   8   2   0 264.196 125.181   7 0.32235 0.29990 0.04119 0.12540 0.98936-0.87279
  -8   2   0 596.833 138.832   2-0.30765-0.31413 0.09582 0.07070-0.98753 0.87115
   8  -2   0 356.814 102.553   3 0.31112 0.31148-0.08397-0.08287 0.98817-0.87154
   8  -2   0 407.827 95.9286   7 0.34569 0.27662 0.04561-0.21255 0.98540-0.86878
   9  -2   0 1109.86 192.494   3 0.34323 0.35717-0.11253-0.05432 0.98027-0.84906
   9  -2   0 1129.52 201.839   7 0.38239 0.31769 0.05259-0.21956 0.97780-0.84659
  -9   2   0 1136.50 184.530   8-0.39360-0.30640-0.09982 0.26659-0.97140 0.84024
   9   2   0 1126.68 241.040   7 0.35835 0.34169 0.04802 0.11856 0.98297-0.85181
  -9  -2   0 1374.16 234.828   8-0.35019-0.34968-0.08227-0.08428-0.98214 0.85107
  -9   2   0 1176.00 192.934   2-0.33783-0.36170 0.13399 0.03255-0.97841 0.84749
 -10  -2   0 -146.30 156.785   8-0.38596-0.39169-0.09672-0.06982-0.97349 0.82785
  10  -2   0 -151.29 101.049   7 0.41956 0.35831 0.05970-0.22669 0.96832-0.82251
 -10   2   0 -158.99 122.187   8-0.43143-0.34635-0.11524 0.28202-0.95973 0.81399
  10  -2   0 8.29685 88.3978   3 0.37640 0.40180-0.14246-0.02439 0.96973-0.82394
 -10   2   0 -91.039 103.455   2-0.36925-0.40804 0.17455-0.00799-0.96579 0.82035
  10   2   0 -0.6210 101.434   7 0.39489 0.38293 0.05497 0.11157 0.97482-0.82907
  11   2   0 321.886 180.770   7 0.43183 0.42377 0.06205 0.10446 0.96478-0.80444
 -11  -2   0 800.779 277.056   8-0.42223-0.43319-0.11148-0.05505-0.96277 0.80257
  11  -2   0 607.466 205.947   3 0.41038 0.44563-0.17360 0.00675 0.95625-0.79589
 -11   2   0 353.184 140.893   5-0.41801-0.43836 0.13435 0.03242-0.96084 0.80021
 -11   2   0 617.176 247.242   8-0.46950-0.38605-0.13088 0.29768-0.94566 0.78535
  11  -2   0 579.149 285.609   7 0.45705 0.39860 0.06691-0.23393 0.95683-0.79643
   0  -3   0 -3.2239 19.3091   9-0.16666 0.16665-0.12502-0.12498-0.99196 0.99197
   0  -3   0 -1.8339 19.9996   4 0.15291-0.15294-0.12516-0.12518 0.99157-0.99157
   0   3   0 13.5892 10.0161   2-0.33083 0.33080 0.12507 0.12503-0.98078 0.98079
   0  -3   0 -2.7961 7.90211   8-0.45520 0.45514-0.12499-0.12497-0.95123 0.95125
   0   3   0 15.7487 13.3674   6 0.24062-0.24073 0.12500 0.12509 0.99057-0.99055
   0  -3   0 31.6828 19.3621   3 0.35718-0.35721-0.12506-0.12509 0.97614-0.97614
  -1  -3   0 869.725 61.6643   3 0.55039-0.62825-0.30835 0.05828 0.86522-0.87976
   1  -3   0 784.055 91.2060   9-0.14383 0.22158-0.18187-0.06817-0.98247 0.99704
  -1   3   0 796.305 85.1440   6 0.27062-0.34854 0.22122 0.02872 0.97103-0.98555
   1   3   0 845.576 69.8707   2-0.44410 0.52185 0.27527-0.02507-0.92072 0.93532
  -1  -3   0 785.661 71.5119   8-0.27401 0.19624-0.05182-0.19810-0.99466 0.98010
   1   3   0 772.544 92.5325   6 0.22187-0.14413 0.06813 0.18208 0.99704-0.98245
  -1   3   0 853.786 90.3047   2-0.27257 0.19481 0.05237 0.19763-0.99476 0.98021
   1   3   0 922.916 66.9157   7 0.31370-0.23600 0.03955 0.21051 0.99067-0.97609
   1  -3   0 792.515 82.0790   4 0.16795-0.09015-0.08504-0.16529 0.99620-0.98162
  -1  -3   0 880.462 88.6389   9-0.18423 0.10648-0.07980-0.17017-0.99681 0.98225
  -1   3   0 754.661 86.4562   1-0.18398 0.10633 0.07987 0.17011-0.99680 0.98225
   2   3   0 1417.60 132.932   6 0.21272-0.05712 0.04114 0.20914 0.99881-0.96964
  -2   3   0 1378.48 114.735   1-0.18826 0.03286 0.05623 0.19369-0.99842 0.96931
  -2  -3   0 1468.75 104.897   9-0.19468 0.03920-0.05224-0.19769-0.99860 0.96949
   2  -3   0 1414.31 104.146   4 0.17554-0.01992-0.06441-0.18594 0.99786-0.96870
   2  -3   0 1322.91 124.714   9-0.11701 0.27250-0.24621-0.00388-0.96701 0.99616
   2   3   0 1438.54 108.391   7 0.23804-0.08257 0.02531 0.22476 0.99833-0.96920
  -2  -3   0 1369.20 112.453   8-0.22587 0.07037-0.03280-0.21711-0.99868 0.96956
  -2  -3   0 1380.36 131.029   4 0.10760-0.26327-0.24042-0.00988 0.96777-0.99691
  -2   3   0 1348.34 105.010   6 0.31171-0.46737 0.36715-0.11742 0.91925-0.94826
   2  -3   0 1258.65 72.2896   7 0.35503-0.19944 0.04739-0.29752 0.98363-0.95449
  -3   3   0 7176.53 251.285   6 0.35759-0.59092 0.56728-0.31774 0.79570-0.83910
  -3  -3   0 6266.36 280.263   8-0.21849-0.01477-0.02989-0.22000-0.99904 0.95537
   3   3   0 5918.90 266.658   7 0.22592 0.00734 0.02304 0.22702 0.99895-0.95526
   3  -3   0 6008.45 203.201   4 0.17225 0.06119-0.07338-0.17696 0.99720-0.95347
   3  -3   0 6535.39 299.244   9-0.08701 0.32029-0.31514 0.06498-0.94462 0.98835
  -3  -3   0 6263.88 299.419   4 0.07947-0.31295-0.30809 0.05781 0.94614-0.98985
   3   3   0 6328.68 297.087   6 0.21126 0.02220 0.03686 0.21346 0.99902-0.95526
  -3   3   0 6199.19 243.332   1-0.18786-0.04527 0.05847 0.19139-0.99829 0.95464
  -3   3   0 6250.49 175.313   8-0.33010 0.09677-0.07419 0.32426-0.98620 0.94248
  -3  -3   0 6168.34 202.339   9-0.19475-0.03847-0.05208-0.19785-0.99861 0.95494
   3  -3   0 5884.45 212.147   7 0.28791-0.05452 0.03468-0.28485 0.99402-0.95029
  -4   3   0 2180.26 138.212   1-0.18167-0.12916 0.09234 0.15748-0.99572 0.93752
  -4  -3   0 2278.37 190.637   8-0.22869-0.08234-0.03390-0.21598-0.99852 0.94029
   4   3   0 2200.54 180.632   6 0.21581 0.09549 0.05018 0.20014 0.99831-0.93997
   4   3   0 2116.47 74.5620   3 0.35508-0.04386-0.12317 0.37321 0.97679-0.91853
   4  -3   0 2144.87 182.879   9-0.05451 0.36559-0.38648 0.13627-0.91460 0.97293
  -4   3   0 2066.54 130.656   8-0.30877-0.00234-0.06566 0.31573-0.98991 0.93161
   4  -3   0 2086.91 153.939   7 0.28330 0.02786 0.03381-0.28402 0.99454-0.93623
  -4  -3   0 2071.66 106.528   9-0.17723-0.13374-0.09795-0.15199-0.99515 0.93692
   4  -3   0 2267.99 114.889   4 0.15048 0.16077-0.13155-0.11876 0.99067-0.93237
  -4  -3   0 2128.35 185.427   4 0.04864-0.35993-0.37909 0.12885 0.91684-0.97510
   4   3   0 2019.09 175.522   7 0.23596 0.07508 0.02492 0.22512 0.99845-0.94019
  -5  -3   0 717.848 125.568   8-0.24803-0.14075-0.04153-0.20834-0.99719 0.92439
  -5   3   0 798.671 123.100   2-0.25491-0.13369 0.03084 0.21899-0.99711 0.92437
  -5  -3   0 757.330 119.041   4 0.01560-0.40469-0.45166 0.20145 0.87920-0.95200
   5   3   0 817.363 64.6367   3 0.35273 0.03629-0.12106 0.37109 0.97751-0.90468
  -5   3   0 705.823 88.0003   8-0.31986-0.06903-0.07010 0.32018-0.98806 0.91518
   5  -3   0 762.611 109.275   7 0.29849 0.09046 0.03668-0.28690 0.99274-0.91985
  -5  -3   0 738.544 53.2598   9-0.11805-0.27074-0.24376-0.00624-0.96770 0.89489
   5   3   0 791.671 121.738   6 0.22504 0.16407 0.07757 0.17273 0.99622-0.92330
  -5   3   0 772.829 82.8824   1-0.16716-0.22137 0.16719 0.08262-0.98576 0.91302
   5  -3   0 693.544 52.1512   4 0.08460 0.30440-0.29595 0.04568 0.95046-0.87760
   5   3   0 621.402 113.720   7 0.25630 0.13254 0.02873 0.22129 0.99708-0.92424
   5  -3   0 923.257 132.152   9-0.01998 0.40885-0.45863 0.20836-0.87642 0.94935
   6   3   0 183.556 73.5376   7 0.28226 0.18438 0.03362 0.21640 0.99465-0.90724
  -6   3   0 247.185 77.3649   2-0.27231-0.19399 0.05207 0.19776-0.99480 0.90752
   6  -3   0 239.531 66.4827   7 0.32248 0.14426 0.04121-0.29147 0.98934-0.90188
  -6  -3   0 224.673 69.9917   8-0.27273-0.19381-0.05131-0.19856-0.99480 0.90744
   6   3   0 274.625 50.5256   3 0.37702 0.08979-0.14302 0.39306 0.96951-0.88212
   6   3   0 263.464 69.8880   6 0.23790 0.22899 0.11660 0.13366 0.99176-0.90426
   6  -3   0 229.175 69.2705   9 0.01625 0.45043-0.53034 0.28003-0.82957 0.91713
  -6   3   0 201.119 53.6252   8-0.34277-0.12390-0.07928 0.32938-0.98370 0.89625
  -6  -3   0 365.349 90.9256   4-0.01929-0.44758-0.52442 0.27423 0.83258-0.91992
  -7   3   0 436.827 103.434   2-0.29358-0.25045 0.07828 0.17155-0.99085 0.88903
  -7  -3   0 400.233 117.912   8-0.30084-0.24346-0.06250-0.18736-0.99113 0.88921
  -7   3   0 415.681 82.2343   8-0.37130-0.17315-0.09079 0.34089-0.97726 0.87523
   7  -3   0 161.761 94.9129   9 0.05391 0.49057-0.60060 0.35025-0.77350 0.87569
   7   3   0 372.551 95.0473   6 0.25357 0.29108 0.16566 0.08456 0.98365-0.88158
   7  -3   0 304.858 80.2028   3 0.29697 0.24782-0.07153-0.17872 0.99097-0.88890
   7   3   0 388.855 122.327   7 0.31159 0.23283 0.03915 0.21084 0.99097-0.88899
   7  -3   0 409.367 103.495   7 0.35113 0.19339 0.04665-0.29693 0.98438-0.88233
  -8   3   0 565.955 114.376   8-0.40297-0.21927-0.10363 0.35374-0.96871 0.85210
   8   3   0 738.251 132.962   6 0.27138 0.35098 0.22376 0.02639 0.97037-0.85371
  -8  -3   0 924.909 199.649   8-0.33126-0.29081-0.07466-0.17519-0.98598 0.86950
   8  -3   0 575.986 131.281   7 0.38255 0.23974 0.05262-0.30294 0.97776-0.86112
   8   3   0 614.046 154.722   7 0.34314 0.27908 0.04513 0.20485 0.98587-0.86930
  -8   3   0 780.097 151.100   2-0.31767-0.30409 0.10841 0.14143-0.98481 0.86845
   8  -3   0 594.907 144.538   3 0.32341 0.29919-0.09487-0.15538 0.98540-0.86875
  -9   3   0 10.9742 62.3328   8-0.43655-0.26347-0.11733 0.36747-0.95798 0.82679
   9   3   0 98.4071 82.4288   7 0.37620 0.32380 0.05141 0.19854 0.97920-0.84805
   9  -3   0 16.7031 64.1270   3 0.35188 0.34853-0.12030-0.12995 0.97776-0.84653
  -9   3   0 171.184 93.4564   2-0.34391-0.35559 0.14176 0.10809-0.97622 0.84534
  -9  -3   0 217.904 132.607   8-0.36330-0.33655-0.08756-0.16230-0.97918 0.84813
   9  -3   0 226.025 116.990   7 0.41577 0.28431 0.05897-0.30932 0.96937-0.83814
  10   3   0 -47.376 113.274   7 0.41035 0.36744 0.05793 0.19200 0.97084-0.82510
 -10   3   0 282.333 139.715   2-0.37180-0.40544 0.17788 0.07199-0.96462 0.81921
  10  -3   0 287.936 141.421   3 0.38188 0.39635-0.14744-0.10281 0.96775-0.82194
 -10  -3   0 106.590 79.9285   8-0.39653-0.38109-0.10101-0.14884-0.97057 0.82496
  10  -3   0 158.290 110.750   7 0.45020 0.32766 0.06559-0.31595 0.95908-0.81326
 -11   3   0 129.685 127.743   5-0.42412-0.43227 0.13807 0.11210-0.95861 0.79795
  11  -3   0 91.7506 110.224   3 0.41306 0.44297-0.17607-0.07417 0.95507-0.79468
  11   3   0 -233.91 189.336   7 0.44531 0.41027 0.06464 0.18526 0.96064-0.80032
  11  -3   0 -161.54 182.087   7 0.48550 0.37014 0.07240-0.32280 0.94675-0.78633
   0  -4   0 2765.71 153.941   3 0.40295-0.40300-0.16675-0.16678 0.95945-0.95943
   0   4   0 2792.81 193.026   1-0.16726 0.16740 0.16672 0.16669-0.98585 0.98585
   0  -4   0 2979.96 117.447   8-0.55527 0.55518-0.16666-0.16662-0.90439 0.90443
   0   4   0 2961.21 199.320   6 0.25388-0.25402 0.16666 0.16682 0.98346-0.98342
   0   4   0 2903.75 128.301   5-0.47047 0.47052 0.16660 0.16664-0.93933 0.93931
   0  -4   0 2719.06 186.072   9-0.15000 0.15000-0.16671-0.16664-0.98538 0.98539
   0   4   0 2801.06 169.748   2-0.36327 0.36323 0.16676 0.16670-0.96845 0.96848
   0  -4   0 2896.41 193.939   4 0.13687-0.13691-0.16687-0.16690 0.98479-0.98478
   1   4   0 21.7160 31.1772   2-0.44770 0.52542 0.28027 0.05332-0.91795 0.93256
   1   4   0 59.7744 33.9787   7 0.46229-0.38462 0.06792 0.26547 0.95506-0.94047
  -1  -4   0 49.5580 44.8850   8-0.36861 0.29082-0.08970-0.24352-0.97791 0.96336
  -1   4   0 42.8009 42.5136   2-0.31318 0.23541 0.10276 0.23060-0.98607 0.97153
  -1   4   0 9.96305 34.2392   6 0.27625-0.35422 0.24011 0.09319 0.96588-0.98038
  -1  -4   0 -4.5602 34.1746   9-0.16149 0.08374-0.13808-0.19522-0.99012 0.97557
   1   4   0 156.411 72.9211   6 0.23900-0.16129 0.12002 0.21357 0.99129-0.97668
   1  -4   0 54.8632 52.0000   9-0.13351 0.21126-0.20693-0.12644-0.97706 0.99163
  -1  -4   0 41.5530 33.4961   3 0.54502-0.62291-0.30295-0.03050 0.87001-0.88454
   1  -4   0 32.2548 39.5991   3 0.32833-0.25054-0.09924-0.23434 0.98421-0.96962
  -1   4   0 22.3260 57.0041   1-0.17349 0.09588 0.13529 0.19805-0.99073 0.97618
   1  -4   0 13.3022 43.2454   4 0.14656-0.06878-0.14178-0.19201 0.98912-0.97453
  -2   4   0 2655.14 175.363   6 0.30599-0.46174 0.34557-0.01247 0.92872-0.95771
   2  -4   0 2959.88 99.7353   7 0.66689-0.51133 0.10810-0.44157 0.84914-0.82001
  -2   4   0 2802.68 191.198   1-0.17632 0.02096 0.12067 0.21261-0.99265 0.96355
  -2  -4   0 2448.20 163.005   9-0.16657 0.01110-0.12524-0.20805-0.99193 0.96283
   2  -4   0 2504.18 180.513   3 0.29175-0.13612-0.06695-0.26665 0.99191-0.96274
   2  -4   0 2453.89 168.792   4 0.14980 0.00581-0.13331-0.20048 0.99041-0.96125
   2   4   0 2525.69 151.688   7 0.33971-0.18427 0.04448 0.28893 0.98648-0.95734
  -2  -4   0 2514.02 167.275   8-0.30087 0.14534-0.06251-0.27069-0.99113 0.96201
   2   4   0 2543.21 205.522   6 0.23092-0.07534 0.09528 0.23838 0.99441-0.96522
   2  -4   0 2414.33 195.479   9-0.11295 0.26844-0.25572-0.07771-0.96429 0.99344
   3  -4   0 2056.02 147.415   4 0.14435 0.08908-0.14753-0.18623 0.98819-0.94445
  -3   4   0 1915.60 179.885   2-0.27527 0.04208 0.05569 0.27754-0.99432 0.95069
  -3  -4   0 2252.49 180.406   8-0.27824 0.04497-0.05350-0.27968-0.99416 0.95049
  -3  -4   0 2050.01 144.793   9-0.16303-0.07019-0.13420-0.19908-0.99069 0.94703
   3   4   0 2202.74 166.364   7 0.30157-0.06835 0.03726 0.29615 0.99234-0.94864
  -3  -4   0 2115.19 195.563   4 0.08078-0.31429-0.30499-0.02874 0.94726-0.99097
   3  -4   0 2083.00 188.082   9-0.08899 0.32225-0.31069-0.02280-0.94626 0.98999
  -3   4   0 2414.53 88.7525   8-0.65207 0.41879-0.20810 0.54156-0.83828 0.79448
   3  -4   0 2179.71 123.453   7 0.44813-0.21476 0.06519-0.39870 0.95975-0.91603
  -3   4   0 2389.62 164.222   6 0.34078-0.57423 0.48655-0.15367 0.85405-0.89747
  -3   4   0 2152.74 167.534   1-0.17539-0.05768 0.12549 0.20772-0.99204 0.94840
   3   4   0 2278.83 199.967   6 0.22864 0.00480 0.08840 0.24531 0.99516-0.95138
  -4   4   0 699.993 93.4098   1-0.16999-0.14079 0.15306 0.18010-0.98810 0.92992
  -4  -4   0 704.143 78.2260   9-0.14667-0.16430-0.17492-0.15838-0.98384 0.92562
  -4   4   0 630.464 108.964   2-0.27492-0.03597 0.05527 0.27793-0.99438 0.93620
  -4  -4   0 669.803 117.001   4 0.05546-0.36677-0.36368 0.02998 0.92381-0.98207
   4   4   0 659.582 104.801   7 0.29545 0.01556 0.03610 0.29730 0.99312-0.93485
   4  -4   0 674.801 86.8348   7 0.39281-0.08164 0.05458-0.38813 0.97533-0.91702
   4  -4   0 600.553 111.134   9-0.06218 0.37322-0.36996 0.03641-0.92220 0.98053
  -4  -4   0 649.866 108.715   8-0.27717-0.03385-0.05307-0.28011-0.99429 0.93606
  -4  -4   0 740.983 46.6646   5-0.60238 0.29133 0.25075-0.58395-0.85720 0.79886
  -4   4   0 701.195 69.5560   8-0.47824 0.16714-0.13449 0.46795-0.94209 0.88375
   4   4   0 663.829 116.527   6 0.23121 0.08008 0.09618 0.23753 0.99431-0.93595
   4  -4   0 619.332 76.3161   4 0.12605 0.18518-0.19443-0.13931 0.97918-0.92088
  -5  -4   0 5890.58 184.340   5-0.49062 0.10172 0.17917-0.51245-0.92955 0.85664
  -5  -4   0 5775.34 206.489   9-0.10780-0.28096-0.26772-0.06564-0.96069 0.88791
  -5   4   0 5254.79 328.744   2-0.28222-0.10639 0.06423 0.26893-0.99312 0.92039
   5   4   0 5109.92 326.087   6 0.23778 0.15134 0.11623 0.21747 0.99181-0.91886
   5  -4   0 5474.08 278.761   7 0.38258 0.00636 0.05262-0.38622 0.97776-0.90486
   5  -4   0 5315.65 346.841   9-0.03292 0.42175-0.43202 0.09842-0.89147 0.96440
  -5  -4   0 4783.63 328.062   4 0.02759-0.41672-0.42573 0.09206 0.89360-0.96641
   5   4   0 5672.62 338.162   7 0.30482 0.08398 0.03787 0.29552 0.99191-0.91908
  -5   4   0 5920.12 264.361   1-0.15872-0.22975 0.20812 0.12502-0.97779 0.90507
  -5   4   0 6173.45 251.276   8-0.43861 0.04972-0.11818 0.45164-0.95726 0.88436
   5  -4   0 5699.33 212.665   4 0.08542 0.30360-0.29401-0.03969 0.95113-0.87826
  -5  -4   0 5539.60 342.299   8-0.28802-0.10075-0.05739-0.27578-0.99293 0.92015
   6  -4   0 33.0188 48.0332   9-0.00154 0.46817-0.49563 0.16196-0.85344 0.94099
   6   4   0 197.399 74.9105   7 0.32286 0.14373 0.04128 0.29210 0.98928-0.90188
  -6   4   0 49.5399 52.5240   2-0.29508-0.17124 0.08014 0.25301-0.99052 0.90326
  -6   4   0 15.0587 44.3511   8-0.43606-0.03062-0.11713 0.45060-0.95815 0.87067
   6   4   0 -26.841 56.7643   6 0.24760 0.21932 0.14678 0.18688 0.98711-0.89957
   6  -4   0 45.2375 54.0897   3 0.29976 0.16722-0.07398-0.25967 0.99045-0.90295
  -6  -4   0 -70.027 62.0938   8-0.30614-0.16039-0.06461-0.26855-0.99032 0.90298
   6  -4   0 1.78391 39.5432   7 0.39132 0.07542 0.05429-0.38792 0.97569-0.88821
  -6  -4   0 20.6605 40.6988   4-0.00248-0.46445-0.48984 0.15621 0.85593-0.94327
  -7   4   0 3015.29 273.126   2-0.31211-0.23193 0.10140 0.23174-0.98636 0.88456
   7   4   0 2973.77 272.947   6 0.26006 0.28463 0.18655 0.14706 0.97934-0.87722
   7  -4   0 3550.62 331.977   9 0.03170 0.51273-0.55969 0.22598-0.80749 0.90966
  -7  -4   0 2958.46 298.363   8-0.32902-0.21528-0.07376-0.25940-0.98640 0.88450
   7  -4   0 2353.86 248.693   3 0.31887 0.22593-0.09084-0.24281 0.98646-0.88438
  -7  -4   0 3534.80 322.483   4-0.03451-0.51022-0.55487 0.22127 0.81006-0.91194
   7   4   0 2991.90 300.868   7 0.34622 0.19816 0.04571 0.28766 0.98530-0.88332
   7  -4   0 2838.77 247.824   7 0.40980 0.13471 0.05783-0.39149 0.97099-0.86892
   8   4   0 107.039 74.6519   6 0.27463 0.34781 0.23466 0.09888 0.96741-0.85070
   8  -4   0 75.1283 44.6148   7 0.43397 0.18831 0.06247-0.39614 0.96414-0.84748
  -8  -4   0 -71.507 60.9492   8-0.35516-0.26689-0.08427-0.24889-0.98105 0.86458
   8  -4   0 -46.062 64.3245   3 0.34127 0.28135-0.11078-0.22287 0.98081-0.86414
   8   4   0 23.5966 55.4140   7 0.37310 0.24908 0.05083 0.28254 0.97988-0.86332
  -8   4   0 74.3855 66.5240   2-0.33231-0.28944 0.12694 0.20621-0.98029 0.86396
   9   4   0 539.512 163.235   7 0.40241 0.29755 0.05641 0.27692 0.97292-0.84178
   9  -4   0 496.337 137.585   7 0.46176 0.23831 0.06782-0.40152 0.95525-0.82400
  -9  -4   0 615.283 156.474   8-0.38367-0.31616-0.09579-0.23737-0.97410 0.84307
   9  -4   0 429.352 136.081   3 0.36617 0.33426-0.13318-0.20047 0.97325-0.84200
  -9   4   0 798.648 170.419   2-0.35498-0.34450 0.15601 0.17715-0.97194 0.84108
 -10  -4   0 17.5508 96.3359   8-0.41391-0.36369-0.10808-0.22507-0.96541 0.81982
  10  -4   0 147.322 111.288   3 0.39300 0.38525-0.15761-0.17604 0.96350-0.81767
  10   4   0 -86.397 118.561   7 0.43348 0.34427 0.06237 0.27095 0.96428-0.81855
 -10   4   0 55.1098 92.4244   2-0.37961-0.39761 0.18812 0.14505-0.96088 0.81551
  10  -4   0 239.173 152.782   7 0.49197 0.28587 0.07366-0.40739 0.94428-0.79844
 -11   4   0 686.452 259.949   2-0.40578-0.44917 0.22293 0.11028-0.94668 0.78679
   0  -5   0 -17.215 34.9213   9-0.13292 0.13292-0.20839-0.20828-0.97672 0.97674
   0  -5   0 -30.783 28.5300   3 0.44770-0.44778-0.20842-0.20848 0.93802-0.93798
   0  -5   0 -6.5263 15.7341   8-0.65259 0.65245-0.20833-0.20827-0.83786 0.83794
   0   5   0 -12.063 27.2345   6 0.26672-0.26691 0.20829 0.20854 0.97430-0.97423
   0   5   0 -49.373 20.4518   2-0.39497 0.39490 0.20847 0.20837-0.95287 0.95291
   0   5   0 20.5601 45.2553   1-0.15867 0.15886 0.20839 0.20836-0.97773 0.97774
   0   5   0 18.0701 25.9084   5-0.53668 0.53678 0.20823 0.20829-0.90373 0.90368
  -1  -5   0 359.961 84.9936   4 0.10930-0.18717-0.23622-0.18099 0.96892-0.98348
  -1  -5   0 411.857 60.4598   3 0.56252-0.64044-0.32066-0.09618 0.85393-0.86843
   1   5   0 307.414 58.1801   2-0.46330 0.54099 0.30219 0.11477-0.90511 0.91975
  -1  -5   0 311.694 55.2735   8-0.46456 0.38673-0.12884-0.28769-0.94763 0.93310
   1  -5   0 365.376 88.2945   9-0.12044 0.19818-0.23814-0.17857-0.96924 0.98383
   1   5   0 369.960 86.2617   6 0.25433-0.17667 0.16813 0.24883 0.98317-0.96854
  -1   5   0 378.626 84.3007   1-0.16351 0.08595 0.18510 0.23158-0.98250 0.96796
  -1   5   0 366.614 80.1870   6 0.28456-0.36260 0.26861 0.14807 0.95727-0.97174
  -1   5   0 346.159 61.0385   5-0.42193 0.34420 0.13673 0.27992-0.95942 0.94481
  -1  -5   0 380.054 81.2318   9-0.14077 0.06304-0.18936-0.22729-0.98093 0.96640
   1  -5   0 336.799 67.8267   3 0.37913-0.30136-0.14494-0.27202 0.96876-0.95416
   1   5   0 377.789 50.8066   7 0.62301-0.54535 0.09934 0.31736 0.87884-0.86421
   2  -5   0 718.238 123.106   9-0.10407 0.25957-0.27630-0.14045-0.95800 0.98716
   2   5   0 891.593 102.903   2-0.55895 0.71446 0.44612-0.02902-0.79126 0.82052
  -2   5   0 652.311 106.970   1-0.16546 0.01016 0.17559 0.24102-0.98428 0.95519
  -2  -5   0 660.204 93.9155   8-0.38147 0.22592-0.09491-0.32160-0.97467 0.94557
   2  -5   0 678.563 107.045   3 0.34074-0.18512-0.11031-0.30669 0.98096-0.95178
  -2  -5   0 707.132 121.821   4 0.09429-0.24999-0.27277-0.14443 0.95817-0.98730
  -2  -5   0 787.042 108.256   9-0.14295-0.01251-0.18402-0.23260-0.98204 0.95294
  -2   5   0 751.089 112.882   2-0.32408 0.16856 0.11650 0.30015-0.98291 0.95384
  -2   5   0 820.811 112.058   6 0.30772-0.46355 0.35205 0.06442 0.92595-0.95491
   2   5   0 704.542 86.3973   7 0.45683-0.30143 0.06687 0.34987 0.95690-0.92774
   2   5   0 675.688 119.117   6 0.24709-0.09154 0.14518 0.27187 0.98738-0.95817
   3   5   0 2866.09 198.606   7 0.39167-0.15849 0.05436 0.36239 0.97560-0.93189
  -3  -5   0 2928.44 214.637   8-0.34523 0.11194-0.08027-0.33621-0.98319 0.93953
  -3  -5   0 2853.37 250.489   4 0.07594-0.30947-0.31636-0.10081 0.94309-0.98678
  -3  -5   0 2808.44 194.059   9-0.13783-0.09536-0.19649-0.22015-0.97941 0.93576
   3  -5   0 3216.58 137.971   7 0.69057-0.45723 0.11287-0.52972 0.83111-0.78739
  -3   5   0 3323.69 223.954   6 0.33492-0.56849 0.46090-0.04466 0.87002-0.91342
   3   5   0 2815.63 244.238   6 0.24443-0.01102 0.13687 0.28023 0.98875-0.94495
  -3   5   0 2808.18 236.978   2-0.31077 0.07756 0.09973 0.31685-0.98672 0.94309
   3  -5   0 2678.72 241.209   9-0.08439 0.31764-0.32101-0.09580-0.94242 0.98616
   3  -5   0 2786.48 201.590   4 0.12150 0.11193-0.20590-0.21130 0.97658-0.93284
  -3   5   0 2804.20 219.075   1-0.16422-0.06881 0.18164 0.23490-0.98316 0.93953
   3  -5   0 2920.72 228.045   3 0.32194-0.08848-0.09356-0.32347 0.98575-0.94199
   4   5   0 19.6698 43.1092   7 0.36786-0.05690 0.04983 0.36693 0.98101-0.92274
   4  -5   0 70.2076 55.6691   3 0.31627-0.00497-0.08854-0.32849 0.98705-0.92871
  -4  -5   0 40.0398 32.4671   9-0.12265-0.18830-0.23290-0.18376-0.97063 0.91243
   4  -5   0 39.0887 22.2399   7 0.54814-0.23699 0.08460-0.50149 0.92004-0.86174
  -4   5   0 18.4944 19.9625   6 0.36270-0.67394 0.59483-0.17880 0.77262-0.83038
   4  -5   0 37.8764 43.8602   9-0.06182 0.37283-0.37074-0.04614-0.92185 0.98018
  -4  -5   0 32.3708 42.6645   4 0.05468-0.36602-0.36544-0.05171 0.92303-0.98128
   4   5   0 20.2826 46.7737   6 0.24578 0.06549 0.14106 0.27605 0.98807-0.92968
  -4  -5   0 71.1597 50.1959   8-0.33335 0.02232-0.07550-0.34097-0.98558 0.92736
  -4   5   0 57.5317 34.5819   1-0.15929-0.15144 0.20542 0.21108-0.97837 0.92021
   4  -5   0 -42.901 32.3688   4 0.10527 0.20597-0.24612-0.17104 0.96617-0.90786
  -4   5   0 -14.995 38.7139   2-0.30716-0.00377 0.09520 0.32133-0.98766 0.92949
   5  -5   0 709.008 138.423   3 0.31975 0.06938-0.09162-0.32542 0.98626-0.91333
  -5  -5   0 896.546 148.524   8-0.33566-0.05311-0.07643-0.34003-0.98513 0.91236
   5   5   0 779.891 137.341   6 0.25055 0.13857 0.15606 0.26104 0.98546-0.91248
  -5   5   0 919.311 155.407   2-0.31079-0.07783 0.09976 0.31674-0.98671 0.91400
   5   5   0 978.133 149.410   7 0.36488 0.02387 0.04926 0.36750 0.98164-0.90880
   5  -5   0 845.590 151.648   9-0.03669 0.42548-0.42419 0.00725-0.89568 0.96862
   5  -5   0 947.016 119.557   7 0.49808-0.10915 0.07484-0.49178 0.94190-0.86900
  -5  -5   0 777.561 147.410   4 0.03082-0.41997-0.41867 0.00156 0.89733-0.97014
  -6  -5   0 27.3617 60.2500   8-0.34695-0.11957-0.08096-0.33550-0.98283 0.89550
   6   5   0 149.839 68.2591   7 0.37381 0.09273 0.05095 0.36580 0.97973-0.89232
   6  -5   0 111.925 49.1722   7 0.48392-0.01721 0.07210-0.48907 0.94734-0.85986
   6  -5   0 28.7892 44.4663   9-0.00929 0.47586-0.48022 0.06322-0.86331 0.95085
  -6   5   0 -17.881 60.8678   2-0.31996-0.14636 0.11130 0.30518-0.98415 0.89691
  -6  -5   0 69.1011 65.5531   4 0.00465-0.47161-0.47493 0.05784 0.86532-0.95267
   6   5   0 19.9950 51.3484   6 0.25820 0.20873 0.18053 0.23652 0.98064-0.89306
   6  -5   0 197.297 93.2185   3 0.32982 0.13715-0.10056-0.31649 0.98383-0.89632
   7  -5   0 405.541 137.080   9 0.02017 0.52420-0.53787 0.12081-0.82408 0.92625
   7  -5   0 377.110 112.559   3 0.34475 0.20005-0.11390-0.30315 0.97984-0.87774
  -7   5   0 591.947 137.728   2-0.33341-0.21062 0.12834 0.28812-0.97992 0.87815
   7   5   0 402.899 118.728   7 0.39021 0.15412 0.05408 0.36266 0.97596-0.87397
   7   5   0 377.479 121.196   6 0.26828 0.27645 0.21348 0.20353 0.97301-0.87084
  -7  -5   0 240.199 105.438   4-0.02363-0.52113-0.53317 0.11612 0.82630-0.92818
  -7  -5   0 286.359 113.887   8-0.36425-0.18002-0.08794-0.32852-0.97896 0.87707
   8  -5   0 146.747 93.9116   9 0.05151 0.57068-0.59624 0.17913-0.77731 0.89411
  -8  -5   0 283.094 128.087   8-0.38579-0.23625-0.09666-0.31980-0.97353 0.85708
   8   5   0 -17.123 83.1946   6 0.28037 0.34212 0.25415 0.16279 0.96177-0.84500
  -8   5   0 89.2663 60.6505   2-0.35021-0.27154 0.14986 0.26660-0.97383 0.85753
   8   5   0 253.033 131.659   7 0.41159 0.21053 0.05817 0.35856 0.97051-0.85394
   8  -5   0 -4.9679 55.3554   3 0.36337 0.25924-0.13065-0.28640 0.97417-0.85748
  -9   5   0 123.114 70.6686   2-0.36970-0.32976 0.17514 0.24133-0.96559 0.83477
   9  -5   0 -124.23 108.056   3 0.38488 0.31557-0.15017-0.26688 0.96664-0.83537
  -9  -5   0 61.7001 99.7961   8-0.41042-0.28939-0.10666-0.30980-0.96648 0.83548
   9   5   0 -56.963 90.3865   7 0.43645 0.26346 0.06294 0.35378 0.96339-0.83224
  10   5   0 -122.28 113.278   7 0.46384 0.31386 0.06822 0.34848 0.95453-0.80880
 -10   5   0 96.9038 98.6009   5-0.42603-0.35248 0.13924 0.27774-0.95790 0.81181
  10  -5   0 234.198 152.461   3 0.40862 0.36964-0.17197-0.24507 0.95702-0.81117
 -10  -5   0 16.2389 131.805   8-0.43736-0.34022-0.11767-0.29878-0.95770 0.81213
 -10   5   0 66.7207 114.802   2-0.39134-0.38585 0.20365 0.21285-0.95484 0.80950
   0  -6   0 1326.75 133.367   3 0.49136-0.49146-0.25010-0.25018 0.91154-0.91149
   0   6   0 1471.84 178.899   6 0.27913-0.27938 0.24993 0.25028 0.96303-0.96291
   0  -6   0 1271.79 167.404   9-0.11536 0.11538-0.25008-0.24993-0.96592 0.96596
   0   6   0 1561.67 125.559   5-0.60103 0.60116 0.24986 0.24994-0.85829 0.85821
   0  -6   0 1275.15 166.148   4 0.10356-0.10360-0.25029-0.25037 0.96498-0.96496
  -1  -6   0 197.264 60.7610   4 0.09499-0.17286-0.27110-0.22956 0.95869-0.97325
  -1  -6   0 220.231 52.9273   3 0.58878-0.66672-0.34770-0.15251 0.82703-0.84151
  -1   6   0 233.619 67.0396   2-0.38574 0.30792 0.19622 0.30389-0.95779 0.94330
  -1   6   0 138.341 61.8298   1-0.15359 0.07607 0.23221 0.26782-0.97223 0.95771
   1   6   0 219.528 61.2878   2-0.48374 0.56141 0.33147 0.16888-0.88627 0.90094
  -1   6   0 37.1752 56.7994   6 0.29395-0.37204 0.30163 0.19840 0.94599-0.96040
  -1  -6   0 81.7919 39.2955   9-0.12078 0.04307-0.23732-0.26266-0.96946 0.95494
  -1   6   0 180.383 54.5948   5-0.49117 0.41349 0.17951 0.32044-0.92927 0.91463
  -1  -6   0 163.479 50.4517   8-0.56045 0.48257-0.16884-0.33100-0.90142 0.88693
   1   6   0 158.636 70.7208   6 0.26852-0.19089 0.21426 0.28608 0.97282-0.95813
   1  -6   0 158.920 71.8863   4 0.10794-0.03016-0.23957-0.26110 0.96801-0.95341
   1  -6   0 184.260 69.4032   9-0.10569 0.18344-0.27258-0.22746-0.95918 0.97379
   1  -6   0 104.056 40.6824   3 0.42768-0.34993-0.18965-0.31069 0.94827-0.93366
   2  -6   0 1453.75 184.036   9-0.09237 0.24787-0.30304-0.19705-0.94900 0.97818
   2  -6   0 1249.10 152.829   3 0.38850-0.23290-0.15349-0.34690 0.96526-0.93607
  -2  -6   0 1235.18 133.509   8-0.46563 0.31004-0.12929-0.37052-0.94721 0.91812
   2   6   0 1268.18 173.019   6 0.26196-0.10645 0.19271 0.30771 0.97797-0.94871
  -2   6   0 1383.49 167.202   6 0.31279-0.46869 0.37129 0.12855 0.91737-0.94627
  -2  -6   0 1313.17 178.781   4 0.08280-0.23851-0.30021-0.20043 0.94897-0.97809
  -2   6   0 1445.75 173.773   2-0.35990 0.20436 0.16239 0.33762-0.96990 0.94085
   2   6   0 1308.48 117.527   7 0.58582-0.43044 0.09199 0.40806 0.90068-0.87147
  -2   6   0 1171.47 163.895   1-0.15492-0.00034 0.22601 0.27394-0.97373 0.94466
  -2  -6   0 1400.98 165.360   9-0.12110-0.03435-0.23657-0.26340-0.96966 0.94058
   2  -6   0 1143.28 151.480   4 0.10731 0.04830-0.24112-0.25953 0.96758-0.93841
   2   6   0 1453.49 147.391   2-0.56056 0.71604 0.44873 0.05175-0.78865 0.81794
   3   6   0 47.3600 42.5614   7 0.49385-0.26070 0.07402 0.42605 0.94356-0.89982
   3  -6   0 -63.410 56.4765   9-0.07588 0.30912-0.33997-0.16017-0.93499 0.97874
   3  -6   0 -0.4433 34.8322   3 0.36659-0.13314-0.13355-0.36686 0.97311-0.92934
  -3   6   0 47.7812 49.7922   6 0.33479-0.56846 0.46035 0.03926 0.87035-0.91370
   3  -6   0 2.01740 33.0294   4 0.10046 0.13297-0.25786-0.24277 0.96276-0.91901
  -3  -6   0 10.7810 41.1873   4 0.06745-0.30099-0.33615-0.16448 0.93540-0.97909
   3   6   0 28.8652 52.5207   6 0.25913-0.02575 0.18355 0.31692 0.98000-0.93615
  -3  -6   0 -11.975 44.9651   8-0.41750 0.18419-0.10955-0.39023-0.96428 0.92064
  -3   6   0 -7.0919 63.8117   2-0.34524 0.11199 0.14347 0.35646-0.97573 0.93213
  -3  -6   0 -18.676 56.3112   9-0.11506-0.11812-0.25079-0.24920-0.96572 0.92209
  -3   6   0 7.27269 47.9388   1-0.15347-0.07951 0.23278 0.26711-0.97210 0.92849
   4   6   0 923.417 139.327   7 0.45155-0.14063 0.06585 0.43425 0.95864-0.90034
  -4  -6   0 861.511 159.309   4 0.04928-0.36063-0.37765-0.12295 0.91751-0.97575
   4  -6   0 741.486 136.430   3 0.35698-0.04569-0.12489-0.37555 0.97620-0.91785
   4  -6   0 794.159 152.721   9-0.05655 0.36755-0.38211-0.11809-0.91665 0.97499
  -4  -6   0 1013.12 129.609   9-0.10065-0.21028-0.28419-0.21582-0.95545 0.89727
  -4   6   0 949.101 134.018   6 0.35793-0.66929 0.56904-0.06965 0.79428-0.85200
  -4   6   0 802.698 142.598   2-0.33926 0.02832 0.13580 0.36407-0.97791 0.91977
   4   6   0 880.531 158.671   6 0.25967 0.05159 0.18527 0.31523 0.97962-0.92119
  -4  -6   0 1004.92 152.229   8-0.39553 0.08449-0.10061-0.39917-0.97085 0.91265
   5   6   0 31.4517 42.6564   7 0.43524-0.04654 0.06271 0.43739 0.96375-0.89090
   5  -6   0 40.2414 47.4958   3 0.35635 0.03278-0.12432-0.37612 0.97640-0.90346
  -5   6   0 44.2641 65.0305   2-0.34005-0.04859 0.13682 0.36301-0.97762 0.90494
   5   6   0 29.8168 66.2309   6 0.26315 0.12595 0.19661 0.30388 0.97708-0.90405
   5  -6   0 -6.2299 53.5213   9-0.03468 0.42345-0.42836-0.07190-0.89345 0.96639
  -5  -6   0 114.550 74.0945   8-0.38954 0.00075-0.09817-0.40159-0.97252 0.89976
  -5  -6   0 3.26556 57.2826   4 0.02856-0.41774-0.42361-0.07696 0.89473-0.96752
   6   6   0 267.512 116.925   6 0.26921 0.19774 0.21653 0.28392 0.97224-0.88461
  -6   6   0 235.824 110.409   2-0.34620-0.12014 0.14471 0.35510-0.97537 0.88816
   6   6   0 177.817 79.1497   7 0.43418 0.03230 0.06251 0.43760 0.96407-0.87665
   6  -6   0 130.411 81.2101   3 0.36242 0.10454-0.12979-0.37066 0.97448-0.88694
   6  -6   0 350.743 138.378   9-0.01051 0.47706-0.47776-0.02257-0.86484 0.95239
  -6  -6   0 202.647 98.6232   8-0.39397-0.07257-0.09997-0.39979-0.97129 0.88398
  -6  -6   0 165.722 90.8538   4 0.00553-0.47251-0.47306-0.02747 0.86646-0.95381
   7   6   0 236.874 111.508   6 0.27747 0.26729 0.24426 0.25615 0.96469-0.86246
  -7  -6   0 146.687 107.329   4-0.01964-0.52515-0.52512 0.02461 0.83208-0.93396
   7   6   0 51.3450 57.2199   7 0.44282 0.10145 0.06417 0.43593 0.96142-0.85943
  -7   6   0 -19.352 62.2238   2-0.35661-0.18743 0.15812 0.34166-0.97127 0.86953
   7  -6   0 219.993 113.729   9 0.01579 0.52856-0.52945 0.02905-0.83022 0.93238
   7  -6   0 35.5372 57.0211   3 0.37361 0.17119-0.13992-0.36054 0.97072-0.86860
  -7  -6   0 35.7356 72.8355   8-0.40556-0.13873-0.10468-0.39507-0.96795 0.86607
   8  -6   0 545.970 168.373   3 0.38876 0.23386-0.15373-0.34673 0.96516-0.84845
   8   6   0 808.275 205.723   7 0.45801 0.16406 0.06709 0.43301 0.95651-0.83994
  -8  -6   0 621.302 195.707   8-0.42229-0.19975-0.11150-0.38825-0.96275 0.84632
  -8  -6   0 565.632 174.444   4-0.04681-0.57579-0.57896 0.07849 0.79085-0.90726
   8   6   0 690.571 184.674   6 0.28759 0.33495 0.27915 0.22117 0.95382-0.83698
  -8   6   0 641.272 161.979   2-0.37046-0.25129 0.17614 0.32364-0.96524 0.84898
   8  -6   0 961.754 223.217   9 0.04404 0.57809-0.58261 0.08215-0.78894 0.90574
   9  -6   0 16.1804 104.593   3 0.40705 0.29339-0.17052-0.32993 0.95770-0.82641
   9   6   0 -87.580 131.493   7 0.47782 0.22205 0.07092 0.42917 0.94959-0.81844
  -9  -6   0 295.186 160.534   8-0.44282-0.25698-0.11990-0.37985-0.95578 0.82479
  -9   6   0 -10.903 93.3878   5-0.42822-0.27238 0.14058 0.35976-0.95708 0.82558
  -9   6   0 96.6288 99.1960   2-0.38711-0.31236 0.19802 0.30176-0.95708 0.82630
  10   6   0 7.41813 116.552   7 0.50100 0.27665 0.07541 0.42467 0.94074-0.79499
   0  -7   0 39.1068 43.5324   4 0.08626-0.08630-0.29200-0.29210 0.95182-0.95179
   0  -7   0 3.98436 27.6665   3 0.53384-0.53398-0.29178-0.29189 0.87958-0.87950
   0   7   0 34.9438 45.2399   6 0.29112-0.29141 0.29155 0.29202 0.94958-0.94939
   0   7   0 22.7454 54.7075   2-0.45600 0.45587 0.29189 0.29171-0.91127 0.91139
   0  -7   0 -31.057 71.8592   9-0.09734 0.09737-0.29177-0.29158-0.95291 0.95298
   1  -7   0 549.005 102.171   3 0.47435-0.39664-0.23374-0.34998 0.92255-0.90792
  -1   7   0 395.061 93.7369   6 0.30373-0.38188 0.33717 0.24624 0.93223-0.94656
   1  -7   0 475.017 117.722   9-0.08977 0.16754-0.30894-0.27443-0.94689 0.96152
  -1   7   0 453.926 99.4584   2-0.41928 0.34143 0.24116 0.34232-0.93828 0.92382
   1  -7   0 436.769 110.612   4 0.08906-0.01128-0.28532-0.29878 0.95408-0.93947
  -1  -7   0 522.734 120.146   9-0.10095 0.02326-0.28348-0.29984-0.95568 0.94119
   1   7   0 420.665 96.7376   2-0.50630 0.58394 0.36458 0.21917-0.86248 0.87720
   1   7   0 566.694 127.834   6 0.28184-0.20426 0.25921 0.32450 0.96023-0.94548
  -1  -7   0 536.763 128.836   4 0.07960-0.15748-0.30779-0.27631 0.94625-0.96079
  -2  -7   0 1573.56 216.701   4 0.06956-0.22527-0.33126-0.25283 0.93735-0.96646
  -2  -7   0 1510.14 194.469   9-0.09992-0.05549-0.28584-0.29749-0.95490 0.92586
   2  -7   0 1331.68 206.961   9-0.07878 0.23428-0.33355-0.24987-0.93756 0.96676
   2  -7   0 1457.09 183.173   3 0.43506-0.27950-0.19656-0.38722 0.94462-0.91541
  -2   7   0 1476.95 165.181   5-0.49314 0.33766 0.18074 0.40260-0.92827 0.89901
  -2   7   0 1570.78 202.978   6 0.31947-0.47545 0.39734 0.18586 0.90489-0.93371
   2   7   0 1622.43 225.698   6 0.27586-0.12040 0.23882 0.34499 0.96625-0.93693
  -2  -7   0 1521.60 159.139   8-0.55184 0.39621-0.16521-0.41789-0.90632 0.87728
   2  -7   0 1191.80 175.716   4 0.08733 0.06829-0.28946-0.29462 0.95269-0.92351
  -2   7   0 1142.13 167.731   2-0.39423 0.23866 0.20749 0.37589-0.95327 0.92426
   3  -7   0 3094.35 309.834   9-0.06475 0.29800-0.36438-0.21909-0.92468 0.96846
   3   7   0 3120.09 310.666   6 0.27298-0.03964 0.22913 0.35473 0.96893-0.92503
  -3   7   0 3238.16 293.951   2-0.37876 0.14549 0.18701 0.39628-0.96130 0.91773
  -3  -7   0 3469.17 278.823   9-0.09323-0.13993-0.30110-0.28223-0.94969 0.90609
   3  -7   0 2878.00 270.054   3 0.41096-0.17755-0.17414-0.40967 0.95600-0.91221
  -3  -7   0 3117.76 312.433   4 0.05654-0.29006-0.36122-0.22285 0.92489-0.96856
  -3   7   0 2752.73 237.452   5-0.45416 0.22084 0.15652 0.42692-0.94660 0.90275
  -3  -7   0 3194.41 257.994   8-0.49357 0.26023-0.14084-0.44223-0.93549 0.89187
  -3   7   0 3884.80 310.620   6 0.33772-0.57147 0.47306 0.10991 0.86259-0.90587
   3  -7   0 2607.34 244.572   4 0.08009 0.15334-0.30662-0.27744 0.94668-0.90291
   4  -7   0 25.9012 52.0089   4 0.06587 0.24537-0.33980-0.24424 0.93393-0.87559
  -4   7   0 -52.765 65.7255   2-0.37105 0.06007 0.17690 0.40633-0.96497 0.90686
  -4   7   0 69.4871 55.9062   6 0.35707-0.66855 0.56459 0.01816 0.79786-0.85551
   4  -7   0 29.6819 56.7219   3 0.39827-0.08701-0.16244-0.42139 0.96139-0.90301
   4   7   0 -31.467 59.8312   6 0.27296 0.03827 0.22905 0.35483 0.96895-0.91046
  -4  -7   0 -21.369 72.8450   4 0.04080-0.35216-0.39664-0.18741 0.90849-0.96672
   4  -7   0 88.5747 101.459   9-0.04799 0.35899-0.40039-0.18313-0.90788 0.96624
  -4  -7   0 -42.021 60.6028   8-0.46239 0.15132-0.12795-0.45511-0.94848 0.89030
  -4  -7   0 45.5618 55.8162   9-0.07929-0.23160-0.33239-0.25098-0.93802 0.87988
  -4   7   0 15.8379 42.1350   5-0.43306 0.12187 0.14354 0.43998-0.95522 0.89678
  -5  -7   0 21.7197 65.8431   8-0.44847 0.05967-0.12222-0.46082-0.95373 0.88100
   5  -7   0 149.943 72.9370   3 0.39422-0.00511-0.15873-0.42512 0.96302-0.89006
  -5  -7   0 236.799 94.4032   4 0.02260-0.41178-0.43659-0.14745 0.88770-0.96049
  -5   7   0 17.7182 65.3747   2-0.36962-0.01906 0.17502 0.40816-0.96563 0.89298
   5   7   0 27.8370 76.2590   6 0.27551 0.11358 0.23762 0.34626 0.96659-0.89349
   5  -7   0 -74.206 91.2353   9-0.02875 0.41751-0.44065-0.14294-0.88672 0.95968
  -5   7   0 141.891 82.3218   5-0.42442 0.03536 0.13825 0.44533-0.95850 0.88545
  -6   7   0 683.253 160.786   5-0.42476-0.04218 0.13846 0.44516-0.95838 0.87072
   6  -7   0 558.812 137.490   3 0.39685 0.07010-0.16114-0.42272 0.96196-0.87442
  -6  -7   0 908.184 193.888   8-0.44618-0.02036-0.12128-0.46176-0.95457 0.86727
  -6  -7   0 759.768 185.583   4 0.00212-0.46913-0.48022-0.10378 0.86203-0.94936
   6   7   0 776.874 178.084   6 0.28034 0.18661 0.25404 0.32982 0.96180-0.87410
  -6   7   0 685.356 158.457   2-0.37328-0.09309 0.17982 0.40332-0.96393 0.87676
   6  -7   0 739.326 182.691   9-0.00722 0.47376-0.48433-0.09932-0.86072 0.94828
   7  -7   0 33.1935 84.2254   9 0.01642 0.52789-0.53066-0.05306-0.82934 0.93152
  -7  -7   0 101.336 97.7886   4-0.02047-0.52435-0.52679-0.05717 0.83089-0.93276
  -7   7   0 20.1861 50.0163   2-0.38112-0.16295 0.19011 0.39300-0.96014 0.85844
   7  -7   0 3.65672 77.3415   3 0.40469 0.14010-0.16834-0.41551 0.95871-0.85657
   7   7   0 40.8417 72.2784   6 0.28716 0.25761 0.27765 0.30615 0.95432-0.85201
  -7   7   0 72.5531 73.8966   5-0.43175-0.11306 0.14274 0.44092-0.95573 0.85345
  -7  -7   0 16.8664 99.1481   8-0.45206-0.09223-0.12370-0.45934-0.95241 0.85056
   7   7   0 75.7066 75.7344   7 0.50338 0.04085 0.07587 0.50758 0.93978-0.83777
   8  -7   0 422.700 182.639   9 0.04204 0.58004-0.57894-0.00484-0.79199 0.90880
  -8   7   0 391.460 159.034   5-0.44380-0.17889 0.15013 0.43356-0.95095 0.83404
  -8  -7   0 368.374 147.004   4-0.04506-0.57756-0.57557-0.00836 0.79363-0.91003
   8   7   0 217.336 98.4579   6 0.29571 0.32686 0.30795 0.27577 0.94366-0.82674
  -8   7   0 283.820 105.778   2-0.39238-0.22938 0.20504 0.37808-0.95428 0.83806
  -8  -7   0 379.378 168.424   8-0.46389-0.15815-0.12857-0.45447-0.94789 0.83149
   8   7   0 553.124 180.743   7 0.51181 0.11021 0.07751 0.50594 0.93632-0.81973
   8  -7   0 413.036 166.058   3 0.41666 0.20595-0.17942-0.40444 0.95344-0.83672
   9   7   0 91.6425 75.8938   7 0.52605 0.17375 0.08028 0.50317 0.93020-0.79903
   9   7   0 95.3738 96.8630   6 0.30572 0.39464 0.34456 0.23906 0.92914-0.79759
  -9  -7   0 67.8466 115.779   8-0.48018-0.21961-0.13529-0.44774-0.94128 0.81032
   0  -8   0 4846.79 387.150   9-0.07881 0.07887-0.33346-0.33321-0.93760 0.93770
   0  -8   0 4866.41 387.232   4 0.06850-0.06855-0.33371-0.33384 0.93638-0.93633
   0   8   0 5707.24 368.236   2-0.48522 0.48506 0.33361 0.33338-0.88482 0.88499
   0   8   0 5391.13 404.054   6 0.30264-0.30300 0.33317 0.33377 0.93386-0.93358
  -1   8   0 343.693 98.7290   2-0.45141 0.37353 0.28547 0.38140-0.91500 0.90059
   1  -8   0 289.103 86.3342   3 0.51935-0.44167-0.27742-0.38969 0.89124-0.87656
   1   8   0 331.602 123.409   6 0.29445-0.21691 0.30340 0.36367 0.94534-0.93052
  -1   8   0 341.928 110.910   6 0.31355-0.39176 0.37422 0.29255 0.91601-0.93025
   1   8   0 490.169 117.785   2-0.52966 0.60728 0.39994 0.26718-0.83395 0.84873
  -1  -8   0 339.875 125.488   4 0.06334-0.14123-0.34562-0.32192 0.93153-0.94606
  -1  -8   0 303.909 86.1783   9-0.08103 0.00336-0.32854-0.33813-0.93953 0.92508
   1  -8   0 338.466 105.169   9-0.07291 0.15070-0.34652-0.32018-0.93231 0.94697
   1  -8   0 357.758 109.909   4 0.07007 0.00771-0.33007-0.33746 0.93782-0.92320
  -2   8   0 40.7303 58.3419   2-0.42726 0.27165 0.25204 0.41471-0.93294 0.90397
  -2  -8   0 -41.726 52.3607   4 0.05502-0.21072-0.36466-0.30287 0.92337-0.95246
  -2  -8   0 -48.758 86.7070   9-0.07895-0.07645-0.33316-0.33350-0.93771 0.90871
   2   8   0 -9.1382 61.0543   6 0.28897-0.13355 0.28397 0.38320 0.95220-0.92280
   2  -8   0 -100.18 72.1840   9-0.06377 0.21928-0.36652-0.30022-0.92373 0.95296
   2  -8   0 -7.2527 56.0568   4 0.06747 0.08815-0.33611-0.33141 0.93542-0.90622
  -2   8   0 77.7670 57.5616   6 0.32695-0.48300 0.42746 0.23910 0.88917-0.91790
   2  -8   0 31.4743 50.6195   3 0.48042-0.32488-0.23955-0.42760 0.91873-0.88950
  -3   8   0 262.291 102.900   2-0.41135 0.17804 0.23043 0.43624-0.94330 0.89978
   3  -8   0 284.660 113.395   4 0.05988 0.17355-0.35356-0.31392 0.92819-0.88442
  -3   8   0 331.544 98.2659   5-0.51422 0.28094 0.19400 0.47275-0.91695 0.87306
  -3  -8   0 422.862 121.448   9-0.07171-0.16142-0.34916-0.31752-0.93121 0.88765
  -3  -8   0 191.041 77.0788   4 0.04385-0.27739-0.38984-0.27769 0.91178-0.95543
  -3   8   0 331.129 110.587   6 0.34234-0.57617 0.49358 0.17275 0.84947-0.89264
   3   8   0 164.486 91.2606   6 0.28611-0.05280 0.27397 0.39327 0.95554-0.91156
   3  -8   0 386.843 123.011   9-0.05172 0.28497-0.39245-0.27435-0.91175 0.95555
   3  -8   0 340.830 122.079   3 0.45484-0.22144-0.21517-0.45203 0.93408-0.89026
   4  -8   0 64.1461 52.9286   3 0.43974-0.12850-0.20093-0.46628 0.94223-0.88383
   4   8   0 122.558 91.7463   6 0.28570 0.02550 0.27255 0.39472 0.95600-0.89743
  -4  -8   0 155.618 84.9700   4 0.03009-0.34146-0.42027-0.24723 0.89649-0.95471
  -4   8   0 200.790 112.171   5-0.48846 0.17732 0.17781 0.48902-0.93064 0.87216
   4  -8   0 42.3043 52.2798   9-0.03706 0.34805-0.42342-0.24343-0.89609 0.95448
  -4   8   0 46.7721 75.4615   2-0.40238 0.09137 0.21837 0.44822-0.94868 0.89061
  -5  -8   0 396.335 119.415   8-0.51149 0.12267-0.14829-0.51803-0.92722 0.85452
   5   8   0 207.372 91.8872   6 0.28754 0.10153 0.27897 0.38831 0.95388-0.88071
   5  -8   0 321.275 138.887   9-0.01998 0.40872-0.45863-0.20828-0.87642 0.94940
  -5  -8   0 289.448 126.453   4 0.01396-0.40316-0.45518-0.21231 0.87716-0.94992
   5  -8   0 193.566 99.2869   3 0.43287-0.04377-0.19450-0.47274 0.94572-0.87273
  -5   8   0 228.839 111.502   2-0.39918 0.01048 0.21409 0.45244-0.95051 0.87791
  -5   8   0 423.707 133.875   5-0.47508 0.08608 0.16948 0.49742-0.93716 0.86407
  -6  -8   0 618.486 167.185   4-0.00440-0.46263-0.49383-0.17362 0.85334-0.94066
  -6   8   0 910.820 202.711   2-0.40082-0.06559 0.21627 0.45022-0.94958 0.86245
   6   8   0 1020.08 208.092   6 0.29141 0.17553 0.29260 0.37465 0.94922-0.86143
  -6  -8   0 868.555 189.043   8-0.50273 0.03618-0.14465-0.52167-0.93134 0.84408
   6  -8   0 683.686 194.417   9-0.00066 0.46717-0.49737-0.16960-0.85230 0.93989
   6  -8   0 703.948 190.667   3 0.43252 0.03441-0.19418-0.47307 0.94589-0.85832
  -6   8   0 803.668 172.587   5-0.47093 0.00405 0.16689 0.50006-0.93911 0.85140
   7   8   0 114.872 116.024   6 0.29709 0.24769 0.31291 0.35429 0.94181-0.83940
  -7  -8   0 69.6707 90.8999   4-0.02483-0.52001-0.53559-0.13184 0.82454-0.92639
   7  -8   0 -47.056 119.456   3 0.43740 0.10737-0.19874-0.46852 0.94343-0.84126
   7  -8   0 44.7227 84.9998   9 0.02075 0.52352-0.53897-0.12807-0.82327 0.92547
  -7  -8   0 231.374 116.812   8-0.50299-0.04131-0.14475-0.52156-0.93122 0.82941
  -7   8   0 46.0856 98.3884   2-0.40646-0.13762 0.22385 0.44261-0.94627 0.84462
  -7   8   0 16.4907 98.8073   5-0.47375-0.07099 0.16865 0.49836-0.93779 0.83546
  -8   8   0 -52.921 109.932   5-0.48198-0.14064 0.17377 0.49327-0.93385 0.81688
   8  -8   0 65.0971 100.046   9 0.04415 0.57791-0.58280-0.08430-0.78877 0.90561
   8   8   0 42.1985 93.8095   6 0.30434 0.31826 0.33947 0.32765 0.93128-0.81425
  -8  -8   0 258.122 151.269   4-0.04724-0.57542-0.57980-0.08760 0.79016-0.90654
  -8  -8   0 209.874 147.491   8-0.50992-0.11213-0.14764-0.51868-0.92797 0.81160
   0   9   0 -37.886 74.1815   6 0.31369-0.31410 0.37478 0.37552 0.91575-0.91536
   0  -9   0 9.45629 82.6291   9-0.05978 0.05986-0.37517-0.37485-0.91985 0.91999
   0  -9   0 -8.1765 53.0468   4 0.05028-0.05031-0.37541-0.37557 0.91854-0.91847
   1   9   0 34.5148 84.1965   6 0.30640-0.22891 0.34709 0.40336 0.92807-0.91314
   1  -9   0 8.21145 76.0782   4 0.05083 0.02697-0.37417-0.37680 0.91910-0.90446
  -1  -9   0 -36.074 74.8770   9-0.06084-0.01680-0.37288-0.37713-0.92089 0.90648
  -1   9   0 53.1747 86.5952   6 0.32322-0.40149 0.41227 0.33786 0.89727-0.91139
   1  -9   0 -39.788 72.8725   9-0.05524 0.13304-0.38493-0.36509-0.91533 0.93003
  -1   9   0 76.9490 91.7216   2-0.48227 0.40435 0.32934 0.42091-0.88771 0.87337
  -1  -9   0 -19.863 72.1032   4 0.04635-0.12423-0.38424-0.36674 0.91444-0.92894
  -2   9   0 99.0186 80.7459   2-0.45907 0.30344 0.29622 0.45391-0.90871 0.87980
   2  -9   0 99.4858 63.4110   4 0.04749 0.10813-0.38168-0.36927 0.91564-0.88641
   2  -9   0 208.103 120.229   9-0.04761 0.20314-0.40120-0.34887-0.90748 0.93675
   2   9   0 113.067 88.8170   6 0.30136-0.14600 0.32849 0.42206 0.93575-0.90625
   2  -9   0 48.1015 71.3936   3 0.52451-0.36900-0.28252-0.46803 0.88718-0.85790
  -2  -9   0 194.348 115.940   4 0.03942-0.19513-0.39970-0.35129 0.90698-0.93605
  -2   9   0 0.29451 57.4798   6 0.33476-0.49087 0.46021 0.28972 0.87044-0.89904
   3  -9   0 476.176 139.029   4 0.03957 0.19387-0.39938-0.35155 0.90714-0.86334
   3   9   0 561.514 159.428   6 0.29858-0.06530 0.31829 0.43233 0.93975-0.89567
  -3   9   0 592.080 160.471   6 0.34786-0.58176 0.51908 0.23063 0.83208-0.87513
  -3  -9   0 521.130 167.135   4 0.02979-0.26333-0.42093-0.33004 0.89614-0.93978
  -3  -9   0 459.875 153.343   9-0.05014-0.18296-0.39582-0.35421-0.91012 0.86661
   3  -9   0 411.219 131.468   9-0.03722 0.27047-0.42309-0.32703-0.89627 0.94011
   3  -9   0 459.336 140.594   3 0.49802-0.26466-0.25655-0.49403 0.90696-0.86311
  -3   9   0 264.543 88.4457   2-0.44301 0.20967 0.27375 0.47628-0.92156 0.87809
   4  -9   0 385.797 136.065   3 0.48108-0.16986-0.24019-0.51042 0.91831-0.85988
   4   9   0 449.111 144.765   6 0.29790 0.01327 0.31584 0.43481 0.94069-0.88201
   4  -9   0 394.625 138.085   9-0.02428 0.33528-0.44983-0.30034-0.88152 0.93995
  -4  -9   0 320.802 153.102   4 0.01767-0.32905-0.44721-0.30375 0.88175-0.93994
  -4   9   0 428.094 138.979   2-0.43315 0.12210 0.26012 0.48983-0.92882 0.87082
  -5   9   0 131.835 97.8644   2-0.42857 0.03984 0.25385 0.49604-0.93203 0.85949
   5   9   0 60.7143 97.8708   6 0.29920 0.08986 0.32056 0.43009 0.93887-0.86559
   5  -9   0 251.615 146.076   9-0.00901 0.39776-0.48075-0.26947-0.86298 0.93600
  -5  -9   0 10.3212 91.1161   4 0.00326-0.39247-0.47784-0.27310 0.86351-0.93626
  -5   9   0 196.978 113.252   5-0.52724 0.13830 0.20223 0.54797-0.90944 0.83629
   5  -9   0 141.335 120.813   3 0.47189-0.08283-0.23138-0.51925 0.92407-0.85105
  -6   9   0 58.0327 76.0702   5-0.51904 0.05223 0.19703 0.55323-0.91422 0.82645
  -6  -9   0 178.770 161.173   4-0.01331-0.45373-0.51220-0.23871 0.84108-0.92837
   6   9   0 257.716 163.713   6 0.30231 0.16462 0.33195 0.41869 0.93436-0.84646
   6  -9   0 384.896 181.379   9 0.00843 0.45806-0.51522-0.23507-0.84026 0.92789
  -6   9   0 112.654 97.0682   2-0.42852-0.03790 0.25378 0.49606-0.93207 0.84500
   6  -9   0 97.4084 77.0974   3 0.46901-0.00209-0.22864-0.52202 0.92583-0.83822
  -7   9   0 56.6679 117.996   5-0.51803-0.02665 0.19639 0.55393-0.91480 0.81241
   0 -10   0 95.6681 59.9612   4 0.03153-0.03157-0.41711-0.41731 0.89815-0.89805
   0  10   0 115.767 94.9441   6 0.32424-0.32469 0.41638 0.41728 0.89511-0.89458
   0 -10   0 121.797 96.8944   9-0.04019 0.04029-0.41686-0.41648-0.89953 0.89973
   1 -10   0 296.667 127.253   4 0.03121 0.04659-0.41783-0.41659 0.89777-0.88310
  -1 -10   0 56.7266 101.887   4 0.02866-0.10652-0.42341-0.41102 0.89483-0.90931
  -1 -10   0 350.220 168.670   9-0.04025-0.03736-0.41672-0.41662-0.89960 0.88525
   1 -10   0 151.545 112.440   9-0.03680 0.11463-0.42395-0.40942-0.89581 0.91057
  -1  10   0 177.748 79.3697   6 0.33260-0.41092 0.45100 0.38250 0.87588-0.88986
   1  10   0 319.276 133.105   6 0.31772-0.24028 0.39041 0.44340 0.90830-0.89324
  -2 -10   0 201.280 123.222   4 0.02292-0.17862-0.43589-0.39853 0.88808-0.91713
  -2  10   0 75.1194 61.1728   6 0.34260-0.49876 0.49473 0.33856 0.84871-0.87717
  -2  10   0 147.760 93.4687   2-0.48971 0.33403 0.34014 0.49338-0.88031 0.85148
  -2 -10   0 318.851 146.532   9-0.03652-0.11882-0.42455-0.40882-0.89549 0.86659
   2 -10   0 469.400 183.196   9-0.03047 0.18602-0.43710-0.39629-0.88869 0.91801
   2  10   0 137.957 100.168   6 0.31311-0.15777 0.37253 0.46138 0.91679-0.88716
   2 -10   0 133.890 103.927   4 0.02722 0.12840-0.42654-0.40785 0.89317-0.86392
   3  10   0 -51.178 119.726   6 0.31041-0.07718 0.36223 0.47175 0.92147-0.87726
  -3 -10   0 -168.23 118.878   4 0.01459-0.24812-0.45383-0.38060 0.87794-0.92154
  -3  10   0 101.865 89.7383   2-0.47372 0.24034 0.31703 0.51637-0.89581 0.85242
   3 -10   0 -201.40 121.832   9-0.02147 0.25475-0.45560-0.37784-0.87819 0.92209
   4 -10   0 48.7230 70.7720   3 0.52204-0.21085-0.28007-0.55393 0.88914-0.83066
  -4  10   0 48.2526 76.5424   2-0.46325 0.15217 0.30212 0.53120-0.90515 0.84722
   5 -10   0 73.2107 126.709   3 0.51098-0.12194-0.26920-0.56482 0.89760-0.82454
   0  11   0 -89.288 79.2132   6 0.33425-0.33474 0.45799 0.45905 0.87176-0.87106
   0 -11   0 96.2199 128.024   9-0.02001 0.02015-0.45857-0.45812-0.87645 0.87672
   0 -11   0 -30.453 77.1792   4 0.01225-0.01227-0.45881-0.45905 0.87503-0.87490
  -1 -11   0 266.040 123.382   9-0.01919-0.05839-0.46023-0.45647-0.87547 0.86119
  -1  11   0 236.842 135.111   6 0.34159-0.41996 0.49022 0.42664 0.85167-0.86548
   1 -11   0 295.898 135.647   4 0.01115 0.06666-0.46116-0.45668 0.87364-0.85894
 -12   0   1 1085.08 246.774   8-0.55529-0.35818-0.16667 0.16671-0.90438 0.83529
 -12   0   1 1255.09 245.268   5-0.55396-0.35996 0.21929-0.21949-0.89268 0.82333
  11   0  -1 1.13438 89.3492   7 0.52918 0.30651 0.08089-0.08116 0.92881-0.87421
 -11   0   1 0.33319 64.4991   8-0.52808-0.30762-0.15523 0.15527-0.91903 0.86452
 -11   0   1 64.8214 70.6369   5-0.52692-0.30915 0.20203-0.20220-0.90963 0.85493
  10   0  -1 54.4901 57.7664   7 0.50390 0.25401 0.07597-0.07621 0.93957-0.89955
 -10   0   1 157.603 86.2154   5-0.50185-0.25638 0.18620-0.18636-0.92371 0.88365
 -10   0   1 -68.727 93.4557   8-0.50287-0.25506-0.14470 0.14474-0.93127 0.89134
   9   0  -1 -54.941 59.7055   7 0.48133 0.19878 0.07160-0.07181 0.94831-0.92288
  -9   0   1 -25.632 61.6032   8-0.48034-0.19980-0.13536 0.13537-0.94121 0.91584
  -9   0   1 -5.9310 56.3169   5-0.47944-0.20094 0.17219-0.17232-0.93508 0.90963
   9   0  -1 7.29394 49.1623   3 0.47736 0.20306-0.23662 0.23663 0.92068-0.89530
   8   0  -1 1069.86 191.221   7 0.46249 0.13983 0.06796-0.06814 0.95500-0.94415
  -8   0   1 971.663 172.895   8-0.46152-0.14084-0.12759 0.12759-0.94881 0.93802
  -8   0   1 1140.43 144.703   2-0.45523-0.14727 0.29082-0.29070-0.91190 0.90111
  -8   0   1 680.348 128.710   5-0.46070-0.14185 0.16056-0.16067-0.94375 0.93291
   8   0  -1 993.253 146.523   3 0.45874 0.14388-0.21887 0.21889 0.93187-0.92106
   7   0  -1 10.3639 33.3536   3 0.44521 0.07960-0.20607 0.20610 0.93935-0.94312
  -7   0   1 3.33014 34.5059   2-0.44178-0.08296 0.27205-0.27194-0.92249 0.92623
  -7   0   1 -34.570 48.7126   5-0.44714-0.07755 0.15219-0.15230-0.94957 0.95333
  -7   0   1 32.2346 49.8728   8-0.44795-0.07665-0.12201 0.12200-0.95392 0.95769
   7   0  -1 -35.647 43.1346   7 0.44895 0.07559 0.06535-0.06551 0.95948-0.96322
   6   0  -1 101.310 46.7884   7 0.44324 0.00350 0.06425-0.06439 0.96129-0.97960
   6   0  -1 -6.1783 8.04207   9 0.04826 0.39866-0.59033 0.59032-0.78241 0.76411
   5   0  -1 13.4870 23.6578   3 0.44458-0.07539-0.20548 0.20552 0.93969-0.97260
   5   0  -1 -15.761 15.6704   9-0.06158 0.43064-0.37126 0.37128-0.92162 0.88873
   5   0  -1 -1.2788 26.7491   7 0.44976-0.08079 0.06550-0.06562 0.95922-0.99210
  -5   0   1 19.8857 39.4708   8-0.44836 0.07931-0.12218 0.12215-0.95377 0.98668
  -5   0   1 5.37984 32.0573   5-0.44725 0.07824 0.15225-0.15236-0.94952 0.98244
  -5   0   1 -12.439 19.5481   4 0.06510-0.43436-0.34157 0.34155 0.93320-0.90007
  -5   0   1 -17.720 22.7465   2-0.44005 0.07080 0.26965-0.26954-0.92379 0.95665
  -4   0   1 3389.03 123.664   4 0.18647-0.47797-0.03425 0.03418 0.99941-0.95170
  -4   0   1 3413.77 202.498   8-0.47447 0.18319-0.13293 0.13289-0.94365 0.99113
   4   0  -1 3584.87 187.420   3 0.46854-0.17716-0.22818 0.22822 0.92611-0.97359
  -4   0   1 3130.04 125.480   6 0.18609-0.47745-0.03481 0.03503 0.99939-0.95185
   4   0  -1 3431.57 209.732   7 0.47656-0.18537 0.07067-0.07077 0.95005-0.99749
  -4   0   1 3249.37 168.687   2-0.46163 0.17013 0.29984-0.29973-0.90654 0.95399
  -4   0   1 3301.52 182.338   5-0.47270 0.18154 0.16799-0.16809-0.93828 0.98577
   4   0  -1 3155.47 120.354   9-0.18521 0.47638-0.07724 0.07731-0.99701 0.94956
   3   0  -1 21.5454 14.3776   3 0.52333-0.30976-0.28135 0.28140 0.88812-0.95016
   3   0  -1 27.8115 24.2609   7 0.53954-0.32614 0.08292-0.08298 0.92410-0.98609
  -3   0   1 7.57242 7.23169   6 0.30267-0.51606 0.33327-0.33305 0.93382-0.87185
  -3   0   1 5.13612 15.1609   5-0.53182 0.31849 0.20515-0.20523-0.90669 0.96872
  -3   0   1 -7.3210 8.48227   2-0.50966 0.29593 0.36959-0.36948-0.85865 0.92069
  -3   0   1 15.9293 12.0114   4 0.30288-0.51662 0.33378-0.33387 0.93360-0.87126
  -3   0   1 13.8987 15.6755   8-0.53557 0.32207-0.15837 0.15832-0.91514 0.97719
   3   0  -1 3.62865 6.40732   9-0.30881 0.52216 0.28945-0.28936-0.94781 0.88585
   4   0   1 2264.67 245.166   7-0.12913 0.46024-0.04210 0.04202 0.94902-0.78491
   5   0   1 -2.9318 40.5636   7-0.03627 0.44517-0.02531 0.02521 0.97455-0.79587
  -5   0  -1 -44.333 49.0942   8 0.03591-0.44454 0.06805-0.06791-0.97267 0.79412
   6   0   1 533.877 130.646   7 0.04108 0.44560-0.01119 0.01106 0.98911-0.79586
  -6   0  -1 583.363 132.839   8-0.04109-0.44531 0.03883-0.03868-0.98843 0.79531
   7   0   1 -82.550 76.6904   7 0.10877 0.45570 0.00126-0.00141 0.99685-0.78903
  -7   0  -1 221.440 117.941   8-0.10865-0.45553 0.01289-0.01274-0.99676 0.78906
 -12   1   1 120.899 130.525   8-0.57339-0.34013-0.17431 0.25771-0.89376 0.82466
 -12   1   1 198.168 140.224   5-0.53994-0.37403 0.21032-0.12713-0.90170 0.83236
 -11   1   1 503.503 149.863   5-0.51315-0.32299 0.19332-0.11010-0.91755 0.86285
  11   1  -1 432.706 170.603   7 0.52560 0.31007 0.08020 0.00293 0.93040-0.87581
  11  -1  -1 288.832 138.208   7 0.54072 0.29499 0.08315-0.16679 0.92355-0.86892
 -11   1   1 628.684 175.144   8-0.54680-0.28893-0.16309 0.24646-0.90911 0.85458
  11  -1  -1 364.680 124.710   3 0.50459 0.33148-0.26295 0.17959 0.90229-0.84774
 -11  -1   1 500.491 175.459   8-0.51804-0.31763-0.15103 0.06773-0.92405 0.86956
  10   1  -1 290.581 146.127   7 0.50046 0.25742 0.07531 0.00784 0.94095-0.90095
  10  -1  -1 -66.166 74.1104   7 0.51610 0.24182 0.07834-0.16196 0.93451-0.89448
 -10  -1   1 41.7161 73.1052   5-0.52603-0.23213 0.20146-0.28499-0.91016 0.87007
 -10   1   1 -20.413 74.8517   8-0.52243-0.23551-0.15287 0.23623-0.92188 0.88192
 -10  -1   1 214.705 121.591   8-0.49288-0.26501-0.14055 0.05725-0.93579 0.89587
 -10   1   1 295.498 132.220   5-0.48826-0.27003 0.17768-0.09445-0.93074 0.89068
  10  -1  -1 7.22514 64.8276   3 0.48014 0.27812-0.23929 0.15593 0.91891-0.87895
   9   1  -1 24.2062 84.7337   7 0.47801 0.20209 0.07095 0.01221 0.94952-0.92411
   9  -1  -1 59.1073 71.3566   7 0.49439 0.18573 0.07413-0.15772 0.94335-0.91790
  -9   1   1 253.309 99.6128   2-0.44825-0.23192 0.28104-0.19757-0.91751 0.89217
  -9  -1   1 115.538 92.7722   8-0.47030-0.20981-0.13121 0.04790-0.94534 0.91999
  -9   1   1 170.995 84.3292   8-0.50107-0.17910-0.14396 0.22732-0.93210 0.90672
  -9   1   1 208.414 95.5754   5-0.46588-0.21455 0.16376-0.08052-0.94143 0.91598
  -9  -1   1 21.8432 56.6223   5-0.50480-0.17551 0.18806-0.27156-0.92213 0.89667
   9  -1  -1 181.349 89.4627   3 0.45809 0.22237-0.21825 0.13489 0.93224-0.90686
  -8   1   1 893.779 141.865   2-0.42982-0.17259 0.25556-0.17209-0.93116 0.92036
   8   1  -1 517.610 151.112   7 0.45922 0.14309 0.06733 0.01586 0.95610-0.94527
   8  -1  -1 693.920 156.399   7 0.47672 0.12562 0.07070-0.15427 0.94999-0.93913
   8  -1  -1 505.928 114.553   3 0.43928 0.16338-0.20050 0.11715 0.94246-0.93165
  -8   1   1 729.063 142.610   5-0.44693-0.15565 0.15206-0.06881-0.94965 0.93882
   8   1  -1 824.644 129.152   3 0.49440 0.10818-0.25305 0.33643 0.90946-0.89867
  -8  -1   1 749.637 160.532   8-0.45124-0.15111-0.12336 0.04004-0.95271 0.94192
  -8   1   1 584.855 135.112   8-0.48389-0.11851-0.13682 0.22018-0.93971 0.92890
  -8  -1   1 786.575 131.094   5-0.48783-0.11465 0.17742-0.26090-0.93096 0.92011
  -7  -1   1 19.3875 23.9441   4-0.02664-0.49821-0.53923 0.45584 0.82186-0.81781
  -7   1   1 6.45444 30.7181   2-0.41552-0.10915 0.23607-0.15261-0.94069 0.94442
   7   1  -1 57.2044 57.9638   7 0.44561 0.07891 0.06470 0.01850 0.96055-0.96429
   7  -1  -1 82.5594 66.6183   7 0.46480 0.05976 0.06840-0.15194 0.95420-0.95793
   7  -1  -1 142.725 57.5642   9 0.02661 0.49806-0.55010 0.46667-0.81491 0.81123
   7   1  -1 59.3890 45.2691   6 0.34916 0.17497 0.52530-0.44229 0.82765-0.83129
   7  -1  -1 58.4190 47.1182   3 0.42494 0.09990-0.18710 0.10376 0.94959-0.95335
  -7  -1   1 75.2410 33.5477   2-0.49217-0.03267 0.34374-0.42702-0.87777 0.88155
  -7  -1   1 28.6545 59.5908   8-0.43708-0.08749-0.11755 0.03422-0.95779 0.96157
  -7   1   1 65.4405 41.3918   8-0.47270-0.05191-0.13220 0.21553-0.94437 0.94813
  -7  -1   1 40.8202 32.1965   5-0.47702-0.04762 0.17068-0.25414-0.93624 0.93999
  -7   1   1 1.94733 41.3330   5-0.43272-0.09201 0.14333-0.06007-0.95536 0.95912
  -6  -1   1 1514.75 176.352   8-0.43004-0.01676-0.11467 0.03132-0.96020 0.97854
  -6  -1   1 1620.04 127.101   2-0.49324 0.04616 0.34530-0.42858-0.87667 0.89501
  -6   1   1 1449.16 162.013   8-0.47057 0.02374-0.13132 0.21465-0.94523 0.96357
   6   1  -1 1639.30 130.068   6 0.34022 0.10624 0.48405-0.40104 0.85566-0.87387
  -6   1   1 1457.66 152.135   2-0.40703-0.03989 0.22461-0.14115-0.94593 0.96421
   6  -1  -1 1554.87 127.869   9-0.04473 0.49156-0.40729 0.32390-0.90443 0.88614
   6  -1  -1 1667.87 180.728   7 0.46147-0.01470 0.06776-0.15127 0.95535-0.97364
   6   1  -1 1502.88 139.522   3 0.48407-0.03709-0.24306 0.32645 0.91638-0.93472
  -6  -1   1 1512.22 147.776   5-0.47557 0.02877 0.16978-0.25322-0.93693 0.95526
  -6   1   1 1453.61 158.575   5-0.42532-0.02156 0.13881-0.05555-0.95816 0.97652
   6  -1  -1 1527.74 167.017   3 0.41695 0.03008-0.17968 0.09634 0.95331-0.97166
  -6  -1   1 1753.04 134.668   4 0.04362-0.49072-0.39035 0.30691 0.91153-0.89294
   6   1  -1 1444.88 179.324   7 0.43957 0.00715 0.06354 0.01968 0.96243-0.98075
  -5   1   1 247.846 67.8043   2-0.40689 0.03771 0.22442-0.14095-0.94601 0.97886
   5   1  -1 129.328 62.2493   7 0.44521-0.07627 0.06463 0.01862 0.96067-0.99356
  -5  -1   1 149.787 46.7579   5-0.48910 0.12015 0.17821-0.26164-0.93032 0.96321
   5   1  -1 66.4897 30.6791   6 0.33518 0.03357 0.46204-0.37904 0.86933-0.90211
  -5  -1   1 126.323 45.4000   4 0.11463-0.48396-0.22303 0.13956 0.97239-0.93924
   5   1  -1 131.522 41.0425   3 0.49962-0.13045-0.25811 0.34150 0.90583-0.93875
   5  -1  -1 137.870 39.7853   9-0.11761 0.48659-0.24479 0.16146-0.96741 0.93453
  -5   1   1 129.635 55.5213   5-0.42813 0.05911 0.14053-0.05728-0.95711 0.99004
  -5  -1   1 159.598 65.2042   8-0.43379 0.06475-0.11621 0.03285-0.95893 0.99184
  -5   1   1 146.899 58.9665   8-0.48280 0.11375-0.13638 0.21970-0.94017 0.97307
   5  -1  -1 114.597 57.0542   7 0.47164-0.10266 0.06972-0.15321 0.95181-0.98468
  -5  -1   1 132.426 39.5486   2-0.51058 0.14126 0.37097-0.45426-0.85758 0.89049
   4   1  -1 12397.5 276.753   1-0.18869 0.48031 0.05385 0.02963-0.99855 0.95105
   4   1  -1 13125.3 420.207   7 0.46991-0.17875 0.06939 0.01388 0.95242-0.99987
  -4  -1   1 12475.9 316.918   4 0.18529-0.47682-0.03754-0.04599 0.99929-0.95157
   4   1  -1 13382.5 328.095   3 0.54187-0.25051-0.29981 0.38320 0.87275-0.92023
  -4  -1   1 14652.8 332.135   2-0.55380 0.26227 0.43782-0.52114-0.79942 0.84692
   4   1  -1 13064.7 337.262   6 0.33562-0.04459 0.46392-0.38093 0.86820-0.91553
  -4   1   1 13054.2 376.941   2-0.41906 0.12762 0.24087-0.15739-0.93842 0.98583
   4  -1  -1 12706.5 318.232   9-0.19102 0.48216-0.06195-0.02131-0.99807 0.95063
  -4  -1   1 13209.3 342.080   5-0.52814 0.23702 0.20281-0.28621-0.90890 0.95635
  -4   1   1 12594.2 371.258   8-0.51934 0.22806-0.15157 0.23488-0.92341 0.97089
   4  -1  -1 12955.5 386.481   3 0.43385-0.14246-0.19542 0.11209 0.94523-0.99271
   4  -1  -1 12819.9 395.302   7 0.50449-0.21329 0.07609-0.15954 0.93933-0.98677
  -4   1   1 12600.9 375.771   5-0.44699 0.15581 0.15209-0.06885-0.94963 0.99713
  -4  -1   1 12548.3 403.345   8-0.45483 0.16356-0.12484 0.04147-0.95137 0.99885
   3   1  -1 159.716 45.4888   7 0.52797-0.31459 0.08066 0.00263 0.92935-0.99135
   3  -1  -1 157.120 36.4600   7 0.57806-0.36464 0.09046-0.17389 0.90489-0.96688
   3   1  -1 131.930 31.6939   6 0.34285-0.12955 0.49587-0.41289 0.84796-0.90983
   3   1  -1 159.928 28.2880   2-0.36193 0.57561 0.16501-0.08169-0.96903 0.90704
   3   1  -1 144.976 28.6689   1-0.22921 0.44299-0.21511 0.29860-0.97544 0.91336
   3  -1  -1 126.696 32.9889   9-0.26215 0.47550 0.13890-0.22210-0.98718 0.92521
   3  -1  -1 144.124 39.4974   3 0.47187-0.25830-0.23136 0.14805 0.92409-0.98614
   3   1  -1 227.896 41.7280   3 0.62806-0.41449-0.38955 0.47293 0.77933-0.84138
  -3  -1   1 180.554 37.8110   5-0.61236 0.39904 0.25734-0.34072-0.84897 0.91095
  -3  -1   1 97.4178 31.6650   8-0.50525 0.29173-0.14569 0.06231-0.93017 0.99222
  -3   1   1 132.162 33.7403   8-0.59944 0.38595-0.18540 0.26870-0.87715 0.93920
  -3  -1   1 130.207 32.8613   4 0.25277-0.46651 0.16274-0.24630 0.98421-0.92188
  -3   1   1 118.638 34.1051   2-0.44960 0.23591 0.28293-0.19943-0.91644 0.97845
   2   1  -1 33961.4 522.973   7 0.64707-0.51145 0.10413-0.02083 0.86312-0.93965
   2  -1  -1 36356.9 522.835   7 0.72542-0.58975 0.11993-0.20333 0.80166-0.87821
  -2   1   1 34673.0 511.652   2-0.50643 0.37051 0.36478-0.28125-0.86233 0.93895
   2   1  -1 36439.8 525.930   6 0.35693-0.22135 0.56385-0.48089 0.79845-0.87483
   2  -1  -1 35176.2 490.499   9-0.32544 0.46104 0.34861-0.43177-0.92435 0.84787
  -2  -1   1 33846.6 525.137   8-0.60761 0.47186-0.18890 0.10551-0.87160 0.94823
  -4  -1  -1 2414.15 225.969   8 0.09616-0.42698 0.09065-0.17383-0.95568 0.79173
   4  -1   1 1917.05 211.176   7-0.12921 0.46033-0.04212-0.04135 0.94899-0.78487
   4   1   1 2012.35 210.095   7-0.10971 0.44080-0.03861 0.12191 0.95509-0.79100
   5  -1   1 457.298 113.064   7-0.03281 0.44173-0.02468-0.05881 0.97533-0.79664
   5   1   1 420.250 118.726   7-0.02323 0.43210-0.02293 0.10622 0.97743-0.79877
  -5   1  -1 387.547 101.226   8 0.04161-0.45027 0.07019 0.01326-0.97124 0.79266
  -5  -1  -1 511.522 110.622   8 0.01541-0.42400 0.06030-0.14347-0.97751 0.79899
   6   1   1 720.740 152.545   7 0.04992 0.43674-0.00957 0.09283 0.99038-0.79715
  -6  -1  -1 992.033 175.116   8-0.05409-0.43227 0.03386-0.11703-0.99043 0.79734
  -6   1  -1 821.652 147.534   8-0.04164-0.44479 0.03862 0.04485-0.98852 0.79537
   6  -1   1 987.833 177.456   7 0.04654 0.44015-0.01019-0.07332 0.98991-0.79665
   7   1   1 1207.43 239.731   7 0.11467 0.44978 0.00235 0.08089 0.99730-0.78949
   7  -1   1 1106.33 226.948   7 0.11546 0.44902 0.00250-0.08604 0.99736-0.78952
  -7  -1  -1 1682.17 254.567   8-0.11639-0.44775 0.00990-0.09306-0.99738 0.78971
  -7   1  -1 2126.52 281.610   8-0.11327-0.45093 0.01111 0.07237-0.99714 0.78941
   8  -1   1 96.5109 159.150   7 0.17753 0.46473 0.01401-0.09757 0.99985-0.77744
  -8   1  -1 32.3331 80.4719   8-0.17737-0.46460-0.01379 0.09728-0.99985 0.77756
   8   1   1 100.330 119.529   7 0.17383 0.46840 0.01332 0.06989 0.99982-0.77744
  -8  -1  -1 239.831 131.005   8-0.17382-0.46809-0.01240-0.07075-0.99983 0.77759
  11   2  -1 128.253 75.9645   7 0.52958 0.30608 0.08097 0.08553 0.92864-0.87405
  11  -2  -1 3.26530 77.3673   3 0.49407 0.34203-0.25272 0.08598 0.90969-0.85513
  11  -2  -1 -6.5746 85.6806   7 0.56059 0.27511 0.08703-0.25405 0.91393-0.85929
 -11   2   1 149.918 95.0356   5-0.50756-0.32861 0.18980-0.02318-0.92064 0.86593
 -11  -2   1 21.5914 115.364   8-0.51581-0.31982-0.15011-0.01652-0.92514 0.87067
 -11   2   1 55.0528 75.2157   8-0.57516-0.26059-0.17507 0.34180-0.89268 0.83812
  10  -2  -1 -165.70 89.5183   7 0.53752 0.22040 0.08252-0.24951 0.92503-0.88498
  10   2  -1 483.929 168.805   7 0.50530 0.25256 0.07625 0.09028 0.93900-0.89901
  10  -2  -1 344.526 131.346   3 0.47065 0.28764-0.23020 0.06346 0.92483-0.88485
 -10   2   1 137.595 58.2306   8-0.55275-0.20522-0.16559 0.33232-0.90581 0.86583
 -10  -2   1 244.498 117.067   8-0.49143-0.26644-0.13995-0.02667-0.93644 0.89653
 -10   2   1 22.0723 56.7065   5-0.48356-0.27476 0.17475-0.00813-0.93308 0.89300
 -10   2   1 331.713 122.601   2-0.45561-0.30224 0.29135-0.12453-0.91159 0.87174
   9  -2  -1 275.237 91.3036   3 0.44962 0.23087-0.21023 0.04349 0.93697-0.91157
   9  -2  -1 310.929 108.659   7 0.51777 0.16236 0.07867-0.24563 0.93380-0.90834
   9   2  -1 309.096 125.485   7 0.48383 0.19624 0.07208 0.09447 0.94738-0.92197
  -9   2   1 192.004 79.2680   2-0.43537-0.24473 0.26318-0.09638-0.92722 0.90188
  -9   2   1 231.473 108.110   5-0.46209-0.21838 0.16142 0.00521-0.94313 0.91768
  -9  -2   1 264.285 87.2757   5-0.54449-0.13574 0.21322-0.38007-0.89883 0.87334
  -9   2   1 206.998 85.7491   8-0.53393-0.14626-0.15768 0.32438-0.91601 0.89061
  -9  -2   1 270.094 125.363   8-0.46966-0.21043-0.13095-0.03569-0.94560 0.92026
   8   2  -1 626.941 162.909   7 0.46616 0.13612 0.06867 0.09790 0.95373-0.94291
   8  -2  -1 1025.53 170.830   7 0.50262 0.09972 0.07572-0.24266 0.94009-0.92921
  -8   2   1 1063.92 159.063   2-0.41800-0.18436 0.23942-0.07263-0.93911 0.92830
  -8  -2   1 1086.74 151.072   5-0.53155-0.07084 0.20498-0.37179-0.90686 0.89597
  -8  -2   1 885.561 175.841   8-0.45143-0.15090-0.12344-0.04321-0.95264 0.94187
   8  -2  -1 1016.11 166.121   3 0.43172 0.17096-0.19343 0.02669 0.94629-0.93547
  -8   2   1 1014.30 153.757   8-0.52015-0.08226-0.15191 0.31861-0.92301 0.91218
  -8   2   1 966.842 156.343   5-0.44400-0.15862 0.15025 0.01638-0.95086 0.94002
   7  -2  -1 147.861 54.1256   9-0.02174 0.54633-0.45505 0.28825-0.87851 0.87483
   7  -2  -1 192.373 77.2843   3 0.41803 0.10682-0.18068 0.01395 0.95282-0.95658
   7   2  -1 71.0019 54.8377   7 0.45382 0.07067 0.06628 0.10030 0.95790-0.96165
   7  -2  -1 182.836 75.5548   7 0.49408 0.03047 0.07407-0.24097 0.94347-0.94717
  -7  -2   1 147.058 100.191   4 0.01946-0.54439-0.44334 0.27651 0.88393-0.87989
  -7   2   1 213.027 70.7092   8-0.51375-0.01088-0.14923 0.31592-0.92614 0.92989
   7   2  -1 207.035 69.0431   6 0.32801 0.19629 0.43180-0.26552 0.88679-0.89043
  -7   2   1 187.559 75.7506   2-0.40442-0.12019 0.22110-0.05431-0.94748 0.95121
   7   2  -1 158.072 83.5659   3 0.55077-0.02602-0.30874 0.47547 0.86488-0.86867
  -7  -2   1 154.504 60.6609   8-0.43805-0.08652-0.11794-0.04871-0.95746 0.96125
  -7  -2   1 0.77917 63.2325   5-0.52662 0.00206 0.20184-0.36863-0.90981 0.91352
  -7   2   1 176.886 68.7144   5-0.43049-0.09426 0.14197 0.02466-0.95621 0.95997
   6  -2  -1 2475.15 217.681   7 0.49547-0.04868 0.07433-0.24122 0.94293-0.96121
  -6  -2   1 2382.65 188.424   4 0.07335-0.52050-0.32242 0.15554 0.94079-0.92220
   6  -2  -1 2254.41 180.911   9-0.07724 0.52399-0.33695 0.17021-0.93621 0.91792
  -6   2   1 2178.96 201.014   5-0.42343-0.02347 0.13765 0.02897-0.95887 0.97722
   6   2  -1 2522.92 234.221   7 0.44919-0.00248 0.06539 0.10121 0.95941-0.97772
   6   2  -1 2318.02 177.161   6 0.31903 0.12755 0.39560-0.22931 0.90575-0.92398
   6  -2  -1 2347.99 215.103   3 0.41014 0.03691-0.17337 0.00665 0.95636-0.97470
  -6  -2   1 2362.97 174.129   5-0.53412 0.08739 0.20660-0.37337-0.90530 0.92358
  -6  -2   1 2443.59 228.557   8-0.43156-0.01524-0.11529-0.05138-0.95969 0.97804
  -6   2   1 2264.07 193.389   8-0.51860 0.07177-0.15127 0.31795-0.92377 0.94210
  -6   2   1 2490.14 213.147   2-0.39598-0.05090 0.20981-0.04301-0.95231 0.97059
   6   2  -1 2584.07 169.195   3 0.56350-0.11656-0.32166 0.48838 0.85299-0.87134
   5   2  -1 6374.85 338.530   7 0.45625-0.08734 0.06675 0.09987 0.95710-0.98998
   5  -2  -1 6097.88 304.531   7 0.51251-0.14352 0.07765-0.24449 0.93602-0.96888
  -5   2   1 6316.04 311.194   2-0.39458 0.02543 0.20795-0.04114-0.95308 0.98592
   5  -2  -1 6184.52 281.658   9-0.13149 0.50040-0.21183 0.04516-0.97591 0.94304
   5   2  -1 7196.92 261.842   3 0.60036-0.23121-0.35986 0.52658 0.81398-0.84690
   5   2  -1 6415.55 286.987   6 0.31346 0.05540 0.37388-0.20761 0.91617-0.94898
  -5  -2   1 6335.76 254.444   5-0.56212 0.19322 0.22454-0.39127-0.88718 0.92003
  -5  -2   1 6519.78 338.363   8-0.43528 0.06625-0.11682-0.04986-0.95841 0.99133
   5  -2  -1 6259.96 316.618   3 0.41039-0.04118-0.17361 0.00690 0.95625-0.98916
  -5   2   1 6192.05 306.287   5-0.42569 0.05665 0.13903 0.02758-0.95803 0.99096
  -5   2   1 6082.58 277.864   8-0.54165 0.17259-0.16092 0.32759-0.91191 0.94481
  -5  -2   1 6315.87 289.705   4 0.12560-0.49496-0.19556 0.02863 0.97893-0.94578
  -3   2   1 -15.185 16.1425   2-0.42529 0.21160 0.24935-0.08248-0.93428 0.99627
  -3  -2   1 5.88401 8.98932   3 0.34519-0.55882-0.11429-0.05251 0.97971-0.91765
   3  -2  -1 -10.754 15.7980   7 0.64607-0.43263 0.10393-0.27071 0.86380-0.92579
   3  -2  -1 -5.2076 20.7379   9-0.23326 0.44660 0.05392-0.22043-0.99743 0.93545
  -3   2   1 2.53431 8.25520   4 0.12701-0.34062-0.19201 0.35881 0.97971-0.91745
   3   2  -1 15.4045 10.8489   9-0.15306 0.36656-0.15913 0.32596-0.98673 0.92467
  -3   2   1 -0.1220 10.0069   6 0.12723-0.34098-0.19093 0.35814 0.97993-0.91765
  -3  -2   1 -21.859 17.1387   4 0.22241-0.43615 0.06930-0.23632 0.99693-0.93462
  -3  -2   1 28.2197 32.4842   8-0.50035 0.28683-0.14366-0.02304-0.93243 0.99448
   3   2  -1 27.8596 25.2631   7 0.53973-0.32637 0.08295 0.08369 0.92401-0.98599
   3   2  -1 1.14502 11.4260   1-0.21122 0.42504-0.08333 0.25016-0.99621 0.93414
   3   2  -1 2.69259 16.7542   6 0.31670-0.10336 0.38643-0.22020 0.91023-0.97215
  -3   2   1 12.2746 19.5219   8-0.70403 0.49055-0.23096 0.39763-0.79156 0.85358
   2   2  -1 84.0123 29.5505   7 0.65371-0.51810 0.10546 0.06119 0.85854-0.93507
   2   2  -1 58.2757 24.2050   6 0.32732-0.19174 0.42896-0.26277 0.88835-0.96479
  -2  -2   1 49.0904 20.1088   4 0.26479-0.40070 0.20160-0.36864 0.97590-0.89899
  -2   2   1 70.4047 25.3785   6 0.05541-0.19131-0.36324 0.53058 0.92397-0.84698
   2   2  -1 66.7189 24.3960   1-0.23097 0.36697-0.22965 0.39641-0.97200 0.89539
  -2   2   1 59.1673 25.4424   5-0.55456 0.41903 0.21968-0.05316-0.89228 0.96886
  -2  -2   1 41.1914 23.3086   8-0.58972 0.45395-0.18125 0.01454-0.88354 0.96017
   2  -2  -1 51.4877 18.3203   8-0.61176 0.74743-0.19068 0.02408-0.86872 0.79215
   2  -2  -1 88.5508 31.3420   9-0.27841 0.41401 0.18920-0.35566-0.97712 0.90062
   1  -2  -1 8100.89 279.434   9-0.31755 0.37542 0.32009-0.48650-0.93626 0.84525
   1   2  -1 7423.67 267.675   6 0.34396-0.28611 0.50095-0.33481 0.84457-0.93550
   1  -2  -1 7795.58 276.085   3 0.60131-0.54337-0.36086 0.19422 0.81287-0.90403
  -1   2   1 7803.88 289.481   5-0.68136 0.62358 0.30398-0.13749-0.78165 0.87274
   0   2  -1 10.4462 13.9066   6 0.36407-0.38392 0.60255-0.43645 0.76584-0.87122
   0  -2   1 28.3872 21.0388   9 0.05641-0.03655-0.60511 0.43817-0.76951 0.87540
   3   2   1 7240.96 386.021   7-0.16870 0.42197-0.04920 0.21593 0.93542-0.78591
   4   2   1 2344.17 232.046   7-0.07298 0.40404-0.03196 0.19867 0.96551-0.80144
  -4  -2  -1 2166.24 219.741   8 0.05174-0.38253 0.07400-0.24049-0.96860 0.80467
   4  -2   1 2819.40 257.653   7-0.10718 0.43830-0.03815-0.12871 0.95585-0.79172
   5   2   1 784.168 137.665   6 0.10615 0.30315-0.24345 0.41089 0.96691-0.78783
   5   2   1 972.101 163.795   7 0.00476 0.40409-0.01783 0.18451 0.98303-0.80439
  -5  -2  -1 1042.89 166.831   8-0.01714-0.39143 0.04795-0.21444-0.98424 0.80574
  -5   2  -1 978.281 150.009   8 0.02861-0.43730 0.06529 0.10149-0.97445 0.79584
   5  -2   1 875.167 152.244   7-0.01084 0.41975-0.02068-0.14619 0.98001-0.80131
   6   2   1 1267.54 194.750   7 0.07186 0.41478-0.00554 0.17220 0.99321-0.79999
  -6  -2  -1 1353.51 210.920   8-0.07838-0.40796 0.02455-0.19102-0.99366 0.80059
  -6   2  -1 1334.70 182.130   8-0.05885-0.42761 0.03204 0.13476-0.99112 0.79794
   6   2   1 1185.41 170.547   6 0.13421 0.35288-0.17319 0.34061 0.98357-0.78997
   6  -2   1 1470.77 216.560   7 0.06784 0.41886-0.00628-0.16061 0.99273-0.79946
   7   2   1 -95.268 80.2228   7 0.13222 0.43221 0.00560 0.16103 0.99843-0.79064
   7   2   1 100.618 82.5926   6 0.16397 0.40087-0.09527 0.26265 0.99519-0.78708
  -7   2  -1 126.453 93.5101   8-0.13278-0.43146 0.00356 0.16326-0.99847 0.79072
   7  -2   1 43.3493 80.4742   7 0.13591 0.42857 0.00628-0.17320 0.99862-0.79078
  -7  -2  -1 -71.993 108.450   8-0.13462-0.42949 0.00284-0.16932-0.99857 0.79093
  -8   2  -1 409.248 178.837   8-0.19818-0.44383-0.02193 0.18875-0.99970 0.77737
   8  -2   1 62.8716 110.835   7 0.19717 0.44509 0.01767-0.18461 0.99979-0.77737
  11   3  -1 988.711 268.933   7 0.54071 0.29492 0.08314 0.16675 0.92355-0.86898
  11  -3  -1 601.867 185.318   7 0.58916 0.24654 0.09265-0.34305 0.89883-0.84416
 -11   3   1 1048.49 213.994   5-0.50900-0.32720 0.19070 0.05930-0.91985 0.86512
 -11  -3   1 1009.28 265.425   8-0.52060-0.31501-0.15211-0.09783-0.92279 0.86833
  11  -3  -1 1251.49 242.787   3 0.49092 0.34522-0.24967-0.00046 0.91184-0.85726
  10   3  -1 351.944 153.045   7 0.51794 0.23990 0.07870 0.17121 0.93373-0.89374
  10  -3  -1 145.850 89.9812   7 0.56861 0.18931 0.08860-0.33897 0.90985-0.86978
 -10   3   1 462.045 131.053   5-0.48639-0.27195 0.17652 0.07350-0.93168 0.89158
 -10   3   1 435.430 127.460   2-0.44990-0.30787 0.28335-0.03322-0.91620 0.87636
 -10  -3   1 245.248 135.362   8-0.49756-0.26028-0.14250-0.10744-0.93370 0.89381
  10  -3  -1 329.797 122.940   3 0.46898 0.28934-0.22860-0.02153 0.92585-0.88585
   9   3  -1 1860.93 276.308   7 0.49821 0.18184 0.07487 0.17506 0.94185-0.91644
   9  -3  -1 1496.26 215.360   7 0.55199 0.12814 0.08535-0.33568 0.91818-0.89269
  -9   3   1 1960.34 243.410   2-0.43129-0.24875 0.25757-0.00745-0.93014 0.90481
   9  -3  -1 1648.40 244.934   3 0.44947 0.23104-0.21009-0.04003 0.93705-0.91164
  -9   3   1 1858.90 243.957   5-0.46641-0.21407 0.16409 0.08592-0.94119 0.91572
  -9  -3   1 1953.67 275.522   8-0.47728-0.20280-0.13409-0.11585-0.94249 0.91716
  -9   3   1 2079.87 240.872   8-0.58051-0.09971-0.17733 0.42740-0.88938 0.86396
   8  -3  -1 -49.339 50.8306   3 0.43309 0.16960-0.19472-0.05542 0.94560-0.93478
  -8   3   1 -40.382 54.2672   2-0.41548-0.18683 0.23601 0.01410-0.94072 0.92991
  -8  -3   1 66.8168 81.4999   4-0.00593-0.59682-0.49702 0.24676 0.85126-0.86175
   8   3  -1 99.2235 103.039   7 0.48258 0.11966 0.07184 0.17810 0.94784-0.93702
   8  -3  -1 -15.186 64.8981   7 0.54087 0.06148 0.08318-0.33347 0.92348-0.91258
   8   3  -1 -43.457 53.8679   6 0.32782 0.27433 0.43100-0.18144 0.88723-0.87626
  -8   3   1 117.335 82.9187   8-0.57236-0.03006-0.17388 0.42395-0.89438 0.88353
   8  -3  -1 97.5961 62.4871   9 0.00349 0.59886-0.50554 0.25533-0.84686 0.85780
  -8  -3   1 270.088 118.573   8-0.46067-0.14164-0.12724-0.12271-0.94914 0.93837
  -8   3   1 29.7401 48.4547   5-0.44988-0.15273 0.15388 0.09614-0.94842 0.93757
   7   3  -1 606.281 131.816   7 0.47263 0.05183 0.06992 0.18005 0.95146-0.95521
  -7  -3   1 670.850 125.760   4 0.03966-0.56462-0.39918 0.14889 0.90724-0.90319
  -7  -3   1 795.334 107.945   5-0.60140 0.07692 0.25011-0.50019-0.85799 0.86164
   7  -3  -1 1088.76 185.854   3 0.42083 0.10404-0.18328-0.06684 0.95153-0.95528
   7   3  -1 680.136 117.426   6 0.31748 0.20694 0.38949-0.13990 0.90875-0.91240
   7  -3  -1 597.266 111.691   9-0.04353 0.56805-0.40984 0.15969-0.90314 0.89947
  -7  -3   1 763.226 148.142   8-0.44904-0.07550-0.12246-0.12751-0.95352 0.95732
   6  -3  -1 129.543 81.3738   3 0.41405 0.03299-0.17699-0.07312 0.95463-0.97296
   6   3  -1 84.1491 58.3422   7 0.47081-0.02414 0.06956 0.18041 0.95211-0.97042
  -6  -3   1 18.2322 37.9251   4 0.08320-0.53038-0.29926 0.04892 0.94930-0.93070
   6  -3  -1 41.9428 55.3882   7 0.54630-0.09951 0.08424-0.33447 0.92092-0.93919
   6  -3  -1 28.3036 35.2933   9-0.08871 0.53541-0.31132 0.06125-0.94602 0.92775
  -6  -3   1 14.9441 29.9374   5-0.62445 0.17779 0.26536-0.51540-0.83855 0.85677
  -6  -3   1 75.8124 45.2328   8-0.44435-0.00244-0.12053-0.12944-0.95523 0.97358
  -6   3   1 151.237 129.212   8-0.58977 0.14292-0.18128 0.43132-0.88351 0.90181
   6   3  -1 -50.967 44.8037   6 0.30942 0.13728 0.35844-0.10883 0.92316-0.94140
   5   3  -1 937.768 139.594   7 0.48113-0.11224 0.07156 0.17843 0.94838-0.98125
   5  -3  -1 963.587 118.007   7 0.57369-0.20470 0.08960-0.33980 0.90720-0.94004
  -5   3   1 1198.48 123.666   8-0.62958 0.26052-0.19834 0.44839-0.85583 0.88870
   5   3  -1 1051.65 135.318   6 0.30431 0.06463 0.33929-0.08968 0.93135-0.96418
  -5   3   1 1152.75 147.149   2-0.39464 0.02550 0.20802 0.04213-0.95305 0.98589
  -5  -3   1 881.426 137.260   8-0.44970 0.08067-0.12273-0.12726-0.95328 0.98620
   5  -3  -1 975.766 127.011   9-0.13179 0.50068-0.21108-0.03892-0.97609 0.94323
  -5  -3   1 1294.67 128.406   5-0.67640 0.30755 0.30055-0.55053-0.78719 0.81996
   5  -3  -1 917.382 133.278   3 0.41474-0.04551-0.17763-0.07247 0.95432-0.98722
  -5  -3   1 1129.80 143.903   4 0.12447-0.49385-0.19843-0.05196 0.97829-0.94513
  -5   3   1 1014.14 136.965   5-0.43559 0.06656 0.14509 0.10488-0.95424 0.98716
   4   3  -1 475.898 82.0164   1-0.17703 0.46870 0.11698 0.13324-0.99309 0.94559
  -4   3   1 417.184 85.1803   2-0.40175 0.11034 0.21752 0.03267-0.94904 0.99644
   4  -3  -1 459.149 77.4963   7 0.63225-0.34103 0.10118-0.35135 0.87296-0.92038
  -4   3   1 430.963 51.2852   6 0.28272-0.57416 0.26221-0.01208 0.95929-0.91171
   4   3  -1 535.892 93.9025   7 0.51043-0.21932 0.07724 0.17275 0.93689-0.98432
  -4  -3   1 390.549 80.7019   4 0.16310-0.45467-0.09808-0.15235 0.99490-0.94717
   4   3  -1 381.285 48.4064   9-0.31473 0.60590 0.31010-0.06014-0.94017 0.89271
   4   3  -1 361.437 76.7706   6 0.30287-0.01172 0.33400-0.08440 0.93352-0.98092
  -4   3   1 730.150 105.297   8-0.70887 0.41761-0.23312 0.48315-0.78671 0.83413
  -4  -3   1 482.425 90.1349   8-0.47015 0.17887-0.13115-0.11885-0.94540 0.99289
   4  -3  -1 448.215 84.4978   9-0.17240 0.46350-0.11038-0.13953-0.99379 0.94637
   3   3  -1 1934.02 169.064   7 0.57099-0.35764 0.08907 0.16092 0.90862-0.97059
  -3  -3   1 1697.25 161.667   4 0.19865-0.41240 0.00008-0.25055 0.99993-0.93762
   3  -3  -1 2007.75 153.840   7 0.74308-0.52963 0.12354-0.37368 0.78525-0.84722
   3   3  -1 1862.96 160.249   1-0.19798 0.41183 0.00001 0.25017-0.99994 0.93788
  -3   3   1 1848.68 163.328   5-0.48718 0.27384 0.17701 0.07288-0.93128 0.99333
  -3   3   1 1845.55 120.931   6 0.19855-0.41229 0.00026 0.25025 0.99993-0.93772
   3   3  -1 2280.35 188.865   6 0.30584-0.09248 0.34502-0.09545 0.92895-0.99091
   3  -3  -1 1920.35 173.732   9-0.21004 0.42338-0.01087-0.23896-0.99967 0.93770
   3  -3  -1 1877.91 176.675   3 0.45162-0.23806-0.21213-0.03794 0.93587-0.99792
  -3  -3   1 2262.45 189.245   8-0.51428 0.30075-0.14946-0.10055-0.92588 0.98793
   2   3  -1 8524.65 290.253   7 0.68396-0.54836 0.11153 0.13846 0.83630-0.91281
   2   3  -1 7965.82 307.425   1-0.21420 0.35024-0.10345 0.35356-0.99423 0.91762
  -2  -3   1 7984.29 290.945   8-0.59654 0.46075-0.18416-0.06587-0.87908 0.95571
   2   3  -1 8117.09 317.579   6 0.31381-0.17822 0.37521-0.12570 0.91555-0.99204
   2  -3  -1 7828.07 305.575   3 0.49834-0.36261-0.25687 0.00683 0.90673-0.98334
   2  -3  -1 8012.52 318.179   9-0.24417 0.37977 0.08541-0.33517-0.99460 0.91809
   2  -3  -1 8815.45 190.541   8-0.59964 0.73529-0.18549-0.06443-0.87702 0.80046
  -2   3   1 7946.27 269.204   6 0.14552-0.28143-0.14399 0.39470 0.98876-0.91188
  -2   3   1 8256.61 296.241   5-0.55208 0.41656 0.21809 0.03174-0.89391 0.97050
  -2  -3   1 8274.44 278.258   9 0.02373-0.15942-0.54467 0.29437-0.81903 0.89576
  -2  -3   1 7683.10 314.533   4 0.23063-0.36654 0.09398-0.34447 0.99455-0.91765
   2  -3  -1 8879.17 308.117   4-0.03107 0.16685-0.54806 0.29790 0.81526-0.89203
  -1  -3   1 645.144 84.2879   9 0.00670-0.06460-0.51183 0.26152-0.84259 0.93388
   1  -3  -1 640.486 84.6308   3 0.57326-0.51534-0.33164 0.08163 0.84335-0.93451
  -1   3   1 649.586 85.4216   6 0.11482-0.17283-0.22207 0.47290 0.97262-0.88108
  -1   3   1 565.794 82.3080   2-0.50440 0.44624 0.36176-0.11141-0.86462 0.95581
   1   3  -1 564.921 84.5932   6 0.32695-0.26915 0.42744-0.17801 0.88918-0.98017
   1  -3  -1 606.024 86.4574   9-0.27420 0.33207 0.17599-0.42571-0.98006 0.88902
  -1   3   1 728.385 88.2447   5-0.65939 0.60163 0.28889-0.03910-0.80529 0.89638
   1  -3  -1 666.118 87.3949   4-0.01395 0.07194-0.51351 0.26335 0.84018-0.93152
   0  -3  -1 25.4290 23.1004   4-0.01007-0.00975-0.50555 0.25538 0.84560-0.95151
   0   3   1 45.6832 21.8185   6 0.09965-0.07975-0.25931 0.51020 0.96231-0.85614
   0  -3   1 63.4530 28.4655   4 0.28185-0.26208 0.25891-0.50943 0.96031-0.85422
   0  -3   1 44.9401 29.9157   9 0.00352 0.01635-0.50561 0.25529-0.84682 0.95267
   0   3  -1 34.8376 21.4994   6 0.34453-0.36447 0.50356-0.25421 0.84281-0.94826
   0  -3  -1 28.1039 15.1007   9-0.29958 0.27974 0.25805-0.50773-0.95836 0.85280
   1  -3   1 12166.9 376.832   4 0.30031-0.20267 0.32430-0.57481 0.93740-0.81672
   1  -3   1 12224.8 417.405   9 0.00960 0.08806-0.51748 0.26713-0.83869 0.95914
   1   3   1 12298.4 428.790   6 0.09547 0.00231-0.26939 0.52032 0.95921-0.83843
  -1  -3  -1 12196.7 380.474   9-0.31991 0.22238 0.32854-0.57819-0.93285 0.81277
   2  -3   1 1829.98 174.126   9 0.02220 0.15323-0.54174 0.29137-0.82121 0.95625
   2   3   1 1869.55 181.528   6 0.09930 0.07639-0.26014 0.51109 0.96206-0.82668
   2   3   1 1405.29 152.761   7-0.20325 0.37868-0.05537 0.30551 0.92220-0.78728
  -2  -3  -1 1642.98 165.649   4-0.02676-0.14865-0.53946 0.28932 0.82169-0.95673
   3   3   1 3679.13 271.908   6 0.10906 0.14452-0.23629 0.48725 0.96888-0.81893
  -3  -3  -1 3926.86 270.048   8 0.06078-0.31380 0.07740-0.32718-0.96615 0.81681
   3  -3   1 3653.02 271.974   9 0.03962 0.21361-0.57446 0.32407-0.79567 0.94530
  -3  -3  -1 3406.31 251.996   4-0.04315-0.21006-0.57186 0.32173 0.79665-0.94624
   3  -3   1 2849.36 261.493   7-0.18233 0.43567-0.05164-0.19857 0.93036-0.78078
   3   3   1 3979.51 273.760   7-0.10012 0.35334-0.03687 0.28698 0.95795-0.80847
   4   3   1 68.6632 41.0569   7-0.02050 0.35152-0.02244 0.27253 0.97801-0.81396
  -4   3  -1 47.4101 39.5438   8 0.10568-0.43664 0.09419 0.15590-0.95262 0.78856
   4   3   1 55.8983 53.5680   6 0.12332 0.20811-0.20080 0.45173 0.97774-0.81323
   4  -3   1 35.3687 26.0404   7-0.05904 0.39017-0.02944-0.22078 0.96911-0.80497
   4  -3   1 -19.326 34.3294   9 0.06071 0.27031-0.61279 0.36238-0.76258 0.92682
  -4  -3  -1 22.4406 38.1173   8-0.00290-0.32789 0.05336-0.30315-0.98144 0.81753
  -5   3  -1 4862.54 294.641   8-0.00898-0.39975 0.05106 0.19907-0.98267 0.80403
  -5   3  -1 3651.72 305.819   1-0.23813-0.17004-0.29361 0.54312-0.95401 0.77584
  -5  -3  -1 4662.66 387.754   8-0.05969-0.34886 0.03172-0.28150-0.99124 0.81275
   5  -3   1 4085.66 293.242   7 0.03239 0.37653-0.01278-0.23747 0.98777-0.80907
   6   3   1 2338.59 261.266   6 0.16158 0.32550-0.10164 0.35251 0.99450-0.80090
  -6   3  -1 2785.21 250.808   8-0.09720-0.38929 0.01731 0.23284-0.99571 0.80250
  -6  -3  -1 2664.50 305.312   8-0.11219-0.37413 0.01153-0.26131-0.99705 0.80399
   6  -3   1 2141.58 241.606   7 0.10693 0.37978 0.00092-0.25120 0.99670-0.80342
   6   3   1 2177.47 268.084   7 0.10591 0.38069 0.00074 0.24931 0.99662-0.80342
   7   3   1 3295.61 327.655   6 0.18426 0.38058-0.03988 0.29070 0.99920-0.79106
  -7  -3  -1 3349.69 376.245   8-0.16185-0.40223-0.00773-0.24203-0.99964 0.79202
  -7   3  -1 4381.36 372.357   8-0.17064-0.39363-0.01116 0.26131-0.99979 0.79201
   7   3   1 3134.05 359.891   7 0.16060 0.40379 0.01086 0.23916 0.99957-0.79180
   7  -3   1 3932.07 387.019   7 0.17161 0.39286 0.01291-0.26320 0.99979-0.79194
   8  -3   1 252.643 219.603   7 0.23012 0.41212 0.02383-0.27414 0.99875-0.77633
  -8   3  -1 455.858 209.685   8-0.23515-0.40689-0.03645 0.28663-0.99813 0.77577
  11  -4  -1 -140.68 112.246   3 0.49372 0.34243-0.25238-0.08114 0.90993-0.85533
 -11   4   1 12.5158 102.117   2-0.46948-0.36598 0.31098 0.02249-0.89967 0.84534
  10   4  -1 104.235 122.642   7 0.53787 0.21994 0.08259 0.25070 0.92487-0.88488
  10  -4  -1 123.625 89.2158   7 0.60975 0.14817 0.09671-0.43045 0.88696-0.84685
  10  -4  -1 -83.430 121.596   3 0.47352 0.28483-0.23293-0.10059 0.92308-0.88306
 -10  -4   1 67.4507 97.1540   8-0.51043-0.24739-0.14785-0.18539-0.92773 0.88786
 -10   4   1 -39.752 72.4211   5-0.49560-0.26275 0.18228 0.15112-0.92700 0.88687
 -10   4   1 88.4438 78.0759   2-0.45043-0.30729 0.28409 0.04936-0.91578 0.87596
   9   4  -1 335.394 124.689   7 0.52054 0.15947 0.07921 0.25410 0.93261-0.90720
   9  -4  -1 481.154 120.882   7 0.59755 0.08259 0.09430-0.42800 0.89410-0.86859
  -9   4   1 589.086 140.713   5-0.47751-0.20296 0.17099 0.16242-0.93601 0.91051
  -9   4   1 445.756 139.893   2-0.43361-0.24640 0.26075 0.07268-0.92849 0.90318
  -9  -4   1 479.152 164.250   8-0.49215-0.18792-0.14025-0.19300-0.93612 0.91080
   9  -4  -1 440.259 129.883   3 0.45581 0.22472-0.21609-0.11744 0.93353-0.90811
   8  -4  -1 438.142 130.023   3 0.44128 0.16143-0.20238-0.13114 0.94142-0.93058
  -8   4   1 445.238 121.167   2-0.41956-0.18273 0.24154 0.09190-0.93809 0.92731
  -8  -4   1 413.938 101.471   4 0.00854-0.61133-0.46671 0.13300 0.87032-0.88081
   8   4  -1 310.825 114.224   7 0.50773 0.09449 0.07672 0.25661 0.93801-0.92717
   8  -4  -1 490.818 122.104   7 0.59203 0.01031 0.09321-0.42688 0.89723-0.88631
   8  -4  -1 364.808 119.790   9-0.01202 0.61430-0.47473 0.14118-0.86672 0.87767
  -8   4   1 315.410 96.3219   5-0.46301-0.13961 0.16198 0.17141-0.94272 0.93185
   8   4  -1 467.645 121.001   6 0.32255 0.27971 0.40959-0.07667 0.89866-0.88769
  -8  -4   1 484.276 143.693   8-0.47775-0.12454-0.13429-0.19897-0.94229 0.93154
   7   4  -1 2189.46 253.468   7 0.50110 0.02332 0.07543 0.25789 0.94070-0.94444
   7  -4  -1 1999.46 218.126   7 0.59616-0.07160 0.09403-0.42766 0.89489-0.89856
   7   4  -1 1955.89 223.301   6 0.31346 0.21106 0.37389-0.04094 0.91616-0.91980
  -7   4   1 1821.86 225.193   2-0.40901-0.11555 0.22727 0.10618-0.94474 0.94849
   7  -4  -1 2071.22 245.833   3 0.43081 0.09406-0.19259-0.14093 0.94674-0.95048
   7  -4  -1 1934.36 216.242   9-0.05215 0.57662-0.39153 0.05805-0.91219 0.90853
  -7   4   1 1828.57 208.643   5-0.45318-0.07156 0.15591 0.17746-0.94702 0.95074
  -7  -4   1 1901.67 234.267   8-0.46856-0.05597-0.13049-0.20277-0.94604 0.94985
  -7  -4   1 2213.97 237.578   4 0.04725-0.57226-0.38221 0.04847 0.91539-0.91133
   6  -4  -1 597.257 127.179   3 0.42565 0.02141-0.18776-0.14575 0.94925-0.96757
  -6   4   1 723.237 136.886   2-0.40290-0.04394 0.21907 0.11440-0.94837 0.96667
   6   4  -1 750.973 134.897   7 0.50321-0.05657 0.07584 0.25750 0.93985-0.95815
   6  -4  -1 640.821 106.323   7 0.61471-0.16794 0.09770-0.43130 0.88396-0.90221
  -6  -4   1 697.848 133.477   4 0.08371-0.53092-0.29805-0.03576 0.94973-0.93112
   6  -4  -1 696.367 134.452   9-0.09015 0.53681-0.30807-0.02533-0.94721 0.92894
   6   4  -1 579.704 118.627   6 0.30646 0.14030 0.34734-0.01437 0.92797-0.94621
  -6  -4   1 569.279 128.165   8-0.46650 0.01973-0.12964-0.20363-0.94686 0.96522
  -6   4   1 571.626 110.513   5-0.44965 0.00277 0.15373 0.17962-0.94852 0.96684
  -6   4   1 931.974 132.001   8-0.68721 0.24038-0.22350 0.55693-0.80772 0.82597
   5  -4  -1 -11.144 44.7984   3 0.42746-0.05823-0.18945-0.14405 0.94838-0.98128
   5   4  -1 21.2051 36.7433   7 0.51813-0.14927 0.07874 0.25461 0.93365-0.96651
  -5   4   1 -39.575 40.4564   2-0.40246 0.03333 0.21847 0.11502-0.94863 0.98148
   5  -4  -1 18.7738 22.5430   7 0.65578-0.28678 0.10587-0.43943 0.85710-0.88992
   5   4  -1 39.3091 40.2017   6 0.30205 0.06692 0.33101 0.00197 0.93474-0.96756
   5  -4  -1 -0.2537 54.6905   9-0.12582 0.49468-0.22537-0.10794-0.97258 0.93973
  -5   4   1 55.0781 39.9420   6 0.35165-0.72079 0.53728-0.20420 0.81891-0.78569
  -5  -4   1 -8.5827 39.2679   4 0.11775-0.48715-0.21527-0.11857 0.97433-0.94116
  -5   4   1 -51.306 43.6852   5-0.45471 0.08570 0.15686 0.17646-0.94636 0.97927
  -5  -4   1 16.9805 45.6458   8-0.47451 0.10548-0.13295-0.20033-0.94363 0.97655
  -4  -4   1 1304.84 162.099   4 0.14913-0.44071-0.13507-0.19882 0.99015-0.94241
   4   4  -1 1133.31 137.817   7 0.55259-0.26152 0.08546 0.24788 0.91789-0.96530
  -4   4   1 1309.21 111.568   6 0.28611-0.57763 0.27395 0.05954 0.95554-0.90790
   4   4  -1 1382.74 162.117   6 0.30077-0.00959 0.32628 0.00668 0.93663-0.98403
  -4   4   1 1163.75 149.573   2-0.40930 0.11789 0.22765 0.10587-0.94456 0.99197
   4  -4  -1 1251.10 152.769   9-0.15890 0.44999-0.14459-0.18865-0.98913 0.94171
   4  -4  -1 1457.30 140.747   7 0.73273-0.44150 0.12143-0.45494 0.79500-0.84239
   4  -4  -1 1094.08 141.608   3 0.43863-0.14725-0.19991-0.13357 0.94280-0.99027
  -4   4   1 1095.31 132.965   5-0.47187 0.18070 0.16747 0.16580-0.93867 0.98615
  -4  -4   1 1237.58 150.058   8-0.49722 0.20593-0.14235-0.19094-0.93385 0.98134
   3  -4  -1 91.5330 32.4696   4-0.02201 0.23559-0.52990 0.19631 0.82866-0.89086
   3   4  -1 77.4705 34.6951   7 0.61800-0.40468 0.09835 0.23499 0.88195-0.94390
   3   4  -1 42.6223 17.4131   2-0.43319 0.64680 0.26018 0.07331-0.92879 0.86684
  -3  -4   1 59.6406 26.0372   9 0.01355-0.22699-0.52514 0.19148-0.83330 0.89547
   3  -4  -1 111.855 52.5123   9-0.18910 0.40244-0.06703-0.26614-0.99775 0.93578
  -3   4   1 101.832 41.0250   6 0.23193-0.44571 0.09835 0.23548 0.99406-0.93184
  -3  -4   1 84.0119 43.5112   4 0.17759-0.39136-0.05878-0.27515 0.99823-0.93591
   3   4  -1 40.6858 28.3186   6 0.30310-0.08973 0.33485-0.00192 0.93318-0.99515
  -3  -4   1 56.1722 36.1454   8-0.54205 0.32851-0.16109-0.17224-0.91170 0.97376
   3  -4  -1 53.8300 33.0320   3 0.46252-0.24896-0.22245-0.11101 0.92969-0.99173
   3  -4  -1 76.3012 18.1619   8-0.02162 0.23509 0.04625-0.37937-0.98507 0.92308
  -2   4   1 2202.55 99.4450   7 0.30385-0.43958 0.03769 0.29576 0.99204-0.91543
   2   4  -1 2808.95 185.482   7 0.73199-0.59640 0.12128 0.21206 0.79568-0.87216
  -2  -4   1 2309.59 176.971   9-0.00934-0.12632-0.48011 0.14644-0.86338 0.94009
  -2   4   1 2195.91 162.925   6 0.19260-0.32855-0.01658 0.35064 0.99985-0.92300
   2   4  -1 2318.16 192.482   6 0.30947-0.17390 0.35864-0.02578 0.92307-0.99958
   2  -4  -1 2225.35 178.158   3 0.50358-0.36785-0.26196-0.07146 0.90302-0.97963
   2  -4  -1 2280.70 189.434   9-0.21612 0.35171 0.00581-0.33890-0.99955 0.92304
  -2   4   1 2204.78 167.191   5-0.56592 0.43041 0.22699 0.10615-0.88455 0.96112
   2  -4  -1 2396.46 180.595   4 0.00057 0.13522-0.48347 0.14989 0.85998-0.93676
  -2  -4   1 2440.11 171.955   8-0.62066 0.48485-0.19450-0.13884-0.86239 0.93903
   1  -4  -1 7608.34 342.674   9-0.23963 0.29750 0.07219-0.40523-0.99592 0.90488
  -1   4   1 7938.38 332.901   6 0.16633-0.22440-0.08890 0.42311 0.99583-0.90434
  -1   4   1 7978.34 340.565   2-0.49591 0.43774 0.34922-0.01550-0.87386 0.96505
   1   4  -1 7664.78 342.818   6 0.32005-0.26229 0.39961-0.06685 0.90375-0.99476
   1  -4  -1 8063.55 328.816   3 0.56692-0.50902-0.32513-0.00825 0.84967-0.94082
  -1  -4   1 8004.13 340.728   9-0.01873-0.03916-0.46117 0.12751-0.87492 0.96619
  -1   4   1 9172.62 339.222   5-0.65990 0.60216 0.28923 0.04385-0.80476 0.89585
   1  -4  -1 8356.50 347.130   4 0.01040 0.04760-0.46276 0.12918 0.87269-0.96404
  -1   4  -1 175.898 43.8044   6 0.35187-0.44959 0.53836-0.20579 0.81811-0.93804
   1   4   1 289.289 51.2499   7-0.18917 0.28677-0.05286 0.38639 0.92774-0.80741
   1  -4   1 117.403 28.8194   4 0.25633-0.15871 0.17409-0.50806 0.98197-0.86131
   1  -4   1 168.221 54.4001   9-0.01191 0.10955-0.47495 0.14126-0.86658 0.98700
  -1   4  -1 188.763 45.8018   1-0.22310 0.12587-0.16730 0.50048-0.98512 0.86496
   1   4   1 208.718 61.2762   6 0.14347-0.04573-0.14932 0.48368 0.98788-0.86716
  -1  -4  -1 279.318 55.0737   8 0.08640-0.18388 0.08700-0.42008-0.95871 0.83851
  -1  -4  -1 188.223 56.1849   9-0.27479 0.17724 0.17784-0.51079-0.97966 0.85954
   2   4   1 -18.331 31.5988   7-0.08815 0.26354-0.03472 0.36822 0.96137-0.82648
   2   4   1 57.1283 38.5983   6 0.14298 0.03266-0.15060 0.48499 0.98767-0.85234
  -2  -4  -1 13.7892 27.5226   9-0.28575 0.11050 0.21263-0.54556-0.97140 0.83675
  -2  -4  -1 30.7436 36.3034   8 0.03044-0.20568 0.06598-0.39905-0.97401 0.83924
   2  -4   1 53.7329 42.1001   4 0.26559-0.09013 0.20421-0.53818 0.97528-0.84005
   2  -4   1 22.2357 35.4647   9 0.00020 0.17523-0.49906 0.16533-0.85118 0.98619
  -2   4  -1 11.8339 30.8824   1-0.22576 0.05078-0.18761 0.52071-0.98131 0.84664
   3  -4   1 1355.43 142.639   4 0.26975-0.01645 0.21798-0.55192 0.97186-0.82205
   3   4   1 1417.96 181.713   6 0.14783 0.10569-0.13796 0.47235 0.98970-0.83978
  -3   4  -1 1493.47 161.295   1-0.22612-0.02659-0.19047 0.52348-0.98074 0.83156
  -3  -4  -1 1590.81 150.098   9-0.29167 0.03871 0.23184-0.56477-0.96620 0.81701
   3  -4   1 1589.53 188.649   9 0.01645 0.23675-0.53072 0.19696-0.82930 0.97890
   3  -4   1 1727.12 141.377   7-0.08611 0.33946-0.03435-0.29924 0.96194-0.81238
  -3  -4  -1 1649.74 174.339   8-0.01934-0.23367 0.04712-0.38020-0.98465 0.83532
  -3  -4  -1 1556.15 188.992   4-0.02104-0.23220-0.52795 0.19439 0.83006-0.97967
   3   4   1 1638.03 171.036   7-0.01455 0.26774-0.02135 0.35484 0.97925-0.82979
   4  -4   1 -14.885 25.1137   7 0.02120 0.30993-0.01483-0.31877 0.98595-0.82181
   4   4   1 20.8947 45.1707   7 0.04650 0.28447-0.01019 0.34366 0.98990-0.82587
  -4  -4  -1 -10.386 42.5714   4-0.03963-0.29143-0.56495 0.23141 0.80218-0.96634
   4   4   1 -9.0895 47.1884   6 0.15698 0.17441-0.11387 0.44825 0.99306-0.82856
  -4   4  -1 13.4384 37.4257   1-0.22402-0.10640-0.17423 0.50716-0.98387 0.82018
   4  -4   1 -28.184 33.0178   4 0.26777 0.06336 0.21141-0.54535 0.97352-0.80914
  -4  -4  -1 -24.460 44.7438   9-0.29165-0.03901 0.23180-0.56473-0.96621 0.80247
  -4  -4  -1 -82.641 75.3551   8-0.06591-0.26486 0.02933-0.36240-0.99209 0.82819
   4  -4   1 33.1799 46.0515   9 0.03604 0.29494-0.56780 0.23402-0.80106 0.96526
  -4   4  -1 48.6792 42.1760   8 0.02950-0.36049 0.06563 0.26782-0.97423 0.81015
   5  -4   1 4960.09 278.233   4 0.25757 0.15138 0.17811-0.51201 0.98114-0.80220
  -5   4  -1 4459.16 278.585   1-0.21890-0.18923-0.13632 0.46918-0.99008 0.81186
   5   4   1 3621.58 319.362   6 0.16961 0.23963-0.08004 0.41440 0.99664-0.81758
  -5  -4  -1 4106.47 236.716   9-0.28390-0.12448 0.20671-0.53965-0.97291 0.79460
  -5   4  -1 4099.01 230.364   8-0.08110-0.32765 0.02350 0.30997-0.99399 0.81533
  -5  -4  -1 4118.91 344.754   8-0.11061-0.29791 0.01213-0.34521-0.99692 0.81846
   5  -4   1 3731.40 252.166   7 0.10069 0.30823-0.00023-0.33339 0.99617-0.81747
   5   4   1 4140.74 335.212   7 0.10086 0.30790-0.00020 0.33364 0.99619-0.81758
   6   4   1 364.164 115.108   7 0.15127 0.33529 0.00913 0.32430 0.99929-0.80610
   6  -4   1 248.392 91.4756   7 0.16641 0.32028 0.01194-0.34558 0.99970-0.80643
   6   4   1 265.647 117.291   6 0.18507 0.30200-0.03765 0.37195 0.99929-0.80567
  -6  -4  -1 396.931 144.039   8-0.15414-0.33215-0.00473-0.32833-0.99942 0.80639
  -6   4  -1 428.586 96.8486   8-0.16372-0.32279-0.00846 0.34197-0.99968 0.80644
   7  -4   1 446.051 148.276   7 0.22446 0.34000 0.02277-0.35642 0.99902-0.79116
   7   4   1 228.939 115.779   6 0.20284 0.36201 0.01253 0.32171 0.99980-0.79163
  -7  -4  -1 669.093 215.214   8-0.19689-0.36717-0.02142-0.31165-0.99972 0.79213
   7   4   1 179.883 110.335   7 0.19916 0.36519 0.01804 0.31537 0.99976-0.79200
   8  -4   1 -140.67 203.821   7 0.27784 0.36441 0.03278-0.36647 0.99512-0.77268
  10   5  -1 283.123 152.967   7 0.56462 0.19314 0.08782 0.32885 0.91190-0.87190
 -10   5   1 73.5463 97.8782   2-0.45569-0.30201 0.29146 0.12531-0.91153 0.87174
 -10  -5   1 168.906 88.2469   8-0.52927-0.22853-0.15573-0.26082-0.91841 0.87856
 -10   5   1 95.8900 92.6490   5-0.51023-0.24810 0.19147 0.22532-0.91917 0.87902
  10  -5  -1 103.824 81.3429   3 0.48304 0.27532-0.24207-0.17485 0.91705-0.87702
   9   5  -1 879.970 204.668   7 0.55024 0.12972 0.08501 0.33168 0.91903-0.89361
  -9  -5   1 961.664 204.097   8-0.51335-0.16669-0.14907-0.26748-0.92633 0.90103
  -9   5   1 813.125 169.547   5-0.49427-0.18619 0.18145 0.23533-0.92769 0.90215
  -9   5   1 913.329 196.397   2-0.44067-0.23932 0.27050 0.14625-0.92333 0.89805
   9  -5  -1 822.922 167.468   3 0.46727 0.21328-0.22697-0.18995 0.92688-0.90143
  -8   5   1 -21.837 47.7299   2-0.42839-0.17387 0.25360 0.16316-0.93216 0.92140
  -8  -5   1 69.2447 84.2218   4 0.01407-0.61689-0.45495 0.03779 0.87729-0.88777
   8   5  -1 42.7704 72.9102   7 0.54088 0.06129 0.08318 0.33351 0.92347-0.91263
   8   5  -1 145.887 96.0955   6 0.32139 0.28097 0.40494 0.01135 0.90105-0.89004
   8  -5  -1 69.0000 72.9994   9-0.01824 0.62047-0.46217 0.04528-0.87432 0.88528
  -8  -5   1 -90.414 108.518   8-0.50159-0.10069-0.14417-0.27238-0.93186 0.92112
  -8   5   1 -1.7022 50.5960   5-0.48205-0.12054 0.17381 0.24296-0.93381 0.92290
   8  -5  -1 -7.4031 73.9599   3 0.45470 0.14801-0.21504-0.20188 0.93416-0.92330
   7  -5  -1 650.847 149.273   3 0.44619 0.07869-0.20700-0.20992 0.93883-0.94256
  -7   5   1 734.314 153.952   2-0.41951-0.10504 0.24148 0.17529-0.93812 0.94190
   7   5  -1 514.229 123.656   7 0.53830-0.01392 0.08267 0.33402 0.92467-0.92840
  -7  -5   1 720.402 152.556   4 0.04766-0.57270-0.38129-0.03592 0.91582-0.91175
   7  -5  -1 665.230 146.570   9-0.05318 0.57761-0.38933-0.02748-0.91325 0.90959
   7   5  -1 618.685 138.925   6 0.31349 0.21111 0.37399 0.04234 0.91612-0.91972
  -7  -5   1 937.030 182.474   8-0.49531-0.02922-0.14156-0.27500-0.93471 0.93853
  -7   5   1 702.100 136.784   5-0.47463-0.05009 0.16920 0.24755-0.93738 0.94107
   6  -5  -1 381.811 105.485   3 0.44281 0.00425-0.20382-0.21309 0.94062-0.95893
  -6   5   1 500.468 120.431   2-0.41482-0.03201 0.23513 0.18167-0.94113 0.95945
   6   5  -1 440.819 107.007   7 0.54517-0.09858 0.08402 0.33268 0.92146-0.93974
   6  -5  -1 499.891 99.7751   7 0.70073-0.25394 0.11492-0.53186 0.82290-0.84113
  -6  -5   1 634.204 149.213   4 0.07897-0.52620-0.30925-0.10801 0.94572-0.92711
   6  -5  -1 448.781 110.108   9-0.08591 0.53254-0.31761-0.09910-0.94370 0.92545
   6   5  -1 504.719 115.425   6 0.30749 0.13933 0.35121 0.06514 0.92631-0.94452
  -6  -5   1 354.846 107.257   8-0.49641 0.04962-0.14202-0.27456-0.93422 0.95259
  -6   5   1 406.939 108.984   5-0.47351 0.02666 0.16850 0.24820-0.93790 0.95619
   5   5  -1 1466.11 179.867   7 0.56562-0.19681 0.08801 0.32867 0.91139-0.94423
   5  -5  -1 1021.83 140.707   7 0.75759-0.38858 0.12652-0.54344 0.77093-0.80372
   5   5  -1 1428.69 189.971   6 0.30380 0.06522 0.33743 0.07892 0.93212-0.96493
  -5   5   1 1378.69 185.327   2-0.41535 0.04622 0.23583 0.18099-0.94080 0.97367
   5  -5  -1 1325.42 182.923   3 0.44603-0.07680-0.20685-0.21004 0.93891-0.97180
   5  -5  -1 1207.28 170.334   9-0.11627 0.48511-0.24795-0.16870-0.96653 0.93370
  -5   5   1 1383.25 175.667   5-0.48081 0.11182 0.17303 0.24362-0.93442 0.96729
  -5  -5   1 1307.60 173.983   8-0.50768 0.13864-0.14670-0.26988-0.92903 0.96197
  -5  -5   1 1375.26 190.604   4 0.10788-0.47729-0.23973-0.17758 0.96796-0.93478
  -4  -5   1 1844.93 208.848   4 0.13420-0.42580-0.17371-0.24363 0.98348-0.93574
   4   5  -1 1941.65 183.664   7 0.60623-0.31517 0.09602 0.32066 0.88905-0.93644
  -4   5   1 1878.42 162.353   6 0.29427-0.58589 0.30278 0.11405 0.94557-0.89786
   4   5  -1 1880.66 207.125   6 0.30278-0.01158 0.33367 0.08266 0.93366-0.98105
  -4   5   1 1671.53 191.457   2-0.42235 0.13094 0.24535 0.17153-0.93625 0.98368
   4  -5  -1 1888.42 205.971   9-0.14408 0.43516-0.18128-0.23527-0.98259 0.93519
  -4   5   1 1726.13 179.594   5-0.49955 0.20841 0.18475 0.23185-0.92493 0.97238
   4  -5  -1 1699.58 187.566   3 0.45781-0.16643-0.21799-0.19889 0.93240-0.97987
  -4  -5   1 2152.49 182.369   9 0.02647-0.31764-0.54982 0.13279-0.81512 0.86275
  -4  -5   1 1823.25 193.383   8-0.53337 0.24206-0.15745-0.25916-0.91630 0.96380
   4   5  -1 1725.49 197.414   1-0.16143 0.45315 0.19516 0.22179-0.98051 0.93300
   4  -5  -1 2083.61 186.117   4-0.03444 0.32582-0.55474 0.13774 0.81016-0.85777
   3   5  -1 953.979 114.854   7 0.67731-0.46400 0.11019 0.30649 0.84139-0.90331
  -3   5   1 979.898 118.553   6 0.25468-0.46852 0.16925 0.24790 0.98295-0.92070
   3   5  -1 999.603 81.4713   2-0.46935 0.68293 0.31079 0.10612-0.89978 0.83786
   3   5  -1 1016.14 149.227   6 0.30480-0.09143 0.34117 0.07513 0.93057-0.99253
  -3   5   1 1098.98 144.748   2-0.43739 0.22370 0.26598 0.15096-0.92575 0.98776
  -3  -5   1 934.952 142.846   4 0.15777-0.37154-0.11229-0.30508 0.99326-0.93094
  -3  -5   1 1259.25 140.443   9-0.00371-0.20969-0.49132 0.07431-0.85625 0.91841
   3  -5  -1 885.549 140.605   9-0.16914 0.38247-0.11871-0.29777-0.99278 0.93082
   3  -5  -1 914.906 131.245   3 0.48078-0.26724-0.23991-0.17694 0.91850-0.98054
  -3   5   1 1053.88 135.576   5-0.53408 0.32078 0.20658 0.20996-0.90532 0.96733
  -3  -5   1 1013.71 130.733   8-0.57993 0.36636-0.17709-0.23953-0.88974 0.95182
   3   5  -1 1009.43 144.730   1-0.17588 0.38978 0.12296 0.29393-0.99236 0.93031
   3  -5  -1 1152.14 137.931   4-0.00524 0.21883-0.49558 0.07857 0.85220-0.91440
  -2  -5   1 51.3828 25.1977   3 0.36638-0.50225-0.13336-0.28364 0.97318-0.89650
  -2   5   1 36.8970 46.9592   6 0.22395-0.35995 0.07430 0.34309 0.99651-0.91966
  -2  -5   1 51.0391 44.3862   4 0.17836-0.31428-0.05668-0.36073 0.99835-0.92145
   2   5  -1 47.4753 38.0590   1-0.18752 0.32363 0.06036 0.35645-0.99818 0.92159
   2   5  -1 41.2249 25.4166   2-0.32258 0.45839 0.11461 0.30208-0.98337 0.90691
   2   5  -1 32.6479 26.3819   6 0.31016-0.17461 0.36126 0.05497 0.92190-0.99841
  -2  -5   1 31.2349 39.2654   9-0.02005-0.11557-0.45847 0.04147-0.87651 0.95322
  -2   5   1 83.0205 44.7653   2-0.46226 0.32630 0.30072 0.11629-0.90601 0.98260
   2  -5  -1 72.9741 49.9632   3 0.51825-0.38254-0.27633-0.14047 0.89209-0.96869
  -2  -5   1 17.0246 26.3250   8-0.65666 0.52083-0.21010-0.20655-0.83452 0.91118
   2  -5  -1 -2.7867 30.6793   9-0.19122 0.32682-0.06142-0.35499-0.99810 0.92159
  -1   5   1 247.890 69.8027   6 0.20180-0.25991 0.00952 0.40805 0.99985-0.90837
  -1  -5   1 207.312 65.5721   4 0.19574-0.25383-0.00818-0.40923 0.99993-0.90845
   1   5  -1 258.989 73.8749   6 0.31897-0.26123 0.39533 0.02080 0.90588-0.99690
   1  -5  -1 252.434 30.6001   8-0.13338 0.19134 0.00333-0.41973-0.99850 0.90739
  -1  -5   1 203.232 65.4471   9-0.02669-0.03118-0.44490 0.02789-0.88433 0.97560
  -1   5   1 311.510 68.2061   5-0.67488 0.61716 0.29949 0.11689-0.78887 0.87994
   1   5  -1 271.565 79.8697   1-0.19656 0.25488 0.00848 0.40824-0.99992 0.90880
   1  -5  -1 265.238 65.3054   3 0.57373-0.51586-0.33212-0.08464 0.84288-0.93402
   1  -5  -1 322.505 83.0160   9-0.21008 0.26795-0.01077-0.40559-0.99967 0.90862
   0  -5   1 2558.30 222.878   4 0.20965-0.18989 0.03171-0.44913 0.99923-0.89317
   0   5  -1 2387.32 212.957   1-0.20318 0.18374-0.03169 0.44832-0.99936 0.89372
   0   5   1 2859.92 220.494   2-0.54710 0.56670 0.42714-0.00997-0.80960 0.91542
   0   5   1 2469.52 215.944   6 0.18726-0.16748-0.03156 0.44924 0.99950-0.89341
   0   5  -1 2552.20 219.995   6 0.33108-0.35114 0.44460-0.02857 0.87959-0.98509
   0  -5   1 2536.17 216.695   9-0.02607 0.04596-0.44616 0.02913-0.88362 0.98946
   0  -5  -1 2660.10 222.481   9-0.22544 0.20560 0.03177-0.44809-0.99873 0.89314
   0  -5  -1 2509.11 135.100   8-0.06390 0.04414 0.03010-0.44648-0.99182 0.88616
   0  -5  -1 2598.08 222.537   4 0.01818-0.03801-0.44612 0.02909 0.88237-0.98830
   0   5   1 2526.94 112.015   7-0.03662 0.05638-0.02537 0.44225 0.97447-0.86873
   0  -5   1 2623.21 100.980   7 0.26783-0.24785 0.03090-0.44770 0.99609-0.89037
  -1   5  -1 1717.99 185.002   1-0.20753 0.11033-0.05919 0.47573-0.99803 0.87786
   1   5   1 1349.41 169.523   6 0.17924-0.08155-0.05376 0.47152 0.99852-0.87782
  -1   5  -1 1784.74 186.216   6 0.34585-0.44367 0.50965-0.09375 0.83865-0.95860
  -1  -5  -1 1661.65 174.464   9-0.23697 0.13941 0.06452-0.48081-0.99660 0.87647
   1  -5   1 1769.84 188.646   9-0.01982 0.11747-0.45895 0.04191-0.87623 0.99663
  -1  -5  -1 1522.30 132.539   8-0.06227-0.03523 0.03073-0.44710-0.99160 0.87138
  -1  -5  -1 1649.89 184.638   4 0.01276-0.11039-0.45773 0.04072 0.87566-0.99616
   1   5   1 1625.09 119.406   7 0.00558 0.09197-0.01768 0.43456 0.98318-0.86287
  -2   5  -1 1473.47 169.971   1-0.20967 0.03473-0.07308 0.48953-0.99705 0.86238
   2   5   1 1403.89 180.943   6 0.17673-0.00114-0.06065 0.47846 0.99811-0.86279
  -2   5  -1 1083.20 139.921   6 0.36181-0.53734 0.58989-0.17410 0.77689-0.91124
  -2  -5  -1 1382.98 157.823   9-0.24420 0.06895 0.08549-0.50176-0.99459 0.85992
   2  -5   1 1336.11 177.860   9-0.00901 0.18442-0.48075 0.06367-0.86298 0.99797
  -2  -5  -1 1600.48 156.929   8-0.07980-0.09545 0.02400-0.44037-0.99383 0.85906
  -2  -5  -1 1436.61 180.860   4 0.00287-0.17831-0.47867 0.06166 0.86300-0.99806
   2  -5   1 1374.75 82.8374   7-0.03899 0.21454-0.02580-0.39112 0.97393-0.83895
   2   5   1 1448.17 137.310   7 0.04641 0.12893-0.01021 0.42707 0.98989-0.85501
   3   5   1 766.718 112.957   7 0.08682 0.16632-0.00278 0.41963 0.99485-0.84540
  -3  -5  -1 597.251 126.297   4-0.01073-0.24254-0.50691 0.08991 0.84468-0.99430
  -3  -5  -1 682.616 112.747   9-0.24650-0.00647 0.09221-0.50846-0.99384 0.84462
   3   5   1 646.866 132.840   6 0.17884 0.07464-0.05488 0.47270 0.99846-0.84855
  -3   5  -1 717.125 126.446   1-0.20954-0.04312-0.07226 0.48862-0.99712 0.84792
  -3   5  -1 712.539 55.8912   8 0.02181-0.27503 0.06272 0.35407-0.97605 0.82651
  -3  -5  -1 800.280 122.463   8-0.10563-0.14738 0.01406-0.43042-0.99649 0.84716
   3  -5   1 713.430 77.8963   7 0.07333 0.18002-0.00527-0.41166 0.99338-0.84384
   3  -5   1 602.635 127.584   9 0.00552 0.24765-0.50953 0.09242-0.84416 0.99375
   4   5   1 -62.928 49.0347   7 0.12703 0.20388 0.00464 0.41219 0.99813-0.83411
   4  -5   1 20.0139 25.3729   7 0.14348 0.18764 0.00769-0.42463 0.99898-0.83487
  -4  -5  -1 -78.545 71.7715   4-0.02744-0.30363-0.54082 0.12384 0.82069-0.98486
  -4   5  -1 46.1545 39.9855   1-0.20692-0.12345-0.05529 0.47158-0.99826 0.83455
   4  -5   1 -67.706 71.5765   9 0.02320 0.30775-0.54365 0.12651-0.81978 0.98397
   4   5   1 43.4489 60.0084   6 0.18481 0.14655-0.03838 0.45618 0.99926-0.83477
   4  -5   1 2.87159 40.7484   4 0.22104 0.11006 0.06521-0.48259 0.99726-0.83290
  -4  -5  -1 -43.902 63.6198   8-0.13583-0.19493 0.00237-0.41874-0.99864 0.83475
  -4  -5  -1 17.7357 36.8313   9-0.24274-0.08795 0.08124-0.49751-0.99504 0.83126
  -5   5  -1 411.245 94.2955   1-0.20131-0.20676-0.02011 0.43634-0.99970 0.82147
  -5  -5  -1 312.045 98.1367   4-0.04683-0.36205-0.57901 0.16204 0.79081-0.96953
   5   5   1 219.090 79.7961   7 0.16716 0.24155 0.01208 0.40474 0.99972-0.82112
   5  -5   1 244.729 77.2087   7 0.19978 0.20912 0.01815-0.43513 0.99975-0.82107
   5   5   1 306.544 93.4237   6 0.19402 0.21520-0.01259 0.43036 0.99990-0.82083
   5  -5   1 180.168 99.6223   9 0.04357 0.36517-0.58173 0.16455-0.78967 0.96846
  -5  -5  -1 348.569 102.123   8-0.16864-0.23988-0.01038-0.40598-0.99977 0.82132
   6   5   1 525.313 147.723   7 0.20725 0.27926 0.01955 0.39725 0.99960-0.80643
   6  -5   1 737.100 147.865   7 0.24998 0.23669 0.02755-0.44455 0.99755-0.80428
   6   5   1 574.175 164.822   6 0.20595 0.28110 0.02146 0.39626 0.99959-0.80595
  -6  -5  -1 937.028 192.776   8-0.20312-0.28317-0.02386-0.39250-0.99958 0.80657
   7   5   1 1181.95 233.885   7 0.24729 0.31700 0.02704 0.38974 0.99774-0.78999
   7   5   1 1192.15 240.198   6 0.22016 0.34470 0.06303 0.35463 0.99743-0.78923
  -7  -5  -1 1263.15 249.575   8-0.23875-0.32530-0.03787-0.37849-0.99789 0.79031
  -8   5  -1 447.255 359.723   2-0.27400-0.36725 0.05413 0.36207-0.99453 0.77279
  10   6  -1 71.4823 105.772   7 0.59770 0.16002 0.09433 0.40571 0.89401-0.85400
   9   6  -1 46.9717 75.4306   7 0.58672 0.09320 0.09216 0.40787 0.90018-0.87475
   9  -6  -1 -106.71 109.319   9 0.01462 0.66538-0.52719 0.02690-0.83184 0.85745
  -9   6   1 -72.588 65.4125   2-0.45128-0.22868 0.28527 0.21479-0.91511 0.88987
  -9   6   1 -43.877 83.6008   5-0.51577-0.16466 0.19498 0.30518-0.91608 0.89050
  -9  -6   1 85.1644 83.6260   8-0.54012-0.13992-0.16028-0.33957-0.91273 0.88746
   9  -6  -1 136.698 90.3926   3 0.48277 0.19778-0.24181-0.25852 0.91722-0.89176
  -8  -6   1 185.131 93.9957   4 0.01386-0.61672-0.45540-0.04523 0.87703-0.88749
   8   6  -1 394.912 135.775   7 0.58129 0.02083 0.09110 0.40895 0.90315-0.89228
   8   6  -1 180.966 118.137   6 0.32294 0.27950 0.41115 0.08852 0.89785-0.88679
   8  -6  -1 281.996 125.638   9-0.01844 0.62063-0.46176-0.03844-0.87457 0.88554
  -8   6   1 320.847 115.937   5-0.50596-0.09659 0.18879 0.31134-0.92151 0.91055
  -8  -6   1 456.927 157.300   8-0.53125-0.07102-0.15656-0.34329-0.91739 0.90667
   8  -6  -1 308.013 114.623   3 0.47219 0.13052-0.23167-0.26865 0.92389-0.91301
  -8   6   1 285.744 102.422   2-0.44072-0.16153 0.27058 0.22950-0.92329 0.91256
  -7   6   1 95.4828 71.9274   2-0.43344-0.09111 0.26052 0.23956-0.92861 0.93242
   7   6  -1 6.36864 60.0526   7 0.58330-0.05896 0.09149 0.40855 0.90206-0.90576
  -7  -6   1 -70.547 58.4830   4 0.04350-0.56855-0.39063-0.11004 0.91140-0.90732
   7   6  -1 24.2967 82.2242   6 0.31610 0.20855 0.38411 0.11561 0.91135-0.91491
   7  -6  -1 116.098 68.4426   9-0.04934 0.57374-0.39751-0.10261-0.90929 0.90566
  -7   6   1 -77.603 68.1540   5-0.50108-0.02361 0.18571 0.31438-0.92413 0.92778
  -7  -6   1 130.071 90.6736   8-0.52816 0.00363-0.15527-0.34459-0.91898 0.92282
   7  -6  -1 2.99142 53.2162   3 0.46564 0.05925-0.22542-0.27490 0.92785-0.93156
  -6   6   1 103.976 88.3041   2-0.43012-0.01671 0.25598 0.24415-0.93095 0.94930
   6   6  -1 208.793 91.6157   7 0.59549-0.14893 0.09389 0.40615 0.89528-0.91353
  -6  -6   1 88.8078 66.6375   4 0.07089-0.51814-0.32817-0.17255 0.93857-0.91994
   6  -6  -1 117.770 88.5831   9-0.07804 0.52465-0.33519-0.16486-0.93691 0.91868
  -6   6   1 276.246 99.3430   5-0.50250 0.05568 0.18661 0.31345-0.92337 0.94162
  -6  -6   1 109.478 57.3421   8-0.53268 0.08590-0.15716-0.34271-0.91665 0.93504
   6   6  -1 347.964 119.857   6 0.31100 0.13585 0.36447 0.13527 0.92047-0.93864
   6  -6  -1 56.7257 73.1212   3 0.46406-0.01701-0.22392-0.27639 0.92878-0.94707
  -5   6   1 1178.71 186.472   2-0.43163 0.06250 0.25803 0.24213-0.92990 0.96280
   5   6  -1 1433.39 182.064   7 0.62200-0.25322 0.09914 0.40089 0.87947-0.91228
  -5  -6   1 1243.20 200.683   4 0.09595-0.46537-0.26879-0.23197 0.95942-0.92623
   5   6  -1 1336.95 199.430   6 0.30794 0.06109 0.35289 0.14686 0.92558-0.95836
   5  -6  -1 1458.51 211.094   3 0.46875-0.09953-0.22838-0.27190 0.92599-0.95886
  -5   6   1 1247.61 177.074   5-0.51215 0.14320 0.19269 0.30731-0.91811 0.95094
   5  -6  -1 1322.67 200.985   9-0.10440 0.47324-0.27555-0.22440-0.95824 0.92543
  -5  -6   1 1462.48 200.568   8-0.54750 0.17845-0.16338-0.33650-0.90873 0.94168
   4   6  -1 384.631 98.3603   7 0.66906-0.37803 0.10854 0.39149 0.84755-0.89489
  -4  -6   1 453.974 121.471   4 0.11853-0.41013-0.21334-0.28745 0.97480-0.92705
   4   6  -1 259.453 87.0182   1-0.15284 0.44459 0.23566 0.26466-0.97139 0.92388
  -4   6   1 369.114 81.8634   6 0.30381-0.59550 0.33747 0.16270 0.93210-0.88431
   4  -6  -1 409.679 108.792   9-0.12830 0.41938-0.21946-0.28042-0.97406 0.92668
   4   6  -1 446.286 114.224   6 0.30721-0.01602 0.35015 0.14958 0.92677-0.97413
  -4  -6   1 460.030 99.6664   9 0.01687-0.30800-0.53153 0.03116-0.82871 0.87636
  -4   6   1 318.726 87.0094   5-0.53269 0.24158 0.20569 0.29424-0.90617 0.95358
  -4  -6   1 320.554 96.8722   8-0.57646 0.28514-0.17562-0.32427-0.89189 0.93941
   4  -6  -1 268.166 95.0702   3 0.48132-0.18995-0.24042-0.25985 0.91816-0.96561
  -4   6   1 361.085 102.487   2-0.43896 0.14753 0.26813 0.23208-0.92460 0.97206
   3  -6  -1 529.668 105.400   4-0.00201 0.21561-0.48886-0.01159 0.85656-0.91875
   3   6  -1 464.702 96.0566   7 0.74550-0.53220 0.12404 0.37597 0.78291-0.84480
  -3  -6   1 431.960 111.632   4 0.13849-0.35226-0.16271-0.33812 0.98556-0.92323
  -3   6   1 527.860 107.719   6 0.27291-0.48680 0.22887 0.27162 0.96900-0.90669
   3   6  -1 330.275 97.5651   6 0.30908-0.09571 0.35716 0.14252 0.92372-0.98565
   3  -6  -1 339.333 98.4120   9-0.14956 0.36290-0.16781-0.33200-0.98518 0.92323
  -3  -6   1 469.170 98.5680   9-0.00675-0.20661-0.48528-0.01507-0.86012 0.92230
   3   6  -1 443.348 118.079   1-0.16543 0.37937 0.17573 0.32450-0.98425 0.92220
  -3   6   1 345.839 86.2792   5-0.56769 0.35442 0.22813 0.27172-0.88332 0.94529
  -3   6   1 378.217 86.4860   2-0.45329 0.23960 0.28811 0.21218-0.91348 0.97551
   3  -6  -1 293.650 87.8124   3 0.50386-0.29033-0.26224-0.23800 0.90281-0.96484
  -3  -6   1 501.909 100.496   8-0.62510 0.41151-0.19642-0.30350-0.85915 0.92125
   2   6  -1 1020.89 160.784   1-0.17562 0.31176 0.12429 0.37587-0.99219 0.91561
  -2   6   1 1038.92 144.107   6 0.24792-0.38398 0.14780 0.35293 0.98693-0.91004
  -2   6   1 973.821 146.031   2-0.47594 0.33997 0.32023 0.18014-0.89374 0.97036
   2  -6  -1 951.468 154.177   9-0.16802 0.30361-0.12157-0.37817-0.99242 0.91592
   2   6  -1 1032.93 112.845   2-0.38660 0.52238 0.19736 0.30274-0.95735 0.88090
  -2  -6   1 968.203 161.106   4 0.15566-0.29159-0.11789-0.38295 0.99255-0.91565
   2   6  -1 986.350 157.425   6 0.31373-0.17821 0.37492 0.12470 0.91569-0.99216
   2  -6  -1 1058.01 149.871   3 0.53883-0.40314-0.29675-0.20345 0.87538-0.95196
  -2  -6   1 1049.78 95.9215   3 0.47068-0.60659-0.23023-0.27012 0.92481-0.84811
  -2  -6   1 1003.25 148.986   9-0.02004-0.11557-0.45851-0.04183-0.87649 0.95321
  -2  -6   1 1496.06 190.946   8-0.70060 0.56473-0.22944-0.27051-0.79494 0.87164
   2  -6  -1 1034.65 152.581   4 0.01126 0.12455-0.46092-0.03954 0.87378-0.95055
  -1  -6   1 4662.32 329.548   4 0.16982-0.22791-0.07998-0.42088 0.99665-0.90517
  -1   6   1 4811.49 315.210   2-0.50803 0.44981 0.36716 0.13329-0.86051 0.95174
  -1   6   1 4181.85 299.374   6 0.22904-0.28722 0.08960 0.41132 0.99503-0.90354
   1   6  -1 4679.94 330.642   6 0.32125-0.26357 0.40441 0.09510 0.90132-0.99232
   1  -6  -1 4458.20 319.780   9-0.18344 0.24132-0.08187-0.41782-0.99664 0.90559
  -1  -6   1 4540.05 316.569   9-0.02562-0.03224-0.44710-0.05324-0.88309 0.97436
   1  -6  -1 5265.48 312.729   3 0.58862-0.53076-0.34754-0.15261 0.82720-0.91833
  -1  -6   1 5017.99 234.374   3 0.34015-0.39819-0.10978-0.39068 0.98112-0.88985
   1  -6  -1 4829.77 326.843   4 0.01718 0.04081-0.44826-0.05221 0.88115-0.97250
   1   6  -1 4032.10 313.715   1-0.18356 0.24191 0.08215 0.41791-0.99661 0.90550
   0  -6  -1 181.071 70.5519   4 0.01730-0.03713-0.44799-0.05248 0.88130-0.98722
   0   6   1 228.589 77.0013   6 0.21588-0.19615 0.05037 0.45068 0.99830-0.89220
   0  -6   1 207.175 83.8326   4 0.18072-0.16097-0.05018-0.45069 0.99872-0.89266
   0   6   1 264.620 74.8489   2-0.54988 0.56946 0.43156 0.06900-0.80543 0.91129
   0   6  -1 183.346 70.1266   1-0.18935 0.16993 0.05013 0.44985-0.99874 0.89310
   0   6  -1 247.276 77.9289   6 0.33155-0.35166 0.44654 0.05286 0.87847-0.98396
   0  -6  -1 175.062 60.6427   9-0.19556 0.17573-0.04991-0.44973-0.99872 0.89312
   0  -6   1 190.765 77.2080   9-0.02517 0.04507-0.44802-0.05233-0.88256 0.98840
   0  -6  -1 249.925 47.5692   8-0.27097 0.25114-0.05061-0.44908-0.99500 0.88933
   1  -6   1 5229.49 341.068   4 0.18803-0.09043-0.02991-0.47095 0.99955-0.87892
  -1   6  -1 4368.41 329.048   1-0.19305 0.09589 0.02900 0.47089-0.99956 0.87940
   1   6   1 5217.95 357.553   6 0.20785-0.11023 0.02698 0.47415 0.99941-0.87871
  -1   6  -1 5566.51 361.812   6 0.34415-0.44206 0.50184-0.00259 0.84397-0.96391
   1  -6   1 4924.27 349.777   9-0.01983 0.11749-0.45892-0.04146-0.87624 0.99665
  -1  -6  -1 5502.00 339.858   9-0.20407 0.10652-0.02713-0.47250-0.99948 0.87934
  -1  -6  -1 5766.80 258.617   8-0.20922 0.11168-0.02625-0.47342-0.99940 0.87919
  -1  -6  -1 5034.03 348.660   4 0.01269-0.11033-0.45787-0.04259 0.87558-0.99607
   1   6   1 6039.05 214.345   7 0.22896-0.13146 0.02361 0.47656 0.99881-0.87850
   2   6   1 63.0110 30.8001   7 0.19966-0.02437 0.01813 0.48205 0.99976-0.86488
  -2  -6  -1 35.2401 37.6786   4 0.00410-0.17956-0.47608-0.02439 0.86461-0.99967
   2   6   1 57.1962 43.4591   6 0.20438-0.02884 0.01694 0.48425 0.99970-0.86439
   2  -6   1 36.5295 34.1184   4 0.19126-0.01582-0.02085-0.47999 0.99977-0.86456
  -2   6  -1 80.7529 45.0755   6 0.35815-0.53378 0.57018-0.07106 0.79335-0.92770
   2  -6   1 179.937 83.4642   9-0.01044 0.18585-0.47790-0.02251-0.86476 0.99975
  -2  -6  -1 59.9558 53.4381   9-0.20846 0.03320-0.01519-0.48442-0.99965 0.86496
  -2   6  -1 77.2638 55.0195   1-0.19467 0.01978 0.01958 0.48022-0.99978 0.86510
  -2  -6  -1 45.1243 36.4884   8-0.19299 0.01771-0.01989-0.47977-0.99979 0.86502
   3   6   1 -28.764 42.3183   7 0.20314 0.04994 0.01878 0.48140 0.99969-0.85025
  -3  -6  -1 -27.273 52.4272   4-0.00788-0.24541-0.50104 0.00059 0.84861-0.99823
  -3  -6  -1 -27.262 53.3875   9-0.20807-0.04490-0.01626-0.48335-0.99964 0.85040
   3   6   1 -59.490 83.4439   6 0.20485 0.04858 0.01830 0.48292 0.99967-0.84976
   3  -6   1 100.174 58.6914   4 0.18971 0.06355-0.02518-0.47565 0.99968-0.84990
   3  -6   1 -48.815 67.0766   9 0.00240 0.25077-0.50340 0.00296-0.84830 0.99788
  -3   6  -1 -10.478 40.3724   1-0.19411-0.05850 0.02282 0.47690-0.99972 0.85052
  -3  -6  -1 -61.932 42.3965   8-0.19684-0.05617-0.02140-0.47826-0.99972 0.85040
   4  -6   1 1987.57 204.578   4 0.18227 0.14881-0.04588-0.45493 0.99894-0.83458
  -4   6  -1 2173.34 226.906   1-0.19114-0.13918 0.03992 0.45972-0.99919 0.83549
   4   6   1 2151.35 276.906   6 0.20874 0.12258 0.02954 0.47167 0.99932-0.83481
  -4  -6  -1 2288.30 221.635   9-0.20178-0.12892-0.03327-0.46635-0.99934 0.83554
   4  -6   1 2123.96 278.300   9 0.01821 0.31272-0.53411 0.03362-0.82684 0.99102
  -4  -6  -1 2209.68 242.300   8-0.21151-0.11927-0.02715-0.47250-0.99932 0.83545
  -4  -6  -1 2168.39 266.387   4-0.02279-0.30831-0.53148 0.03104 0.82752-0.99170
   4   6   1 2499.72 231.969   7 0.22033 0.11052 0.02199 0.47819 0.99919-0.83517
   5   6   1 2383.91 299.793   6 0.21558 0.19362 0.04949 0.45169 0.99835-0.81925
  -5  -6  -1 2299.17 274.248   8-0.23271-0.17581-0.03549-0.46416-0.99829 0.81985
  -5  -6  -1 2450.11 303.556   4-0.04029-0.36863-0.56625 0.06583 0.80115-0.97987
   5   6   1 2717.42 276.987   7 0.24469 0.16397 0.02656 0.47362 0.99791-0.81932
   6   6   1 -13.463 66.8265   7 0.27326 0.21318 0.03192 0.46825 0.99558-0.80241
   6   6   1 -132.29 112.544   6 0.22494 0.26209 0.07727 0.42385 0.99625-0.80257
   6  -6   1 184.795 102.906   9 0.05731 0.42917-0.60672 0.10615-0.76807 0.96148
  -6   6  -1 -29.060 85.0733   2-0.26328-0.22257 0.04102 0.45849-0.99610 0.80344
  -6  -6  -1 -75.275 73.5508   8-0.25818-0.22810-0.04555-0.45411-0.99630 0.80331
   7   6   1 220.652 109.820   7 0.30454 0.25969 0.03782 0.46234 0.99195-0.78420
   7   6   1 -0.2052 81.0740   6 0.23648 0.32837 0.11223 0.38882 0.99235-0.78409
  -7  -6  -1 106.976 118.238   8-0.28659-0.27744-0.05682-0.44282-0.99312 0.78557
  -7   6  -1 245.382 177.919   2-0.28113-0.28242 0.06289 0.43662-0.99332 0.78613
   8  -6   1 3.09311 563.706   3 0.30793 0.33459-0.08117-0.41940 0.98884-0.76627
  -8   6  -1 29.2277 746.950   2-0.30164-0.33962 0.08831 0.41121-0.98902 0.76731
  -9  -7   1 91.2663 123.827   4-0.01896-0.66173-0.52373-0.06031 0.83306-0.85803
   9   7  -1 -56.941 69.9069   7 0.62937 0.05051 0.10061 0.48279 0.87482-0.84936
  -9  -7   1 130.524 111.422   8-0.57170-0.10833-0.17360-0.40953-0.89478 0.86953
   9  -7  -1 -25.876 102.772   9 0.01535 0.66461-0.52861-0.05501-0.83082 0.85646
   9   7  -1 63.4600 80.8604   6 0.33353 0.34675 0.45495 0.12806 0.87357-0.84779
  -8  -7   1 74.9383 82.5850   4 0.00967-0.61255-0.46431-0.11978 0.87177-0.88221
   8   7  -1 73.9813 72.4491   7 0.62825-0.02616 0.10038 0.48301 0.87553-0.86464
   8   7  -1 92.0174 95.3992   6 0.32631 0.27619 0.42481 0.15826 0.89061-0.87948
   8  -7  -1 -16.045 61.2918   9-0.01445 0.61660-0.46984-0.11370-0.86971 0.88072
  -8   7   1 180.182 93.2193   5-0.53387-0.06865 0.20645 0.37703-0.90545 0.89444
  -8  -7   1 181.791 113.842   8-0.56590-0.03638-0.17115-0.41199-0.89824 0.88754
  -8   7   1 47.6454 69.9864   2-0.45562-0.14663 0.29137 0.29203-0.91158 0.90090
   8  -7  -1 -8.9612 75.8082   3 0.49285 0.10987-0.25154-0.33218 0.91053-0.89963
  -7  -7   1 199.627 105.193   4 0.03616-0.56124-0.40692-0.17721 0.90337-0.89928
   7   7  -1 244.836 117.883   7 0.63519-0.11088 0.10176 0.48163 0.87105-0.87472
   7   7  -1 186.806 104.883   6 0.32041 0.20430 0.40101 0.18210 0.90304-0.90654
   7  -7  -1 253.201 129.845   9-0.04212 0.56650-0.41280-0.17065-0.90163 0.89803
  -7   7   1 219.261 106.171   5-0.53152 0.00687 0.20496 0.37849-0.90687 0.91048
  -7  -7   1 255.149 103.761   8-0.56614 0.04159-0.17124-0.41190-0.89810 0.90196
   7  -7  -1 268.425 106.717   3 0.48817 0.03671-0.24702-0.33670 0.91368-0.91736
  -7   7   1 190.850 78.3498   2-0.44982-0.07473 0.28324 0.30018-0.91627 0.92012
  -6  -7   1 357.339 131.169   4 0.06047-0.50774-0.35221-0.23196 0.92877-0.91012
   6   7  -1 334.141 127.089   6 0.31607 0.13080 0.38399 0.19914 0.91140-0.92952
   6  -7  -1 290.087 110.669   9-0.06763 0.51423-0.35811-0.22525-0.92741 0.90921
  -6   7   1 313.409 92.4289   5-0.53546 0.08868 0.20746 0.37593-0.90448 0.92268
  -6  -7   1 245.158 99.8314   8-0.57419 0.12738-0.17465-0.40850-0.89327 0.91169
   6  -7  -1 343.380 116.790   3 0.48832-0.04128-0.24717-0.33653 0.91357-0.93185
  -6   7   1 303.299 110.912   2-0.44778 0.00093 0.28039 0.30307-0.91788 0.93627
  -5  -7   1 21.4923 89.1045   4 0.08253-0.45196-0.30086-0.28334 0.94874-0.91553
   5   7  -1 27.3104 67.9389   6 0.31356 0.05548 0.37428 0.20887 0.91598-0.94871
   5  -7  -1 266.970 110.631   9-0.09085 0.45969-0.30648-0.27681-0.94778 0.91500
  -5   7   1 223.050 105.605   5-0.54743 0.17851 0.21511 0.36822-0.89694 0.92973
  -5  -7   1 225.542 105.731   8-0.59257 0.22351-0.18247-0.40070-0.88169 0.91467
   5  -7  -1 141.687 89.8823   3 0.49441-0.12521-0.25306-0.33063 0.90945-0.94231
  -5   7   1 140.620 100.271   2-0.45018 0.08104 0.28374 0.29976-0.91598 0.94892
   4  -7  -1 826.172 146.224   4-0.02548 0.31689-0.53689-0.04696 0.82358-0.87118
   4  -7  -1 488.993 122.072   3 0.50778-0.21643-0.26607-0.31759 0.89996-0.94740
  -4  -7   1 693.408 155.284   4 0.10221-0.39382-0.25359-0.33065 0.96402-0.91625
  -4   7   1 707.959 124.515   6 0.31371-0.60547 0.37485 0.20866 0.91572-0.86783
   4   7  -1 740.879 165.468   6 0.31309-0.02189 0.37248 0.21065 0.91681-0.96413
   4  -7  -1 603.490 151.013   9-0.11172 0.40279-0.25860-0.32460-0.96344 0.91609
  -4  -7   1 522.817 110.590   9 0.01779-0.30888-0.53329-0.05042-0.82743 0.87511
  -4   7   1 711.037 133.460   5-0.56973 0.27866 0.22945 0.35380-0.88189 0.92924
  -4   7   1 688.262 153.137   2-0.45786 0.16642 0.29451 0.28905-0.90973 0.95722
  -4  -7   1 600.342 128.621   8-0.62475 0.33341-0.19626-0.38692-0.85940 0.90695
   3  -7  -1 184.987 70.5897   4-0.00597 0.21958-0.49708-0.08679 0.85122-0.91340
  -3  -7   1 174.280 69.3462   4 0.11940-0.33317-0.21117-0.37310 0.97533-0.91299
   3   7  -1 135.457 71.1334   1-0.15498 0.36895 0.22577 0.35783-0.97378 0.91174
  -3   7   1 283.737 95.0076   6 0.28863-0.50259 0.28278 0.30102 0.95260-0.89021
   3   7  -1 221.973 98.8720   6 0.31486-0.10152 0.37929 0.20379 0.91364-0.97552
  -3  -7   1 252.014 87.9769   9-0.00229-0.21104-0.49414-0.08955-0.85442 0.91662
   3  -7  -1 106.792 67.2610   9-0.13005 0.34340-0.21526-0.36788-0.97509 0.91316
  -3   7   1 250.307 84.6871   5-0.60527 0.39203 0.25266 0.33051-0.85485 0.91677
  -3   7   1 151.439 73.6728   2-0.47172 0.25799 0.31417 0.26947-0.89764 0.95971
   3  -7  -1 220.752 77.6266   3 0.53008-0.31657-0.28804-0.29558 0.88268-0.94469
  -3  -7   1 194.153 87.0122   8-0.67535 0.46173-0.21828-0.36493-0.81850 0.88064
  -2  -7   1 1793.20 238.280   4 0.13393-0.26986-0.17441-0.40988 0.98335-0.90643
  -2  -7   1 1795.59 218.152   9-0.01401-0.12157-0.47073-0.11295-0.86917 0.94592
   2  -7  -1 1762.72 201.358   3 0.56313-0.42746-0.32128-0.26231 0.85334-0.92990
  -2   7   1 1448.76 198.040   2-0.49268 0.35670 0.34449 0.23924-0.87724 0.95390
  -2   7   1 1659.00 200.108   6 0.26777-0.40389 0.21178 0.37228 0.97344-0.89648
   2   7  -1 2089.19 258.809   6 0.31899-0.18351 0.39545 0.18755 0.90582-0.98225
   2  -7  -1 1966.47 243.004   9-0.14570 0.28132-0.17730-0.40578-0.98338 0.90690
  -2   7   1 2341.56 230.250   5-0.65743 0.52199 0.28756 0.29553-0.80728 0.88374
   2   7  -1 1951.70 255.332   1-0.16404 0.30022 0.18252 0.40098-0.98299 0.90641
   2  -7  -1 1842.77 229.109   4 0.00569 0.13011-0.47273-0.11117 0.86667-0.94344
   1  -7  -1 204.134 102.373   4 0.01117 0.04682-0.46111-0.12280 0.87367-0.96501
   1   7  -1 93.2225 30.1273   2-0.37267 0.43067 0.17902 0.40433-0.96422 0.87326
  -1  -7   1 -11.279 74.2005   4 0.14562-0.20371-0.14424-0.44006 0.98872-0.89724
   1  -7  -1 198.589 82.8163   9-0.15848 0.21637-0.14564-0.43740-0.98896 0.89793
  -1   7   1 125.789 75.7202   6 0.25146-0.30970 0.15900 0.42526 0.98492-0.89339
   1   7  -1 30.1107 58.5996   6 0.32555-0.26790 0.42171 0.16119 0.89228-0.98323
  -1   7   1 28.9389 40.7303   2-0.52151 0.46328 0.38746 0.19636-0.84440 0.93567
  -1  -7   1 71.6141 77.0967   9-0.01923-0.03861-0.46015-0.12353-0.87552 0.96681
   1  -7  -1 205.811 69.9684   3 0.60850-0.55067-0.36849-0.21505 0.80432-0.89542
   1   7  -1 26.8300 80.8646   1-0.17108 0.22948 0.14755 0.43587-0.98895 0.89785
   0   7  -1 115.691 92.9705   1-0.17616 0.15679 0.12149 0.46183-0.99254 0.88691
   0  -7  -1 144.232 121.637   4 0.01162-0.03144-0.46016-0.12375 0.87423-0.98015
   0  -7   1 118.603 43.3415   3 0.35656-0.33678-0.12451-0.45938 0.97633-0.87046
   0   7  -1 37.2249 76.8491   6 0.33441-0.35460 0.45873 0.12404 0.87132-0.97677
   0  -7  -1 134.671 50.0166   9-0.16812 0.14830-0.12132-0.46167-0.99245 0.88687
   0  -7   1 160.951 89.3023   4 0.15422-0.13447-0.12170-0.46261 0.99205-0.88598
   0   7   1 94.1846 71.2119   6 0.23961-0.21994 0.12188 0.46252 0.99102-0.88489
   0   7  -1 122.320 42.1955   2-0.32975 0.31004 0.12369 0.45952-0.98113 0.87564
   0   7   1 184.682 62.2537   2-0.55827 0.57782 0.44501 0.13891-0.79237 0.89825
   0  -7   1 18.0534 49.3937   9-0.01921 0.03913-0.46018-0.12351-0.87550 0.98135
  -1  -7  -1 1398.12 208.348   4 0.00785-0.10549-0.46816-0.11575 0.86945-0.98994
  -1   7  -1 1415.09 207.231   1-0.17930 0.08218 0.10500 0.47823-0.99445 0.87430
  -1  -7  -1 1247.33 185.588   9-0.17428 0.07675-0.10554-0.47742-0.99434 0.87421
   1  -7   1 996.875 163.415   4 0.15940-0.06180-0.10797-0.47633 0.99378-0.87314
   1   7   1 1177.70 197.486   6 0.23190-0.13433 0.09828 0.48622 0.99407-0.87333
   1  -7   1 1537.10 223.813   9-0.01484 0.11250-0.46904-0.11467-0.87020 0.99062
  -1   7  -1 1522.76 212.560   6 0.34526-0.44323 0.50695 0.07568 0.84051-0.96041
   1  -7   1 1341.98 169.975   3 0.31597-0.21834-0.08827-0.49565 0.98712-0.86665
  -1   7  -1 1296.53 176.313   2-0.30279 0.20537 0.08974 0.49337-0.98874 0.86873
   2  -7   1 3226.40 292.665   4 0.16070 0.01473-0.10450-0.47978 0.99419-0.85897
   2   7   1 3818.20 344.506   6 0.22798-0.05250 0.08641 0.49816 0.99536-0.86002
  -2   7  -1 3610.84 314.989   6 0.35741-0.53314 0.56636 0.01612 0.79644-0.93076
  -2   7  -1 3707.91 314.421   2-0.28766 0.11255 0.07095 0.51208-0.99208 0.85754
  -2  -7  -1 3322.73 289.427   9-0.17652 0.00128-0.09978-0.48317-0.99496 0.86028
   2  -7   1 3279.69 286.429   3 0.29446-0.11897-0.06933-0.51463 0.99143-0.85637
  -2  -7  -1 3572.33 251.508   8-0.30824 0.13293-0.06545-0.51750-0.98999 0.85523
  -2   7  -1 3466.96 324.580   1-0.18047 0.00562 0.09880 0.48434-0.99509 0.86042
  -2  -7  -1 3255.62 315.282   4 0.00047-0.17594-0.48368-0.10023 0.85985-0.99491
   2  -7   1 3242.21 320.538   9-0.00676 0.18217-0.48525-0.09848-0.86013 0.99513
  -3  -7  -1 320.467 112.598   4-0.01005-0.24325-0.50551-0.07839 0.84562-0.99524
   3  -7   1 330.641 119.761   9 0.00452 0.24863-0.50757-0.07620-0.84549 0.99508
  -3  -7  -1 225.954 75.2028   9-0.17416-0.07881-0.10586-0.47710-0.99430 0.84507
  -3   7  -1 276.993 95.5898   1-0.17955-0.07302 0.10369 0.47937-0.99459 0.84540
  -3   7  -1 451.015 129.042   2-0.28152 0.02871 0.06336 0.51960-0.99325 0.84419
   3  -7   1 337.509 108.971   4 0.15746 0.09580-0.11313-0.47113 0.99316-0.84337
   3   7   1 365.445 132.546   6 0.22744 0.02594 0.08479 0.49981 0.99553-0.84558
  -3  -7  -1 335.319 84.5730   8-0.29199 0.03895-0.05897-0.52397-0.99240 0.84309
  -4   7  -1 782.663 163.536   1-0.17632-0.15396 0.12070 0.46230-0.99264 0.82895
  -4  -7  -1 668.427 162.369   4-0.02333-0.30779-0.53257-0.05131 0.82673-0.99091
  -4  -7  -1 723.019 151.612   8-0.29198-0.03881-0.05897-0.52397-0.99240 0.82854
   4  -7   1 663.609 138.461   4 0.14865 0.18243-0.13634-0.44789 0.98996-0.82560
   4   7   1 834.605 191.211   6 0.22992 0.10136 0.09224 0.49236 0.99475-0.83020
  -4  -7  -1 761.144 146.017   9-0.16616-0.16454-0.12629-0.45670-0.99179 0.82800
  -4   7  -1 771.506 176.457   2-0.28230-0.04820 0.06433 0.51859-0.99310 0.82952
   4  -7   1 580.967 178.677   9 0.01863 0.31228-0.53492-0.04890-0.82625 0.99043
  -5  -7  -1 35.0355 64.2322   4-0.03910-0.36983-0.56393-0.01994 0.80299-0.98172
   5  -7   1 -44.394 59.5057   3 0.29387 0.11515-0.06882-0.51517 0.99153-0.81270
   5   7   1 -43.850 63.6232   6 0.23504 0.17412 0.10783 0.47675 0.99291-0.81378
  -5   7  -1 143.243 115.683   2-0.28852-0.11967 0.07201 0.51087-0.99190 0.81379
   5  -7   1 114.853 112.709   9 0.03525 0.37343-0.56633-0.01752-0.80223 0.98102
  -5  -7  -1 -2.2130 92.6863   8-0.30195-0.10658-0.06294-0.52000-0.99096 0.81255
  -5   7  -1 207.320 89.8474   1-0.17037-0.23759 0.15114 0.43180-0.98840 0.81020
   6  -7   1 247.478 157.536   3 0.30636 0.18050-0.07978-0.50420 0.98916-0.79574
   6   7   1 326.930 151.490   6 0.24248 0.24452 0.13077 0.45376 0.98971-0.79598
  -6   7  -1 -103.28 156.829   2-0.29909-0.18680 0.08513 0.49772-0.98962 0.79699
   6  -7   1 108.707 105.243   9 0.05412 0.43233-0.60098 0.01707-0.77317 0.96657
  -6  -7  -1 -6.5199 65.9232   8-0.31854-0.16775-0.06956-0.51337-0.98829 0.79532
   7  -7   1 606.011 305.503   3 0.32280 0.24189-0.09433-0.48966 0.98555-0.77754
  -7   7  -1 150.516 226.390   2-0.31318-0.25041 0.10274 0.48010-0.98607 0.77891
  -8  -8   1 1041.46 244.075   4 0.00256-0.60546-0.47931-0.18824 0.86260-0.87302
   8   8  -1 1163.78 244.327   6 0.33089 0.27167 0.44379 0.22268 0.88005-0.86883
   8  -8  -1 956.995 262.252   9-0.00735 0.60949-0.48407-0.18278-0.86088 0.87193
  -8   8   1 1158.38 232.280   5-0.56501-0.03746 0.22641 0.44043-0.88518 0.87411
  -8  -8   1 1065.48 241.328   8-0.60477 0.00248-0.18768-0.47874-0.87355 0.86289
  -7  -8   1 -86.205 71.6400   4 0.02649-0.55158-0.42813-0.23945 0.89231-0.88819
   7  -8  -1 95.7277 117.893   9-0.03240 0.55675-0.43313-0.23364-0.89087 0.88731
  -7   8   1 25.0890 76.3682   2-0.46797-0.05660 0.30882 0.35794-0.90102 0.90493
  -7   8   1 236.702 107.993   5-0.56512 0.04052 0.22647 0.44030-0.88511 0.88865
   7  -8  -1 -28.085 74.6277   3 0.51302 0.01185-0.27120-0.39592 0.89607-0.89973
  -7  -8   1 44.1964 96.2350   8-0.60833 0.08377-0.18921-0.47722-0.87111 0.87500
   7   8  -1 -104.50 117.700   6 0.32580 0.19894 0.42272 0.24379 0.89174-0.89515
  -6  -8   1 509.732 154.927   4 0.04831-0.49558-0.37984-0.28779 0.91650-0.89783
   6   8  -1 707.724 191.609   6 0.32213 0.12477 0.40791 0.25863 0.89953-0.91757
   6  -8  -1 453.251 142.934   9-0.05531 0.50189-0.38480-0.28188-0.91539 0.89723
  -6   8   1 441.056 125.040   5-0.57147 0.12474 0.23059 0.43614-0.88065 0.89878
  -6   8   1 456.775 128.831   2-0.46705 0.02018 0.30751 0.35928-0.90183 0.92027
   6  -8  -1 517.010 142.509   3 0.51477-0.06775-0.27292-0.39418 0.89475-0.91300
  -6  -8   1 549.617 142.800   8-0.61987 0.17304-0.19416-0.47228-0.86296 0.88141
  -5  -8   1 32.6359 85.2039   4 0.06794-0.43738-0.33502-0.33264 0.93586-0.90263
   5  -8  -1 250.426 127.972   9-0.07601 0.44484-0.33968-0.32692-0.93511 0.90236
  -5   8   1 127.642 78.8982   5-0.58561 0.21673 0.23977 0.42688-0.87029 0.90301
  -5   8   1 199.608 96.7345   2-0.47026 0.10108 0.31209 0.35477-0.89896 0.93195
   5  -8  -1 121.452 98.6796   3 0.52212-0.15294-0.28016-0.38692 0.88907-0.92189
  -5  -8   1 370.159 141.613   8-0.64167 0.27257-0.20359-0.46287-0.84658 0.87960
  -4  -8   1 398.138 145.088   4 0.08530-0.37691-0.29428-0.37341 0.95104-0.90325
   4   8  -1 697.021 156.445   6 0.31984-0.02865 0.39880 0.26773 0.90416-0.95139
   4  -8  -1 424.792 117.062   9-0.09442 0.38551-0.29840-0.36813-0.95063 0.90331
  -4   8   1 423.390 117.344   5-0.60948 0.31845 0.25544 0.41114-0.85138 0.89868
  -4   8   1 484.411 132.678   2-0.47824 0.18678 0.32353 0.34339-0.89158 0.93913
   4  -8  -1 327.311 109.962   3 0.53621-0.24488-0.29414-0.37292 0.87760-0.92500
   3  -8  -1 175.590 104.053   4-0.01430 0.22791-0.51422-0.15309 0.83969-0.90186
  -3  -8   1 117.924 79.7012   4 0.10027-0.31404-0.25831-0.40940 0.96262-0.90027
  -3   8   1 67.7618 50.2335   6 0.30272-0.51675 0.33343 0.33370 0.93375-0.87124
   3   8  -1 239.638 113.388   6 0.32153-0.10821 0.40552 0.26095 0.90075-0.96256
   3  -8  -1 95.7377 79.9245   9-0.11042 0.32378-0.26163-0.40484-0.96254 0.90065
  -3   8   1 258.757 119.484   5-0.64542 0.43220 0.27941 0.38707-0.81918 0.88103
  -3   8   1 54.7438 81.0402   2-0.49170 0.27796 0.34305 0.32395-0.87826 0.94038
  -3  -8   1 49.8039 75.4780   9 0.00669-0.21999-0.51182-0.15520-0.84260 0.90483
   3  -8  -1 47.5503 60.1184   3 0.55831-0.34482-0.31637-0.35064 0.85793-0.91990
   2  -8  -1 200.159 83.9266   4-0.00354 0.13935-0.49204-0.17529 0.85450-0.93125
  -2  -8   1 139.910 95.2113   4 0.11271-0.24864-0.22781-0.43992 0.97116-0.89423
  -2   8   1 100.789 51.7684   6 0.28498-0.42116 0.27005 0.39734 0.95681-0.87976
   2   8  -1 172.358 94.9475   6 0.32526-0.18980 0.42053 0.24586 0.89291-0.96927
   2  -8  -1 154.848 97.6660   9-0.12384 0.25946-0.23009-0.43632-0.97137 0.89492
  -2  -8   1 239.676 116.337   9-0.00417-0.13137-0.49041-0.17661-0.85683 0.93361
  -2   8   1 110.332 54.9091   2-0.51130 0.37529 0.37205 0.29504-0.85674 0.93344
   2  -8  -1 341.081 108.206   3 0.58974-0.45409-0.34871-0.31827 0.82597-0.90250
   1   8  -1 770.410 129.348   2-0.42210 0.48006 0.24500 0.42176-0.93642 0.84551
   1  -8  -1 681.074 157.828   4 0.00183 0.05617-0.48085-0.18650 0.86163-0.95296
  -1  -8   1 664.036 162.093   4 0.12243-0.18052-0.20357-0.46417 0.97712-0.88562
   1  -8  -1 728.197 162.809   9-0.13448 0.19240-0.20458-0.46179-0.97760 0.88658
  -1   8   1 773.822 157.050   6 0.27076-0.32905 0.22169 0.44590 0.97091-0.87930
   1   8  -1 695.377 173.234   6 0.33103-0.27343 0.44438 0.22191 0.87971-0.97059
  -1   8   1 724.477 151.868   2-0.53749 0.47924 0.41205 0.25514-0.82338 0.91469
  -1  -8   1 576.763 149.816   9-0.00937-0.04844-0.48005-0.18696-0.86341 0.95474
   1  -8  -1 734.429 154.192   3 0.63142-0.57360-0.39321-0.27372 0.77477-0.86583
   1   8  -1 692.765 160.737   1-0.15884 0.21728 0.20758 0.45918-0.97790 0.88682
   0  -8  -1 449.405 140.477   4 0.00270-0.02252-0.47902-0.18834 0.86278-0.96869
   0   8  -1 211.057 95.0668   6 0.33875-0.35899 0.47757 0.18858 0.85977-0.96515
   0   8  -1 282.806 95.7930   2-0.38082 0.36106 0.18972 0.47690-0.96028 0.85483
   0  -8   1 382.761 132.911   4 0.12920-0.10945-0.18647-0.48126 0.98089-0.87482
   0   8  -1 235.950 111.239   1-0.16331 0.14398 0.18607 0.48060-0.98231 0.87670
   0   8   1 321.206 120.987   6 0.26008-0.24047 0.18661 0.48115 0.97933-0.87313
   0  -8  -1 247.074 106.579   9-0.14214 0.12234-0.18601-0.48032-0.98163 0.87607
   0  -8   1 247.935 97.0782   9-0.00988 0.02980-0.47903-0.18799-0.86405 0.96993
  -1  -8  -1 407.718 117.752   9-0.14646 0.04895-0.17543-0.49089-0.98374 0.86363
   1  -8   1 393.354 101.315   3 0.38533-0.28773-0.15058-0.51672 0.96647-0.84599
  -1  -8  -1 530.753 152.341   4-0.00026-0.09739-0.48521-0.18214 0.85888-0.97936
   1  -8   1 371.105 108.100   4 0.13270-0.03511-0.17756-0.49017 0.98272-0.86208
  -1   8  -1 412.148 106.980   2-0.35295 0.25548 0.15338 0.51312-0.97276 0.85277
   1   8   1 453.275 133.929   6 0.25281-0.15529 0.16325 0.50461 0.98412-0.86332
  -1   8  -1 350.024 117.935   6 0.34815-0.44619 0.52043 0.14557 0.83113-0.95096
   1  -8   1 388.997 127.905   9-0.00641 0.10408-0.48595-0.18108-0.85969 0.98013
  -1   8  -1 518.726 145.279   1-0.16596 0.06889 0.17312 0.49346-0.98472 0.86459
  -2  -8  -1 85.4732 64.7383   4-0.00655-0.16893-0.49828-0.16907 0.85043-0.98548
   2  -8   1 248.369 100.862   3 0.35861-0.18315-0.12635-0.54099 0.97570-0.84062
   2  -8   1 110.960 71.6533   4 0.13250 0.04292-0.17807-0.48964 0.98262-0.84740
   2   8   1 127.710 70.1407   6 0.24872-0.07329 0.15029 0.51764 0.98650-0.85110
  -2   8  -1 149.426 88.7593   2-0.33559 0.16044 0.13113 0.53528-0.97918 0.84467
  -2  -8  -1 84.7723 71.4518   9-0.14701-0.02822-0.17408-0.49223-0.98400 0.84934
  -2   8  -1 221.330 94.4699   6 0.35868-0.53450 0.57301 0.09285 0.79104-0.92530
   2  -8   1 -0.9615 60.6496   9 0.00048 0.17493-0.49962-0.16744-0.85081 0.98583
  -2   8  -1 -68.264 71.6561   1-0.16673-0.00808 0.16933 0.49716-0.98539 0.85075
  -3  -8  -1 7.57683 64.4022   4-0.01577-0.23754-0.51724-0.15011 0.83761-0.98722
   3  -8   1 122.963 86.2188   3 0.34461-0.09130-0.11377-0.55359 0.97988-0.83022
   3  -8   1 42.2573 65.3956   4 0.12798 0.12527-0.18955-0.47813 0.98024-0.83045
   3   8   1 -2.8534 62.7246   6 0.24754 0.00579 0.14661 0.52136 0.98714-0.83714
  -3   8  -1 57.3340 71.7886   2-0.32655 0.07370 0.11962 0.54671-0.98215 0.83311
  -3  -8  -1 125.752 100.698   9-0.14314-0.10980-0.18356-0.48276-0.98213 0.83291
   3  -8   1 29.5668 82.0541   9 0.01040 0.24276-0.51902-0.14807-0.83762 0.98722
  -3   8  -1 36.8319 61.5186   1-0.16550-0.08703 0.17541 0.49100-0.98431 0.83515
  -4  -8  -1 643.297 172.785   4-0.02762-0.30350-0.54119-0.12615 0.82041-0.98458
   4  -8   1 756.535 184.699   3 0.33998-0.00881-0.10962-0.55775 0.98117-0.81691
   4   8   1 1008.83 205.347   6 0.24902 0.08221 0.15125 0.51673 0.98633-0.82173
  -4   8  -1 658.927 180.693   2-0.32413-0.00642 0.11656 0.54971-0.98290 0.81933
  -4   8  -1 1156.45 217.133   1-0.16205-0.16818 0.19221 0.47413-0.98111 0.81743
   4  -8   1 683.954 186.339   9 0.02299 0.30792-0.54324-0.12390-0.82009 0.98429
  -5  -8  -1 112.804 123.931   4-0.04186-0.36709-0.56933-0.09798 0.79868-0.97740
   5  -8   1 131.435 99.9546   3 0.34242 0.06658-0.11181-0.55557 0.98049-0.80165
   5   8   1 19.8003 115.794   6 0.25287 0.15624 0.16345 0.50450 0.98408-0.80488
  -5   8  -1 218.853 129.960   2-0.32707-0.08116 0.12028 0.54595-0.98198 0.80390
   5  -8   1 163.403 150.524   9 0.03801 0.37065-0.57148-0.09571-0.79810 0.97690
  -5  -8  -1 22.1114 84.1681   8-0.37564-0.03291-0.09255-0.57369-0.97617 0.79778
   6  -8   1 383.729 199.584   3 0.35035 0.13649-0.11892-0.54847 0.97822-0.78478
   6   8   1 470.314 180.241   6 0.25884 0.22815 0.18259 0.48532 0.98020-0.78640
  -6   8  -1 366.489 211.402   2-0.33437-0.15156 0.12957 0.53664-0.97960 0.78699
   6  -8   1 104.114 113.072   9 0.05524 0.43118-0.60299-0.06424-0.77139 0.96481
   7  -8   1 -78.323 275.627   3 0.36260 0.20207-0.12996-0.53743 0.97442-0.76639
  -7   8  -1 246.921 413.848   2-0.34528-0.21834 0.14352 0.52268-0.97572 0.76860
  -7   9   1 78.8362 92.6901   5-0.60118 0.07662 0.24996 0.50015-0.85817 0.86162
  -6  -9   1 -44.354 90.6197   4 0.03474-0.48201-0.41006-0.34102 0.90178-0.88308
   6   9  -1 -60.896 98.4580   6 0.32879 0.11813 0.43501 0.31494 0.88501-0.90295
   6  -9  -1 73.5731 100.001   9-0.04145 0.48804-0.41421-0.33579-0.90090 0.88278
  -6   9   1 -51.330 110.738   5-0.60975 0.16306 0.25562 0.49443-0.85116 0.86922
  -6   9   1 111.157 104.006   2-0.48739 0.04051 0.33677 0.41336-0.88264 0.90115
   6  -9  -1 -30.976 64.1346   3 0.54276-0.09575-0.30069-0.44980 0.87198-0.89020
  -5  -9   1 -13.709 139.002   4 0.05238-0.42182-0.37065-0.38045 0.92070-0.88745
   5   9  -1 -174.43 110.556   6 0.32713 0.04191 0.42820 0.32174 0.88876-0.92132
   5  -9  -1 70.1643 65.0422   9-0.06007 0.42891-0.37453-0.37540-0.92014 0.88744
  -5   9   1 -80.825 79.0860   5-0.62581 0.25697 0.26627 0.48370-0.83734 0.86999
  -5   9   1 60.8207 73.1518   2-0.49129 0.12210 0.34244 0.40775-0.87869 0.91174
   5  -9  -1 25.5658 73.2475   3 0.55123-0.18206-0.30920-0.44128 0.86446-0.89726
  -4  -9   1 694.875 202.547   4 0.06782-0.35943-0.33529-0.41585 0.93575-0.88794
   4   9  -1 719.009 186.504   6 0.32707-0.03589 0.42794 0.32198 0.88891-0.93605
   4  -9  -1 615.818 174.917   9-0.07646 0.36757-0.33867-0.41119-0.93551 0.88823
  -4   9   1 587.142 165.837   2-0.49951 0.20803 0.35451 0.39576-0.87000 0.91762
   4  -9  -1 701.167 179.405   3 0.56588-0.27456-0.32408-0.42637 0.85068-0.89805
   3  -9  -1 3.43148 49.5241   4-0.02557 0.23920-0.53707-0.21368 0.82345-0.88559
  -3  -9   1 -28.115 73.9896   4 0.08097-0.29474-0.30454-0.44661 0.94743-0.88505
  -3   9   1 15.0490 52.1688   6 0.31557-0.52967 0.38206 0.36841 0.91233-0.84969
   3  -9  -1 21.7530 86.6259   9-0.09052 0.30390-0.30724-0.44257-0.94751 0.88565
  -3   9   1 -30.184 86.5837   2-0.51259 0.29882 0.37399 0.37637-0.85522 0.91741
  -3  -9   1 111.260 76.9030   9 0.01875-0.23201-0.53514-0.21522-0.82609 0.88837
   3  -9  -1 83.5913 73.2644   3 0.58772-0.37425-0.34660-0.40381 0.82819-0.89012
   3   9  -1 -1.8019 73.7815   6 0.32870-0.11539 0.43465 0.31522 0.88521-0.94692
   2  -9  -1 1120.14 212.965   4-0.01530 0.15112-0.51629-0.23448 0.83827-0.91500
  -2  -9   1 1174.48 237.372   4 0.09168-0.22762-0.27905-0.47213 0.95615-0.87920
  -2   9   1 980.082 198.138   2-0.53099 0.39496 0.40197 0.34848-0.83221 0.90898
  -2   9   1 987.705 181.589   6 0.30032-0.43655 0.32464 0.42608 0.93727-0.86012
   2   9  -1 1008.13 210.472   6 0.33208-0.19665 0.44877 0.30101 0.87718-0.95344
   2  -9  -1 1252.23 237.269   9-0.10211 0.23776-0.28085-0.46890-0.95654 0.88013
  -2  -9   1 1151.46 217.077   9 0.00830-0.14382-0.51496-0.23539-0.84044 0.91726
   2  -9  -1 1421.11 229.918   3 0.61762-0.48200-0.37825-0.37212 0.79299-0.86948
   1  -9  -1 386.249 143.148   4-0.00989 0.06788-0.50518-0.24561 0.84584-0.93716
  -1  -9   1 451.794 141.963   4 0.09979-0.15787-0.25949-0.49168 0.96227-0.87076
  -1   9   1 359.658 123.249   6 0.28782-0.34617 0.27994 0.47099 0.95356-0.86185
   1   9  -1 473.512 137.852   6 0.33719-0.27963 0.47075 0.27893 0.86402-0.95481
   1  -9  -1 351.588 118.508   9-0.11102 0.16895-0.26021-0.48950-0.96296 0.87199
  -1  -9   1 410.068 123.620   9 0.00296-0.06075-0.50452-0.24582-0.84755 0.93892
  -1   9   1 572.672 158.065   2-0.55493 0.49666 0.43963 0.31093-0.79766 0.88903
   0  -9  -1 71.6242 79.0692   4-0.00856-0.01127-0.50244-0.24836 0.84768-0.95357
   0  -9   1 -28.072 92.4553   4 0.10506-0.08530-0.24665-0.50453 0.96602-0.85994
   0   9   1 35.8580 59.9533   6 0.27818-0.25864 0.24671 0.50438 0.96398-0.85769
   0   9  -1 25.1689 63.5484   6 0.34396-0.36425 0.50096 0.24859 0.84456-0.94985
   0  -9  -1 93.5627 80.4600   9-0.11704 0.09726-0.24614-0.50354-0.96704 0.86151
   0  -9   1 266.897 140.099   9 0.00191 0.01805-0.50244-0.24790-0.84894 0.95486
  -1  -9  -1 188.146 129.614   4-0.01076-0.08689-0.50698-0.24384 0.84463-0.96509
  -1   9  -1 367.185 131.487   2-0.39871 0.30121 0.21346 0.53644-0.95078 0.83083
   1  -9   1 219.896 104.594   4 0.10719-0.00960-0.24141-0.50974 0.96750-0.84684
  -1   9  -1 191.272 129.285   1-0.15280 0.05578 0.23586 0.51407-0.97134 0.85123
   1   9   1 264.544 117.881   6 0.27139-0.17393 0.22380 0.52741 0.97036-0.84948
  -1   9  -1 235.972 72.2436   6 0.35213-0.45023 0.53964 0.20976 0.81715-0.93689
  -1  -9  -1 337.574 139.447   9-0.11985 0.02235-0.23953-0.51015-0.96886 0.84878
   1  -9   1 282.277 132.910   9 0.00453 0.09316-0.50758-0.24277-0.84548 0.96596
   2  -9   1 1348.91 216.767   3 0.41921-0.24379-0.18178-0.56894 0.95228-0.81718
  -2  -9  -1 1155.60 223.961   4-0.01607-0.15941-0.51785-0.23296 0.83718-0.97221
  -2   9  -1 1512.56 243.535   2-0.38005 0.20485 0.18871 0.56108-0.96067 0.82619
   2  -9   1 1175.88 242.532   4 0.10578 0.06964-0.24488-0.50626 0.96653-0.83129
  -2   9  -1 1372.76 249.669   1-0.15321-0.02154 0.23395 0.51589-0.97181 0.83718
   2   9   1 1146.67 224.148   6 0.26730-0.09192 0.21020 0.54108 0.97383-0.83836
  -2  -9  -1 1291.87 231.234   9-0.11902-0.05619-0.24149-0.50818-0.96832 0.83369
  -2   9  -1 1070.41 213.266   6 0.36126-0.53714 0.58684 0.16240 0.77950-0.91366
   2  -9   1 1635.01 287.278   9 0.01037 0.16506-0.51897-0.23141-0.83765 0.97270
   3  -9   1 106.183 101.987   3 0.40112-0.14784-0.16505-0.58569 0.96021-0.81053
  -3  -9  -1 -5.9374 68.9682   4-0.02416-0.22915-0.53423-0.21657 0.82553-0.97512
   3  -9   1 -99.068 72.5918   4 0.10024 0.15301-0.25839-0.49272 0.96260-0.81280
  -3   9  -1 81.7048 117.256   2-0.36898 0.11607 0.17419 0.57552-0.96592 0.81692
  -3  -9  -1 157.728 79.2078   9-0.11394-0.13899-0.25341-0.49629-0.96496 0.81578
   3   9   1 -38.253 111.758   6 0.26572-0.01244 0.20504 0.54629 0.97509-0.82502
   3  -9   1 42.5866 80.9238   9 0.01906 0.23410-0.53574-0.21467-0.82565 0.97528
  -4  -9  -1 553.484 179.567   4-0.03475-0.29639-0.55536-0.19543 0.80968-0.97383
   4  -9   1 463.533 143.268   3 0.39227-0.06114-0.15694-0.59383 0.96379-0.79951
  -4   9  -1 379.706 132.263   2-0.36413 0.03354 0.16788 0.58177-0.96808 0.80455
   4   9   1 452.726 145.516   6 0.26649 0.06470 0.20755 0.54380 0.97448-0.80981
   4  -9   1 698.029 217.831   9 0.03033 0.30057-0.55712-0.19334-0.80950 0.97372
  -5  -9  -1 75.8927 81.8706   4-0.04763-0.36133-0.58056-0.17022 0.78953-0.96822
   5  -9   1 81.7989 125.434   3 0.39061 0.01838-0.15541-0.59537 0.96444-0.78557
  -5   9  -1 71.4022 143.297   2-0.36444-0.04384 0.16828 0.58131-0.96794 0.78990
   5   9   1 287.852 164.420   6 0.26938 0.13970 0.21709 0.53423 0.97210-0.79281
   5  -9   1 -201.28 158.362   9 0.04394 0.36472-0.58241-0.16809-0.78910 0.96792
  -5   9  -1 -23.497 88.5462   5-0.42442 0.01535 0.13825 0.61218-0.95850 0.77944
   6  -9   1 -77.256 128.479   3 0.39460 0.09221-0.15908-0.59171 0.96287-0.76940
  -6   9  -1 249.749 164.505   5-0.42649-0.06045 0.13952 0.61097-0.95773 0.76404
   5 -10  -1 547.911 177.622   3 0.58115-0.21200-0.33979-0.49409 0.83521-0.86795
   4  10  -1 119.160 95.4471   6 0.33452-0.04336 0.45916 0.37417 0.87106-0.91808
  -4  10   1 40.0738 97.1278   2-0.52122 0.22972 0.38702 0.44661-0.84477 0.89246
   4 -10  -1 30.2547 85.4405   9-0.05786 0.34898-0.37930-0.45389-0.91795 0.87072
   4 -10  -1 182.669 114.319   3 0.59620-0.30491-0.35548-0.47837 0.81875-0.86607
  -3 -10   1 250.490 147.133   4 0.06139-0.27516-0.35012-0.48448 0.92965-0.86725
  -3  10   1 86.4025 101.371   2-0.53390 0.32012 0.40647 0.42725-0.82830 0.89057
   3  10  -1 223.894 120.083   6 0.33607-0.12280 0.46587 0.36740 0.86702-0.92861
   3 -10  -1 154.388 127.226   9-0.07029 0.28369-0.35229-0.48084-0.92989 0.86809
   2 -10  -1 175.507 130.743   4-0.02899 0.16482-0.54393-0.29029 0.81837-0.89508
  -2 -10   1 121.893 77.9977   4 0.07065-0.20657-0.32873-0.50588 0.93835-0.86138
  -2  10   1 221.332 124.838   2-0.55118 0.41513 0.43362 0.40019-0.80346 0.88032
  -2  10   1 378.506 170.361   6 0.31420-0.45050 0.37672 0.45733 0.91485-0.83754
   2  10  -1 382.354 130.760   6 0.33914-0.20375 0.47929 0.35389 0.85869-0.93483
   2 -10  -1 50.9984 70.1685   9-0.08031 0.21598-0.33014-0.50295-0.93890 0.86254
  -2 -10   1 82.2513 102.467   9 0.02278-0.15827-0.54285-0.29083-0.82039 0.89726
   1 -10  -1 850.779 217.892   4-0.02340 0.08141-0.53271-0.30151 0.82663-0.91791
  -1 -10   1 705.271 190.408   4 0.07739-0.13548-0.31298-0.52163 0.94435-0.85281
  -1  10   1 1019.21 246.211   6 0.30316-0.36158 0.33508 0.49917 0.93308-0.84124
   1  10  -1 872.854 225.058   6 0.34370-0.28617 0.49976 0.33332 0.84537-0.93603
   1 -10  -1 712.683 214.795   9-0.08775 0.14571-0.31348-0.51957-0.94523 0.85430
  -1 -10   1 590.427 191.882   9 0.01720-0.07495-0.53217-0.30150-0.82825 0.91967
   0 -10  -1 326.272 136.783   4-0.02160 0.00179-0.52909-0.30516 0.82924-0.93510
   0 -10   1 302.511 162.056   4 0.08139-0.06164-0.30354-0.53106 0.94778-0.84167
   0  10   1 203.351 97.9594   6 0.29448-0.27499 0.30352 0.53090 0.94530-0.83889
   0  10  -1 154.744 82.6659   6 0.34964-0.36997 0.52756 0.30538 0.82602-0.93118
   0 -10  -1 -60.118 81.4297   9-0.09238 0.07264-0.30301-0.53002-0.94901 0.84353
   0 -10   1 102.162 95.8863   9 0.01560 0.00438-0.52908-0.30458-0.83048 0.93645
  -1 -10  -1 941.233 221.196   4-0.02311-0.07453-0.53213-0.30212 0.82705-0.94749
   1 -10   1 1169.53 245.405   4 0.08237 0.01522-0.30123-0.53335 0.94861-0.82793
   1  10   1 1063.87 239.036   6 0.28816-0.19077 0.28116 0.55339 0.95315-0.83216
  -1 -10  -1 857.828 220.134   9-0.09390-0.00355-0.29956-0.53346-0.95023 0.83019
  -1  10  -1 967.446 227.178   6 0.35674-0.45491 0.56289 0.26991 0.79922-0.91883
   1 -10   1 1017.19 251.245   9 0.01744 0.08026-0.53262-0.30105-0.82792 0.94844
  -2  10  -1 282.846 121.795   2-0.42162 0.24637 0.24436 0.58884-0.93674 0.80232
  -2 -10  -1 302.008 163.024   4-0.02755-0.14792-0.54105-0.29322 0.82052-0.95552
   2 -10   1 320.817 132.926   4 0.07993 0.09550-0.30699-0.52757 0.94654-0.81129
   2  10   1 341.049 160.165   6 0.28416-0.10884 0.26720 0.56743 0.95772-0.82214
  -2 -10  -1 367.759 122.388   9-0.09190-0.08327-0.30410-0.52893-0.94863 0.81404
  -2  10  -1 87.0360 67.1786   6 0.36463-0.54059 0.60573 0.22690 0.76299-0.89702
   2 -10   1 241.908 108.087   9 0.02232 0.15311-0.54197-0.29173-0.82104 0.95614
  -3 -10  -1 10.1327 80.7237   4-0.03463-0.21868-0.55512-0.27913 0.80987-0.95943
  -3  10  -1 -91.837 70.1647   2-0.40915 0.15620 0.22745 0.60565-0.94465 0.79570
   3  10   1 -136.58 115.672   6 0.28235-0.02912 0.26096 0.57373 0.95969-0.80950
   3 -10   1 31.1120 118.375   9 0.02994 0.22324-0.55638-0.27735-0.81008 0.95975
   4 -10   1 63.4428 73.8948   3 0.44337-0.11227-0.20434-0.62981 0.94033-0.77602
  -4  10  -1 93.4018 90.8776   2-0.40247 0.07184 0.21849 0.61454-0.94862 0.78515
   5 -10   1 159.917 132.345   3 0.43826-0.02931-0.19955-0.63462 0.94299-0.76408
   1 -11  -1 -62.599 87.7547   4-0.03841 0.09642-0.56257-0.35511 0.80406-0.89532
  -1  11   1 69.9049 95.0314   6 0.31710-0.37557 0.38801 0.52958 0.90947-0.81746
  -1 -11   1 170.678 166.940   9 0.03300-0.09072-0.56213-0.35486-0.80557 0.89706
   0 -11  -1 396.142 179.922   9-0.06790 0.04817-0.35752-0.55886-0.92766 0.82224
   0 -11   1 167.215 152.880   9 0.03085-0.01084-0.55809-0.35890-0.80874 0.91477
   1 -11   1 4.89515 155.294   4 0.05789 0.03972-0.35813-0.55989 0.92623-0.80552
  -1 -11  -1 78.6542 99.1912   9-0.06829-0.02914-0.35665-0.55973-0.92804 0.80806
  -1  11  -1 77.6639 55.7373   6 0.36167-0.45987 0.58907 0.32712 0.77759-0.89705
 -12   0   2 497.939 179.368   5-0.63807-0.25568 0.27447-0.27478-0.82616 0.86261
 -12   0   2 355.223 146.990   8-0.64266-0.25103-0.20401 0.20398-0.84580 0.88247
  11   0  -2 246.539 135.832   7 0.63023 0.18553 0.10078-0.10105 0.87426-0.92538
 -11   0   2 170.318 107.092   5-0.62198-0.19391 0.26372-0.26401-0.84072 0.89179
 -11   0   2 -131.62 107.116   8-0.62643-0.18948-0.19699 0.19695-0.85817 0.90941
  10   0  -2 782.275 198.031   7 0.61771 0.12025 0.09829-0.09854 0.88213-0.94783
 -10   0   2 509.302 137.645   5-0.60942-0.12862 0.25540-0.25566-0.85143 0.91713
 -10   0   2 531.659 153.338   8-0.61385-0.12429-0.19157 0.19152-0.86726 0.93307
   9   0  -2 34.6655 75.9903   7 0.61008 0.05010 0.09678-0.09700 0.88676-0.96705
   9   0  -2 47.7603 47.0000   3 0.59139 0.06914-0.35044 0.35054 0.82415-0.90452
  -9   0   2 -58.591 52.9423   5-0.60144-0.05876 0.25013-0.25039-0.85796 0.93826
  -9   0   2 -34.200 60.1161   8-0.60601-0.05435-0.18821 0.18815-0.87271 0.95310
   8   0  -2 90.4318 94.2074   7 0.60891-0.02652 0.09655-0.09675 0.88746-0.98231
   8   0  -2 184.354 89.8749   3 0.58864-0.00592-0.34757 0.34767 0.82718-0.92212
  -8   0   2 84.5094 47.7661   5-0.59949 0.01714 0.24885-0.24909-0.85952 0.95441
  -8   0   2 172.242 79.6295   8-0.60443 0.02186-0.18754 0.18747-0.87378 0.96874
   7   0  -2 22.4452 50.8091   7 0.61647-0.11187 0.09805-0.09821 0.88289-0.99231
   7   0  -2 14.9559 35.6510   3 0.59312-0.08819-0.35225 0.35235 0.82223-0.93174
  -7   0   2 38.3392 46.9169   5-0.60558 0.10106 0.25286-0.25309-0.85460 0.96406
  -7   0   2 10.7304 51.9677   8-0.61128 0.10649-0.19047 0.19039-0.86906 0.97859
   6   0  -2 1433.94 175.166   7 0.63600-0.20917 0.10193-0.10207 0.87052-0.99450
  -6   0   2 1403.91 104.103   4 0.21162-0.63901 0.03745-0.03760 0.99899-0.87437
   6   0  -2 1342.46 103.239   9-0.21151 0.63833-0.00686 0.00704-0.99967 0.87567
  -6   0   2 1497.11 175.675   5-0.62243 0.19573 0.26401-0.26422-0.84033 0.96434
  -6   0   2 1418.08 171.235   8-0.62953 0.20250-0.19832 0.19823-0.85587 0.97997
   5   0  -2 -38.664 41.4707   7 0.67194-0.32289 0.10912-0.10923 0.84542-0.98395
  -5   0   2 8.78002 20.7049   4 0.29902-0.64862 0.31960-0.31976 0.93923-0.79997
   5   0  -2 14.6060 25.9394   9-0.30546 0.65445 0.27797-0.27778-0.95182 0.81335
   5   0  -2 -30.895 44.5962   3 0.63273-0.28340-0.39464 0.39475 0.77297-0.91160
  -5   0   2 19.9717 24.3907   5-0.65350 0.30460 0.28489-0.28507-0.81124 0.94978
  -5   0   2 49.3163 59.1875   8-0.66321 0.31397-0.21296 0.21285-0.82903 0.96770
   4   0  -2 16136.1 530.538   7 0.72988-0.45858 0.12085-0.12093 0.79762-0.95070
  -4   0   2 15341.5 611.394   8-0.71698 0.44551-0.23674 0.23663-0.77837 0.93161
 -12   1   2 190.805 140.763   5-0.62164-0.27217 0.26349-0.18044-0.84102 0.87748
 -12   1   2 202.572 100.119   8-0.66181-0.23191-0.21235 0.29566-0.83022 0.86687
  11   1  -2 -169.69 135.115   7 0.62531 0.19042 0.09980-0.01669 0.87739-0.92852
  11  -1  -2 116.509 110.050   7 0.64239 0.17337 0.10320-0.18685 0.86628-0.91738
 -11   1   2 -52.047 69.7246   5-0.60501-0.21094 0.25249-0.16941-0.85506 0.90617
 -11  -1   2 -96.672 78.1053   8-0.61404-0.20184-0.19166 0.10828-0.86712 0.91838
 -11   1   2 -104.68 73.2793   8-0.64668-0.16925-0.20576 0.28906-0.84262 0.89385
  10   1  -2 886.059 230.089   7 0.61257 0.12536 0.09727-0.01414 0.88526-0.95097
  10  -1  -2 768.534 209.965   7 0.63078 0.10720 0.10089-0.18451 0.87391-0.93960
 -10  -1   2 1057.23 202.839   5-0.63665-0.10133 0.27352-0.35713-0.82749 0.89314
  10  -1  -2 1232.07 204.186   3 0.57548 0.16288-0.33393 0.25066 0.84109-0.90689
 -10   1   2 1296.43 221.745   5-0.59166-0.14644 0.24372-0.16063-0.86567 0.93139
 -10  -1   2 1361.79 231.195   8-0.60082-0.13728-0.18599 0.10261-0.87623 0.94205
 -10   1   2 1090.83 213.361   8-0.63550-0.10264-0.20091 0.28420-0.85135 0.91715
   9   1  -2 112.067 80.0099   7 0.60460 0.05556 0.09569-0.01254 0.89001-0.97030
   9  -1  -2 78.5352 60.5971   7 0.62428 0.03590 0.09960-0.18319 0.87804-0.95831
  -9   1   2 331.565 113.545   2-0.54337-0.11730 0.42126-0.33759-0.81505 0.89547
  -9  -1   2 87.4204 55.5006   5-0.63086-0.02928 0.26964-0.35324-0.83280 0.91305
   9  -1  -2 131.849 89.4733   3 0.56581 0.09475-0.32401 0.24075 0.85075-0.93112
  -9   1   2 65.4082 82.8193   5-0.58253-0.07771 0.23776-0.15466-0.87260 0.95293
  -9  -1   2 68.8437 73.7175   8-0.59208-0.06826-0.18226 0.09886-0.88201 0.96240
  -9   1   2 78.5238 57.9429   8-0.62949-0.03089-0.19830 0.28159-0.85590 0.93628
   8   1  -2 152.713 79.2168   7 0.60290-0.02053 0.09536-0.01218 0.89101-0.98587
   8  -1  -2 139.497 52.7244   7 0.62460-0.04219 0.09966-0.18322 0.87785-0.97268
  -8   1   2 392.343 94.0728   2-0.53757-0.04536 0.41218-0.32852-0.82326 0.91822
   8   1  -2 261.414 88.3471   3 0.62965-0.04694-0.39127 0.47471 0.77719-0.87213
  -8  -1   2 308.406 97.5744   5-0.63185 0.04955 0.27030-0.35387-0.83190 0.92674
   8  -1  -2 252.572 81.7658   3 0.56105 0.02171-0.31915 0.23589 0.85534-0.95028
  -8   1   2 209.815 80.9183   5-0.57891-0.00348 0.23541-0.15230-0.87527 0.97019
  -8  -1   2 144.856 64.6245   8-0.58921 0.00665-0.18104 0.09763-0.88387 0.97883
  -8   1   2 116.809 44.6743   8-0.63032 0.04774-0.19868 0.28194-0.85527 0.95022
  -7  -1   2 1912.49 158.125   4 0.12982-0.63502-0.18487 0.10132 0.98123-0.87120
   7   1  -2 1604.06 210.545   7 0.60964-0.10505 0.09669-0.01350 0.88703-0.99645
  -7   1   2 1945.79 207.021   2-0.53705 0.03188 0.41136-0.32770-0.82399 0.93351
   7  -1  -2 1621.70 137.122   9-0.13153 0.63616-0.21171 0.12849-0.97594 0.86648
   7  -1  -2 1662.43 197.297   3 0.56265-0.05771-0.32079 0.23754 0.85380-0.96332
  -7  -1   2 1747.21 197.020   5-0.64188 0.13739 0.27704-0.36057-0.82256 0.93197
  -7   1   2 1623.07 194.175   5-0.58256 0.07801 0.23778-0.15467-0.87257 0.98207
  -7  -1   2 1629.46 203.220   8-0.59414 0.08936-0.18314 0.09972-0.88066 0.99019
  -7   1   2 1699.54 202.555   8-0.64038 0.13557-0.20302 0.28628-0.84759 0.95711
   6   1  -2 -63.489 58.4219   7 0.62788-0.20107 0.10031-0.01709 0.87577-0.99976
   6  -1  -2 -38.639 43.6704   7 0.65618-0.22934 0.10595-0.18946 0.85682-0.98079
  -6   1   2 -32.132 14.2167   4 0.21025-0.63762 0.03345 0.04986 0.99916-0.87456
  -6  -1   2 43.7581 33.6234   4 0.20252-0.62995 0.01114-0.09476 0.99982-0.87519
  -6   1   2 38.8978 36.6656   2-0.54320 0.11579 0.42098-0.33734-0.81530 0.93939
   6  -1  -2 -0.0484 20.7027   9-0.20733 0.63411-0.01825-0.06489-0.99962 0.87564
   6   1  -2 -17.123 13.1910   9-0.19365 0.62053-0.05499 0.13851-0.99846 0.87443
  -6  -1   2 6.40788 40.3123   5-0.66395 0.23726 0.29200-0.37550-0.80056 0.92452
   6  -1  -2 -1.4179 29.7140   3 0.57254-0.14541-0.33090 0.24766 0.84408-0.96816
  -6  -1   2 11.2141 51.0680   8-0.60960 0.18259-0.18975 0.10632-0.87023 0.99432
  -6   1   2 -65.248 50.6335   8-0.66291 0.23589-0.21283 0.29608-0.82929 0.95338
   6   1  -2 17.8093 22.5846   1-0.20068 0.62832-0.01627 0.09981-0.99977 0.87556
   5   1  -2 -46.589 39.4007   7 0.66189-0.31286 0.10710-0.02386 0.85276-0.99129
   5  -1  -2 23.8170 33.4660   7 0.69541-0.34634 0.11384-0.19731 0.82724-0.96576
   5   1  -2 14.1374 22.4758   1-0.23728 0.58704-0.28555 0.36912-0.95654 0.81773
  -5   1   2 25.8228 28.1339   2-0.55748 0.20786 0.44375-0.36010-0.79362 0.93230
  -5  -1   2 61.6633 38.6711   4 0.26573-0.61535 0.20469-0.28833 0.97517-0.83591
   5  -1  -2 -13.128 20.3489   9-0.27419 0.62316 0.17597-0.25906-0.98006 0.84159
  -5   1   2 15.1262 37.3488   5-0.62197 0.27307 0.26371-0.18060-0.84073 0.97931
  -5  -1   2 8.99114 28.8107   8-0.63930 0.29005-0.20256 0.11911-0.84842 0.98709
  -5   1   2 30.0130 54.3610   8-0.70209 0.35285-0.23010 0.31334-0.79348 0.93214
   4   1  -2 712.792 126.048   7 0.71710-0.44582 0.11824-0.03498 0.80903-0.96211
   4  -1  -2 431.470 99.2442   7 0.75713-0.48581 0.12642-0.20987 0.77139-0.92448
   4  -1  -2 787.642 126.562   3 0.62640-0.35488-0.38774 0.30451 0.78156-0.93475
  -4   1   2 698.035 116.024   5-0.66453 0.39341 0.29239-0.20927-0.79996 0.95307
  -4  -1   2 919.745 160.342   8-0.68781 0.41633-0.22377 0.14031-0.80716 0.96040
  11   2  -2 -87.746 80.6821   7 0.62735 0.18836 0.10021 0.06628 0.87610-0.92724
  11  -2  -2 23.3661 81.8293   7 0.66205 0.15373 0.10713-0.27415 0.85265-0.90372
  11  -2  -2 33.1045 84.1608   3 0.57410 0.24210-0.33250 0.16586 0.84251-0.89371
 -11   2   2 -15.987 91.6167   5-0.59564-0.22035 0.24633-0.07988-0.86256 0.91367
 -11  -2   2 -227.73 133.834   8-0.60887-0.20699-0.18944 0.02273-0.87073 0.92200
 -11   2   2 0.53671 80.6965   8-0.67537-0.14058-0.21829 0.38495-0.81848 0.86968
  10   2  -2 36.7367 96.4647   7 0.61502 0.12290 0.09776 0.06875 0.88378-0.94950
  10  -2  -2 -128.26 89.2383   7 0.65205 0.08593 0.10513-0.27212 0.85970-0.92536
 -10   2   2 105.696 96.3608   2-0.53397-0.20438 0.40658-0.23954-0.82820 0.89406
  10  -2  -2 178.641 110.205   3 0.56044 0.17796-0.31853 0.15189 0.85592-0.92171
 -10   2   2 53.7782 83.8791   5-0.58221-0.15592 0.23755-0.07109-0.87284 0.93857
 -10  -2   2 39.6737 95.4323   8-0.59569-0.14239-0.18380 0.01709-0.87964 0.94548
 -10   2   2 79.8820 98.0675   8-0.66648-0.07169-0.21439 0.38104-0.82624 0.89203
   9   2  -2 26.6212 51.6437   7 0.60743 0.05270 0.09625 0.07027 0.88834-0.96864
   9  -2  -2 66.3069 82.4902   7 0.64755 0.01265 0.10423-0.27119 0.86279-0.94304
  -9   2   2 155.747 81.5817   2-0.52352-0.13709 0.39052-0.22349-0.84189 0.92227
  -9  -2   2 206.088 97.3120   5-0.67209 0.01201 0.29758-0.46448-0.79190 0.87209
  -9   2   2 76.3308 73.5718   5-0.57276-0.08751 0.23142-0.06496-0.87973 0.96006
   9  -2  -2 199.019 104.255   3 0.55028 0.11030-0.30824 0.14161 0.86532-0.94569
  -9  -2   2 -65.467 83.0676   8-0.58683-0.07349-0.18002 0.01330-0.88539 0.96579
  -9   2   2 270.827 108.405   8-0.66332 0.00294-0.21301 0.37965-0.82894 0.90930
   8   2  -2 229.935 99.6352   7 0.60606-0.02371 0.09598 0.07056 0.88915-0.98402
   8  -2  -2 244.095 112.580   7 0.65033-0.06791 0.10479-0.27171 0.86089-0.95571
  -8   2   2 44.4183 50.3484   2-0.51679-0.06608 0.38031-0.21328-0.85021 0.94513
  -8  -2   2 158.712 81.7107   5-0.67745 0.09518 0.30127-0.46813-0.78603 0.88080
  -8   2   2 187.841 83.8717   5-0.56848-0.01394 0.22864-0.06218-0.88277 0.97770
   8  -2  -2 312.332 96.9153   3 0.54460 0.03817-0.30253 0.13591 0.87037-0.96532
  -8  -2   2 63.3730 71.6588   8-0.58358 0.00103-0.17864 0.01190-0.88746 0.98243
  -8   2   2 214.824 83.3892   8-0.66778 0.08518-0.21496 0.38159-0.82512 0.92006
  -7  -2   2 1197.35 146.854   4 0.13558-0.64082-0.17017 0.00315 0.98417-0.87412
   7   2  -2 1321.00 185.161   7 0.61297-0.10842 0.09735 0.06921 0.88502-0.99445
   7  -2  -2 1434.53 188.605   7 0.66291-0.15828 0.10730-0.27420 0.85203-0.96142
  -7   2   2 1665.65 192.721   2-0.51477 0.00965 0.37726-0.21023-0.85263 0.96211
   7  -2  -2 1301.17 142.423   9-0.14022 0.64480-0.19068 0.02413-0.98065 0.87122
   7  -2  -2 1288.02 178.907   3 0.54466-0.03971-0.30259 0.13598 0.87032-0.97984
  -7   2   2 1495.70 187.134   5-0.57090 0.06633 0.23021-0.06376-0.88105 0.99056
  -7   2   2 1845.38 214.860   8-0.68242 0.17762-0.22139 0.38802-0.81213 0.92164
  -7  -2   2 1275.89 175.534   8-0.58772 0.08293-0.18040 0.01365-0.88482 0.99436
   6   2  -2 583.571 87.1087   1-0.19252 0.62019 0.03202 0.13489-0.99947 0.87526
   6   2  -2 751.891 132.272   7 0.63110-0.20432 0.10095 0.06563 0.87370-0.99769
   6  -2  -2 727.591 127.225   7 0.68879-0.26193 0.11251-0.27937 0.83252-0.95648
  -6  -2   2 553.007 94.1058   4 0.19040-0.61784-0.02326-0.14381 0.99972-0.87509
   6  -2  -2 726.452 110.029   9-0.19747 0.62422-0.04482-0.12164-0.99894 0.87497
  -6   2   2 579.192 103.484   2-0.51865 0.09127 0.38312-0.21608-0.84794 0.97199
  -6   2   2 761.009 138.093   5-0.58213 0.15540 0.23750-0.07105-0.87289 0.99696
   6  -2  -2 574.429 116.601   3 0.55209-0.12495-0.31007 0.14347 0.86368-0.98777
  -6  -2   2 577.931 120.531   8-0.60171 0.17469-0.18638 0.01962-0.87563 0.99973
  -6   2   2 812.553 157.553   8-0.71064 0.28362-0.23391 0.40053-0.78491 0.90899
   5   2  -2 55.8037 39.2134   7 0.66447-0.31547 0.10762 0.05898 0.85090-0.98943
   5  -2  -2 105.296 56.5871   7 0.73246-0.38337 0.12137-0.28820 0.79524-0.93376
   5   2  -2 63.8036 37.2527   1-0.22154 0.57133-0.15567 0.32257-0.98710 0.84834
  -5  -2   2 127.259 57.0455   4 0.23950-0.58913 0.12113-0.28824 0.99112-0.85188
   5  -2  -2 21.1596 25.1939   9-0.24919 0.59815 0.10013-0.26651-0.99289 0.85441
  -5   2   2 68.7438 38.7519   2-0.52976 0.18014 0.40007-0.23303-0.83383 0.97247
   5  -2  -2 90.4183 51.7611   3 0.56887-0.21954-0.32713 0.16054 0.84775-0.98639
  -5   2   2 127.072 56.5599   5-0.60491 0.25601 0.25242-0.08599-0.85515 0.99375
  -5  -2   2 61.6256 47.0063   8-0.62893 0.27966-0.19806 0.03129-0.85631 0.99499
   4   2  -2 279.371 68.0374   7 0.71815-0.44690 0.11846 0.04816 0.80811-0.96118
  -4   2   2 344.101 84.5268   2-0.54936 0.27752 0.43072-0.26367-0.80622 0.95946
  -4  -2   2 338.433 81.3123   4 0.28194-0.55373 0.25919-0.42631 0.96022-0.80636
   4  -2  -2 341.358 76.8529   9-0.29422 0.56543 0.24024-0.40657-0.96379 0.81081
  -4  -2   2 286.281 80.8320   8-0.67354 0.40204-0.21749 0.05070-0.82009 0.97334
  -3  -2   2 -51.770 59.9632   8-0.73943 0.54570-0.24686 0.08006-0.75377 0.92160
  11   3  -2 -132.75 81.3718   7 0.63598 0.17970 0.10192 0.14794 0.87053-0.92167
  11  -3  -2 158.193 115.892   7 0.68933 0.12646 0.11262-0.36300 0.83209-0.88314
  11  -3  -2 -76.663 77.3288   3 0.56628 0.24996-0.32448 0.07446 0.85029-0.90149
 -11   3   2 -246.05 123.835   5-0.59297-0.22305 0.24458 0.00526-0.86466 0.91576
 -11  -3   2 344.130 151.383   8-0.61029-0.20554-0.19005-0.05997-0.86975 0.92103
 -10   3   2 666.731 154.595   2-0.52248-0.21581 0.38893-0.13856-0.84319 0.90903
  10   3  -2 581.708 176.070   7 0.62462 0.11327 0.09966 0.15022 0.87783-0.94355
  10  -3  -2 642.281 159.968   7 0.68170 0.05630 0.11108-0.36143 0.83804-0.90367
 -10   3   2 689.886 162.858   5-0.57998-0.15818 0.23611 0.01374-0.87449 0.94022
  10  -3  -2 567.750 161.648   3 0.55296 0.18546-0.31095 0.06093 0.86289-0.92867
 -10  -3   2 671.345 197.027   8-0.59769-0.14037-0.18466-0.06538-0.87832 0.94416
   9   3  -2 147.536 63.1450   7 0.61806 0.04204 0.09836 0.15154 0.88191-0.96221
   9  -3  -2 -49.227 78.4711   7 0.68003-0.01982 0.11074-0.36106 0.83932-0.91954
  -9   3   2 -2.0264 50.9275   2-0.51216-0.14839 0.37333-0.12296-0.85573 0.93610
  -9   3   2 138.140 88.5010   5-0.57086-0.08943 0.23018 0.01965-0.88109 0.96143
   9  -3  -2 235.152 109.912   3 0.54297 0.11764-0.30090 0.05088 0.87181-0.95217
  -9  -3   2 -107.17 56.9995   8-0.58934-0.07097-0.18109-0.06895-0.88378 0.96419
  -9   3   2 97.4502 79.0936   8-0.70802 0.04764-0.23274 0.48276-0.78757 0.86790
   8   3  -2 807.037 161.256   7 0.61776-0.03544 0.09830 0.15161 0.88210-0.97696
   8  -3  -2 958.414 179.857   7 0.68624-0.10381 0.11199-0.36228 0.83452-0.92932
  -8  -3   2 785.477 142.581   4 0.08460-0.66765-0.29594 0.04553 0.95046-0.85498
   8  -3  -2 808.377 134.760   9-0.08892 0.67128-0.31085 0.06088-0.94620 0.85136
   8   3  -2 -95.568 43.1620   6 0.36628 0.21582 0.61540-0.36623 0.75421-0.84869
  -8   3   2 845.189 159.642   2-0.50527-0.07755 0.36305-0.11268-0.86365 0.95855
  -8   3   2 820.137 157.538   5-0.56665-0.01578 0.22746 0.02237-0.88405 0.97898
   8  -3  -2 841.819 171.637   3 0.53716 0.04563-0.29509 0.04508 0.87679-0.97174
  -8  -3   2 741.444 165.848   8-0.58645 0.00391-0.17986-0.07019-0.88564 0.98061
  -8   3   2 1021.13 209.033   8-0.71727 0.13468-0.23687 0.48688-0.77806 0.87297
   7  -3  -2 499.793 110.558   9-0.13882 0.64335-0.19409-0.05578-0.97993 0.87052
   7   3  -2 259.445 80.2873   7 0.62572-0.12119 0.09988 0.15005 0.87714-0.98656
   7  -3  -2 579.026 130.567   7 0.70295-0.19830 0.11537-0.36562 0.82107-0.93044
  -7  -3   2 407.523 99.9886   4 0.13260-0.63786-0.17780-0.07268 0.98267-0.87262
   7   3  -2 273.268 81.3238   6 0.36176 0.14262 0.58962-0.34047 0.77712-0.88621
  -7   3   2 513.857 114.104   2-0.50265-0.00243 0.35916-0.10878-0.86656 0.97602
  -7   3   2 456.617 116.807   5-0.56876 0.06417 0.22882 0.02098-0.88257 0.99208
   7  -3  -2 482.013 115.788   3 0.53662-0.03165-0.29455 0.04455 0.87725-0.98676
  -7  -3   2 374.232 112.930   8-0.59068 0.08591-0.18167-0.06840-0.88292 0.99245
  -7   3   2 -144.75 134.354   8-0.73763 0.23283-0.24605 0.49605-0.75582 0.86530
  -6  -3   2 1339.90 164.100   4 0.17677-0.60422-0.06105-0.18949 0.99808-0.87344
   6   3  -2 1289.76 183.085   7 0.64473-0.21798 0.10367 0.14627 0.86471-0.98868
   6  -3  -2 1406.38 184.391   7 0.73362-0.30674 0.12161-0.37183 0.79417-0.91811
  -6   3   2 1477.33 181.734   2-0.50530 0.07795 0.36309-0.11269-0.86361 0.98764
   6   3  -2 1276.03 161.831   6 0.35886 0.06779 0.57393-0.32479 0.79029-0.91395
   6  -3  -2 1458.52 172.068   9-0.18502 0.61174-0.07773-0.17206-0.99697 0.87302
   6  -3  -2 1273.18 174.262   3 0.54273-0.11559-0.30065 0.05068 0.87201-0.99610
  -6   3   2 1387.29 174.638   5-0.57902 0.15228 0.23548 0.01432-0.87520 0.99927
  -6  -3   2 1412.45 190.773   8-0.60428 0.17726-0.18747-0.06261-0.87389 0.99799
   5   3  -2 291.633 75.6065   7 0.67855-0.32956 0.11044 0.13951 0.84045-0.97897
  -5   3   2 318.092 50.0026   6 0.13822-0.48785-0.16289 0.41381 0.98552-0.84637
  -5  -3   2 355.014 90.5226   4 0.21675-0.56639 0.05251-0.30308 0.99816-0.85892
   5  -3  -2 293.246 81.0947   9-0.22710 0.57605 0.03644-0.28614-0.99850 0.86002
   5   3  -2 339.534 88.1445   6 0.35800-0.00907 0.56940-0.32027 0.79398-0.93221
  -5   3   2 482.291 103.231   2-0.51432 0.16472 0.37659-0.12617-0.85317 0.99178
  -5   3   2 352.411 85.7033   5-0.59982 0.25092 0.24907 0.00070-0.85926 0.99787
   5  -3  -2 375.287 88.0471   3 0.55718-0.20785-0.31522 0.06525 0.85899-0.99764
  -5  -3   2 298.617 91.4921   8-0.63025 0.28098-0.19863-0.05146-0.85533 0.99400
   4   3  -2 455.275 89.9452   1-0.22596 0.49794-0.18916 0.43936-0.98100 0.82772
   4   3  -2 457.929 99.2046   7 0.73172-0.46048 0.12122 0.12874 0.79593-0.94899
  -4  -3   2 381.121 87.9606   4 0.25217-0.52397 0.16085-0.41145 0.98457-0.83072
  -4   3   2 458.009 102.198   2-0.53087 0.25902 0.40178-0.15134-0.83237 0.98557
   4   3  -2 473.993 93.7208   6 0.35945-0.08827 0.57712-0.32802 0.78766-0.94042
   4  -3  -2 -42.640 29.3139   3 0.58185-0.31034-0.34052 0.09056 0.83447-0.98768
  -4   3   2 443.769 93.7769   5-0.63404 0.36294 0.27176-0.02202-0.82990 0.98304
  -4  -3   2 492.077 113.794   8-0.67230 0.40079-0.21694-0.03317-0.82118 0.97443
   4  -3  -2 397.730 91.2170   9-0.26459 0.53580 0.14631-0.39594-0.98589 0.83290
   3   3  -2 181.114 60.9152   1-0.23845 0.43263-0.29661 0.54673-0.95305 0.78525
  -3  -3   2 268.711 74.5917   4 0.28270-0.47665 0.26180-0.51241 0.95941-0.79096
   3  -3  -2 244.662 71.7416   9-0.29705 0.49053 0.24960-0.49919-0.96099 0.79349
   3   3  -2 63.6483 35.1178   6 0.36327-0.16981 0.59802-0.34893 0.76984-0.93713
  -3  -3   2 33.2662 31.7330   8-0.73397 0.54022-0.24439-0.00573-0.75996 0.92779
 -11   4   2 -66.253 73.4180   2-0.52964-0.28630 0.39991-0.06620-0.83398 0.88531
  11  -4  -2 160.102 112.395   3 0.56433 0.25193-0.32250-0.01091 0.85219-0.90337
  10   4  -2 125.322 96.2625   7 0.64092 0.09694 0.10291 0.23035 0.86726-0.93298
  10  -4  -2 -81.941 63.9460   7 0.71968 0.01832 0.11877-0.45248 0.80677-0.87237
 -10   4   2 -42.533 82.7861   2-0.51725-0.22099 0.38099-0.04728-0.84966 0.91550
 -10   4   2 241.786 134.045   5-0.58398-0.15419 0.23870 0.09451-0.87151 0.93722
  10  -4  -2 219.344 120.470   3 0.55173 0.18671-0.30971-0.02369 0.86400-0.92978
 -10  -4   2 -20.805 120.323   8-0.60608-0.13197-0.18824-0.14510-0.87266 0.93851
   9   4  -2 2381.51 309.057   7 0.63594 0.02413 0.10192 0.23136 0.87056-0.95084
   9  -4  -2 2718.06 317.909   7 0.72163-0.06141 0.11916-0.45284 0.80505-0.88523
  -9   4   2 2384.58 284.736   2-0.50745-0.15306 0.36630-0.03260-0.86117 0.94154
   9  -4  -2 2315.47 305.974   3 0.54234 0.11829-0.30027-0.03313 0.87235-0.95271
  -9   4   2 2787.99 316.197   5-0.57564-0.08467 0.23328 0.09993-0.87766 0.95798
  -9  -4   2 2259.86 311.212   8-0.59874-0.06155-0.18510-0.14825-0.87762 0.95804
   8   4  -2 25.4962 75.9967   7 0.63732-0.05504 0.10219 0.23109 0.86965-0.96450
   8  -4  -2 -41.362 61.9319   7 0.73210-0.14966 0.12130-0.45494 0.79558-0.89035
  -8  -4   2 46.5608 68.3503   4 0.08486-0.66794-0.29534-0.03855 0.95067-0.85517
   8  -4  -2 115.513 63.2503   9-0.09025 0.67257-0.30784-0.02546-0.94729 0.85248
   8   4  -2 -44.576 59.9942   6 0.35856 0.22364 0.57240-0.23998 0.79154-0.88605
  -8   4   2 31.9934 73.5225   2-0.50088-0.08190 0.35654-0.02283-0.86851 0.96341
  -8   4   2 -34.425 53.7115   5-0.57204-0.01039 0.23096 0.10224-0.88024 0.97515
   8  -4  -2 -1.5398 72.8888   3 0.53691 0.04589-0.29484-0.03855 0.87700-0.97194
  -8  -4   2 38.9068 75.3154   8-0.59679 0.01426-0.18427-0.14909-0.87892 0.97390
   7   4  -2 1990.20 246.143   7 0.64703-0.14253 0.10413 0.22917 0.86315-0.97255
   7  -4  -2 2008.76 243.329   7 0.75369-0.24902 0.12572-0.45933 0.77485-0.88420
  -7   4   2 2238.92 254.894   2-0.49824-0.00682 0.35264-0.01891-0.87138 0.98083
   7   4  -2 2109.34 239.218   6 0.35396 0.15051 0.54874-0.21632 0.81027-0.91938
   7  -4  -2 2104.04 240.158   9-0.13225 0.63674-0.21000-0.12319-0.97634 0.86696
   7  -4  -2 2154.12 257.731   3 0.53640-0.03142-0.29433-0.03906 0.87744-0.98695
  -7   4   2 2348.25 247.785   5-0.57448 0.06990 0.23253 0.10064-0.87850 0.98799
  -7  -4   2 2247.51 258.449   8-0.60178 0.09700-0.18640-0.14696-0.87558 0.98512
  -7  -4   2 2018.93 230.217   4 0.12514-0.63042-0.19674-0.13719 0.97867-0.86860
   6   4  -2 -12.035 45.9266   7 0.66770-0.24096 0.10826 0.22503 0.84855-0.97251
  -6  -4   2 -84.075 48.6598   4 0.16217-0.58964-0.10058-0.23340 0.99463-0.86997
   6  -4  -2 70.5634 47.9497   9-0.17103 0.59774-0.11389-0.21921-0.99338 0.86944
   6   4  -2 14.3983 49.2148   6 0.35097 0.07575 0.53396-0.20155 0.82136-0.94507
  -6   4   2 70.1551 63.8701   2-0.50033 0.07301 0.35574-0.02199-0.86910 0.99312
  -6   4   2 -33.290 44.1593   5-0.58456 0.15783 0.23908 0.09406-0.87108 0.99514
   6  -4  -2 9.99130 51.5667   3 0.54197-0.11482-0.29989-0.03347 0.87267-0.99676
  -6  -4   2 -61.882 52.2886   8-0.61577 0.18874-0.19240-0.14099-0.86590 0.99001
   6   4  -2 -14.204 43.7199   1-0.17598 0.60368 0.12244 0.21121-0.99243 0.86822
   5   4  -2 444.688 105.416   7 0.70274-0.35377 0.11533 0.21798 0.82124-0.95974
  -5   4   2 305.837 60.8080   6 0.20555-0.55515 0.02030 0.31391 0.99962-0.86057
  -5  -4   2 369.882 97.8037   4 0.19578-0.54542-0.00808-0.32595 0.99993-0.86069
   5  -4  -2 429.155 98.3149   9-0.20641 0.55536-0.02075-0.31226-0.99959 0.86112
   5   4  -2 400.536 110.057   6 0.34992-0.00096 0.52893-0.19653 0.82504-0.96332
  -5   4   2 199.448 64.1376   2-0.50811 0.15852 0.36728-0.03350-0.86042 0.99901
  -5   4   2 454.371 109.749   5-0.60435 0.25545 0.25205 0.08106-0.85561 0.99421
   5  -4  -2 364.291 102.408   3 0.55505-0.20572-0.31307-0.02029 0.86096-0.99962
   5   4  -2 483.632 104.104   1-0.19634 0.54619 0.00976 0.32384-0.99991 0.86117
  -5  -4   2 396.396 108.850   8-0.64141 0.29214-0.20347-0.12993-0.84678 0.98546
   4   4  -2 148.413 67.4437   7 0.75607-0.48484 0.12621 0.20709 0.77246-0.92550
  -4   4   2 206.011 54.9654   6 0.14294-0.41475-0.15070 0.48518 0.98765-0.83384
  -4  -4   2 214.326 69.2193   4 0.22581-0.49762 0.07947-0.41352 0.99604-0.84221
   4  -4  -2 207.695 69.8579   9-0.23820 0.50939 0.06807-0.40102-0.99630 0.84330
   4   4  -2 222.333 76.6941   6 0.35108-0.07988 0.53452-0.20216 0.82095-0.97378
  -4   4   2 190.868 73.9461   2-0.52251 0.25067 0.38899-0.05517-0.84315 0.99635
   4   4  -2 213.768 72.8383   1-0.21234 0.48436-0.09083 0.42437-0.99552 0.84225
   4  -4  -2 207.510 75.8427   3 0.57722-0.30570-0.33571 0.00238 0.83931-0.99253
  -4   4   2 177.505 73.6970   5-0.63628 0.36519 0.27327 0.05980-0.82783 0.98097
  -4  -4   2 190.546 73.6451   8-0.68194 0.41041-0.22118-0.11224-0.81256 0.96582
  -3   4   2 25.5747 33.3641   6 0.10278-0.29671-0.25169 0.58630 0.96456-0.79602
  -3  -4   2 -4.1800 36.8638   4 0.25212-0.44609 0.16069-0.49477 0.98460-0.81616
  -3   4   2 20.9555 37.1324   2-0.54427 0.35021 0.42268-0.08883-0.81374 0.98154
   3  -4  -2 68.8131 52.2780   9-0.26618 0.45965 0.15116-0.48405-0.98500 0.81749
   3   4  -2 80.1710 48.2156   6 0.35454-0.16108 0.55161-0.21927 0.80806-0.97541
   3   4  -2 69.5076 45.4777   1-0.22455 0.41876-0.17830 0.51176-0.98312 0.81533
   3  -4  -2 -5.4548 37.5476   3 0.60988-0.41619-0.36996 0.03665 0.80265-0.97041
  -3   4   2 2.98143 29.5791   5-0.68263 0.48931 0.30485 0.02817-0.78022 0.94788
  -3  -4   2 -205.89 98.8681   8-0.74029 0.54652-0.24725-0.08617-0.75278 0.92062
  -2  -4   2 111.987 61.5198   4 0.27462-0.39073 0.23425-0.56833 0.96752-0.78449
   2  -4  -2 22.0055 32.3270   9-0.29020 0.40597 0.22708-0.55992-0.96753 0.78551
   2   4  -2 32.8988 37.4121   6 0.36013-0.24443 0.58075-0.24844 0.78464-0.96649
  10   5  -2 201.832 125.731   7 0.66342 0.07441 0.10740 0.30923 0.85166-0.91736
 -10   5   2 231.492 142.613   2-0.51696-0.22123 0.38057 0.03646-0.85000 0.91586
 -10   5   2 8.71757 84.6738   5-0.59333-0.14483 0.24482 0.17179-0.86438 0.93005
  10  -5  -2 -21.323 70.0316   3 0.55564 0.18282-0.31367-0.10313 0.86042-0.92617
 -10  -5   2 343.058 173.546   8-0.62017-0.11787-0.19429-0.22235-0.86274 0.92862
   9   5  -2 160.646 79.0864   7 0.66046-0.00042 0.10681 0.30983 0.85378-0.93405
  -9   5   2 119.661 80.3864   2-0.50794-0.15253 0.36702 0.05000-0.86062 0.94100
  -9   5   2 244.386 108.782   5-0.58609-0.07421 0.24008 0.17650-0.86993 0.95022
   9  -5  -2 58.5270 73.0963   3 0.54712 0.11351-0.30506-0.11173 0.86815-0.94850
  -9  -5   2 70.8935 79.0288   8-0.61420-0.04608-0.19172-0.22493-0.86700 0.94744
   8   5  -2 -32.465 54.0415   7 0.66403-0.08178 0.10753 0.30912 0.85122-0.94605
  -8  -5   2 -7.9515 47.0472   4 0.08019-0.66329-0.30639-0.11094 0.94676-0.85124
   8  -5  -2 -29.578 72.0828   9-0.08621 0.66850-0.31693-0.09969-0.94395 0.84916
   8   5  -2 11.3703 68.7276   6 0.35401 0.22829 0.54899-0.13326 0.81008-0.90460
  -8   5   2 -57.197 82.1002   2-0.50196-0.08080 0.35813 0.05891-0.86734 0.96224
  -8   5   2 94.0155 76.4415   5-0.58348 0.00105 0.23838 0.17818-0.87189 0.96678
   8  -5  -2 144.683 99.7087   3 0.54238 0.04042-0.30031-0.11647 0.87231-0.96724
  -8  -5   2 -5.4506 70.0123   8-0.61361 0.03108-0.19147-0.22518-0.86742 0.96241
   7   5  -2 103.904 72.2233   7 0.67599-0.17152 0.10993 0.30672 0.84239-0.95178
  -7  -5   2 265.065 112.624   4 0.11494-0.62023-0.22227-0.19512 0.97258-0.86249
   7  -5  -2 288.013 111.705   9-0.12251 0.62698-0.23323-0.18329-0.97055 0.86119
   7   5  -2 176.329 82.5847   6 0.34963 0.15492 0.52752-0.11178 0.82605-0.93519
  -7   5   2 128.575 83.6215   2-0.49960-0.00543 0.35466 0.06240-0.86990 0.97936
  -7   5   2 262.688 96.8381   5-0.58667 0.08209 0.24046 0.17607-0.86949 0.97896
   7  -5  -2 222.574 98.1311   3 0.54229-0.03730-0.30022-0.11656 0.87240-0.98190
  -7  -5   2 141.930 77.3032   8-0.61983 0.11506-0.19415-0.22252-0.86298 0.97253
   6   5  -2 -42.770 49.8387   7 0.69882-0.27211 0.11453 0.30211 0.82447-0.94841
  -6  -5   2 43.8827 48.0864   4 0.14681-0.57429-0.14115-0.27630 0.98922-0.86455
   6  -5  -2 60.1945 64.6757   9-0.15594 0.58264-0.15198-0.26444-0.98794 0.86402
   6   5  -2 79.9249 52.8416   6 0.34678 0.08000 0.51398-0.09825 0.83566-0.95940
  -6   5   2 22.7883 61.3700   2-0.50159 0.07428 0.35759 0.05950-0.86774 0.99176
  -6   5   2 -67.160 64.0804   5-0.59708 0.17036 0.24727 0.16921-0.86143 0.98547
   6   5  -2 56.8578 44.7996   1-0.16728 0.59500 0.16659 0.25042-0.98587 0.86166
   6  -5  -2 -59.765 69.5977   3 0.54782-0.12066-0.30576-0.11099 0.86753-0.99161
  -6  -5   2 80.3928 61.0566   8-0.63475 0.20772-0.20058-0.21610-0.85192 0.97604
  -5  -5   2 1513.32 206.806   4 0.17572-0.52538-0.06391-0.35357 0.99789-0.85865
   5   5  -2 2129.71 238.667   7 0.73555-0.38660 0.12200 0.29464 0.79238-0.93085
  -5   5   2 1608.62 211.423   2-0.50865 0.15908 0.36809 0.04904-0.85980 0.99839
   5   5  -2 1682.59 221.189   6 0.34572 0.00329 0.50903-0.09332 0.83908-0.97739
   5  -5  -2 1657.14 209.608   9-0.18641 0.53534-0.07411-0.34222-0.99725 0.85879
   5  -5  -2 1573.96 204.954   3 0.56016-0.21084-0.31826-0.09849 0.85618-0.99483
  -5   5   2 1755.05 205.635   5-0.61650 0.26761 0.26007 0.15637-0.84547 0.98405
  -5  -5   2 1826.50 232.368   8-0.66070 0.31141-0.21186-0.20484-0.83115 0.96984
   5   5  -2 1507.61 197.656   1-0.18511 0.53498 0.07370 0.34325-0.99728 0.85855
  -4  -5   2 1001.42 166.849   4 0.20159-0.47341 0.00847-0.42598 0.99986-0.84603
   4   5  -2 1023.15 160.007   1-0.19954 0.47160-0.00938 0.42627-0.99988 0.84662
  -4   5   2 1120.72 169.085   2-0.52158 0.24974 0.38756 0.02961-0.84432 0.99751
  -4   5   2 1004.49 129.556   6 0.19353-0.46537-0.01397 0.43178 0.99988-0.84613
   4  -5  -2 1204.54 174.887   3 0.58061-0.30912-0.33923-0.07749 0.83578-0.98898
   4  -5  -2 928.928 149.651   9-0.21379 0.48499-0.00061-0.41564-0.99963 0.84664
   4   5  -2 908.614 160.863   6 0.34665-0.07544 0.51342-0.09773 0.83605-0.98892
  -4   5   2 1278.28 178.145   5-0.64693 0.37586 0.28044 0.13595-0.81771 0.97083
  -4  -5   2 1433.52 213.770   8-0.70040 0.42885-0.22935-0.18737-0.79514 0.94841
  -3  -5   2 2304.31 242.833   4 0.22432-0.41830 0.07500-0.49254 0.99644-0.82802
   3   5  -2 2200.52 234.068   1-0.21100 0.40525-0.08190 0.49870-0.99633 0.82856
  -3   5   2 2703.48 260.276   2-0.54098 0.34691 0.41749-0.00027-0.81848 0.98628
  -3   5   2 2441.28 215.119   6 0.15852-0.35249-0.10979 0.52779 0.99356-0.82511
   3   5  -2 2712.86 259.014   6 0.34970-0.15626 0.52785-0.11219 0.82582-0.99322
   3  -5  -2 2685.19 256.785   9-0.23800 0.43147 0.06748-0.48368-0.99635 0.82883
   3  -5  -2 2873.31 272.079   3 0.61033-0.41666-0.37043-0.04626 0.80210-0.96986
  -3   5   2 768.161 150.025   5-0.69021 0.49691 0.31013 0.10622-0.77147 0.93911
   2   5  -2 -34.595 58.2017   1-0.21985 0.33631-0.14327 0.55998-0.98906 0.80678
  -2   5   2 20.4022 31.0967   6 0.13461-0.25067-0.17216 0.59029 0.98377-0.80065
  -2   5   2 -10.719 43.9677   2-0.56698 0.45070 0.45924-0.04197-0.77790 0.96032
  -2  -5   2 -23.527 33.2972   4 0.24388-0.35999 0.13470-0.55225 0.98909-0.80608
   2  -5  -2 31.7278 56.7953   9-0.25894 0.37469 0.12915-0.54529-0.98878 0.80674
   2   5  -2 14.3046 37.2709   6 0.35478-0.23910 0.55283-0.13723 0.80712-0.98902
   1   5  -2 387.303 89.7273   1-0.22645 0.26513-0.19304 0.60968-0.98022 0.78344
  -1  -5   2 252.476 78.6463   4 0.26019-0.29845 0.18657-0.60412 0.97933-0.78173
   1  -5  -2 423.700 100.684   9-0.27654 0.31460 0.18334-0.59944-0.97845 0.78189
   1   5  -2 371.899 102.974   6 0.36158-0.32366 0.58861-0.17306 0.77799-0.97437
  10   6  -2 14.2669 100.160   7 0.69157 0.04623 0.11307 0.38694 0.83032-0.89600
   9   6  -2 219.073 113.807   7 0.69098-0.03097 0.11295 0.38706 0.83079-0.91103
   9  -6  -2 218.740 119.246   9-0.04408 0.70414-0.40867-0.09137-0.90374 0.82358
  -9   6   2 274.613 120.862   2-0.51246-0.14799 0.37379 0.12656-0.85538 0.93578
  -9   6   2 354.527 135.431   5-0.60131-0.05898 0.25004 0.24991-0.85807 0.93832
   9  -6  -2 311.265 136.838   3 0.55627 0.10438-0.31430-0.18589 0.85984-0.94017
  -9  -6   2 47.9616 84.8084   8-0.63495-0.02532-0.20068-0.29928-0.85177 0.93221
   8   6  -2 -17.957 76.0510   7 0.69706-0.11483 0.11418 0.38583 0.82590-0.92071
  -8  -6   2 47.6451 66.5954   4 0.07228-0.65540-0.32493-0.17586 0.93983-0.84429
   8   6  -2 193.798 108.812   6 0.35206 0.23034 0.53928-0.04021 0.81742-0.91193
   8  -6  -2 201.049 112.084   9-0.07864 0.66090-0.33384-0.16610-0.93744 0.84269
  -8   6   2 183.894 102.277   2-0.50719-0.07554 0.36591 0.13446-0.86147 0.95640
  -8   6   2 223.700 113.404   5-0.59991 0.01750 0.24913 0.25079-0.85919 0.95403
   8  -6  -2 138.404 82.7381   3 0.55242 0.03039-0.31041-0.18978 0.86338-0.95829
  -8  -6   2 99.8363 90.8891   8-0.63601 0.05348-0.20113-0.29883-0.85096 0.94597
   7   6  -2 1486.90 234.929   7 0.71160-0.20716 0.11712 0.38288 0.81378-0.92314
  -7  -6   2 1243.20 216.578   4 0.10286-0.60817-0.25201-0.24884 0.96448-0.85438
   7   6  -2 1720.92 262.966   6 0.34803 0.15659 0.51990-0.02081 0.83150-0.94064
   7  -6  -2 1599.66 254.254   9-0.11063 0.61508-0.26114-0.23870-0.96269 0.85335
  -7   6   2 1326.37 217.336   2-0.50533 0.00030 0.36313 0.13726-0.86358 0.97306
  -7   6   2 1594.52 235.603   5-0.60412 0.09956 0.25189 0.24799-0.85580 0.96523
   7  -6  -2 1222.97 208.948   3 0.55295-0.04797-0.31094-0.18923 0.86289-0.97239
  -7  -6   2 1317.30 222.066   8-0.64377 0.13899-0.20450-0.29548-0.84493 0.95449
   6   6  -2 99.3071 96.1515   7 0.73684-0.31015 0.12227 0.37773 0.79117-0.91507
  -6  -6   2 -44.062 72.9701   4 0.13081-0.55831-0.18237-0.31853 0.98175-0.85707
   6   6  -2 7.70198 50.1669   1-0.15823 0.58597 0.21045 0.28992-0.97728 0.85307
   6   6  -2 163.930 85.3468   6 0.34542 0.08141 0.50766-0.00858 0.84002-0.96376
   6  -6  -2 107.535 53.2754   9-0.13997 0.56667-0.19129-0.30845-0.98053 0.85663
  -6   6   2 101.873 65.5308   2-0.50742 0.08012 0.36626 0.13417-0.86121 0.98524
  -6   6   2 74.2947 60.0150   5-0.61517 0.18847 0.25920 0.24063-0.84659 0.97059
   6  -6  -2 -30.328 51.5604   3 0.55872-0.13158-0.31680-0.18336 0.85753-0.98160
  -6  -6   2 -22.034 90.5096   8-0.65994 0.23289-0.21153-0.28845-0.83179 0.95592
  -5  -6   2 -62.459 49.3378   4 0.15611-0.50576-0.11671-0.38423 0.99270-0.85345
   5  -6  -2 -52.021 66.4574   9-0.16666 0.51559-0.12503-0.37463-0.99196 0.85351
   5   6  -2 74.4580 86.3257   6 0.34443 0.00460 0.50313-0.00406 0.84310-0.98142
  -5   6   2 20.9712 61.7198   2-0.51412 0.16454 0.37628 0.12419-0.85341 0.99202
  -5   6   2 -19.954 45.6762   5-0.63461 0.28574 0.27215 0.22762-0.82938 0.96793
   5  -6  -2 96.3552 56.1841   3 0.57073-0.22142-0.32904-0.17109 0.84590-0.98453
  -5  -6   2 9.25120 54.0413   8-0.68654 0.33724-0.22321-0.27679-0.80834 0.94705
   5   6  -2 7.35159 76.2484   1-0.17415 0.52405 0.13191 0.36840-0.99119 0.85247
  -4   6   2 33.2044 61.6550   6 0.22873-0.50062 0.08867 0.41243 0.99513-0.84138
  -4  -6   2 41.9373 67.7660   4 0.17867-0.45050-0.05581-0.44516 0.99841-0.84458
   4   6  -2 101.368 84.8849   1-0.18728 0.45936 0.06173 0.43851-0.99809 0.84485
   4  -6  -2 40.0737 79.0265   9-0.19057 0.46178-0.06314-0.43643-0.99800 0.84501
   4   6  -2 110.622 71.7585   6 0.34525-0.07402 0.50689-0.00783 0.84055-0.99344
  -4   6   2 117.795 103.721   2-0.52602 0.25417 0.39433 0.10619-0.83870 0.99191
  -4   6   2 96.9904 83.1050   5-0.66405 0.39298 0.29206 0.20765-0.80046 0.95355
   4  -6  -2 72.5339 73.4160   3 0.59000-0.31852-0.34898-0.15112 0.82569-0.97889
  -4  -6   2 57.2955 69.5636   8-0.72576 0.45420-0.24069-0.25933-0.76901 0.92230
  -3   6   2 510.457 108.638   6 0.19883-0.39285 0.00105 0.50030 0.99993-0.83152
  -3  -6   2 472.614 122.217   4 0.19846-0.39244-0.00046-0.50053 0.99994-0.83152
  -3   6   2 583.695 141.120   2-0.54359 0.34950 0.42160 0.07899-0.81474 0.98254
   3  -6  -2 518.747 133.792   9-0.21166 0.40514-0.00645-0.49306-0.99967 0.83215
   3   6  -2 395.085 104.786   6 0.34794-0.15451 0.51946-0.02046 0.83181-0.99924
   3  -6  -2 647.045 148.713   3 0.61742-0.42377-0.37803-0.12205 0.79325-0.96100
   3   6  -2 463.431 118.502   1-0.19789 0.39218 0.00053 0.49962-0.99994 0.83218
  -2  -6   2 1665.55 222.892   4 0.21541-0.33153 0.04854-0.54955 0.99840-0.81540
   2   6  -2 2122.50 242.827   1-0.20628 0.32278-0.05119 0.55124-0.99850 0.81623
  -2   6   2 1184.67 194.590   2-0.56697 0.45066 0.45921 0.04144-0.77793 0.96036
  -2   6   2 2014.19 226.017   6 0.17700-0.29312-0.05991 0.56142 0.99815-0.81508
   2   6  -2 1977.45 242.632   6 0.35247-0.23684 0.54134-0.04240 0.81588-0.99781
   2  -6  -2 1968.07 239.925   9-0.22986 0.34561 0.04423-0.54368-0.99807 0.81601
  -1   6   2 559.833 129.313   6 0.16212-0.20032-0.10020 0.60182 0.99466-0.79693
  -1  -6   2 562.161 127.148   4 0.22944-0.26771 0.09036-0.59136 0.99494-0.79736
   1  -6  -2 672.011 134.414   9-0.24507 0.28312 0.08802-0.58743-0.99432 0.79774
   1   6  -2 528.563 122.670   6 0.35864-0.32077 0.57279-0.07391 0.79123-0.98764
   1   6  -2 608.073 140.878   1-0.21266 0.25138-0.09299 0.59296-0.99531 0.79854
  -1   6  -2 -6.4427 32.3650   1-0.22014 0.10336-0.14539 0.64516-0.98874 0.76298
   1  -6   2 -3.8330 26.2220   4 0.24838-0.13096 0.14882-0.64982 0.98675-0.76000
   1  -6   2 -50.852 61.4332   9 0.06359 0.05395-0.61792 0.11730-0.75787 0.98418
  -9  -7   2 -17.827 88.5051   4 0.03235-0.69329-0.41532-0.16887 0.89908-0.81805
   9   7  -2 82.0961 95.0234   7 0.72679-0.06681 0.12022 0.46314 0.80042-0.88064
   9   7  -2 -53.406 69.7364   6 0.35677 0.30348 0.56303 0.01940 0.79910-0.87894
   9  -7  -2 180.979 137.586   9-0.03754 0.69756-0.42242-0.16094-0.89662 0.81650
  -9  -7   2 194.291 160.148   8-0.66027-0.00001-0.21168-0.37157-0.83151 0.91198
  -8  -7   2 23.6791 104.049   4 0.06207-0.64520-0.34856-0.23569 0.93031-0.83474
   8   7  -2 114.532 77.6514   7 0.73557-0.15338 0.12201 0.46134 0.79236-0.88713
   8   7  -2 344.059 138.910   6 0.35209 0.23039 0.53943 0.04303 0.81731-0.91179
   8  -7  -2 96.2371 111.830   9-0.06854 0.65077-0.35611-0.22715-0.92827 0.83355
  -8   7   2 222.924 137.031   2-0.51562-0.06710 0.37855 0.20513-0.85161 0.94658
  -8   7   2 12.0678 78.6214   5-0.62047 0.03807 0.26271 0.32057-0.84204 0.93684
   8  -7  -2 -10.555 83.6255   3 0.56605 0.01676-0.32425-0.25933 0.85051-0.94541
  -8  -7   2 -7.2150 73.1191   8-0.66313 0.08060-0.21293-0.37032-0.82909 0.92413
   7   7  -2 930.307 220.496   7 0.75280-0.24837 0.12553 0.45781 0.77574-0.88506
  -7  -7   2 387.731 147.588   4 0.08937-0.59469-0.28459-0.29971 0.95433-0.84420
   7   7  -2 742.917 183.551   6 0.34847 0.15622 0.52195 0.06052 0.83005-0.93916
   7  -7  -2 930.397 210.261   9-0.09712 0.60158-0.29224-0.29092-0.95275 0.84345
  -7   7   2 765.232 185.246   2-0.51431 0.00930 0.37657 0.20715-0.85318 0.96269
  -7   7   2 1042.09 211.065   5-0.62581 0.12127 0.26627 0.31696-0.83734 0.94672
   7  -7  -2 774.240 194.927   3 0.56733-0.06234-0.32555-0.25801 0.84927-0.95874
  -7  -7   2 975.863 221.598   8-0.67260 0.16781-0.21707-0.36618-0.82093 0.93052
  -6  -7   2 1162.00 244.641   4 0.11423-0.54173-0.22402-0.36032 0.97214-0.84745
   6   7  -2 984.633 221.424   6 0.34614 0.08074 0.51099 0.07149 0.83773-0.96145
   6  -7  -2 855.024 186.113   9-0.12327 0.54996-0.23144-0.35163-0.97102 0.84715
  -6   7   2 958.854 195.421   2-0.51665 0.08935 0.38011 0.20365-0.85037 0.97444
  -6   7   2 866.931 181.253   5-0.63767 0.21099 0.27420 0.30897-0.82653 0.95048
   6  -7  -2 752.818 176.195   3 0.57350-0.14636-0.33188-0.25167 0.84311-0.96716
  -6  -7   2 1492.38 276.080   8-0.69015 0.26309-0.22480-0.35847-0.80497 0.92913
  -5  -7   2 795.359 183.189   4 0.13664-0.48631-0.16746-0.41693 0.98468-0.84541
   5  -7  -2 553.463 162.658   9-0.14692 0.49586-0.17431-0.40867-0.98396 0.84553
   5   7  -2 829.361 168.751   6 0.34527 0.00378 0.50699 0.07547 0.84048-0.97879
   5   7  -2 880.213 189.230   1-0.16323 0.51316 0.18646 0.39721-0.98224 0.84351
  -5   7   2 903.041 192.996   2-0.52316 0.17358 0.38998 0.19385-0.84233 0.98098
   5  -7  -2 719.208 161.254   3 0.58537-0.23607-0.34417-0.23937 0.83072-0.96934
  -5   7   2 1097.51 207.802   5-0.65730 0.30845 0.28746 0.29564-0.80741 0.94591
  -5  -7   2 820.074 221.957   8-0.71752 0.36820-0.23699-0.34630-0.77780 0.91653
  -4  -7   2 335.620 107.482   4 0.15655-0.42837-0.11554-0.46887 0.99285-0.83901
  -4   7   2 187.520 65.1954   6 0.25566-0.52762 0.17238 0.41201 0.98232-0.82854
  -4   7   2 349.204 112.380   2-0.53430 0.26245 0.40709 0.17678-0.82776 0.98098
   4  -7  -2 404.175 111.181   9-0.16804 0.43924-0.12152-0.46138-0.99242 0.83945
   4   7  -2 237.351 107.541   6 0.34601-0.07478 0.51042 0.07201 0.83813-0.99100
  -4   7   2 279.040 112.155   5-0.68600 0.41496 0.30720 0.27584-0.77636 0.92940
   4  -7  -2 204.704 105.256   3 0.60378-0.33230-0.36347-0.22003 0.80997-0.96316
   4   7  -2 336.116 130.341   1-0.17526 0.44738 0.12615 0.45744-0.99195 0.83872
  -3  -7   2 3027.65 330.080   4 0.17388-0.36786-0.06893-0.51551 0.99753-0.82912
  -3   7   2 3178.72 329.973   2-0.55044 0.35634 0.43244 0.15150-0.80459 0.97242
  -3   7   2 3205.00 292.325   6 0.23006-0.42413 0.09268 0.49198 0.99470-0.82628
   3   7  -2 3412.09 334.316   6 0.34842-0.15500 0.52172 0.06066 0.83021-0.99763
   3  -7  -2 3369.92 342.833   9-0.18655 0.38003-0.07373-0.50910-0.99728 0.82976
   3  -7  -2 3396.56 357.123   3 0.62936-0.43572-0.39096-0.19251 0.77758-0.94531
   3   7  -2 3078.72 330.715   1-0.18511 0.37941 0.07371 0.50978-0.99728 0.82953
  -2   7   2 61.6347 44.7318   6 0.21050-0.32667 0.03465 0.55021 0.99912-0.81605
  -2  -7   2 -113.06 103.261   4 0.18860-0.30473-0.02830-0.55615 0.99960-0.81660
   2  -7  -2 -51.252 93.5339   9-0.20238 0.31814-0.03167-0.55111-0.99938 0.81733
   2   7  -2 -5.9107 57.8137   6 0.35245-0.23686 0.54127 0.04104 0.81593-0.99786
   2   7  -2 38.7445 57.4511   1-0.19294 0.30948 0.02960 0.55381-0.99954 0.81729
  -1  -7   2 3371.10 323.148   4 0.20058-0.23888 0.00560-0.59005 0.99989-0.80231
   1   7  -2 4234.09 361.794   1-0.19895 0.23771-0.00580 0.58912-0.99991 0.80315
  -1   7   2 4039.02 350.080   6 0.19641-0.23468-0.00580 0.59079 0.99994-0.80223
   1   7  -2 3710.54 349.536   6 0.35798-0.32017 0.56930 0.01293 0.79406-0.99048
   1  -7  -2 4269.52 365.893   9-0.21544 0.25350 0.00393-0.58666-0.99958 0.80300
   0   7  -2 -7.2306 54.6694   1-0.20325 0.16425-0.03211 0.61532-0.99935 0.78809
   0   7   2 40.5210 68.5581   6 0.18722-0.14756-0.03167 0.61675 0.99950-0.78716
   0  -7   2 24.6170 50.7720   4 0.20974-0.17017 0.03198-0.61643 0.99922-0.78707
   0  -7  -2 14.1406 73.8710   9-0.22561 0.18597 0.03225-0.61496-0.99871 0.78759
   0   7  -2 -1.0729 51.5643   6 0.36464-0.40460 0.60580-0.02366 0.76293-0.97379
   0  -7   2 -10.035 44.3490   9 0.05819-0.01840-0.60829 0.02433-0.76666 0.97840
  -8  -8   2 441.329 171.728   4 0.05009-0.63323-0.37583-0.29188 0.91834-0.82275
   8   8  -2 189.273 125.748   6 0.35358 0.22896 0.54683 0.11902 0.81173-0.90615
   8  -8  -2 115.332 118.036   9-0.05651 0.63872-0.38222-0.28436-0.91660 0.82192
  -8   8   2 -74.119 81.6342   5-0.64435 0.06197 0.27869 0.38794-0.82021 0.91493
  -8  -8   2 361.447 176.802   8-0.69419 0.11165-0.22659-0.43994-0.80114 0.89621
  -7  -8   2 184.875 111.164   4 0.07473-0.58006-0.31920-0.34855 0.94202-0.83187
  -7   8   2 57.9072 136.766   2-0.52575 0.02073 0.39391 0.27314-0.83905 0.94861
   7   8  -2 114.586 92.0223   6 0.35037 0.15436 0.53106 0.13481 0.82348-0.93255
   7  -8  -2 120.431 120.340   9-0.08233 0.58679-0.32563-0.34085-0.94065 0.83139
  -7   8   2 -26.546 109.657   5-0.65087 0.14636 0.28310 0.38347-0.81385 0.92316
   7  -8  -2 92.8733 111.893   3 0.58456-0.07959-0.34332-0.32366 0.83159-0.94104
  -7  -8   2 44.9470 146.019   8-0.70538 0.20057-0.23156-0.43498-0.79022 0.89985
  -6  -8   2 566.729 190.536   4 0.09709-0.52459-0.26602-0.40178 0.96028-0.83557
  -6   8   2 250.603 112.036   2-0.52837 0.10107 0.39795 0.26915-0.83564 0.95976
   6   8  -2 283.022 113.254   6 0.34833 0.07858 0.52129 0.14459 0.83052-0.95420
   6  -8  -2 400.878 156.683   9-0.10586 0.53255-0.27219-0.39420-0.95930 0.83547
   6  -8  -2 317.860 152.364   3 0.59118-0.16405-0.35022-0.31674 0.82438-0.94841
  -6   8   2 93.8441 100.530   5-0.66356 0.23690 0.29173 0.37477-0.80097 0.92485
  -6  -8   2 0.83659 73.7211   8-0.72430 0.29723-0.24003-0.42652-0.77059 0.89479
  -5  -8   2 -17.032 102.406   4 0.11714-0.46681-0.21680-0.45104 0.97395-0.83468
  -5   8   2 72.5401 86.7552   2-0.53478 0.18520 0.40785 0.25932-0.82710 0.96578
   5  -8  -2 -35.151 82.4346   9-0.12705 0.47599-0.22244-0.44386-0.97332 0.83492
   5   8  -2 54.5507 93.1862   6 0.34760 0.00147 0.51786 0.14800 0.83294-0.97121
  -5   8   2 86.2215 100.579   5-0.68344 0.33460 0.30542 0.36102-0.77930 0.91773
   5  -8  -2 -118.12 127.185   3 0.60303-0.25373-0.36268-0.30425 0.81086-0.94945
  -4  -8   2 3043.05 371.765   4 0.13484-0.40667-0.17208-0.49578 0.98380-0.82995
  -4   8   2 3007.16 352.714   2-0.54533 0.27348 0.42435 0.24287-0.81220 0.96547
   4   8  -2 3032.39 357.002   6 0.34830-0.07706 0.52116 0.14467 0.83061-0.98345
   4  -8  -2 3070.84 353.841   9-0.14584 0.41706-0.17696-0.48927-0.98344 0.83049
   4  -8  -2 2960.71 366.240   3 0.62074-0.34928-0.38160-0.28530 0.78900-0.94216
   4   8  -2 2612.69 341.457   1-0.16332 0.43547 0.18602 0.48091-0.98232 0.82909
  -3  -8   2 50.9232 88.7354   4 0.15014-0.34412-0.13246-0.53543 0.99053-0.82211
  -3   8   2 117.589 75.5235   6 0.25556-0.44969 0.17204 0.49592 0.98239-0.81392
  -3   8   2 6.12561 52.3925   2-0.56028 0.36617 0.44827 0.21903-0.78911 0.95699
   3  -8  -2 23.4578 64.0167   9-0.16219 0.35568-0.13631-0.52985-0.99038 0.82289
   3   8  -2 34.5562 72.6905   6 0.35046-0.15706 0.53153 0.13424 0.82314-0.99053
   3   8  -2 -37.817 90.5772   1-0.17246 0.36681 0.14055 0.52631-0.98999 0.82225
   2   8  -2 1167.65 216.494   1-0.17977 0.29634 0.10250 0.56425-0.99471 0.81246
  -2  -8   2 952.298 204.073   4 0.16294-0.27907-0.09851-0.56938 0.99485-0.81185
  -2   8   2 997.582 193.815   6 0.23811-0.35435 0.11725 0.55093 0.99167-0.80858
   2  -8  -2 1112.09 210.648   9-0.17600 0.29178-0.10113-0.56498-0.99482 0.81278
   2   8  -2 1231.60 233.367   6 0.35407-0.23850 0.54929 0.11642 0.80985-0.99175
   1   8  -2 585.888 160.587   1-0.18537 0.22416 0.07228 0.59438-0.99738 0.80063
  -1   8   2 446.146 140.609   6 0.22505-0.26338 0.07759 0.59074 0.99622-0.79849
  -1  -8   2 466.729 137.195   4 0.17315-0.21144-0.07093-0.59697 0.99738-0.79981
   1  -8  -2 558.552 141.537   9-0.18718 0.22525-0.07209-0.59399-0.99740 0.80081
   1   8  -2 717.093 171.818   6 0.35898-0.32123 0.57462 0.09099 0.78972-0.98610
  -1  -8   2 -82.519 73.6219   9 0.06224-0.10019-0.61552-0.05176-0.76008 0.95727
   0  -8   2 2024.59 268.215   4 0.18063-0.14108-0.05041-0.61749 0.99871-0.78655
   0   8  -2 2576.73 299.379   1-0.18933 0.15037 0.05024 0.61632-0.99873 0.78749
   0   8   2 1545.88 237.856   6 0.21603-0.17643 0.05083 0.61762 0.99827-0.78592
   0   8  -2 2352.03 245.124   2-0.27193 0.23261 0.05159 0.61468-0.99486 0.78393
   0  -8  -2 2305.55 280.285   9-0.19557 0.15594-0.04990-0.61614-0.99872 0.78759
   0  -8   2 -39.590 107.770   9 0.05913-0.01933-0.60997-0.05732-0.76514 0.97689
   1  -8   2 186.958 103.890   4 0.18520-0.06779-0.03780-0.63009 0.99928-0.77256
  -1   8  -2 111.537 82.9224   1-0.19169 0.07500 0.03677 0.62970-0.99931 0.77356
   1  -8   2 98.2186 63.4397   9 0.06008 0.05748-0.61166-0.05564-0.76361 0.98992
  -1   8  -2 16.1440 50.3466   2-0.25444 0.13742 0.03028 0.63591-0.99716 0.77173
  -7   9   2 536.769 200.864   5-0.67852 0.17404 0.30201 0.44790-0.78484 0.89406
  -6  -9   2 383.886 173.782   4 0.07939-0.50689-0.30826-0.44298 0.94608-0.82135
  -6   9   2 502.543 177.560   2-0.54189 0.11458 0.41892 0.33150-0.81718 0.94136
   6   9  -2 777.225 226.296   6 0.35154 0.07539 0.53677 0.21251 0.81929-0.94289
   6  -9  -2 540.033 185.804   9-0.08779 0.51449-0.31340-0.43632-0.94526 0.82147
  -6   9   2 113.598 106.446   5-0.69197 0.26532 0.31135 0.43848-0.76939 0.89319
   6  -9  -2 355.044 181.628   3 0.61101-0.18389-0.37117-0.37920 0.80126-0.92525
  -5  -9   2 12.1877 74.5395   4 0.09748-0.44713-0.26510-0.48619 0.96057-0.82127
  -5   9   2 141.754 104.631   2-0.54824 0.19864 0.42894 0.32154-0.80790 0.94665
   5  -9  -2 48.4913 105.013   9-0.10691 0.45587-0.26976-0.47987-0.96006 0.82171
   5   9  -2 194.388 149.849   6 0.35095-0.00187 0.53390 0.21536 0.82140-0.95961
   5  -9  -2 88.5764 141.148   3 0.62285-0.27356-0.38389-0.36645 0.78625-0.92482
  -4  -9   2 1298.81 262.116   4 0.11332-0.38514-0.22630-0.52501 0.97155-0.81769
  -4   9   2 1675.63 293.436   2-0.55829 0.28641 0.44504 0.30552-0.79234 0.94567
   4  -9  -2 1658.91 289.718   9-0.12375 0.39498-0.23029-0.51928-0.97132 0.81840
   4   9  -2 1530.71 280.469   6 0.35162-0.08039 0.53717 0.21206 0.81899-0.97177
  -3  -9   2 -32.086 70.7390   4 0.12686-0.32085-0.19238-0.55894 0.97963-0.81119
  -3   9   2 77.8976 90.2108   6 0.27717-0.47136 0.24323 0.50802 0.96499-0.79643
   3   9  -2 232.955 113.133   1-0.15983 0.35422 0.20285 0.54734-0.97892 0.81119
   3  -9  -2 -47.159 99.3125   9-0.13825 0.33177-0.19548-0.55402-0.97963 0.81215
   3   9  -2 37.0167 88.0929   6 0.35358-0.16021 0.54684 0.20233 0.81172-0.97903
  -2  -9   2 251.125 124.955   4 0.13803-0.25416-0.16389-0.58744 0.98534-0.80234
  -2   9   2 333.876 137.912   6 0.26160-0.37791 0.19157 0.55991 0.97823-0.79507
   2  -9  -2 230.551 107.887   9-0.15032 0.26612-0.16591-0.58354-0.98552 0.80351
   2   9  -2 298.091 114.721   6 0.35680-0.24126 0.56319 0.18592 0.79898-0.98082
   2   9  -2 329.230 131.416   1-0.16664 0.28325 0.16977 0.58033-0.98532 0.80308
  -1  -9   2 402.149 148.716   4 0.14670-0.18499-0.14142-0.60991 0.98917-0.79159
  -1   9   2 217.783 112.233   6 0.24961-0.28799 0.15309 0.59856 0.98600-0.78822
   1  -9  -2 264.956 116.124   9-0.15985 0.19794-0.14219-0.60722-0.98950 0.79293
   1   9  -2 229.017 119.641   6 0.36117-0.32345 0.58635 0.16266 0.77992-0.97624
   1   9  -2 365.442 144.365   1-0.17182 0.21066 0.14379 0.60622-0.98951 0.79278
  -2   9  -2 125.302 80.3302   1-0.17796-0.01643 0.11209 0.63764-0.99366 0.75344
  -3 -10   2 -161.23 147.147   4 0.10383-0.29781-0.24963-0.58513 0.96517-0.79671
   3 -10  -2 -7.2588 85.0706   9-0.11450 0.30803-0.25210-0.58074-0.96534 0.79791
   3  10  -2 58.2605 116.294   6 0.35740-0.16404 0.56627 0.26632 0.79651-0.96374
  -2 -10   2 563.415 177.630   4 0.11357-0.22971-0.22566-0.60910 0.97171-0.78869
   2  10  -2 905.122 218.512   1-0.15344 0.27008 0.23289 0.60056-0.97207 0.78986
   2 -10  -2 1106.40 248.323   9-0.12505 0.24086-0.22720-0.60559-0.97211 0.79013
   2  10  -2 1407.31 263.861   6 0.36026-0.24475 0.58146 0.25106 0.78404-0.96579
  -1 -10   2 -20.289 93.7994   4 0.12089-0.15918-0.20743-0.62735 0.97622-0.77862
   1  10  -2 37.3492 59.7729   1-0.15824 0.19712 0.21044 0.62292-0.97728 0.78057
   1  10  -2 86.2857 75.3554   6 0.36412-0.32644 0.60283 0.22959 0.76559-0.96182
  11   0  -3 108.231 134.409   7 0.72448 0.07136 0.11974-0.12002 0.80250-0.95931
 -11   0   3 250.703 198.548   8-0.71612-0.07998-0.23636 0.23624-0.77926 0.93627
  10   0  -3 169.786 108.463   7 0.72210-0.00405 0.11925-0.11950 0.80463-0.97601
 -10   0   3 -103.04 127.158   8-0.71323-0.00509-0.23507 0.23493-0.78226 0.95384
   9   0  -3 2.20695 75.9749   7 0.72549-0.08523 0.11995-0.12017 0.80160-0.98755
  -9   0   3 43.6176 69.8047   8-0.71579 0.07524-0.23621 0.23607-0.77961 0.96576
   7   0  -3 55.2323 73.4800   7 0.75544-0.27073 0.12608-0.12625 0.77309-0.98816
  11   1  -3 -120.04 114.461   7 0.71882 0.07699 0.11859-0.03549 0.80752-0.96435
  11  -1  -3 200.333 147.288   7 0.73641 0.05944 0.12218-0.20582 0.79157-0.94836
 -11   1   3 -5.5482 67.9232   5-0.68797-0.10786 0.30857-0.22561-0.77409 0.93090
 -11  -1   3 194.610 144.230   8-0.70277-0.09332-0.23040 0.14694-0.79280 0.94982
 -11   1   3 -40.411 163.147   8-0.73604-0.06008-0.24533 0.32856-0.75763 0.91463
  10   1  -3 154.466 118.481   7 0.71605 0.00197 0.11803-0.03490 0.80994-0.98133
  10  -1  -3 221.183 121.622   7 0.73490-0.01683 0.12186-0.20549 0.79299-0.96435
 -10   1   3 304.559 161.978   5-0.68351-0.03447 0.30547-0.22248-0.77922 0.95063
 -10  -1   3 -31.639 96.2216   8-0.69902-0.01930-0.22873 0.14526-0.79649 0.96808
 -10   1   3 47.0400 103.645   8-0.73454 0.01620-0.24465 0.32787-0.75932 0.93090
   9   1  -3 230.664 134.888   7 0.71894-0.07870 0.11862-0.03546 0.80742-0.99338
   9  -1  -3 243.696 154.220   7 0.73932-0.09903 0.12277-0.20636 0.78884-0.97477
  -9   1   3 150.465 111.167   5-0.68382 0.04368 0.30568-0.22269-0.77886 0.96486
  -9  -1   3 557.165 191.778   8-0.70047 0.05993-0.22938 0.14590-0.79507 0.98123
  -9   1   3 -229.08 192.879   8-0.73873 0.09817-0.24655 0.32976-0.75457 0.94072
   8   1  -3 622.163 174.667   7 0.72885-0.16639 0.12064-0.03746 0.79856-0.99908
   7   1  -3 -25.646 56.4618   7 0.74740-0.26271 0.12443-0.04124 0.78106-0.99614
   7  -1  -3 -22.847 43.0726   7 0.77178-0.28704 0.12946-0.21299 0.75612-0.97118
  -7  -1   3 33.2372 48.3644   4 0.24427-0.72973 0.13591-0.21962 0.98890-0.77274
   7  -1  -3 27.3844 32.0543   9-0.25078 0.73541 0.10481-0.18782-0.99229 0.77727
  -7  -1   3 -19.702 65.5252   8-0.72407 0.23908-0.23993 0.15643-0.77084 0.98614
  11   2  -3 -127.96 121.319   7 0.71926 0.07653 0.11868 0.04780 0.80714-0.96396
  11  -2  -3 75.0280 107.686   7 0.75468 0.04118 0.12592-0.29294 0.77386-0.93062
 -11   2   3 137.422 116.246   5-0.67647-0.11940 0.30059-0.13427-0.78712 0.94396
 -11  -2   3 114.909 109.131   8-0.69568-0.10039-0.22726 0.06046-0.79971 0.95673
  10   2  -3 155.281 141.470   7 0.71658 0.00143 0.11813 0.04837 0.80949-0.98089
  10  -2  -3 356.699 146.771   7 0.75452-0.03643 0.12589-0.29287 0.77402-0.94537
 -10   2   3 435.449 160.517   5-0.67142-0.04658 0.29713-0.13079-0.79263 0.96407
 -10  -2   3 431.378 186.942   8-0.69154-0.02675-0.22542 0.05861-0.80366 0.97525
   9   2  -3 636.816 173.223   7 0.71946-0.07923 0.11872 0.04779 0.80696-0.99293
   9  -2  -3 332.115 135.274   7 0.76044-0.12014 0.12711-0.29407 0.76801-0.95392
  -9   2   3 644.212 168.227   5-0.67091 0.03075 0.29677-0.13044-0.79318 0.97920
  -9  -2   3 892.796 229.872   8-0.69243 0.05189-0.22581 0.05899-0.80282 0.98899
   8   2  -3 1660.47 275.005   7 0.72922-0.16678 0.12071 0.04582 0.79822-0.99874
  -8   2   3 1968.84 274.509   5-0.67591 0.11359 0.30021-0.13388-0.78773 0.98832
  -8  -2   3 2038.48 298.086   8-0.69948 0.13671-0.22894 0.06211-0.79604 0.99677
   7   2  -3 322.951 126.982   7 0.74745-0.26277 0.12443 0.04211 0.78102-0.99610
  -7  -2   3 1.57464 56.9747   4 0.22577-0.71125 0.07931-0.24648 0.99605-0.77990
   7  -2  -3 311.001 104.344   9-0.23373 0.71835 0.05525-0.22156-0.99733 0.78232
  -7   2   3 176.302 98.0671   5-0.68755 0.20305 0.30827-0.14193-0.77458 0.98971
  -7  -2   3 73.4369 67.7068   8-0.71405 0.22905-0.23543 0.06859-0.78141 0.99671
  -6  -2   3 -92.950 116.578   8-0.73758 0.33035-0.24603 0.07917-0.75589 0.98576
  11   3  -3 1590.47 353.940   7 0.72554 0.07023 0.11996 0.12990 0.80155-0.95838
  11  -3  -3 1237.55 280.254   3 0.63397 0.16238-0.39600 0.14608 0.77123-0.92817
 -11   3   3 1937.82 356.363   5-0.67086-0.12503 0.29674-0.04705-0.79323 0.95008
  10   3  -3 109.466 120.886   7 0.72335-0.00537 0.11951 0.13036 0.80352-0.97492
  10  -3  -3 250.394 143.316   3 0.62751 0.09103-0.38895 0.13903 0.78007-0.95160
 -10   3   3 -29.608 75.5105   5-0.66567-0.05237 0.29317-0.04348-0.79877 0.97022
 -10  -3   3 26.2574 82.7262   8-0.69035-0.02793-0.22489-0.02523-0.80478 0.97638
   9   3  -3 277.021 122.905   7 0.72667-0.08648 0.12019 0.12970 0.80053-0.98649
   9  -3  -3 631.999 185.567   3 0.62460 0.01612-0.38579 0.13588 0.78395-0.97005
  -9   3   3 346.440 109.443   5-0.66480 0.02462 0.29258-0.04290-0.79968 0.98571
  -9  -3   3 349.285 139.542   8-0.69112 0.05060-0.22523-0.02491-0.80406 0.99022
   8   3  -3 61.4136 75.4126   7 0.73677-0.17435 0.12224 0.12764 0.79124-0.99175
  -8  -3   3 62.4308 63.7023   4 0.16366-0.72697-0.09657-0.15401 0.99506-0.79350
   8  -3  -3 77.6811 80.9607   9-0.17030 0.73269-0.11576-0.13395-0.99315 0.79266
   8  -3  -3 282.950 146.075   3 0.62595-0.06304-0.38725 0.13735 0.78216-0.98283
  -8   3   3 313.728 132.075   5-0.66917 0.10684 0.29558-0.04589-0.79504 0.99565
  -8  -3   3 225.898 128.269   8-0.69784 0.13508-0.22821-0.02194-0.79763 0.99836
   7   3  -3 1723.85 229.996   1-0.20351 0.68932-0.03370 0.28400-0.99929 0.78380
   7   3  -3 1002.05 197.929   7 0.75512-0.27047 0.12601 0.12389 0.77342-0.98849
  -7  -3   3 1599.30 249.837   4 0.20787-0.69336 0.02653-0.27717 0.99943-0.78327
   7  -3  -3 1535.61 215.999   9-0.21668 0.70128 0.00735-0.25696-0.99952 0.78452
   7  -3  -3 1005.04 193.875   3 0.63230-0.14721-0.39418 0.14430 0.77354-0.98878
  -7   3   3 1232.13 213.414   5-0.67981 0.19531 0.30291-0.05324-0.78339 0.99855
  -7  -3   3 1238.64 243.510   8-0.71177 0.22677-0.23441-0.01575-0.78376 0.99906
  10   4  -3 301.033 177.048   7 0.73597-0.01802 0.12209 0.21115 0.79198-0.96337
  10  -4  -3 112.908 105.158   3 0.62231 0.09625-0.38330 0.05001 0.78696-0.95848
 -10   4   3 79.2998 104.360   5-0.66555-0.05249 0.29310 0.03996-0.79888 0.97033
 -10  -4   3 140.093 188.079   8-0.69490-0.02338-0.22691-0.10653-0.80046 0.97207
   9   4  -3 -7.3669 107.045   7 0.74012-0.09995 0.12293 0.21031 0.78808-0.97402
   9  -4  -3 -27.376 73.0960   3 0.61928 0.02146-0.38003 0.04674 0.79088-0.97698
  -9   4   3 123.208 125.829   5-0.66472 0.02454 0.29252 0.04052-0.79976 0.98580
  -9  -4   3 -17.856 117.469   8-0.69594 0.05543-0.22737-0.10608-0.79946 0.98562
   8   4  -3 363.676 142.140   7 0.75094-0.18854 0.12515 0.20810 0.77759-0.97809
  -8  -4   3 444.659 145.694   4 0.15205-0.71538-0.12743-0.20661 0.99126-0.78968
  -8   4   3 104.297 95.6009   2-0.56894 0.00573 0.46246-0.12853-0.77453 0.97522
   8  -4  -3 379.292 121.717   9-0.15948 0.72185-0.14313-0.18991-0.98935 0.78890
   8  -4  -3 268.335 122.202   3 0.62025-0.05733-0.38108 0.04781 0.78963-0.99030
  -8   4   3 398.296 155.449   5-0.66888 0.10654 0.29537 0.03766-0.79536 0.99597
  -8  -4   3 587.735 206.630   8-0.70274 0.13999-0.23039-0.10307-0.79283 0.99357
   7   4  -3 -50.358 50.7494   7 0.76978-0.28514 0.12904 0.20422 0.75826-0.97331
  -7  -4   3 181.076 124.819   4 0.19015-0.67566-0.02396-0.31013 0.99971-0.78354
   7  -4  -3 195.376 93.0291   9-0.19943 0.68402-0.03958-0.29335-0.99914 0.78415
   7   4  -3 7.28257 79.3602   1-0.19287 0.67870 0.03009 0.30356-0.99953 0.78405
   7  -4  -3 280.223 126.982   3 0.62592-0.14082-0.38722 0.05395 0.78220-0.99745
  -7   4   3 89.8036 63.1079   5-0.67896 0.19446 0.30232 0.03069-0.78434 0.99950
  -7  -4   3 280.210 143.053   8-0.71645 0.23144-0.23650-0.09696-0.77892 0.99422
  -6  -4   3 24.1393 76.0648   4 0.22399-0.63168 0.07401-0.40815 0.99653-0.76576
   6   4  -3 78.2924 55.0789   1-0.21202 0.62000-0.08866 0.42227-0.99572 0.76573
  -6  -4   3 -102.18 160.798   8-0.73828 0.33104-0.24634-0.08714-0.75508 0.98496
  10   5  -3 -78.772 63.4211   7 0.75398-0.03605 0.12578 0.29083 0.77456-0.94593
  10  -5  -3 285.030 174.631   3 0.62189 0.09669-0.38285-0.03383 0.78751-0.95903
 -10  -5   3 184.274 109.710   8-0.70460-0.01366-0.23122-0.18553-0.79099 0.96260
   9   5  -3 139.247 99.9302   7 0.75924-0.11909 0.12686 0.28974 0.76924-0.95517
  -9   5   3 237.687 149.635   2-0.56652-0.07438 0.45848-0.04121-0.77869 0.96481
   9  -5  -3 428.962 189.942   3 0.61900 0.02174-0.37974-0.03693 0.79123-0.97733
  -9   5   3 199.454 149.768   5-0.66989 0.02971 0.29607 0.12034-0.79428 0.98029
  -9  -5   3 270.837 145.249   8-0.70624 0.06573-0.23194-0.18481-0.78936 0.97553
   8   5  -3 -145.18 100.537   7 0.77106-0.20869 0.12931 0.28730 0.75689-0.95737
  -8  -5   3 -50.186 88.3998   4 0.13890-0.70224-0.16165-0.25585 0.98575-0.78417
  -8   5   3 68.4010 99.4347   2-0.56502 0.00184 0.45602-0.03873-0.78124 0.98191
   8  -5  -3 -88.734 90.1473   9-0.14677 0.70913-0.17468-0.24167-0.98388 0.78345
   8  -5  -3 73.6750 58.8037   3 0.61991-0.05698-0.38071-0.03595 0.79007-0.99074
  -8   5   3 198.261 112.934   5-0.67415 0.11181 0.29900 0.11738-0.78966 0.99025
  -8  -5   3 -23.223 97.2916   8-0.71343 0.15068-0.23516-0.18160-0.78204 0.98278
   7   5  -3 263.308 127.509   1-0.18245 0.66831 0.08814 0.32887-0.99610 0.78063
  -7  -5   3 188.991 162.765   4 0.17239-0.65791-0.07301-0.34455 0.99722-0.78105
  -7   5   3 168.756 145.368   2-0.56682 0.08137 0.45896-0.04166-0.77819 0.99343
   7  -5  -3 393.816 128.170   9-0.18189 0.66646-0.08589-0.33035-0.99629 0.78133
   7  -5  -3 434.340 160.542   3 0.62520-0.14009-0.38643-0.03022 0.78316-0.99840
  -7   5   3 288.986 129.568   5-0.68402 0.19952 0.30582 0.11053-0.77864 0.99378
  -7  -5   3 15.5599 74.5893   8-0.72725 0.24224-0.24136-0.17542-0.76740 0.98271
   6   5  -3 189.575 193.630   1-0.20004 0.60806-0.01241 0.42937-0.99984 0.76986
  -6  -5   3 -438.15 749.265   4 0.20239-0.61008 0.01077-0.42836 0.99982-0.76906
  -9   6   3 412.934 197.500   2-0.56654-0.07434 0.45851 0.04209-0.77866 0.96479
   9  -6  -3 686.051 237.407   3 0.62297 0.01778-0.38402-0.11604 0.78609-0.97218
  -9   6   3 669.118 223.463   5-0.67957 0.03939 0.30274 0.19704-0.78366 0.96964
  -9  -6   3 248.639 219.404   8-0.72132 0.08082-0.23869-0.26135-0.77378 0.95997
  -8  -6   3 401.974 216.784   4 0.12459-0.68794-0.19812-0.30284 0.97836-0.77676
  -8   6   3 561.179 182.076   2-0.56515 0.00199 0.45622 0.04440-0.78103 0.98170
   8  -6  -3 963.919 239.666   9-0.13264 0.69499-0.20902-0.29064-0.97657 0.77617
   8  -6  -3 963.223 232.641   3 0.62401-0.06109-0.38515-0.11491 0.78473-0.98539
  -8   6   3 544.578 186.512   5-0.68416 0.12183 0.30592 0.19382-0.77848 0.97903
  -8  -6   3 54.0066 91.9524   8-0.72915 0.16639-0.24221-0.25784-0.76532 0.96607
  -7  -6   3 599.285 219.085   4 0.15446-0.63999-0.12107-0.37994 0.99213-0.77595
  -7   6   3 274.944 116.311   2-0.56682 0.08138 0.45896 0.04168-0.77819 0.99343
   7  -6  -3 808.102 227.109   9-0.16398 0.64854-0.13180-0.36777-0.99103 0.77609
   7  -6  -3 761.846 203.117   3 0.62916-0.14405-0.39074-0.10930 0.77785-0.99309
   7   6  -3 671.064 229.140   1-0.17205 0.65793 0.14264 0.35773-0.98968 0.77422
  -6  -6   3 54.9489 72.6184   4 0.18132-0.58902-0.04852-0.45252 0.99881-0.76803
   6   6  -3 181.343 100.608   1-0.18830 0.59634 0.05602 0.44428-0.99843 0.76846
  -9  -7   3 -954.11 353.514   8-0.74054 0.10003-0.24737-0.33597-0.75250 0.93871
  -8  -7   3 327.028 257.416   4 0.10933-0.67269-0.23616-0.34825 0.96894-0.76732
  -8   7   3 68.2387 121.108   2-0.56853 0.00539 0.46178 0.12216-0.77524 0.97594
   8  -7  -3 184.831 121.863   3 0.63176-0.06882-0.39358-0.18987 0.77430-0.97495
  -7  -7   3 202.278 150.731   4 0.13626-0.62180-0.16845-0.41601 0.98449-0.76830
   7   7  -3 229.154 178.570   1-0.16151 0.64741 0.19480 0.38893-0.98058 0.76512
  -5  -7   3 83.7984 116.312   4 0.18211-0.51198-0.04632-0.53821 0.99891-0.75355
   5   7  -3 -57.845 65.5013   1-0.18910 0.51935 0.05155 0.53203-0.99867 0.75421
  -7  -8   3 -21.912 117.648   4 0.11772-0.60326-0.21534-0.45256 0.97431-0.75810
   0   0   0    0.00    0.00
   0   5  -2 -4.1495 24.2358   1-0.23112 0.19205-0.23094 0.64747-0.97168 0.76042
   0  -5   2 20.2160 38.6319   4 0.27323-0.23365 0.22960-0.64714 0.96879-0.75661
   5   6  -3 90.3932 67.1799   1-0.20148 0.53170-0.02118 0.52141-0.99967 0.75520
  -5  -6   3 87.9195 85.6462   4 0.20521-0.53508 0.01889-0.51996 0.99965-0.75429
  -5  -5   3 -90.161 86.7694   4 0.22895-0.55880 0.08888-0.50650 0.99510-0.74973
   5   5  -3 93.1042 84.6112   1-0.21392 0.54411-0.10154 0.51842-0.99443 0.74995
  -8  -8   3 -89.034 229.612   4 0.09322-0.65658-0.27537-0.39250 0.95734-0.75569
   1  -2   1 176.926 52.5251   9 0.05675 0.04091-0.60570 0.43875-0.76897 0.88945
   0   6  -2 -17.206 46.4855   6 0.36599-0.40587 0.61366-0.11486 0.75580-0.96666
   0  -6   2 22.3354 62.2680   9 0.06264-0.02287-0.61623 0.11563-0.75943 0.97117
  -6  -3   3 46.5624 111.586   4 0.24651-0.65418 0.14295-0.39361 0.98775-0.75697
   6   3  -3 32.1210 81.9105   1-0.22436 0.63231-0.17683 0.42709-0.98339 0.75337
  -6  -3   3 -158.87 136.262   8-0.73424 0.32701-0.24451-0.00566-0.75966 0.98953
  -2   7  -2 -28.975 41.7815   1-0.20700 0.01252-0.05577 0.63880-0.99824 0.75799
   2  -7   2 10.8238 56.4260   4 0.21876-0.02351 0.05843-0.64287 0.99776-0.75646
   2  -7   2 -76.088 69.5331   9 0.06419 0.13112-0.61898 0.03499-0.75689 0.99777
   1   4  -2 -31.049 22.7225   6 0.36738-0.32938 0.62193-0.28966 0.74813-0.94446
   0  -4  -1 184.552 87.3263   4 0.01120-0.03102-0.46106 0.12747 0.87370-0.97962
   0  -4   1 155.170 44.4318   7 0.61259-0.59268 0.09728-0.43070 0.88525-0.77959
   0  -4   1 288.143 99.2577   9-0.01876 0.03864-0.46111 0.12743-0.87495 0.98079
   0   4   1 384.062 103.490   6 0.15068-0.13084-0.13051 0.46482 0.99081-0.88470
   0  -4   1 337.004 91.5654   4 0.24252-0.22276 0.13050-0.46447 0.98974-0.88367
   0   4   1 214.371 75.1070   2-0.55333 0.57296 0.43707-0.10329-0.80015 0.90597
   0  -4  -1 143.609 78.6528   9-0.25929 0.23945 0.13024-0.46323-0.98861 0.88302
   0   4  -1 214.710 107.659   6 0.33457-0.35457 0.45939-0.12671 0.87093-0.97642
   0   4  -1 286.677 83.7954   1-0.21811 0.19861-0.13069 0.46397-0.99087 0.88522
   2  -8   2 64.4038 63.3630   4 0.18653 0.00871-0.03408-0.63379 0.99942-0.75812
  -2   8  -2 58.2566 85.9505   1-0.19247-0.00196 0.03233 0.63405-0.99946 0.75922
   2  -8   2 -2.1599 50.8640   9 0.06452 0.13078-0.61956-0.04776-0.75635 0.99723
  -1   7  -2 150.985 69.5950   1-0.20592 0.08918-0.04891 0.63204-0.99862 0.77286
   1  -7   2 149.131 74.6771   4 0.21588-0.09847 0.04994-0.63439 0.99832-0.77159
   1  -7   2 -80.898 92.2285   9 0.05928 0.05826-0.61024 0.02627-0.76490 0.99121
  -4   2   1 186.404 73.5388   8-0.59580 0.30454-0.18385 0.35052-0.87957 0.92703
   4   2  -1 199.534 90.6267   7 0.48205-0.19092 0.07174 0.09489 0.94804-0.99548
  -4   2   1 296.593 95.5297   2-0.40301 0.11159 0.21921-0.05237-0.94831 0.99571
   4  -2  -1 167.108 72.2085   7 0.55592-0.26472 0.08611-0.25293 0.91626-0.96368
   4   2  -1 329.652 78.7812   1-0.18370 0.47535 0.08138 0.08547-0.99668 0.94917
  -4  -2   1 222.702 78.0910   4 0.17560-0.46716-0.06424-0.10275 0.99787-0.95014
   4   2  -1 174.173 77.5468   6 0.31234-0.02123 0.36955-0.20329 0.91816-0.96554
  -4  -2   1 235.816 63.2154   5-0.62549 0.33439 0.26605-0.43273-0.83763 0.88502
  -4  -2   1 333.417 104.705   8-0.45487 0.16359-0.12485-0.04184-0.95136 0.99884
   4  -2  -1 207.281 84.4357   9-0.18382 0.47494-0.08086-0.08573-0.99672 0.94929
   4  -2  -1 298.425 51.6218   1-0.22200 0.51355-0.15901-0.00758-0.98655 0.93903
   0 -10   2 -169.12 103.546   4 0.12562-0.08607-0.19553-0.63923 0.97894-0.76677
   0  10  -2 106.524 71.3879   1-0.16150 0.12264 0.19483 0.63843-0.98058 0.76937
   1 -10   2 46.9176 96.9632   4 0.12753-0.01013-0.19069-0.64406 0.97999-0.75326
  -1  10  -2 3.29457 60.7588   1-0.16324 0.04663 0.18643 0.64674-0.98224 0.75653
  -5  -8   3 90.9588 99.5939   4 0.15940-0.48926-0.10796-0.56001 0.99378-0.74842
   5   8  -3 61.4619 70.9807   1-0.17668 0.50696 0.11879 0.54815-0.99288 0.74843
   6   7  -3 471.187 182.508   1-0.17661 0.58468 0.11914 0.46453-0.99283 0.76287
  -6  -7   3 159.831 136.565   4 0.16052-0.56821-0.10499-0.47950 0.99413-0.76335
   0   9  -2 137.382 96.9896   1-0.17544 0.13652 0.12526 0.62466-0.99207 0.78084
   0  -9   2 -5.1303 68.4646   4 0.15273-0.11316-0.12564-0.62569 0.99151-0.77935
   0   9  -2 -44.474 55.2505   6 0.36644-0.40652 0.61635 0.13256 0.75333-0.96411
   0  -9   2 -52.325 105.175   9 0.06404-0.02422-0.61872-0.13190-0.75713 0.96890
  -1   9  -2 -57.144 82.7151   1-0.17749 0.06083 0.11455 0.63527-0.99338 0.76765
   1  -9   2 -149.16 106.573   4 0.15588-0.03848-0.11731-0.63400 0.99262-0.76590
  -1   9  -2 23.0069 49.9424   2-0.31315 0.19608 0.10271 0.64687-0.98608 0.76065
   1  -9   2 -89.066 127.036   9 0.06469 0.05287-0.61988-0.13075-0.75606 0.98239
  -6  -8   3 120.620 107.329   4 0.13977-0.54748-0.15939-0.50855 0.98616-0.75537
   6   8  -3 34.0183 113.066   1-0.16486 0.57296 0.17851 0.48850-0.98374 0.75379
   2   0  -1 1267.49 99.2244   7 0.66967-0.53403 0.10866-0.10870 0.84710-0.92364
  -2   0   1 1334.68 98.4580   5-0.64875 0.51318 0.28166-0.28175-0.81594 0.89248
   2   0  -1 1515.46 111.180   3 0.62578-0.49001-0.38706 0.38712 0.78239-0.85899
  -2   0   1 1285.53 100.739   8-0.65959 0.52385-0.21138 0.21132-0.83208 0.90870
  -6   0   1 158.182 64.2078   8-0.44213-0.00469-0.11962 0.11960-0.95602 0.97436
  -6   0   1 150.611 62.0424   5-0.44126-0.00559 0.14857-0.14867-0.95198 0.97033
  -6   0   1 54.7467 40.2698   2-0.43548-0.01151 0.26334-0.26324-0.92714 0.94544
   8   0   1 549.407 184.895   7 0.17006 0.47218 0.01262-0.01279 0.99977-0.77737
  -8   0  -1 815.843 219.607   8-0.16993-0.47201-0.01088 0.01105-0.99979 0.77751
   8  -1  -3 477.328 150.330   7 0.75108-0.18857 0.12518-0.20874 0.77745-0.97796
  -8   1   3 99.8296 85.6649   5-0.68994 0.12764 0.30995-0.22694-0.77178 0.97233
;
_shelx_hkl_checksum              13997
loop_
_space_group_symop_operation_xyz
'x, y, z'
'-x+1/2, y+1/2, -z'
'-x, -y, -z'
'x-1/2, -y-1/2, z'
loop_
_atom_site_label
_atom_site_type_symbol
_atom_site_fract_x
_atom_site_fract_y
_atom_site_fract_z
_atom_site_U_iso_or_equiv
_atom_site_adp_type
_atom_site_occupancy
_atom_site_site_symmetry_order
_atom_site_calc_flag
_atom_site_refinement_flags_posn
_atom_site_refinement_flags_adp
_atom_site_refinement_flags_occupancy
_atom_site_disorder_assembly
_atom_site_disorder_group
C1 C 0.6806(7) 0.2873(6) 0.791(3) 0.034(7) Uani 1 1 d . U . . .
H1D H 0.585217 0.236836 0.768358 0.041 Uiso 1 1 calc R U . . .
H1E H 0.703248 0.321005 0.929202 0.041 Uiso 1 1 calc R U . . .
C2 C 0.7939(8) 0.1740(7) 0.751(3) 0.034(7) Uani 1 1 d . U . . .
N1 N 0.6774(6) 0.4254(5) 0.658(2) 0.0160(13) Uiso 1 1 d . . . . .
H1A H 0.639397 0.397402 0.533882 0.019 Uiso 1 1 calc R U . . .
H1B H 0.768281 0.460939 0.663647 0.019 Uiso 1 1 calc R U . . .
H1C H 0.622578 0.500767 0.697464 0.019 Uiso 1 1 calc R U . . .
O1 O 0.5217(6) 0.8616(6) 0.974(3) 0.0278(15) Uiso 1 1 d . U . . .
H1 H 0.527626 0.957706 0.979578 0.033 Uiso 0.5 1 calc D U P . .
O2 O 0.4630(5) 0.6443(4) 0.725(2) 0.019(4) Uani 1 1 d . U . . .
O3 O 0.4438(5) 0.9266(5) 0.6199(18) 0.0236(12) Uiso 1 1 d . U . . .
H3 H 0.499217 0.961906 0.550374 0.028 Uiso 0.5 1 calc D U P . .
O4 O 0.8572(5) 0.1865(5) 0.6100(19) 0.021(8) Uani 1 1 d . . . . .
O5 O 0.8097(6) 0.0557(5) 0.881(2) 0.024(9) Uani 1 1 d . . . . .
H5 H 0.866860 -0.009238 0.849797 0.028 Uiso 1 1 calc R U . . .
P1 P 0.5246(2) 0.80851(19) 0.7639(8) 0.016(2) Uani 1 1 d . U . . .
H1P H 0.627165 0.806776 0.746760 0.019 Uiso 1 1 calc R U . . .
loop_
_atom_site_aniso_label
_atom_site_aniso_U_11
_atom_site_aniso_U_22
_atom_site_aniso_U_33
_atom_site_aniso_U_23
_atom_site_aniso_U_13
_atom_site_aniso_U_12
C1 0.017(3) 0.014(2) 0.07(2) 0.000(4) 0.004(6) -0.0011(18)
C2 0.017(3) 0.014(2) 0.07(2) 0.000(4) 0.004(6) -0.0012(18)
O2 0.024(3) 0.0146(18) 0.015(12) -0.002(4) -0.003(5) -0.0038(17)
O4 0.022(3) 0.020(2) 0.02(3) 0.003(5) 0.000(7) 0.0022(19)
O5 0.033(3) 0.017(2) 0.02(3) 0.006(4) 0.011(7) 0.0059(18)
P1 0.0179(10) 0.0134(8) 0.018(6) 0.0016(17) 0.0047(19) 0.0004(7)
loop_
_atom_type_symbol
_atom_type_description
_atom_type_scat_dispersion_real
_atom_type_scat_dispersion_imag
_atom_type_scat_source
C C 0.0033 0.0016 'International Tables Vol C Tables 4.2.6.8 and 6.1.1.4'
H H 0.0000 0.0000 'International Tables Vol C Tables 4.2.6.8 and 6.1.1.4'
N N 0.0061 0.0033 'International Tables Vol C Tables 4.2.6.8 and 6.1.1.4'
O O 0.0106 0.0060 'International Tables Vol C Tables 4.2.6.8 and 6.1.1.4'
P P 0.1023 0.0942 'International Tables Vol C Tables 4.2.6.8 and 6.1.1.4'
loop_
_geom_angle_atom_site_label_1
_geom_angle_atom_site_label_2
_geom_angle_atom_site_label_3
_geom_angle
_geom_angle_site_symmetry_1
_geom_angle_site_symmetry_3
_geom_angle_publ_flag
N1 C1 C2 109.5(12) . . ?
N1 C1 H1D 109.8 . . ?
C2 C1 H1D 109.8 . . ?
N1 C1 H1E 109.8 . . ?
C2 C1 H1E 109.8 . . ?
H1D C1 H1E 108.2 . . ?
O4 C2 O5 125.5(7) . . ?
O4 C2 C1 123.2(13) . . ?
O5 C2 C1 111.2(14) . . ?
C1 N1 H1A 109.5 . . ?
C1 N1 H1B 109.5 . . ?
H1A N1 H1B 109.5 . . ?
C1 N1 H1C 109.5 . . ?
H1A N1 H1C 109.5 . . ?
H1B N1 H1C 109.5 . . ?
P1 O1 H1 109.5 . . ?
P1 O3 H3 109.5 . . ?
C2 O5 H5 109.5 . . ?
O3 P1 O1 109.1(5) . . ?
O3 P1 O2 112.0(6) . . ?
O1 P1 O2 111.7(6) . . ?
O3 P1 H1P 108.0 . . ?
O1 P1 H1P 108.0 . . ?
O2 P1 H1P 108.0 . . ?
loop_
_geom_bond_atom_site_label_1
_geom_bond_atom_site_label_2
_geom_bond_distance
_geom_bond_site_symmetry_2
_geom_bond_publ_flag
C1 N1 1.482(14) . ?
C1 C2 1.488(11) . ?
C1 H1D 0.9700 . ?
C1 H1E 0.9700 . ?
C2 O4 1.23(2) . ?
C2 O5 1.330(17) . ?
N1 H1A 0.8900 . ?
N1 H1B 0.8900 . ?
N1 H1C 0.8900 . ?
O1 P1 1.507(17) . ?
O1 H1 0.8200 . ?
O2 P1 1.513(5) . ?
O3 P1 1.505(10) . ?
O3 H3 0.8200 . ?
O5 H5 0.8200 . ?
P1 H1P 0.9800 . ?
loop_
_geom_hbond_atom_site_label_D
_geom_hbond_atom_site_label_H
_geom_hbond_atom_site_label_A
_geom_hbond_distance_DH
_geom_hbond_distance_HA
_geom_hbond_distance_DA
_geom_hbond_angle_DHA
_geom_hbond_site_symmetry_A
_geom_hbond_publ_flag
N1 H1A O2 0.89 1.88 2.76(2) 172.1 3_666 yes
N1 H1B O3 0.89 1.96 2.829(7) 165.4 4_675 yes
N1 H1C O2 0.89 1.95 2.823(7) 164.7 . yes
O1 H1 O1 0.82 1.65 2.427(12) 156.8 3_677 yes
O3 H3 O3 0.82 1.66 2.444(17) 158.6 3_676 yes
O5 H5 O2 0.82 1.77 2.572(10) 166.1 4_665 yes
loop_
_geom_torsion_atom_site_label_1
_geom_torsion_atom_site_label_2
_geom_torsion_atom_site_label_3
_geom_torsion_atom_site_label_4
_geom_torsion
_geom_torsion_site_symmetry_1
_geom_torsion_site_symmetry_2
_geom_torsion_site_symmetry_3
_geom_torsion_site_symmetry_4
_geom_torsion_publ_flag
N1 C1 C2 O4 -9.5(18) . . . . ?
N1 C1 C2 O5 174.0(9) . . . . ?

_cod_database_fobs_code 2109037
