#------------------------------------------------------------------------------
#$Date: 2022-09-02 04:49:51 +0300 (Fri, 02 Sep 2022) $
#$Revision: 277573 $
#$URL: file:///home/coder/svn-repositories/cod/cif/2/10/90/2109029.cif $
#------------------------------------------------------------------------------
#
# This file is available in the Crystallography Open Database (COD),
# http://www.crystallography.net/. The original data for this entry
# were provided by IUCr Journals, http://journals.iucr.org/.
#
# The file may be used within the scientific community so long as
# proper attribution is given to the journal article from which the
# data were obtained.
#
data_2109029
loop_
_publ_author_name
'Bogdanov, Nikita E.'
'Korabel'nikov, Dmitry V.'
'Fedorov, Igor A.'
'Zakharov, Boris A.'
'Boldyreva, Elena V.'
_publ_section_title
;
 The effect of hydrostatic compression on the crystal structure of
 glycinium phosphite
;
_journal_issue                   5
_journal_name_full               'Acta Crystallographica Section B'
_journal_page_first
;
;
_journal_paper_doi               10.1107/S2052520622008289
_journal_volume                  78
_journal_year                    2022
_chemical_formula_moiety         'C2 H6 N O2, H2 O3 P'
_chemical_formula_sum            'C2 H8 N O5 P'
_chemical_formula_weight         209.42
_space_group_crystal_system      monoclinic
_space_group_IT_number           14
_space_group_name_Hall           '-P 2yab'
_space_group_name_H-M_alt        'P 1 21/a 1'
_atom_sites_solution_hydrogens   geom
_atom_sites_solution_primary     direct
_atom_sites_solution_secondary   difmap
_audit_creation_method           SHELXL-2018/3
_cell_angle_alpha                90
_cell_angle_beta                 100.45(3)
_cell_angle_gamma                90
_cell_formula_units_Z            3
_cell_length_a                   9.7272(9)
_cell_length_b                   8.4963(5)
_cell_length_c                   7.332(7)
_cell_measurement_pressure       360000
_cell_measurement_reflns_used    828
_cell_measurement_temperature    298(2)
_cell_measurement_theta_max      27.1390
_cell_measurement_theta_min      3.1990
_cell_volume                     595.9(6)
_computing_cell_refinement       'CrysAlisPro 1.171.40.53 (Rigaku OD, 2019)'
_computing_data_collection       'CrysAlisPro 1.171.40.53 (Rigaku OD, 2019)'
_computing_data_reduction        'CrysAlisPro 1.171.40.53 (Rigaku OD, 2019)'
_computing_structure_refinement  'SHELXL-2018/3 (Sheldrick, 2018)'
_diffrn_ambient_pressure         360000
_diffrn_ambient_temperature      298(2)
_diffrn_detector                 'CCD plate'
_diffrn_detector_area_resol_mean 10.3457
_diffrn_detector_type            Ruby
_diffrn_measured_fraction_theta_full 0.357
_diffrn_measured_fraction_theta_max 0.315
_diffrn_measurement_device       'four-circle diffractometer'
_diffrn_measurement_device_type  'Xcalibur, Ruby, Gemini ultra'
_diffrn_radiation_monochromator  graphite
_diffrn_radiation_probe          x-ray
_diffrn_radiation_type           'Mo K\a'
_diffrn_radiation_wavelength     0.71073
_diffrn_reflns_av_R_equivalents  0.0955
_diffrn_reflns_av_unetI/netI     0.0625
_diffrn_reflns_Laue_measured_fraction_full 0.357
_diffrn_reflns_Laue_measured_fraction_max 0.315
_diffrn_reflns_limit_h_max       12
_diffrn_reflns_limit_h_min       -12
_diffrn_reflns_limit_k_max       11
_diffrn_reflns_limit_k_min       -11
_diffrn_reflns_limit_l_max       3
_diffrn_reflns_limit_l_min       -3
_diffrn_reflns_number            3085
_diffrn_reflns_point_group_measured_fraction_full 0.357
_diffrn_reflns_point_group_measured_fraction_max 0.315
_diffrn_reflns_theta_full        25.242
_diffrn_reflns_theta_max         28.231
_diffrn_reflns_theta_min         3.207
_diffrn_source                   'fine-focus sealed X-ray tube'
_diffrn_source_type              'Enhance (Mo) X-ray Source'
_exptl_absorpt_coefficient_mu    0.416
_exptl_absorpt_correction_T_max  1.00000
_exptl_absorpt_correction_T_min  0.39057
_exptl_absorpt_correction_type   multi-scan
_exptl_absorpt_process_details
;
CrysAlisPro 1.171.40.53 (Rigaku Oxford Diffraction, 2019)
Empirical absorption correction using spherical harmonics,
 implemented in SCALE3 ABSPACK scaling algorithm.
;
_exptl_crystal_colour            white
_exptl_crystal_density_diffrn    1.751
_exptl_crystal_description       plates
_exptl_crystal_F_000             328
_exptl_crystal_size_max          0.21
_exptl_crystal_size_mid          0.10
_exptl_crystal_size_min          0.05
_refine_diff_density_max         0.293
_refine_diff_density_min         -0.218
_refine_diff_density_rms         0.057
_refine_ls_extinction_method     none
_refine_ls_goodness_of_fit_ref   1.058
_refine_ls_hydrogen_treatment    constr
_refine_ls_matrix_type           full
_refine_ls_number_parameters     83
_refine_ls_number_reflns         461
_refine_ls_number_restraints     2
_refine_ls_restrained_S_all      1.056
_refine_ls_R_factor_all          0.0847
_refine_ls_R_factor_gt           0.0512
_refine_ls_shift/su_max          0.000
_refine_ls_shift/su_mean         0.000
_refine_ls_structure_factor_coef Fsqd
_refine_ls_weighting_details
'w=1/[\s^2^(Fo^2^)+(0.0707P)^2^] where P=(Fo^2^+2Fc^2^)/3'
_refine_ls_weighting_scheme      calc
_refine_ls_wR_factor_gt          0.1126
_refine_ls_wR_factor_ref         0.1313
_reflns_Friedel_coverage         0.000
_reflns_number_gt                316
_reflns_number_total             461
_reflns_threshold_expression     'I > 2\s(I)'
_cod_data_source_file            xk5096sup1.cif
_cod_data_source_block           0.36
_cod_original_cell_volume        595.9(5)
_cod_original_sg_symbol_H-M      'P 21/a'
_cod_database_code               2109029
_shelx_shelxl_version_number     2018/3
_shelx_space_group_comment
;
The symmetry employed for this shelxl refinement is uniquely defined
by the following loop, which should always be used as a source of
symmetry information in preference to the above space-group names.
They are only intended as comments.
;
_oxdiff_exptl_absorpt_empirical_full_min 0.840
_oxdiff_exptl_absorpt_empirical_full_max 2.235
_oxdiff_exptl_absorpt_empirical_details
;
Empirical correction (ABSPACK) includes:
- Absorption correction using spherical harmonics
- Frame scaling
;
_shelx_res_file
;
TITL GPI_0 in P2(1)/c
    0.36.res
    created by SHELXL-2018/3 at 15:27:20 on 15-Aug-2022
REM  transformed to space group : P21/a:b3
REM P2(1)/c (#14 in standard setting)
CELL   0.71073  9.7272  8.4963  7.3318   90.000  100.451   90.000
ZERR   3        0.0009  0.0005  0.0065    0.000    0.030    0.000
LATT    1
SYMM   1/2-X,1/2+Y,-Z
SFAC C H N O P
UNIT 8 32 4 20 4
LIST 4 ! automatically inserted. Change 6 to 4 for CHECKCIF!!
TEMP 25
PLAN 30
FMAP 2
L.S. 20
BOND
BOND $H
CONF
ACTA
EQIV $1 1-X, 1-Y,1-Z
EQIV $2 1/2+X, 3/2-Y,Z
EQIV $3 1-X, 2-Y, 2-Z
EQIV $4 1-X, 2-Y, 1-Z
EQIV $5 1/2+X, 1/2-Y, Z
HTAB N1 O2_$1
HTAB N1 O3_$2
HTAB N1 O2
HTAB O1 O1_$3
HTAB O3 O3_$4
HTAB O5 O2_$5
DFIX 1.66 0.04 H1 O1_$3
DFIX 1.70 0.04 H3 O3_$4
SIMU O1 O2 O3
WGHT    0.070700
FVAR       1.67618
C1    1    0.698893    0.301281    0.788259    11.00000    0.02267    0.02306 =
         0.12740    0.00647    0.01072    0.00659
AFIX  23
H1D   2    0.610882    0.249062    0.792695    11.00000   -1.20000
H1E   2    0.733816    0.346099    0.909491    11.00000   -1.20000
AFIX   0
C2    1    0.803451    0.183189    0.738983    11.00000    0.01643    0.01704 =
         0.02528   -0.00044   -0.00681   -0.00304
N1    3    0.677194    0.426265    0.648352    11.00000    0.02332    0.01895 =
         0.04552   -0.00223    0.00293    0.00137
AFIX 137
H1A   2    0.640632    0.385312    0.538521    11.00000   -1.20000
H1B   2    0.758734    0.471376    0.641806    11.00000   -1.20000
H1C   2    0.619035    0.498043    0.679728    11.00000   -1.20000
AFIX   0
O1    4    0.484280    0.864309    0.946302    11.00000    0.08695    0.02498 =
         0.18325   -0.02568    0.07402   -0.00485
AFIX  81
H1    2    0.519735    0.951019    0.971326    10.50000   -1.20000
AFIX   0
O2    4    0.466457    0.643664    0.715707    11.00000    0.03174    0.01910 =
         0.05158   -0.00808    0.01078   -0.00457
O3    4    0.436990    0.925489    0.606028    11.00000    0.03375    0.03240 =
         0.11887    0.02292    0.02111    0.01040
AFIX  81
H3    2    0.496274    0.972872    0.561042    10.50000   -1.20000
AFIX   0
O4    4    0.864398    0.197749    0.618450    11.00000    0.03187    0.02770 =
         0.03496    0.00940    0.01297    0.00386
O5    4    0.817480    0.063069    0.853635    11.00000    0.03603    0.02645 =
         0.03647    0.01135    0.01100    0.01162
AFIX  81
H5    2    0.877528    0.003255    0.828511    11.00000   -1.20000
AFIX   0
P1    5    0.509669    0.812853    0.758823    11.00000    0.02276    0.01498 =
         0.03271    0.00415    0.00267   -0.00184
AFIX  13
H1P   2    0.610494    0.819752    0.760778    11.00000   -1.20000
AFIX   0
HKLF 4




REM  GPI_0 in P2(1)/c
REM wR2 = 0.1313, GooF = S = 1.058, Restrained GooF = 1.056 for all data
REM R1 = 0.0512 for 316 Fo > 4sig(Fo) and 0.0847 for all 461 data
REM 83 parameters refined using 2 restraints

END

WGHT      0.0707      0.0000

REM Highest difference peak  0.293,  deepest hole -0.218,  1-sigma level  0.057
Q1    1   0.6772  0.8239  0.7543  11.00000  0.05    0.29
Q2    1   0.6742  0.8828  0.9278  11.00000  0.05    0.21
Q3    1   0.6671  0.8840  0.8809  11.00000  0.05    0.20
Q4    1   1.0434  0.0718  0.8807  11.00000  0.05    0.20
Q5    1   0.4801  0.7268  0.6862  11.00000  0.05    0.18
Q6    1   0.9946 -0.0308  0.9262  11.00000  0.05    0.17
Q7    1   0.9937  0.1654  0.6852  11.00000  0.05    0.17
Q8    1   0.4471  0.6310  0.7434  11.00000  0.05    0.17
Q9    1   0.9840  0.1748  0.6277  11.00000  0.05    0.17
Q10   1   0.8630  0.3722  0.8465  11.00000  0.05    0.17
Q11   1   0.9874 -0.0258  0.8777  11.00000  0.05    0.17
Q12   1   0.5393  1.0453  0.8676  11.00000  0.05    0.17
Q13   1   0.5552  1.0459  0.9255  11.00000  0.05    0.16
Q14   1   0.3579  0.8581  1.0184  11.00000  0.05    0.15
Q15   1   0.3397  0.8344  0.9129  11.00000  0.05    0.15
Q16   1   0.8532  0.2850  0.9254  11.00000  0.05    0.15
Q17   1   0.3595  0.8906  0.7159  11.00000  0.05    0.15
Q18   1   0.8312  0.4720  0.9666  11.00000  0.05    0.15
Q19   1   0.6195  0.2788  0.8706  11.00000  0.05    0.15
Q20   1   0.7140  0.0499  0.7146  11.00000  0.05    0.14
Q21   1   0.5218  1.0430  0.8079  11.00000  0.05    0.14
Q22   1   0.5400  0.1239  0.7248  11.00000  0.05    0.14
Q23   1   0.5461  0.9222  0.8969  11.00000  0.05    0.14
Q24   1   0.3225  0.8229  0.8477  11.00000  0.05    0.14
Q25   1   0.6231  0.1327  0.9012  11.00000  0.05    0.14
Q26   1   0.3405  0.8841  0.6452  11.00000  0.05    0.14
Q27   1   0.5380  0.5214  0.7323  11.00000  0.05    0.13
Q28   1   0.6948  0.9388  0.7282  11.00000  0.05    0.12
Q29   1   0.3358  0.8052  0.6039  11.00000  0.05    0.12
Q30   1   0.8769  0.4083  0.5566  11.00000  0.05    0.12
;
_shelx_res_checksum              53893
_shelx_hkl_file
;
   1   0   0 4.85546 4.44788   8 0.03711 0.03711 0.04208-0.04207 0.98862-0.97517
  -1   0   0 3.12418 3.20480   7-0.03713-0.03713-0.01502 0.01503-0.98938 0.97593
  -2   0   0 7564.31 131.539   6-0.07426-0.07427-0.31588 0.31591-0.94364 0.91672
  -2   0   0 7678.95 131.489   4-0.07418-0.07417-0.31515 0.31506-0.94387 0.91702
  -2   0   0 6110.85 187.712   7-0.07424-0.07425-0.00781 0.00783-0.99415 0.96725
   2   0   0 7415.00 199.235   8 0.07422 0.07421 0.02743-0.02741 0.99381-0.96691
   2   0   0 7685.59 133.159   9 0.07414 0.07412-0.31684 0.31679 0.94341-0.91656
  -3   0   0 -0.1325 6.84422   6-0.11138-0.11139-0.22324 0.22327-0.97250 0.93213
  -3   0   0 3.59037 7.22094   4-0.11130-0.11128-0.22242 0.22230-0.97268 0.93238
   3   0   0 -4.9378 3.99002   9 0.11122 0.11118-0.23344 0.23339 0.97019-0.92990
  -3   0   0 -1.3251 7.09585   7-0.11136-0.11138-0.00057 0.00060-0.99751 0.95714
   3   0   0 -0.1431 9.22955   8 0.11132 0.11131 0.01270-0.01266 0.99742-0.95708
  -4   0   0 5180.10 150.090   4-0.14842-0.14838-0.12411 0.12398-0.99174 0.93798
  -4   0   0 4785.57 147.307   6-0.14848-0.14849-0.12511 0.12514-0.99161 0.93780
  -4   0   0 5155.97 248.305   7-0.14846-0.14851 0.00671-0.00666-0.99943 0.94561
   4   0   0 4916.68 237.561   8 0.14843 0.14842-0.00213 0.00217 0.99945-0.94566
   5   0   0 -8.7525 5.94781   1 0.18559 0.18561 0.03402-0.03408 0.99941-0.93214
  -5   0   0 1.27284 11.1080   6-0.18556-0.18558-0.02081 0.02084-0.99977 0.93252
  -5   0   0 -27.573 30.9150   7-0.18558-0.18565 0.01402-0.01397-0.99989 0.93262
   5   0   0 -34.902 37.7284   8 0.18554 0.18553-0.01705 0.01711 0.99985-0.93261
  -6   0   0 10439.5 263.785   6-0.22261-0.22264 0.09079-0.09078-0.99495 0.91427
   6   0   0 9836.51 437.107   8 0.22266 0.22264-0.03206 0.03213 0.99859-0.91790
  -6   0   0 10073.7 454.726   7-0.22268-0.22279 0.02136-0.02131-0.99888 0.91814
  -7   0   0 -13.622 21.0254   6-0.25965-0.25970 0.21168-0.21169-0.97370 0.87958
   7   0   0 -10.485 51.5602   8 0.25978 0.25975-0.04717 0.04725 0.99563-0.90149
  -7   0   0 22.9007 27.8480   7-0.25978-0.25992 0.02874-0.02868-0.99634 0.90213
   7   0   0 -3.2549 22.7430   2 0.25955 0.25946 0.04766-0.04754 0.99561-0.90160
  -8   0   0 -78.275 74.0489   7-0.29689-0.29706 0.03615-0.03609-0.99223 0.88456
   8   0   0 -4.6141 51.9855   8 0.29689 0.29685-0.06240 0.06248 0.99090-0.88332
  -8   0   0 48.0994 25.4554   3-0.29696-0.29689-0.07893 0.07865-0.98966 0.88211
   8   0   0 -8.2836 34.5332   2 0.29664 0.29652 0.09229-0.09213 0.98852-0.88110
  -9   0   0 43.8068 44.6909   7-0.33398-0.33420 0.04361-0.04354-0.98651 0.86536
   9   0   0 -25.040 36.6240   2 0.33372 0.33357 0.13788-0.13769 0.97754-0.85672
   9   0   0 -2.6937 49.1464   8 0.33401 0.33396-0.07771 0.07781 0.98435-0.86332
  -9   0   0 80.9199 54.1969   3-0.33406-0.33398-0.11098 0.11067-0.98101 0.86004
  10   0   0 712.437 161.846   8 0.37114 0.37108-0.09314 0.09324 0.97587-0.84139
 -10   0   0 435.489 117.853   3-0.37116-0.37107-0.14352 0.14317-0.96945 0.83506
 -10   0   0 971.595 216.734   7-0.37107-0.37134 0.05110-0.05103-0.97910 0.84447
 -11   0   0 -17.995 89.0123   7-0.40816-0.40848 0.05862-0.05855-0.96991 0.82180
  11   0   0 -25.128 48.9767   8 0.40826 0.40819-0.10869 0.10880 0.96536-0.81744
  12   0   0 20.2351 61.0137   5 0.44509 0.44483 0.15404-0.15442 0.94816-0.78698
  12   0   0 -81.247 61.4568   8 0.44538 0.44530-0.12435 0.12447 0.95271-0.79134
 -12   0   0 -12.159 69.7741   7-0.44525-0.44562 0.06620-0.06612-0.95887 0.79726
   0   1   0 2.79319 2.78995   4-0.20625 0.20624 0.04180 0.04180-0.99880 0.99879
   0  -1   0 3.12455 3.62627   1 0.19737-0.19735-0.04181-0.04181 0.99899-0.99898
   0  -1   0 -0.4530 1.75010   9 0.18974-0.18976-0.04178-0.04178 0.99909-0.99908
   0   1   0 1.57210 1.53434   6-0.20667 0.20669 0.04177 0.04177-0.99879 0.99878
  -1  -1   0 379.812 32.2503   1 0.22652-0.30073-0.27585 0.19221 0.95976-0.97320
   1  -1   0 377.329 35.5740   7 0.04866 0.02560-0.03157-0.05204-0.97297 0.98644
  -1  -1   0 386.840 28.7523   7-0.07569 0.00146-0.00753-0.07605-0.99431 0.98087
  -1   1   0 358.964 39.4893   6-0.16706 0.09285-0.07365 0.15725-0.99718 0.98371
   1   1   0 410.082 30.8062   7 0.13918-0.06493-0.04884 0.13244-0.94746 0.96090
   1   1   0 374.516 31.7972   1 0.20686-0.13264-0.10887 0.19251 0.99370-0.98026
   1  -1   0 386.981 38.3690   1 0.17742-0.10318 0.08274-0.16636 0.99655-0.98309
  -1   1   0 371.312 37.4925   1 0.15364-0.22788 0.21116-0.12753 0.97713-0.99059
  -1  -1   0 372.629 28.4050   4-0.23603 0.16176 0.13475-0.21843-0.98922 0.97577
  -1  -1   0 400.150 29.9442   6-0.23672 0.16251 0.13556-0.21905-0.98906 0.97564
  -1   1   0 403.908 29.5284   9 0.32676-0.40097 0.36476-0.28120 0.91659-0.93003
   1  -1   0 372.384 37.7620   8 0.10243-0.02823 0.01624-0.09978 0.99670-0.98324
   1  -1   0 404.592 29.8452   9 0.26227-0.18810 0.15810-0.24165 0.98369-0.97024
  -1   1   0 380.303 40.2904   4-0.16676 0.09255-0.07333 0.15687-0.99719 0.98374
   1   1   0 388.130 29.6527   6-0.29416 0.36838 0.33601-0.25254-0.93330 0.94671
  -1   1   0 391.563 36.7826   7-0.08962 0.01536-0.00482 0.08843-0.99572 0.98225
  -1   1   0 364.861 37.4239   8-0.01415-0.06006 0.06215 0.02139 0.97887-0.99233
   1   1   0 363.574 28.3132   4-0.29361 0.36790 0.33551-0.25181-0.93356 0.94702
  -1  -1   0 385.646 38.4762   9 0.12984-0.20403-0.18994 0.10641 0.98062-0.99404
  -2  -1   0 142.643 27.4840   7-0.09572-0.05275-0.00363-0.07995-0.99627 0.96938
   2  -1   0 166.196 31.3973   4-0.07655 0.22495-0.30939 0.22594-0.94598 0.97284
   2  -1   0 140.569 25.2893   1 0.16954-0.02106 0.12737-0.21102 0.99178-0.96486
  -2   1   0 143.876 27.7474   6-0.15622 0.00775-0.10387 0.18748-0.99428 0.96736
  -2   1   0 118.662 28.2537   7-0.09942-0.04909-0.00290 0.08654-0.99658 0.96966
   2   1   0 133.166 23.7951   8 0.08463 0.06381 0.02331 0.06028 0.99498-0.96810
   2  -1   0 119.966 28.7401   8 0.10606 0.04235 0.01480-0.09832 0.99701-0.97011
   2   1   0 125.915 17.2361   1 0.22031-0.07184-0.21754 0.30118 0.97508-0.94818
  -2  -1   0 152.316 27.2698   9 0.07712-0.22547-0.31031 0.22682 0.94584-0.97269
  -3  -1   0 17728.2 385.848   7-0.12804-0.09467 0.00270-0.08627-0.99855 0.95821
  -3   1   0 16993.7 332.834   6-0.16102-0.06170-0.09057 0.17419-0.99568 0.95530
  -3   1   0 17429.0 406.255   7-0.12618-0.09658 0.00233 0.08131-0.99845 0.95807
   3   1   0 17286.3 346.412   8 0.12418 0.09848 0.00757 0.07603 0.99831-0.95797
  -3  -1   0 17700.5 342.859   9 0.02852-0.25102-0.41384 0.33042 0.90007-0.94032
   3  -1   0 18151.9 354.924   4-0.03020 0.25277-0.41847 0.33511-0.89811 0.93836
   3  -1   0 17013.1 399.920   8 0.12910 0.09352 0.00561-0.08913 0.99859-0.95825
   4  -1   0 1421.41 112.787   4 0.01458 0.28215-0.51666 0.43337-0.83918 0.89279
  -4  -1   0 1579.74 119.326   9-0.01757-0.27908-0.50578 0.42242 0.84510-0.89874
  -4   1   0 1285.49 99.9323   6-0.17479-0.12215-0.05179 0.13540-0.99863 0.94480
   4   1   0 1375.35 117.258   8 0.16238 0.13450-0.00773 0.09134 0.99979-0.94600
  -4   1   0 1371.64 131.104   7-0.15783-0.13917 0.00855 0.07511-0.99968 0.94585
   4  -1   0 1355.47 129.666   8 0.15845 0.13838-0.00615-0.07736 0.99972-0.94593
  -4  -1   0 1335.55 124.647   7-0.16290-0.13404 0.00955-0.09311-0.99978 0.94598
  -5  -1   0 557.179 93.6706   7-0.19871-0.17248 0.01662-0.10017-0.99971 0.93245
   5  -1   0 560.468 96.3732   8 0.19063 0.18040-0.01910-0.06440 0.99977-0.93254
   5   1   0 640.227 92.3460   8 0.20014 0.17097-0.02294 0.10657 0.99955-0.93232
  -5   1   0 521.195 93.0591   7-0.19158-0.17967 0.01520 0.06846-0.99983 0.93253
  -5   1   0 581.086 73.2418   6-0.19404-0.17710 0.00405 0.07955-0.99991 0.93263
  -5  -1   0 203.989 51.1424   9-0.06207-0.30872-0.58877 0.50548 0.78141-0.84841
   5  -1   0 559.801 38.1525   9 0.17943 0.19125-0.06822-0.01528 0.99768-0.93052
   6  -1   0 747.330 46.3105   9 0.25733 0.18761 0.14360-0.22697 0.98638-0.90582
   6  -1   0 799.232 127.274   8 0.22434 0.22092-0.03275-0.05074 0.99849-0.91781
  -6   1   0 788.303 131.366   7-0.22638-0.21910 0.02210 0.06158-0.99869 0.91793
  -6  -1   0 740.854 122.119   7-0.23497-0.21046 0.02381-0.10735-0.99821 0.91749
  -6   1   0 738.366 88.2248   6-0.21681-0.22851 0.07277 0.01080-0.99668 0.91596
   6   1   0 698.022 111.177   8 0.23767 0.20765-0.03817 0.12181 0.99760-0.91691
  -7   1   0 113.253 37.7499   6-0.24190-0.27757 0.15239-0.06885-0.98625 0.89209
   7   1   0 58.3841 54.7713   8 0.27511 0.24446-0.05345 0.13710 0.99389-0.89975
   7  -1   0 73.2838 53.0860   8 0.25895 0.26054-0.04684-0.03665 0.99571-0.90159
   7  -1   0 58.2418 39.4106   2 0.27738 0.24163 0.06898-0.15238 0.99267-0.89866
  -7   1   0 97.9771 63.7879   7-0.26183-0.25790 0.02915 0.05454-0.99615 0.90192
  -7  -1   0 53.1653 58.4870   7-0.27149-0.24818 0.03108-0.11463-0.99521 0.90103
   7   1   0 58.9541 29.3587   2 0.25877 0.26026 0.04673 0.03691 0.99572-0.90171
   8  -1   0 173.348 61.4972   2 0.31944 0.27372 0.12019-0.20356 0.98225-0.87484
   8  -1   0 195.606 85.4860   8 0.29414 0.29957-0.06126-0.02222 0.99132-0.88374
   8   1   0 127.231 81.2333   8 0.31247 0.28132-0.06881 0.15247 0.98838-0.88079
  -8  -1   0 265.866 105.014   7-0.30815-0.28575 0.03841-0.12197-0.99067 0.88302
  -8   1   0 140.905 73.3227   7-0.29767-0.29631 0.03631 0.04737-0.99213 0.88443
   8   1   0 87.1324 63.8110   2 0.29058 0.30259 0.08492-0.00125 0.98994-0.88251
  -8  -1   0 56.7105 34.6417   3-0.29232-0.30160-0.07496-0.00890-0.99055 0.88296
  -8   1   0 116.291 58.1427   3-0.31625-0.27752-0.09554 0.17882-0.98551 0.87800
  -9  -1   0 295.328 92.9264   3-0.32629-0.34184-0.10424 0.02033-0.98306 0.86205
   9   1   0 133.901 73.9492   8 0.34980 0.31823-0.08426 0.16793 0.98098-0.85994
  -9   1   0 238.986 82.5852   3-0.35548-0.31248-0.12971 0.21295-0.97470 0.85378
   9   1   0 398.922 113.881   2 0.32332 0.34398 0.12499-0.04127 0.98103-0.86021
   9  -1   0 366.164 131.633   8 0.32973 0.33821-0.07594-0.00754 0.98520-0.86418
  -9   1   0 199.813 73.8324   7-0.33376-0.33444 0.04356 0.04013-0.98655 0.86537
  -9  -1   0 116.262 57.3552   7-0.34492-0.32321 0.04581-0.12936-0.98450 0.86338
  10  -1   0 229.210 100.755   8 0.36559 0.37657-0.09083 0.00737 0.97726-0.84279
  10   1   0 178.673 98.8121   8 0.38709 0.35517-0.09982 0.18350 0.97161-0.83711
 -10  -1   0 198.051 105.747   3-0.36078-0.38154-0.13437 0.05043-0.97299 0.83856
 -10  -1   0 150.981 86.9705   7-0.38175-0.36060 0.05327-0.13681-0.97664 0.84204
 -10   1   0 314.611 135.945   7-0.37006-0.37239 0.05089 0.03281-0.97932 0.84466
  11  -1   0 35.0229 67.8102   5 0.42699 0.38886 0.14329-0.22720 0.95539-0.80758
 -11  -1   0 -12.452 51.6883   3-0.39567-0.42085-0.16529 0.08133-0.96010 0.81226
  11  -1   0 -127.25 122.139   8 0.40168 0.41472-0.10593 0.02247 0.96738-0.81947
 -11  -1   0 148.347 126.456   7-0.41864-0.39795 0.06076-0.14431-0.96699 0.81890
 -11   1   0 106.638 63.7862   7-0.40649-0.41020 0.05828 0.02541-0.97037 0.82222
  11   1   0 37.1040 55.4810   8 0.42438 0.39213-0.11547 0.19917 0.96014-0.81220
 -12  -1   0 -0.2226 57.2892   7-0.45556-0.43526 0.06832-0.15186-0.95545 0.79387
  12   1   0 262.898 129.431   5 0.43506 0.45476 0.14807-0.06492 0.95224-0.79113
  12   1   0 -8.5808 95.6251   8 0.46164 0.42910-0.13126 0.21496 0.94646-0.78506
  12  -1   0 104.200 66.3033   8 0.43792 0.45272-0.12119 0.03774 0.95544-0.79408
   0  -2   0 4532.40 105.361   8 0.34816-0.34812-0.08358-0.08356 0.98135-0.98133
   0   2   0 4758.57 104.674   8-0.06924 0.06928 0.08356 0.08357 0.96508-0.96509
   0  -2   0 4578.52 134.508   3-0.30241 0.30243-0.08361-0.08364-0.98857 0.98859
   0   2   0 4657.42 151.635   2 0.28946-0.28943 0.08356 0.08357 0.99019-0.99022
   0   2   0 4464.30 168.547   6-0.22028 0.22034 0.08354 0.08356-0.99569 0.99566
   0  -2   0 4461.82 162.190   9 0.17338-0.17342-0.08355-0.08355 0.99649-0.99646
  -1  -2   0 401.773 52.3380   9 0.14125-0.21547-0.16270-0.00440 0.98597-0.99938
   1  -2   0 406.292 41.2698   7 0.12257-0.04828-0.04569-0.12153-0.95278 0.96627
  -1  -2   0 381.522 44.0895   4-0.18629 0.11204-0.01740-0.14987-0.99983 0.98640
   1   2   0 352.076 44.8530   1 0.18842-0.11422 0.01646 0.15081 0.99983-0.98641
   1   2   0 378.898 44.9719   6-0.26087 0.33514 0.21585-0.04884-0.97266 0.98606
   1  -2   0 404.724 45.3540   8 0.18624-0.11203-0.01733-0.14976 0.99984-0.98637
   1  -2   0 387.141 43.8761   9 0.20172-0.12757-0.01047-0.15662 0.99973-0.98626
  -1   2   0 404.905 54.2481   6-0.19692 0.12274 0.01257 0.15458-0.99979 0.98631
  -1   2   0 363.333 39.1351   7-0.19127 0.11703 0.01514 0.15207-0.99984 0.98635
  -1   2   0 459.870 38.0872   2 0.46211-0.53629 0.30506-0.13796 0.90259-0.91605
   2   2   0 1952.77 100.301   7 0.24606-0.09755-0.06896 0.23619-0.90620 0.93309
  -2  -2   0 1702.26 85.8111   7-0.18369 0.03525 0.01365-0.18079-0.99991 0.97304
  -2  -2   0 1777.10 86.8897   4-0.20237 0.05384 0.03009-0.19739-0.99932 0.97243
  -2  -2   0 1659.94 114.655   9 0.10663-0.25502-0.24401 0.07695 0.96730-0.99414
   2  -2   0 1780.57 86.5672   9 0.22403-0.07570 0.04948-0.21655 0.99780-0.97090
  -2   2   0 1754.93 122.102   6-0.18700 0.03856-0.01662 0.18380-0.99984 0.97291
   2   2   0 1696.40 96.0956   1 0.19459-0.04615-0.02323 0.19050 0.99964-0.97276
   2  -2   0 1894.08 121.111   8 0.16046-0.01205-0.00695-0.16012 0.99976-0.97284
   2   2   0 1764.13 70.4258   8 0.18920-0.04075-0.01852 0.18572 0.99980-0.97292
  -2   2   0 1809.37 113.015   7-0.15858 0.01009 0.00870 0.15854-0.99970 0.97276
  -2  -2   0 1778.30 90.1126   6-0.20307 0.05464 0.03094-0.19796-0.99928 0.97242
   2   2   0 1936.22 95.6036   6-0.31799 0.46641 0.43183-0.26492-0.88777 0.91456
   2  -2   0 1674.30 120.981   4-0.10381 0.25226-0.24156 0.07451-0.96762 0.99451
  -3  -2   0 248.567 30.1253   6-0.20770-0.01492 0.04491-0.21192-0.99863 0.95833
  -3  -2   0 232.526 47.0235   9 0.07031-0.29287-0.32524 0.15822 0.94020-0.98046
  -3  -2   0 251.477 29.5298   4-0.20676-0.01600 0.04337-0.21069-0.99872 0.95837
  -3  -2   0 251.642 43.3617   7-0.18442-0.03825 0.01379-0.18093-0.99990 0.95958
  -3   2   0 281.347 54.3240   7-0.16643-0.05631 0.01024 0.15702-0.99984 0.95944
   3   2   0 229.415 35.8372   8 0.18746 0.03522-0.01782 0.18502 0.99982-0.95949
  -3   2   0 234.278 46.9661   6-0.18685-0.03585-0.01705 0.18425-0.99984 0.95944
   3  -2   0 274.883 54.4756   4-0.07011 0.29275-0.32503 0.15808-0.94014 0.98044
   3  -2   0 246.028 27.8825   9 0.23595-0.01345 0.08248-0.24952 0.99497-0.95465
   3  -2   0 229.632 50.1050   8 0.16687 0.05574-0.00953-0.15753 0.99985-0.95950
   3   2   0 219.233 33.0887   1 0.19535 0.02734-0.02825 0.19550 0.99950-0.95917
   4  -2   0 1161.31 127.062   8 0.18580 0.11102-0.01715-0.14991 0.99984-0.94605
  -4  -2   0 1198.09 54.9597   4-0.18709-0.10989-0.01512-0.15218-0.99986 0.94608
   4   2   0 1201.76 77.4157   1 0.18926 0.10769 0.01117 0.15607 0.99990-0.94612
  -4   2   0 1071.48 109.735   6-0.19372-0.10320 0.00311 0.16408-0.99991 0.94607
  -4  -2   0 1117.20 55.0409   6-0.18838-0.10846-0.01256-0.15449-0.99989 0.94614
   4  -2   0 1126.96 50.1037   9 0.22544 0.07119 0.05335-0.22035 0.99753-0.94378
  -4  -2   0 1078.20 108.673   9 0.03280-0.32952-0.40500 0.23805 0.90461-0.95827
   4  -2   0 1209.91 120.909   4-0.03463 0.33145-0.40837 0.24150-0.90327 0.95696
   4   2   0 1241.95 104.820   8 0.21088 0.08603-0.02729 0.19450 0.99917-0.94539
  -4  -2   0 1161.36 110.786   7-0.20561-0.09129 0.01798-0.18513-0.99953 0.94575
  -4   2   0 1215.56 128.353   7-0.18744-0.10956 0.01439 0.15288-0.99988 0.94602
   5   2   0 283.199 56.2502   8 0.24102 0.13012-0.03953 0.20676 0.99734-0.93010
   5   2   0 307.941 36.1038   1 0.17198 0.19920 0.11375 0.05346 0.99346-0.92621
  -5  -2   0 286.481 61.0191   9-0.00558-0.36531-0.48243 0.31554 0.86048-0.92753
  -5  -2   0 254.192 59.3612   7-0.23380-0.13734 0.02357-0.19071-0.99828 0.93104
  -5   2   0 316.707 63.7834   6-0.20568-0.16546 0.03881 0.12836-0.99894 0.93164
   5  -2   0 257.002 70.3738   8 0.21087 0.16015-0.02728-0.13976 0.99917-0.93193
   5  -2   0 262.772 60.8461   4 0.00217 0.36880-0.49015 0.32337-0.85674 0.92378
  -5   2   0 333.239 75.6476   7-0.21436-0.15688 0.01971 0.14758-0.99924 0.93192
  -6  -2   0 1215.71 151.453   7-0.26521-0.18017 0.02983-0.19697-0.99584 0.91514
   6   2   0 1130.23 146.885   2 0.24325 0.20167 0.02834 0.13882 0.99757-0.91699
  -6   2   0 1142.93 129.247   6-0.22136-0.22398 0.08690 0.08024-0.99536 0.91461
   6  -2   0 1234.66 144.503   4 0.04003 0.40510-0.56936 0.40265-0.80019 0.88057
   6  -2   0 1379.94 173.865   8 0.23941 0.20583-0.03887-0.12816 0.99747-0.91679
  -6   2   0 1175.33 154.846   7-0.24443-0.20106 0.02569 0.14162-0.99758 0.91679
  -6  -2   0 1244.26 147.184   9-0.04463-0.40042-0.55690 0.39010 0.80764-0.88805
   6   2   0 1265.72 142.343   8 0.27394 0.17143-0.05297 0.22021 0.99404-0.91334
   6  -2   0 1193.48 88.9730   2 0.28170 0.16317 0.07418-0.24114 0.99183-0.91124
   7  -2   0 260.815 88.4794   8 0.27010 0.24936-0.05140-0.11564 0.99449-0.90037
   7   2   0 251.325 76.8782   8 0.30827 0.21133-0.06708 0.23433 0.98909-0.89494
  -7   2   0 305.008 65.4259   3-0.31785-0.20165-0.09692 0.26379-0.98514 0.89108
   7   2   0 289.958 93.6601   2 0.26792 0.25112 0.05765 0.10953 0.99433-0.90033
  -7   2   0 263.858 59.5509   6-0.23977-0.27975 0.14548 0.02162-0.98745 0.89325
  -7   2   0 223.477 82.6946   7-0.27638-0.24337 0.03206 0.13526-0.99470 0.90044
  -7  -2   0 218.336 72.5216   7-0.29836-0.22124 0.03645-0.20360-0.99204 0.89788
   8   2   0 1557.66 211.700   2 0.29483 0.29836 0.09009 0.07712 0.98895-0.88153
  -8  -2   0 1452.00 202.001   7-0.33257-0.26127 0.04332-0.21047-0.98676 0.87913
   8  -2   0 1521.13 215.887   8 0.30221 0.29146-0.06459-0.10245 0.99008-0.88251
   8   2   0 1505.09 190.928   8 0.34344 0.25042-0.08162 0.24888 0.98238-0.87477
  -8   2   0 1202.07 194.155   7-0.30954-0.28445 0.03869 0.12862-0.99047 0.88274
  -8  -2   0 1266.86 194.002   3-0.29808-0.29592-0.07989-0.08758-0.98944 0.88183
  -8   2   0 1600.35 175.316   6-0.26019-0.33350 0.21348-0.04644-0.97326 0.86560
   9   2   0 277.353 109.009   2 0.32337 0.34396 0.12504 0.04219 0.98102-0.86019
  -9  -2   0 379.687 133.263   3-0.32850-0.33971-0.10615-0.06135-0.98249 0.86145
   9   2   0 331.594 95.3855   8 0.37910 0.28898-0.09646 0.26374 0.97379-0.85273
  -9   2   0 305.329 125.332   7-0.34352-0.32471 0.04553 0.12180-0.98477 0.86356
  -9  -2   0 306.181 98.0834   7-0.36746-0.30061 0.05037-0.21752-0.97989 0.85880
   9  -2   0 282.561 94.6192   8 0.33532 0.33258-0.07825-0.08877 0.98408-0.86307
 -10   2   0 417.522 132.071   7-0.37809-0.36439 0.05252 0.11481-0.97750 0.84281
  10  -2   0 472.141 152.654   8 0.36914 0.37299-0.09231-0.07471 0.97637-0.84192
 -10  -2   0 440.764 141.705   3-0.35997-0.38244-0.13365-0.03387-0.97326 0.83878
 -10  -2   0 279.779 118.926   7-0.40281-0.33949 0.05753-0.22468-0.97135 0.83677
  10   2   0 614.570 154.054   2 0.35313 0.38834 0.16216 0.00511 0.97012-0.83588
  10   2   0 464.248 119.609   8 0.41512 0.32720-0.11158 0.27885 0.96319-0.82867
  11   2   0 333.171 123.664   8 0.45139 0.36517-0.12691 0.29420 0.95045-0.80248
 -11   2   0 315.372 157.778   7-0.41308-0.40362 0.05963 0.10771-0.96856 0.82038
 -11  -2   0 158.699 98.2446   3-0.39224-0.42436-0.16224-0.00531-0.96150 0.81360
  11  -2   0 104.108 76.9569   8 0.40350 0.41285-0.10669-0.06033 0.96683-0.81894
 -11  -2   0 172.862 84.0249   7-0.43851-0.37802 0.06482-0.23197-0.96102 0.81296
 -12  -2   0 -120.46 121.946   7-0.47444-0.41630 0.07220-0.23935-0.94878 0.78723
  12   2   0 42.1085 59.3151   5 0.43310 0.45663 0.14691 0.01977 0.95302-0.79197
 -12  -2   0 -45.903 99.4858   3-0.42513-0.46566-0.19181 0.02423-0.94693 0.78561
   0   3   0 4.57334 8.80090   2 0.32361-0.32359 0.12534 0.12535 0.98094-0.98099
   0  -3   0 4.88856 9.50695   3-0.35058 0.35064-0.12541-0.12547-0.97624 0.97626
   0  -3   0 4.30611 4.05128   8 0.44778-0.44769-0.12537-0.12534 0.95182-0.95180
   0  -3   0 -5.9130 15.4686   4-0.14796 0.14795-0.12538-0.12543-0.99156 0.99160
   0   3   0 -19.186 19.1848   6-0.23352 0.23361 0.12529 0.12535-0.99062 0.99056
   0  -3   0 -25.295 20.8212   9 0.15661-0.15666-0.12532-0.12533 0.99186-0.99182
  -1   3   0 961.146 67.4057   7-0.32165 0.24746 0.04113 0.20965-0.98859 0.97509
   1   3   0 1017.71 96.2952   2 0.26753-0.19332 0.05718 0.19351 0.99439-0.98100
   1  -3   0 1015.59 64.9547   3-0.53540 0.60980-0.29480 0.04409-0.87533 0.88871
  -1   3   0 981.323 74.7542   2 0.43178-0.50596 0.26403-0.01335 0.92638-0.93985
  -1  -3   0 852.936 84.2332   4-0.16128 0.08702-0.08866-0.16220-0.99586 0.98244
   1   3   0 1004.27 94.8610   6-0.26012 0.33444 0.21327 0.03728-0.97331 0.98668
  -1  -3   0 929.704 96.5156   9 0.13554-0.20977-0.17639-0.07426 0.98339-0.99679
   1  -3   0 963.727 87.8224   9 0.17274-0.09862-0.08518-0.16546 0.99635-0.98287
   1   3   0 981.796 95.2607   1 0.17721-0.10303 0.08397 0.16692 0.99645-0.98304
   1  -3   0 894.217 78.4040   8 0.27715-0.20290-0.05428-0.19637 0.99364-0.98016
  -1   3   0 843.675 92.8131   6-0.21661 0.14246 0.07216 0.17855-0.99673 0.98323
  -2   3   0 2310.45 134.132   7-0.24308 0.09462 0.02542 0.22542-0.99767 0.97071
  -2  -3   0 2419.64 133.890   4-0.16796 0.01944-0.06996-0.18093-0.99745 0.97058
   2  -3   0 2327.28 148.050   8 0.22805-0.07963-0.03425-0.21637 0.99827-0.97135
   2   3   0 2268.69 135.746   6-0.29644 0.44493 0.34472-0.09427-0.92970 0.95649
   2  -3   0 2448.76 171.621   4-0.10728 0.25574-0.23272-0.01795-0.97001 0.99692
   2   3   0 2476.89 146.877   1 0.18091-0.03248 0.06229 0.18861 0.99805-0.97118
  -2  -3   0 2440.57 92.4462   7-0.37276 0.22437 0.05144-0.30209-0.97872 0.95187
  -2   3   0 2541.43 172.394   6-0.20808 0.05967 0.04605 0.20470-0.99857 0.97161
  -2  -3   0 2521.69 164.829   9 0.11068-0.25909-0.23469-0.01593 0.96986-0.99668
   2  -3   0 2418.65 130.352   9 0.18208-0.03380-0.06144-0.18918 0.99812-0.97121
   3  -3   0 5874.58 268.098   8 0.21832 0.00430-0.03030-0.22030 0.99882-0.95846
   3  -3   0 5688.62 272.300   4-0.08175 0.30444-0.29666 0.04607-0.95049 0.99082
  -3   3   0 5804.37 270.565   6-0.20637-0.01629 0.04089 0.20987-0.99884 0.95843
  -3  -3   0 5850.06 265.033   9 0.08287-0.30546-0.29759 0.04701 0.95041-0.99066
  -3   3   0 5686.34 244.680   7-0.22743 0.00471 0.02231 0.22856-0.99864 0.95822
   3   3   0 6724.98 238.900   6-0.33834 0.56096 0.52457-0.27423-0.82973 0.86988
   3  -3   0 5862.88 187.668   9 0.18150 0.04093-0.06292-0.18766 0.99803-0.95769
  -3  -3   0 5969.70 197.731   7-0.29207 0.06944 0.03519-0.28589-0.99286 0.95255
   3   3   0 5486.07 216.122   1 0.18064 0.04204 0.06390 0.18698 0.99795-0.95763
  -3  -3   0 5319.24 189.274   4-0.16523-0.05751-0.07760-0.17329-0.99685 0.95652
   3   3   0 5418.72 150.818   8 0.34533-0.12264-0.08240 0.33325 0.98197-0.94163
   4   3   0 1958.79 129.821   1 0.17560 0.12133 0.09329 0.15758 0.99561-0.94184
  -4   3   0 1987.72 64.8071   3-0.38850 0.09163-0.15891 0.40937-0.96298 0.90927
   4  -3   0 1817.29 168.216   8 0.22603 0.07079-0.03343-0.21716 0.99839-0.94459
   4  -3   0 2123.47 179.398   4-0.05361 0.35049-0.36433 0.11385-0.92399 0.97772
   4   3   0 1996.79 120.298   8 0.31247-0.01554-0.06881 0.31965 0.98838-0.93459
  -4  -3   0 1930.09 167.573   9 0.05270-0.34948-0.36318 0.11264 0.92443-0.97810
  -4   3   0 1852.98 160.561   7-0.23436-0.06262 0.02368 0.22721-0.99824 0.94437
   4  -3   0 1938.68 98.1366   9 0.16426 0.13230-0.10641-0.14413 0.99421-0.94045
  -4  -3   0 1948.93 108.737   4-0.14754-0.14940-0.12652-0.12435-0.99141 0.93764
  -4  -3   0 1879.67 135.394   7-0.28234-0.01451 0.03325-0.28395-0.99403 0.94027
  -4   3   0 2112.57 172.947   6-0.21012-0.08679 0.05225 0.19850-0.99820 0.94434
  -5   3   0 1007.55 134.438   7-0.25193-0.11930 0.02718 0.22373-0.99700 0.92966
  -5   3   0 1137.65 132.993   6-0.21818-0.15297 0.07698 0.17376-0.99631 0.92899
  -5   3   0 1085.90 69.1080   3-0.36135-0.00970-0.13487 0.38531-0.97280 0.90565
  -5  -3   0 1045.32 133.035   9 0.02062-0.39157-0.43001 0.17953 0.89145-0.95851
   5  -3   0 984.483 129.951   4-0.02330 0.39436-0.43406 0.18368-0.88983 0.95693
   5   3   0 1225.03 101.635   1 0.16403 0.20716 0.15727 0.09357 0.98741-0.92018
   5   3   0 1104.24 106.774   8 0.31845 0.05272-0.07128 0.32213 0.98732-0.92008
   5  -3   0 1159.32 66.3078   9 0.10941 0.26118-0.23763-0.01291 0.96906-0.90190
   5  -3   0 1079.18 140.242   8 0.24297 0.12805-0.04032-0.21027 0.99718-0.92995
  -5  -3   0 1246.15 78.3375   4-0.09928-0.27178-0.25302 0.00221-0.96437 0.89718
  -5  -3   0 1094.93 120.278   7-0.29428-0.07680 0.03563-0.28635-0.99257 0.92536
   5   3   0 1119.70 143.912   2 0.24757 0.12324 0.03344 0.21726 0.99712-0.92998
  -6  -3   0 248.617 66.6350   9-0.01303-0.43209-0.49699 0.24658 0.85101-0.93145
   6  -3   0 252.886 78.4598   4 0.00886 0.43637-0.50451 0.25423-0.84739 0.92784
   6  -3   0 253.879 80.2568   8 0.26536 0.17987-0.04946-0.20112 0.99503-0.91435
  -6   3   0 215.188 38.8643   3-0.37687-0.06838-0.14857 0.39896-0.96740 0.88683
  -6  -3   0 154.333 47.8675   7-0.31568-0.12964 0.03992-0.29064-0.98954 0.90887
   6   3   0 174.671 51.6596   8 0.33797 0.10744-0.07935 0.33021 0.98354-0.90283
  -6   3   0 202.143 51.8921   6-0.22962-0.21573 0.11286 0.13784-0.99234 0.91156
  -6   3   0 164.375 56.0690   7-0.27535-0.17013 0.03185 0.21908-0.99481 0.91400
   6   3   0 216.042 79.0395   2 0.26358 0.18137 0.05246 0.19824 0.99502-0.91445
   7   3   0 1684.93 175.045   8 0.36380 0.15585-0.09008 0.34095 0.97770-0.88353
   7  -3   0 1740.16 204.295   4 0.04261 0.47678-0.57457 0.32438-0.79601 0.88978
  -7  -3   0 1528.89 210.451   3-0.28665-0.23319-0.07010-0.18098-0.99158 0.89740
   7   3   0 1638.34 212.341   2 0.28335 0.23574 0.07618 0.17454 0.99149-0.89750
   7  -3   0 1762.55 219.680   8 0.29125 0.22819-0.06008-0.19050 0.99174-0.89762
  -7   3   0 1601.03 181.265   6-0.24373-0.27583 0.15838 0.09228-0.98518 0.89094
  -7  -3   0 1783.31 196.996   7-0.34204-0.17750 0.04523-0.29596-0.98504 0.89091
  -7  -3   0 1960.43 216.233   9-0.04803-0.47126-0.56319 0.31285 0.80266-0.89645
  -7   3   0 1428.23 189.623   7-0.30232-0.21741 0.03724 0.21369-0.99150 0.89721
  -8   3   0 367.454 93.4681   6-0.25991-0.33382 0.21257 0.03804-0.97348 0.86579
  -8  -3   0 362.105 104.990   7-0.37134-0.22242 0.05116-0.30188-0.97903 0.87143
  -8   3   0 264.188 100.313   7-0.33163-0.26236 0.04313 0.20782-0.98692 0.87916
   8   3   0 481.792 140.333   2 0.30589 0.28733 0.10357 0.14718 0.98616-0.87874
  -8  -3   0 458.301 140.727   3-0.31144-0.28263-0.09138-0.15973-0.98662 0.87899
   8   3   0 391.373 96.8477   8 0.39309 0.20080-0.10233 0.35321 0.96991-0.86228
   8  -3   0 515.640 134.023   8 0.31952 0.27413-0.07172-0.17885 0.98713-0.87958
   9   3   0 602.486 141.624   2 0.33054 0.33680 0.13393 0.11684 0.97864-0.85782
   9   3   0 527.815 122.963   8 0.42449 0.24364-0.11552 0.36642 0.96011-0.83902
  -9  -3   0 495.792 125.032   7-0.40253-0.26545 0.05748-0.30821-0.97142 0.85035
  -9   3   0 543.277 148.466   7-0.36252-0.30571 0.04937 0.20159-0.98096 0.85972
  -9  -3   0 591.023 157.231   3-0.33822-0.33005-0.11461-0.13652-0.97986 0.85879
   9  -3   0 477.356 138.315   8 0.34946 0.31841-0.08412-0.16645 0.98106-0.86007
 -10  -3   0 81.9591 103.026   3-0.36654-0.37595-0.13944-0.11170-0.97106 0.83655
 -10  -3   0 83.2308 62.6543   7-0.43500-0.30722 0.06410-0.31484-0.96211 0.82756
  10  -3   0 198.473 120.530   8 0.38064 0.36145-0.09711-0.15345 0.97338-0.83894
  10   3   0 86.9768 79.0238   2 0.35683 0.38465 0.16683 0.08396 0.96856-0.83433
 -10   3   0 89.2299 81.0968   7-0.39457-0.34790 0.05587 0.19511-0.97349 0.83876
 -11   3   0 427.830 125.476   7-0.42746-0.38925 0.06256 0.18841-0.96440 0.81618
  11  -3   0 472.034 159.040   8 0.41276 0.40355-0.11058-0.13998 0.96395-0.81608
  11   3   0 770.060 197.918   2 0.38440 0.43122 0.20196 0.04887 0.95551-0.80788
 -11  -3   0 260.979 119.739   3-0.39603-0.42066-0.16562-0.08554-0.95996 0.81201
 -11  -3   0 488.931 139.885   7-0.46837-0.34807 0.07095-0.32168-0.95098 0.80294
 -12  -3   0 -8.7485 62.7987   3-0.42645-0.46444-0.19300-0.05818-0.94629 0.78492
 -12  -3   0 -79.620 61.2496   7-0.50241-0.38825 0.07796-0.32870-0.93790 0.77638
   0  -4   0 3208.89 122.833   8 0.54521-0.54506-0.16717-0.16711 0.90669-0.90670
   0  -4   0 2958.05 187.672   9 0.13943-0.13949-0.16708-0.16710 0.98517-0.98511
   0   4   0 3256.62 137.034   5 0.46707-0.46702 0.16717 0.16709 0.93850-0.93860
   0   4   0 3153.97 198.438   6-0.24636 0.24649 0.16705 0.16715-0.98354 0.98346
   0   4   0 3051.41 198.827   1 0.16215-0.16222 0.16725 0.16727 0.98574-0.98580
   0  -4   0 2802.24 185.793   4-0.13244 0.13241-0.16716-0.16726-0.98479 0.98483
   0   4   0 3292.58 182.675   2 0.35706-0.35704 0.16712 0.16714 0.96846-0.96853
   0  -4   0 3041.94 156.643   3-0.39779 0.39789-0.16720-0.16731-0.95922 0.95924
  -2   4   0 2591.52 199.467   6-0.22551 0.07713 0.09987 0.23442-0.99395 0.96697
  -2  -4   0 2760.58 198.810   9 0.10542-0.25385-0.24677-0.08740 0.96652-0.99332
  -2  -4   0 2569.38 165.782   4-0.14396-0.00457-0.13625-0.19822-0.99000 0.96312
  -2   4   0 2062.67 128.949   2 0.56115-0.70953 0.44901-0.11481 0.78541-0.81229
   2   4   0 2739.38 176.745   6-0.29256 0.44111 0.32987 0.00411-0.93576 0.96251
   2  -4   0 2610.01 162.537   9 0.15405-0.00579-0.13161-0.20254 0.99098-0.96407
   2   4   0 2437.33 173.811   1 0.17002-0.02160 0.12471 0.20980 0.99212-0.96527
  -2   4   0 2472.15 145.257   7-0.34668 0.19827 0.04617 0.28824-0.98416 0.95718
   2  -4   0 2911.70 176.761   8 0.30374-0.15528-0.06521-0.26896 0.98984-0.96291
  -2  -4   0 2672.02 181.637   3-0.28887 0.14032-0.07200-0.26265-0.99118 0.96430
  -3  -4   0 523.571 73.3590   4-0.13941-0.08335-0.14853-0.18594-0.98806 0.94774
  -3  -4   0 516.427 54.5686   7-0.46878 0.24621 0.07103-0.40521-0.95083 0.91056
   3  -4   0 507.115 92.1067   4-0.08210 0.30479-0.29582-0.03839-0.95079 0.99113
   3  -4   0 429.273 61.9222   9 0.15015 0.07226-0.14114-0.19296 0.98957-0.94922
  -3   4   0 520.610 95.1837   6-0.22318 0.00054 0.09255 0.24176-0.99477 0.95433
   3   4   0 464.431 71.1905   6-0.32373 0.54645 0.45675-0.12288-0.87363 0.91375
   3   4   0 454.717 74.2571   1 0.16931 0.05336 0.12862 0.20588 0.99162-0.95131
  -3  -4   0 400.222 79.9133   9 0.08332-0.30594-0.29659-0.03757 0.95076-0.99099
  -3   4   0 540.606 78.9893   7-0.30545 0.08278 0.03787 0.29659-0.99106 0.95062
   3  -4   0 376.411 72.0441   8 0.27937-0.05672-0.05519-0.27895 0.99336-0.95300
  -4  -4   0 811.573 88.9857   4-0.12430-0.17266-0.18865-0.14579-0.98051 0.92674
   4   4   0 941.394 71.9998   8 0.50583-0.20891-0.15016 0.48469 0.92709-0.87325
   4   4   0 1068.26 140.807   2 0.26954 0.02715 0.05959 0.27466 0.99406-0.94037
   4  -4   0 912.338 131.522   4-0.05915 0.35607-0.35125 0.01715-0.92961 0.98335
   4   4   0 974.989 109.934   1 0.16490 0.13203 0.15262 0.18188 0.98816-0.93439
  -4  -4   0 878.273 88.7439   7-0.40090 0.10411 0.05715-0.39137-0.97185 0.91812
   4  -4   0 921.868 86.4967   9 0.13421 0.16230-0.17954-0.15453 0.98277-0.92900
   4   4   0 -65.397 35.7496   6-0.35486 0.65169 0.61390-0.28012-0.75787 0.81134
  -4   4   0 951.474 121.044   7-0.29615-0.00079 0.03600 0.29848-0.99233 0.93843
  -4  -4   0 1008.34 132.868   9 0.05855-0.35536-0.35067 0.01655 0.92986-0.98351
  -4   4   0 824.658 120.848   6-0.22520-0.07170 0.09888 0.23544-0.99406 0.94017
   4  -4   0 911.603 123.059   8 0.27600 0.02082-0.05381-0.28031 0.99378-0.93998
   5   4   0 2414.97 229.609   2 0.27572 0.09513 0.06699 0.26726 0.99298-0.92585
  -5  -4   0 2598.17 229.811   3-0.27907-0.09232-0.06365-0.27107-0.99285 0.92557
  -5  -4   0 2891.17 165.714   4-0.09222-0.27889-0.27073-0.06365-0.95903 0.89183
   5   4   0 2890.02 192.978   1 0.15579 0.21538 0.20024 0.13423 0.97946-0.91224
   5  -4   0 2591.52 228.318   8 0.28446 0.08656-0.05729-0.27683 0.99269-0.92545
   5   4   0 2611.20 154.098   8 0.45000-0.07882-0.12632 0.46083 0.95098-0.88370
   5  -4   0 2366.14 219.770   4-0.03380 0.40492-0.41027 0.07629-0.90231 0.96944
  -5  -4   0 2569.13 179.564   7-0.38451 0.01350 0.05382-0.38806-0.97598 0.90879
  -5   4   0 2198.24 200.816   7-0.30256-0.06863 0.03729 0.29723-0.99146 0.92409
  -5   4   0 2315.84 210.987   6-0.23084-0.14029 0.11674 0.21756-0.99182 0.92447
   5  -4   0 2927.69 125.740   5 0.51092-0.13983 0.19367-0.52832 0.91620-0.84884
  -5  -4   0 2464.37 223.529   9 0.03151-0.40250-0.40768 0.07360 0.90325-0.97030
   5  -4   0 2561.32 136.656   9 0.09776 0.27281-0.26420-0.06984 0.96137-0.89420
   6  -4   0 175.632 65.3527   4-0.00633 0.45164-0.47169 0.13779-0.86822 0.94871
  -6  -4   0 92.7633 36.9630   7-0.38915-0.05609 0.05477-0.38902-0.97485 0.89419
   6   4   0 139.328 45.1431   8 0.43981 0.00563-0.12199 0.45651 0.95476-0.87402
   6   4   0 248.649 82.1207   2 0.28729 0.15770 0.08094 0.25333 0.99066-0.91010
  -6  -4   0 160.449 67.5141   9 0.00249-0.44766-0.46650 0.13249 0.87040-0.95084
  -6  -4   0 171.203 80.2902   3-0.29220-0.15344-0.07486-0.25987-0.99057 0.90983
  -6   4   0 118.413 52.9546   6-0.23949-0.20587 0.14456 0.18972-0.98760 0.90679
  -6   4   0 156.518 67.6358   7-0.31787-0.12759 0.04036 0.29418-0.98920 0.90836
   6  -4   0 102.739 55.8682   8 0.30023 0.14500-0.06377-0.27034 0.99039-0.90972
  -7  -4   0 684.923 149.959   3-0.30973-0.21016-0.08991-0.24483-0.98700 0.89280
  -7  -4   0 649.862 127.642   9-0.02826-0.49110-0.52621 0.19227 0.83077-0.92458
  -7   4   0 699.567 137.306   6-0.25061-0.26897 0.18116 0.15308-0.98069 0.88641
   7  -4   0 658.549 129.016   4 0.02303 0.49645-0.53441 0.20063-0.82667 0.92050
   7  -4   0 550.308 121.069   8 0.32080 0.19863-0.07225-0.26186 0.98690-0.89279
   7   4   0 682.389 143.276   2 0.30290 0.21622 0.09991 0.23436 0.98695-0.89297
  -7   4   0 550.228 118.493   7-0.33868-0.18103 0.04455 0.29001-0.98566 0.89135
  -7  -4   0 743.550 130.715   7-0.40446-0.11501 0.05787-0.39214-0.97091 0.87680
  -8   4   0 -56.837 45.7408   6-0.26374-0.33004 0.22571 0.10847-0.97012 0.86238
  -8   4   0 34.2937 44.9410   7-0.36314-0.23082 0.04949 0.28509-0.98083 0.87303
   8   4   0 17.7053 54.9010   2 0.32162 0.27162 0.12289 0.21140 0.98157-0.87417
  -8  -4   0 59.6491 55.7632   9-0.06053-0.53300-0.58599 0.25212 0.78380-0.89094
   8  -4   0 -36.956 42.9241   8 0.34471 0.24892-0.08215-0.25195 0.98210-0.87456
  -8  -4   0 58.1833 49.7974   7-0.42592-0.16777 0.06225-0.39652-0.96486 0.85728
  -8  -4   0 -26.456 63.1073   3-0.33049-0.26362-0.10789-0.22687-0.98197 0.87431
  -9   4   0 -20.000 34.2604   7-0.39014-0.27808 0.05497 0.27963-0.97460 0.85332
  -9  -4   0 158.003 82.0448   3-0.35373-0.31460-0.12818-0.20658-0.97526 0.85415
  -9  -4   0 2.76259 39.1313   7-0.45126-0.21664 0.06743-0.40172-0.95689 0.83584
   9  -4   0 13.9472 45.3405   8 0.37103 0.29682-0.09310-0.24100 0.97589-0.85491
   9   4   0 122.485 98.8181   2 0.34278 0.32460 0.14917 0.18513 0.97423-0.85341
  10  -4   0 18.2939 64.6154   8 0.39914 0.34292-0.10487-0.22924 0.96814-0.83372
  10   4   0 -55.754 83.5281   2 0.36585 0.37566 0.17825 0.15606 0.96458-0.83035
 -10   4   0 -48.896 90.7689   7-0.41897-0.32349 0.06083 0.27377-0.96689 0.83212
 -10  -4   0 -50.846 35.6160   7-0.47921-0.26293 0.07317-0.40746-0.94701 0.81249
 -10  -4   0 -70.622 96.3768   3-0.37889-0.36367-0.15036-0.18441-0.96666 0.83211
  11   4   0 43.8266 80.0987   2 0.39047 0.42517 0.20980 0.12456 0.95226-0.80463
 -11  -4   0 197.801 120.209   3-0.40556-0.41121-0.17416-0.16062-0.95592 0.80794
  11  -4   0 255.295 139.444   8 0.42864 0.38764-0.11727-0.21682 0.95869-0.81085
 -11   4   0 169.660 87.2526   7-0.44918-0.36752 0.06701 0.26762-0.95758 0.80931
  11   4   0 217.098 107.353   5 0.41942 0.39602 0.13882 0.19491 0.95824-0.81073
   0  -5   0 23.0345 30.6813   9 0.12181-0.12189-0.20884-0.20889 0.97638-0.97630
   0   5   0 -34.223 31.4335   1 0.15406-0.15415 0.20905 0.20909 0.97759-0.97765
   0   5   0 -31.963 30.2734   6-0.25881 0.25897 0.20879 0.20894-0.97441 0.97429
   0  -5   0 -4.3302 9.61419   8 0.64003-0.63981-0.20898-0.20889 0.84317-0.84324
   0   5   0 1.07670 12.2742   5 0.53593-0.53585 0.20898 0.20887 0.90151-0.90167
   0   5   0 13.5223 23.4244   2 0.38979-0.38976 0.20891 0.20894 0.95264-0.95272
   0  -5   0 3.12933 12.0700   3-0.44399 0.44415-0.20899-0.20915-0.93730 0.93730
  -1   5   0 278.113 43.0376   7-0.62711 0.55303 0.10407 0.31377-0.87282 0.85918
  -1   5   0 296.859 58.4893   2 0.45576-0.52993 0.29638 0.12145 0.90794-0.92145
   1   5   0 230.285 59.1264   1 0.15827-0.08411 0.18753 0.23061 0.98202-0.96863
   1  -5   0 238.312 61.1528   9 0.12873-0.05464-0.19256-0.22514 0.98006-0.96656
  -1  -5   0 203.970 57.1172   9 0.11053-0.18479-0.23505-0.18269 0.96976-0.98312
   1  -5   0 250.528 46.5441   8 0.46542-0.39107-0.13287-0.28490 0.94493-0.93148
  -1   5   0 -22.027 20.1901   1 0.14745-0.22178 0.24182 0.17631 0.96985-0.98337
   1  -5   0 272.100 70.5903   4-0.10661 0.18082-0.23442-0.18355-0.96956 0.98304
  -1  -5   0 269.579 61.3093   3-0.37699 0.30281-0.14868-0.26956-0.96735 0.95392
   1  -5   0 241.053 47.7211   3-0.55529 0.62979-0.31413-0.10384-0.85785 0.87119
   1   5   0 248.704 49.7924   5 0.42233-0.34816 0.14053 0.27717 0.95716-0.94384
  -1   5   0 285.037 75.0047   6-0.24768 0.17359 0.17139 0.24641-0.98269 0.96912
   1   5   0 157.542 51.4211   6-0.27468 0.34908 0.26416 0.15348-0.95905 0.97236
   2  -5   0 20.9965 29.0386   8 0.38447-0.23597-0.09872-0.31900 0.97233-0.94542
   2   5   0 25.0583 20.4750   6-0.29521 0.44382 0.33998 0.07754-0.93167 0.95838
  -2   5   0 5.95311 26.1442   6-0.24103 0.09268 0.14955 0.26831-0.98675 0.95974
   2   5   0 -8.0644 15.4495   1 0.15999-0.01159 0.17858 0.23956 0.98372-0.95688
  -2   5   0 20.4471 18.0661   7-0.46470 0.31637 0.07019 0.34776-0.95229 0.92525
   2  -5   0 32.8588 15.8622   4-0.09319 0.24166-0.26831-0.14960-0.95979 0.98670
  -2   5   0 -22.383 19.2860   2 0.54885-0.69724 0.43005-0.01226 0.80430-0.83120
  -2  -5   0 18.8479 23.2332   9 0.09560-0.24404-0.26911-0.14863 0.95985-0.98664
   2  -5   0 34.5293 30.7606   9 0.13028 0.01797-0.18890-0.22877 0.98084-0.95391
  -2  -5   0 36.3032 26.0092   3-0.33880 0.19029-0.11511-0.30319-0.97970 0.95281
   2   5   0 -11.575 21.1801   2 0.32049-0.17209 0.12149 0.29635 0.98193-0.95513
   3   5   0 3064.90 212.434   6-0.31949 0.54228 0.43828-0.02088-0.88420 0.92430
  -3   5   0 2848.07 187.578   7-0.39748 0.17487 0.05646 0.36158-0.97275 0.93226
  -3  -5   0 2657.19 227.507   9 0.07754-0.30018-0.30937-0.10835 0.94619-0.98639
  -3   5   0 2662.24 231.874   6-0.23843 0.01581 0.14107 0.27681-0.98818 0.94771
   3  -5   0 2697.55 233.408   4-0.07672 0.29943-0.30897-0.10884-0.94613 0.98647
   3   5   0 2604.95 226.604   2 0.30688-0.08431 0.10477 0.31306 0.98589-0.94565
   3  -5   0 2574.81 176.727   9 0.12493 0.09745-0.20151-0.21612 0.97807-0.93772
   3  -5   0 2698.54 206.698   8 0.34726-0.12457-0.08320-0.33448 0.98155-0.94119
  -3  -5   0 2692.64 217.629   3-0.31941 0.09658-0.09827-0.32007-0.98476 0.94441
  -3  -5   0 2157.67 174.437   4-0.11783-0.10495-0.20553-0.21251-0.97677 0.93644
   3   5   0 2652.70 208.779   1 0.15902 0.06363 0.18362 0.23451 0.98277-0.94248
   4  -5   0 4.78423 24.4230   4-0.05755 0.35448-0.35504-0.06269-0.92801 0.98176
  -4   5   0 -27.304 35.4961   6-0.23937-0.05749 0.14418 0.27371-0.98767 0.93374
  -4  -5   0 -11.442 25.3312   3-0.31272 0.01559-0.09249-0.32588-0.98633 0.93251
   4   5   0 6.49021 28.5115   2 0.30254-0.00582 0.09947 0.31836 0.98704-0.93336
   4   5   0 7.29010 26.4476   6-0.34518 0.64209 0.55937-0.14207-0.80380 0.85725
  -4  -5   0 37.2780 22.1694   7-0.57263 0.27587 0.09258-0.51027-0.90487 0.85116
  -4   5   0 36.9471 37.8839   7-0.37071 0.07384 0.05103 0.36706-0.97918 0.92524
   4   5   0 15.9986 24.1221   1 0.15498 0.14193 0.20438 0.21375 0.97859-0.92484
   4  -5   0 -16.209 36.5534   8 0.33343-0.03657-0.07747-0.34019 0.98446-0.93067
  -4  -5   0 24.5292 27.3957   9 0.05678-0.35361-0.35446-0.06323 0.92824-0.98187
   4  -5   0 -5.9480 13.5691   9 0.11017 0.18632-0.23586-0.18172 0.96954-0.91577
  -4  -5   0 -9.8796 27.3134   4-0.10429-0.19270-0.24034-0.17766-0.96795 0.91417
  -5  -5   0 1228.49 173.353   9 0.03365-0.40467-0.40322-0.01442 0.90551-0.97253
  -5  -5   0 1649.63 153.658   4-0.07892-0.29223-0.30361-0.11434-0.94806 0.88083
  -5   5   0 1284.44 179.233   6-0.24343-0.12769 0.15737 0.26050-0.98536 0.91798
   5   5   0 1442.82 192.273   2 0.30517 0.06570 0.10268 0.31514 0.98635-0.91924
   5  -5   0 1348.36 170.656   8 0.33350 0.03753-0.07750-0.34015 0.98445-0.91722
  -5   5   0 1381.53 166.080   7-0.36474-0.00640 0.04982 0.36831-0.98048 0.91308
  -5  -5   0 1117.04 164.298   3-0.31490-0.05651-0.09437-0.32402-0.98583 0.91854
  -5  -5   0 1502.98 137.414   7-0.51026 0.13930 0.07959-0.49732-0.93463 0.86746
   5  -5   0 1380.56 184.706   4-0.03597 0.40712-0.40532-0.01230-0.90480 0.97194
   5  -5   0 1518.46 130.828   9 0.08126 0.28931-0.30117-0.11638 0.94915-0.88197
  -6  -5   0 60.9137 51.3087   3-0.32351-0.12216-0.10182-0.31658-0.98376 0.90301
   6  -5   0 3.81453 42.2124   8 0.34246 0.10277-0.08121-0.33642 0.98259-0.90192
  -6   5   0 50.0025 58.3002   6-0.25011-0.19525 0.17948 0.23836-0.98104 0.90019
  -6  -5   0 14.7369 35.4785   9 0.00841-0.45362-0.45469 0.03708 0.87746-0.95788
  -6   5   0 54.1079 37.3342   7-0.37083-0.07458 0.05105 0.36711-0.97915 0.89827
   6   5   0 48.9167 54.7939   2 0.31314 0.13187 0.11244 0.30538 0.98414-0.90359
   6  -5   0 79.5245 55.4859   4-0.01221 0.45756-0.45877 0.04126-0.87591 0.95642
  -6  -5   0 8.07684 21.7576   7-0.48914 0.04397 0.07522-0.49298-0.94322 0.86259
  -7  -5   0 1342.35 206.141   9-0.01872-0.50067-0.50799 0.09045 0.84359-0.93739
  -7   5   0 1295.85 190.340   7-0.38453-0.13513 0.05383 0.36436-0.97597 0.88162
   7   5   0 1585.59 227.864   2 0.32525 0.19389 0.12738 0.29045 0.98041-0.88644
   7  -5   0 1263.72 198.756   8 0.35745 0.16197-0.08744-0.33019 0.97922-0.88513
  -7   5   0 1285.44 191.369   6-0.25905-0.26055 0.20959 0.20822-0.97422 0.87990
   7  -5   0 1411.43 208.671   4 0.01355 0.50601-0.51447 0.09707-0.84068 0.93453
  -7  -5   0 1143.16 190.511   3-0.33689-0.18303-0.11344-0.30495-0.98023 0.88602
   8  -5   0 52.6033 62.4121   8 0.37671 0.21692-0.09546-0.32216 0.97442-0.86690
  -8  -5   0 48.1543 35.8756   9-0.04758-0.54600-0.56237 0.14489 0.80331-0.91046
   8   5   0 117.431 83.1646   2 0.34066 0.25262 0.14652 0.27132 0.97503-0.86763
  -8   5   0 -4.1501 41.2337   6-0.26985-0.32395 0.24702 0.17073-0.96421 0.85642
  -8   5   0 -8.1128 53.4544   7-0.40335-0.19058 0.05764 0.36056-0.97121 0.86337
   8  -5   0 220.305 114.466   4 0.04113 0.55260-0.57159 0.15430-0.79840 0.90558
  -8  -5   0 99.7989 44.4304   3-0.35391-0.24025-0.12833-0.29008-0.97520 0.86753
  -9  -5   0 208.267 102.101   3-0.37376-0.29463-0.14582-0.27259-0.96852 0.84739
  -9   5   0 123.867 68.8615   6-0.28220-0.38579 0.29131 0.12637-0.95011 0.82884
  -9  -5   0 -135.74 77.3091   9-0.07803-0.58974-0.61712 0.19970 0.75598-0.87646
   9   5   0 171.626 77.0425   2 0.35868 0.30873 0.16917 0.24867 0.96777-0.84696
  -9   5   0 137.709 80.1387   7-0.42577-0.24242 0.06221 0.35601-0.96491 0.84358
   9  -5   0 239.212 100.920   8 0.39910 0.26874-0.10484-0.31279 0.96815-0.84720
  10   5   0 136.619 89.3901   5 0.41249 0.32876 0.13472 0.28252 0.96075-0.82671
 -10   5   0 -49.823 54.6281   7-0.45080-0.29164 0.06734 0.35091-0.95705 0.82222
  10   5   0 49.0112 45.9177   2 0.37883 0.36272 0.19482 0.22305 0.95836-0.82414
 -10  -5   0 15.7283 77.8810   3-0.39585-0.34677-0.16547-0.25295-0.96003 0.82545
  11   5   0 423.788 164.897   2 0.40072 0.41495 0.22308 0.19481 0.94649-0.79887
   0   6   0 1330.40 119.506   5 0.60295-0.60282 0.25080 0.25064 0.85399-0.85423
   0   6   0 1040.97 149.601   6-0.27085 0.27105 0.25053 0.25075-0.96318 0.96302
   0  -6   0 1142.11 119.973   3-0.48913 0.48934-0.25077-0.25099-0.91013 0.91008
   0  -6   0 918.300 136.063   4-0.10020 0.10012-0.25070-0.25092-0.96504 0.96506
   0  -6   0 1035.83 140.411   9 0.10375-0.10384-0.25059-0.25066 0.96542-0.96533
   1  -6   0 310.248 61.4768   3-0.58406 0.65862-0.34264-0.15896-0.82942 0.84269
  -1  -6   0 233.939 76.9633   9 0.09513-0.16940-0.27016-0.23111 0.95952-0.97286
   1   6   0 194.791 61.0222   6-0.28404 0.35848 0.29805 0.20314-0.94775 0.96100
   1   6   0 191.650 51.7382   2 0.38256-0.30833 0.19961 0.30182 0.95646-0.94312
   1   6   0 229.677 67.7827   1 0.14899-0.07485 0.23430 0.26748 0.97174-0.95835
   1  -6   0 286.510 56.9221   8 0.55955-0.48513-0.17342-0.32791 0.89846-0.88505
   1  -6   0 282.656 85.6589   4-0.09257 0.16676-0.26986-0.23172-0.95931 0.97277
  -1  -6   0 189.590 55.6288   3-0.42663 0.35250-0.19318-0.30871-0.94619 0.93273
   1  -6   0 230.547 69.9728   9 0.10836-0.03428-0.24005-0.26118 0.96840-0.95488
  -1   6   0 211.564 59.5223   2 0.47787-0.55205 0.32685 0.17456 0.88838-0.90190
  -1   6   0 168.478 68.2015   6-0.26131 0.18726 0.21735 0.28400-0.97228 0.95868
   1   6   0 230.427 55.7679   5 0.49366-0.41943 0.18319 0.31807 0.92548-0.91223
  -1  -6   0 275.142 73.6612   4-0.10410 0.02977-0.24081-0.26081-0.96782 0.95439
  -2   6   0 1607.68 197.381   6-0.25531 0.10700 0.19693 0.30447-0.97722 0.95016
   2  -6   0 1471.26 157.343   9 0.10815 0.04008-0.24052-0.26067 0.96827-0.94133
  -2   6   0 1699.64 127.737   7-0.59342 0.44515 0.09696 0.40454-0.89335 0.86622
  -2  -6   0 1499.60 179.617   9 0.08308-0.23154-0.29712-0.20416 0.95058-0.97734
   2  -6   0 1713.47 152.352   8 0.46827-0.31969-0.13408-0.36718 0.94377-0.91689
   2   6   0 1679.72 180.231   6-0.30076 0.44942 0.36150 0.13958-0.92249 0.94915
   2   6   0 1496.38 174.406   1 0.15019-0.00180 0.22836 0.27341 0.97318-0.94634
   2  -6   0 1709.90 196.780   4-0.08171 0.23015-0.29677-0.20474-0.95046 0.97736
  -2  -6   0 1446.74 164.803   4-0.10362-0.04496-0.24204-0.25959-0.96748 0.94060
  -2  -6   0 1549.82 165.305   3-0.38761 0.23913-0.15812-0.34385-0.96333 0.93642
  -2   6   0 2063.24 175.407   2 0.55284-0.70123 0.43615 0.06522 0.79835-0.82527
   2   6   0 1546.42 178.097   2 0.35700-0.20858 0.16704 0.33437 0.96849-0.94171
   3  -6   0 60.6313 39.8771   4-0.06798 0.29067-0.33017-0.17127-0.93815 0.97849
   3   6   0 108.502 54.3541   6-0.32039 0.54324 0.44216 0.05879-0.88203 0.92207
  -3   6   0 66.1742 27.3647   6-0.25260 0.03003 0.18780 0.31363-0.97926 0.93875
  -3  -6   0 30.8877 29.3784   9 0.06805-0.29069-0.33015-0.17111 0.93827-0.97845
   3  -6   0 36.3536 37.3791   9 0.10196 0.12040-0.25467-0.24647 0.96424-0.92387
   3  -6   0 0.81884 26.0423   8 0.42003-0.19729-0.11364-0.38758 0.96159-0.92125
  -3  -6   0 53.9719 41.9239   4-0.09780-0.12501-0.25676-0.24485-0.96328 0.92293
   3   6   0 78.5043 40.7212   2 0.34208-0.11950 0.14830 0.35311 0.97449-0.93427
   3   6   0 19.1081 21.9738   1 0.14903 0.07362 0.23409 0.26767 0.97179-0.93149
  -3  -6   0 96.6033 31.3735   3-0.36516 0.14236-0.13823-0.36379-0.97153 0.93116
  -3   6   0 76.8933 36.4104   7-0.50096 0.27842 0.07766 0.42392-0.93850 0.89795
  -4   6   0 1695.87 213.755   6-0.25287-0.04398 0.18870 0.31275-0.97906 0.92510
   4   6   0 2036.80 227.008   2 0.33544-0.03871 0.14003 0.36137 0.97693-0.92327
   4   6   0 2084.85 205.522   6-0.34152 0.63853 0.54051-0.03967-0.81816 0.87156
   4  -6   0 1848.43 168.247   9 0.08797 0.20850-0.28624-0.21486 0.95430-0.90053
   4  -6   0 1956.27 199.899   8 0.39659-0.09969-0.10379-0.39741 0.96889-0.91511
  -4   6   0 1894.99 179.610   7-0.45624 0.15944 0.06846 0.43321-0.95522 0.90121
   4  -6   0 1601.11 210.955   4-0.05165 0.34860-0.36894-0.13241-0.92196 0.97570
  -4  -6   0 2101.42 231.024   9 0.05036-0.34721-0.36815-0.13310 0.92222-0.97582
  -4  -6   0 1781.51 200.804   3-0.35459 0.05748-0.12893-0.37311-0.97499 0.92115
   5   6   0 207.298 94.3244   2 0.33532 0.03557 0.13988 0.36151 0.97697-0.90988
   5  -6   0 141.914 68.3805   8 0.38858-0.01751-0.10044-0.40074 0.97119-0.90397
  -5   6   0 108.993 56.8002   6-0.25578-0.11531 0.19852 0.30292-0.97685 0.90942
   5  -6   0 31.7967 42.2896   4-0.03299 0.40417-0.41212-0.08913-0.90137 0.96851
  -5  -6   0 151.382 61.0156   9 0.03032-0.40136-0.41012-0.09110 0.90200-0.96900
  -5  -6   0 13.6282 30.4921   3-0.35273-0.01867-0.12730-0.37476-0.97557 0.90826
  -5   6   0 89.4205 35.2893   7-0.43711 0.06604 0.06453 0.43718-0.96146 0.89399
   6  -6   0 745.467 148.693   8 0.39080 0.05445-0.10137-0.39979 0.97056-0.88991
   6  -6   0 435.849 127.422   4-0.01218 0.45757-0.45884-0.04230-0.87587 0.95638
  -6  -6   0 652.148 149.011   9 0.00814-0.45338-0.45523-0.04595 0.87714-0.95754
  -6   6   0 662.677 126.441   7-0.43319-0.01215 0.06373 0.43803-0.96267 0.88173
  -6   6   0 523.424 127.922   6-0.26103-0.18432 0.21640 0.28502-0.97253 0.89163
   6   6   0 660.053 151.728   2 0.34037 0.10468 0.14615 0.35523 0.97514-0.89461
  -6  -6   0 700.609 138.461   3-0.35740-0.08827-0.13140-0.37067-0.97409 0.89332
   7  -6   0 18.8950 34.8792   8 0.40012 0.11932-0.10527-0.39588 0.96785-0.87377
   7   6   0 70.6851 43.6153   2 0.34953 0.16965 0.15763 0.34375 0.97159-0.87763
  -7  -6   0 41.6466 34.2380   9-0.01599-0.50344-0.50272 0.00158 0.84717-0.94095
  -7   6   0 20.1813 39.4518   7-0.43906-0.08054 0.06494 0.43686-0.96084 0.86643
  -7   6   0 1.13115 48.7975   6-0.26831-0.25128 0.24159 0.25979-0.96577 0.87140
  -7  -6   0 11.5446 66.0065   3-0.36709-0.15287-0.13992-0.36215-0.97087 0.87663
   7  -6   0 -29.727 35.0037   4 0.01063 0.50897-0.50829 0.00726-0.84486 0.93873
  -8  -6   0 1165.68 226.005   3-0.38066-0.21354-0.15193-0.35013-0.96600 0.85829
  -8  -6   0 1171.35 225.086   9-0.04193-0.55169-0.55190 0.05083 0.81155-0.91869
   8  -6   0 1058.34 201.710   8 0.41456 0.17908-0.11134-0.38981 0.96337-0.85586
   8   6   0 814.196 173.035   2 0.36204 0.23127 0.17342 0.32797 0.96630-0.85892
  -8   6   0 958.641 188.293   6-0.27731-0.31651 0.27355 0.22777-0.95607 0.84822
   8  -6   0 841.067 191.375   4 0.03532 0.55849-0.55976 0.05885-0.80772 0.91491
  -8   6   0 936.694 181.445   7-0.45159-0.14227 0.06750 0.43433-0.95678 0.84888
  -9   6   0 -24.863 88.9616   6-0.28777-0.38025 0.31187 0.18939-0.94271 0.82138
   9   6   0 136.361 98.2006   2 0.37728 0.29016 0.19284 0.30856 0.95913-0.83834
  -9  -6   0 -17.620 60.8300   3-0.39734-0.27111-0.16678-0.33528-0.95942 0.83825
  -9  -6   0 9.63611 35.3425   9-0.06953-0.59827-0.60213 0.10111 0.76968-0.89016
   9   6   0 19.4193 61.0406   5 0.41817 0.24893 0.13808 0.36270 0.95870-0.83812
  -9   6   0 -13.065 75.2099   7-0.46884-0.19929 0.07105 0.43081-0.95081 0.82943
  10   6   0 365.205 161.677   2 0.39478 0.34679 0.21538 0.28603 0.94988-0.81567
  10  -6   0 413.371 152.976   8 0.45400 0.28804-0.12802-0.37314 0.94945-0.81509
 -10   6   0 125.105 72.6976   7-0.48956-0.25282 0.07531 0.42656-0.94305 0.80817
   0  -7   0 -35.232 35.8663   4-0.08346 0.08336-0.29246-0.29274-0.95194 0.95193
   0   7   0 16.2196 20.5898   2 0.45289-0.45286 0.29248 0.29253 0.91029-0.91040
   0  -7   0 7.84329 23.7512   9 0.08523-0.08533-0.29235-0.29244 0.95223-0.95212
   0   7   0 23.6152 27.2917   6-0.28247 0.28271 0.29226 0.29256-0.94978 0.94955
   0  -7   0 17.1178 32.9126   3-0.53309 0.53337-0.29255-0.29285-0.87726 0.87714
   1   7   0 122.865 49.6587   6-0.29370 0.36818 0.33422 0.25051-0.93402 0.94721
  -1  -7   0 63.1842 42.7627   4-0.08596 0.01160-0.28629-0.29893-0.95401 0.94056
  -1  -7   0 85.1866 39.1375   3-0.47451 0.40043-0.23713-0.34841-0.91961 0.90610
  -1   7   0 37.8912 63.6321   6-0.27414 0.20013 0.26220 0.32270-0.95966 0.94600
  -1   7   0 48.4126 36.3708   2 0.50192-0.57610 0.36080 0.22420 0.86393-0.87745
   1  -7   0 4.97090 22.8797   9 0.08814-0.01407-0.28586-0.29888 0.95443-0.94090
  -1  -7   0 31.0517 26.8633   9 0.07861-0.15289-0.30702-0.27779 0.94704-0.96036
   1  -7   0 95.2887 43.1024   4-0.07754 0.15171-0.30697-0.27820-0.94685 0.96030
   1   7   0 74.9353 42.0980   2 0.41693-0.34270 0.24433 0.34068 0.93649-0.92317
   2  -7   0 587.856 95.4480   8 0.55370-0.40506-0.17087-0.41395 0.90187-0.87503
  -2  -7   0 442.951 112.693   9 0.06876-0.21723-0.32860-0.25623 0.93888-0.96562
  -2   7   0 489.088 118.649   6-0.26869 0.12040 0.24293 0.34202-0.96539 0.93828
   2   7   0 488.158 110.075   6-0.30770 0.45640 0.38913 0.19548-0.90973 0.93632
  -2  -7   0 479.239 103.117   3-0.43530 0.28687-0.20105-0.38457-0.94186 0.91492
   2  -7   0 570.485 133.908   4-0.06862 0.21705-0.32862-0.25650-0.93876 0.96564
   2   7   0 393.783 106.099   2 0.39209-0.24367 0.21189 0.37311 0.95138-0.92461
  -2  -7   0 663.100 129.878   4-0.08450-0.06410-0.28989-0.29532-0.95281 0.92589
   2  -7   0 572.767 110.152   9 0.08667 0.06155-0.28915-0.29555 0.95332-0.92637
   2   7   0 619.849 103.175   5 0.49706-0.34870 0.18525 0.39945 0.92371-0.89707
   3  -7   0 2811.15 231.805   9 0.07987 0.14248-0.30424-0.28042 0.94805-0.90768
   3  -7   0 2624.72 273.202   4-0.05698 0.27967-0.35638-0.22867-0.92743 0.96775
   3   7   0 2742.51 271.526   2 0.37637-0.15378 0.19167 0.39331 0.95958-0.91938
   3  -7   0 2845.11 228.985   8 0.49621-0.27342-0.14603-0.43874 0.93161-0.89130
   3   7   0 2810.68 234.081   5 0.45678-0.23433 0.16101 0.42359 0.94314-0.90307
  -3  -7   0 2329.16 232.149   3-0.41070 0.18794-0.17878-0.40689-0.95366 0.91326
  -3  -7   0 2778.67 280.411   9 0.05607-0.27873-0.35599-0.22883 0.92758-0.96773
   3   7   0 3212.24 274.643   6-0.32399 0.54690 0.45788 0.12661-0.87296 0.91294
  -3   7   0 3013.00 297.767   6-0.26596 0.04342 0.23342 0.35157-0.96805 0.92749
  -3  -7   0 2975.27 261.009   4-0.07832-0.14452-0.30507-0.28011-0.94754 0.90717
  -4  -7   0 124.500 80.1370   9 0.04082-0.33768-0.38827-0.19654 0.91286-0.96643
   4  -7   0 -11.629 54.9674   4-0.04290 0.33984-0.38935-0.19563-0.91257 0.96630
   4   7   0 12.1508 37.7905   2 0.36808-0.07131 0.18109 0.40389 0.96355-0.90991
   4  -7   0 -94.732 60.0319   9 0.06635 0.23011-0.33385-0.25075 0.93680-0.88301
  -4   7   0 18.5036 48.1184   6-0.26576-0.03105 0.23273 0.35228-0.96824 0.91422
   4   7   0 -79.430 72.7418   6-0.34159 0.63867 0.54084 0.04353-0.81792 0.87125
  -4  -7   0 -12.806 49.3449   3-0.39710 0.10001-0.16657-0.41913-0.95952 0.90565
  -4  -7   0 -22.716 47.2899   4-0.06631-0.23075-0.33416-0.25097-0.93658 0.88275
   4   7   0 -51.677 35.9259   5 0.43407-0.13752 0.14748 0.43703 0.95264-0.89915
   4  -7   0 62.1124 24.6554   8 0.46411-0.16716-0.13231-0.45242 0.94547-0.89171
   5   7   0 306.785 110.925   2 0.36580 0.00512 0.17819 0.40677 0.96460-0.89753
  -5  -7   0 82.0402 54.0215   9 0.02327-0.39432-0.42462-0.16018 0.89437-0.96135
  -5   7   0 94.0490 40.1245   6-0.26786-0.10322 0.24003 0.34497-0.96621 0.89872
   5  -7   0 -25.613 63.9073   4-0.02656 0.39774-0.42672-0.15817-0.89378 0.96090
  -5  -7   0 132.135 62.5820   3-0.39188 0.02049-0.16192-0.42381-0.96164 0.89431
   5  -7   0 141.674 73.7916   8 0.44852-0.07740-0.12568-0.45902 0.95154-0.88435
   5   7   0 155.037 60.8040   5 0.42367-0.05303 0.14132 0.44312 0.95665-0.88976
   6   7   0 266.608 100.075   2 0.36843 0.07663 0.18154 0.40342 0.96339-0.88288
  -6  -7   0 135.716 60.0205   9 0.00360-0.44884-0.46430-0.12046 0.87174-0.95210
  -6   7   0 242.354 103.594   6-0.27201-0.17333 0.25465 0.33033-0.96196 0.88100
   6   7   0 97.4416 62.5111   5 0.42217 0.02258 0.14044 0.44396 0.95722-0.87691
   6  -7   0 44.0909 37.8375   8 0.44419 0.00110-0.12385-0.46083 0.95315-0.87253
   6  -7   0 230.065 100.738   4-0.00812 0.45354-0.46775-0.11702-0.87059 0.95110
  -6  -7   0 107.614 73.6196   3-0.39316-0.05252-0.16306-0.42268-0.96113 0.88032
  -7   7   0 97.1895 105.479   6-0.27799-0.24160 0.27600 0.30895-0.95527 0.86084
  -7  -7   0 3.61310 48.5970   3-0.39954-0.12042-0.16876-0.41698-0.95850 0.86423
   7   7   0 -39.392 84.6716   5 0.42728 0.09157 0.14347 0.44089 0.95528-0.86157
  -7   7   0 -5.7164 38.6247   7-0.50151-0.01803 0.07778 0.50761-0.93827 0.84380
  -7  -7   0 9.92236 68.7535   9-0.01803-0.50142-0.50665-0.07807 0.84451-0.93825
   7  -7   0 42.6838 69.1363   8 0.44789 0.07158-0.12542-0.45925 0.95178-0.85772
   7   7   0 -27.596 63.5391   2 0.37510 0.14411 0.19004 0.39491 0.96021-0.86627
   7  -7   0 178.640 110.655   4 0.01227 0.50737-0.51177-0.07290-0.84252 0.93637
   8   7   0 99.7523 112.331   2 0.38511 0.20825 0.20287 0.38208 0.95514-0.84777
   8  -7   0 196.277 90.8213   8 0.45748 0.13618-0.12950-0.45518 0.94810-0.84062
  -8   7   0 206.004 105.735   6-0.28555-0.30827 0.30363 0.28127-0.94574 0.83783
  -8   7   0 50.6380 65.0255   7-0.50722-0.08658 0.07896 0.50647-0.93591 0.82794
  -8  -7   0 191.860 115.244   9-0.04148-0.55217-0.55107-0.03361 0.81220-0.91931
   8   7   0 112.855 102.389   5 0.43744 0.15552 0.14949 0.43483 0.95129-0.84418
  -8  -7   0 99.4068 72.6532   3-0.40997-0.18425-0.17813-0.40761-0.95398 0.84624
   8  -7   0 128.810 99.9846   4 0.03452 0.55934-0.55814-0.02642-0.80897 0.91616
   9  -7   0 135.184 89.0502   8 0.47152 0.19633-0.13547-0.44920 0.94243-0.82153
  -9   7   0 -27.469 47.4163   7-0.51884-0.14922 0.08137 0.50409-0.93093 0.80947
  -9   7   0 97.9433 81.6965   6-0.29447-0.37357 0.33718 0.24765-0.93282 0.81142
  -9  -7   0 85.7061 110.559   9-0.06664-0.60120-0.59697 0.01236 0.77427-0.89472
   9   7   0 114.834 74.1812   5 0.45152 0.21557 0.15788 0.42641 0.94543-0.82492
   9   7   0 -67.891 95.4362   2 0.39788 0.26959 0.21940 0.36555 0.94812-0.82734
   0   8   0 5110.46 348.785   2 0.48317-0.48314 0.33426 0.33432 0.88329-0.88342
   0  -8   0 4734.09 375.254   4-0.06629 0.06615-0.33421-0.33458-0.93656 0.93652
   0   8   0 4830.91 380.409   6-0.29364 0.29392 0.33400 0.33438-0.93411 0.93381
   0  -8   0 4571.89 352.504   9 0.06623-0.06634-0.33409-0.33421 0.93670-0.93657
  -1  -8   0 72.3387 60.6514   4-0.06769-0.00671-0.33085-0.33795-0.93789 0.92440
  -1   8   0 -36.708 35.5212   6-0.28629 0.21231 0.30635 0.36210-0.94475 0.93102
  -1  -8   0 15.1166 36.2962   9 0.06119-0.13547-0.34501-0.32333 0.93224-0.94553
   1  -8   0 3.12894 43.2555   4-0.06171 0.13585-0.34515-0.32362-0.93214 0.94555
   1  -8   0 -48.714 51.7165   9 0.06781 0.00625-0.33068-0.33758 0.93806-0.92451
   1   8   0 -9.6475 30.2142   2 0.44995-0.37570 0.28847 0.38012 0.91266-0.89936
   1   8   0 -15.389 29.3968   6-0.30336 0.37789 0.37177 0.29650-0.91787 0.93099
  -1  -8   0 8.78462 22.0508   3-0.52074 0.44674-0.28071-0.38847-0.88720 0.87361
   2  -8   0 16.8065 44.6892   4-0.05432 0.20272-0.36268-0.30606-0.92472 0.95157
  -2  -8   0 -6.5270 47.7700   4-0.06546-0.08319-0.33620-0.33259-0.93577 0.90882
  -2  -8   0 55.0508 46.6382   3-0.48183 0.33347-0.24395-0.42532-0.91495 0.88794
  -2   8   0 -59.683 76.0593   6-0.28130 0.13306 0.28803 0.38047-0.95124 0.92407
   2   8   0 -12.976 46.4541   6-0.31529 0.46405 0.42044 0.24772-0.89390 0.92042
   2  -8   0 -35.273 31.0520   9 0.06534 0.08285-0.33603-0.33219 0.93592-0.90895
  -2  -8   0 -3.9221 30.1588   9 0.05309-0.20157-0.36234-0.30602 0.92481-0.95151
   2   8   0 -26.414 38.4100   2 0.42592-0.27750 0.25623 0.41234 0.93048-0.90373
  -3   8   0 138.625 68.2965   6-0.27863 0.05611 0.27829 0.39025-0.95452 0.91389
   3  -8   0 267.267 89.0764   4-0.04437 0.26704-0.38593-0.28274-0.91418 0.95446
   3   8   0 171.770 69.0629   5 0.51894-0.29644 0.19857 0.46958 0.91165-0.87167
   3  -8   0 282.636 85.9437   9 0.05805 0.16428-0.35175-0.31641 0.92940-0.88902
   3   8   0 256.892 80.8156   6-0.32905 0.55202 0.48059 0.18744-0.85913 0.89903
   3   8   0 127.990 83.5679   2 0.40979-0.18718 0.23494 0.43362 0.94102-0.90084
  -3  -8   0 275.435 99.9957   4-0.05896-0.16393-0.35169-0.31706-0.92942 0.88901
  -3  -8   0 340.858 116.274   9 0.04228-0.26495-0.38520-0.28316 0.91433-0.95445
  -3  -8   0 181.278 83.8242   3-0.45576 0.23306-0.21979-0.44955-0.93080 0.89035
  -4  -8   0 303.185 100.570   3-0.43980 0.14276-0.20517-0.46422-0.93952 0.88561
   4   8   0 171.782 95.5329   2 0.40028-0.10350 0.22251 0.44605 0.94674-0.89311
  -4   8   0 254.797 92.6698   6-0.27811-0.01868 0.27642 0.39214-0.95513 0.90105
  -4  -8   0 388.177 115.562   9 0.02903-0.32589-0.41280-0.25557 0.90061-0.95414
   4   8   0 408.907 114.584   5 0.49154-0.19496 0.18191 0.48615 0.92657-0.87316
   4  -8   0 306.760 110.367   4-0.03209 0.32902-0.41418-0.25442-0.90032 0.95402
   5  -8   0 132.184 71.3334   4-0.01764 0.38883-0.44672-0.22179-0.88282 0.94991
   5  -8   0 30.7957 54.0448   8 0.51230-0.14112-0.15295-0.51529 0.92395-0.85681
  -5   8   0 79.3316 82.3831   6-0.27958-0.09147 0.28178 0.38678-0.95336 0.88580
   5   8   0 -22.930 71.4306   5 0.47639-0.10571 0.17277 0.49521 0.93411-0.86728
  -5  -8   0 -15.743 38.6929   9 0.01351-0.38458-0.44442-0.22393 0.88341-0.95034
   5   8   0 86.2182 79.9788   2 0.39630-0.02536 0.21735 0.45119 0.94902-0.88197
  -5  -8   0 158.556 94.8221   3-0.43182 0.06045-0.19789-0.47151-0.94362 0.87625
  -6  -8   0 1395.87 248.112   9-0.00407-0.44120-0.47945-0.18887 0.86237-0.94269
   6   8   0 1393.12 241.383   5 0.47037-0.02559 0.16916 0.49877 0.93696-0.85673
  -6   8   0 1271.01 220.138   6-0.28290-0.16243 0.29383 0.37471-0.94923 0.86821
   6   8   0 1380.66 249.536   2 0.39697 0.04813 0.21821 0.45032 0.94865-0.86816
   6  -8   0 1246.95 214.915   8 0.50175-0.05641-0.14840-0.51981 0.92903-0.84844
  -6  -8   0 1182.56 224.437   3-0.43018-0.01549-0.19640-0.47301-0.94444 0.86360
   6  -8   0 1145.75 224.370   4-0.00117 0.44660-0.48294-0.18548-0.86130 0.94177
   7   8   0 105.042 80.0981   5 0.47129 0.04759 0.16971 0.49816 0.93653-0.84290
  -7  -8   0 -41.870 96.7513   9-0.02358-0.49589-0.51730-0.15100 0.83712-0.93083
   7  -8   0 86.0555 96.0800   8 0.49997 0.01954-0.14764-0.52056 0.92986-0.83585
   7   8   0 55.8596 80.3144   2 0.40152 0.11773 0.22413 0.44439 0.94601-0.85210
  -7   8   0 89.0104 94.8274   6-0.28783-0.23174 0.31211 0.35641-0.94262 0.84812
  -7  -8   0 162.593 98.7716   3-0.43364-0.08632-0.19955-0.46987-0.94270 0.84839
   7  -8   0 -38.517 55.6240   4 0.01722 0.50245-0.52224-0.14607-0.83531 0.92914
  -8   8   0 -62.934 93.5601   6-0.29422-0.29960 0.33623 0.33224-0.93321 0.82522
   8  -8   0 4.57684 84.4790   4 0.03742 0.55647-0.56407-0.10412-0.80436 0.91152
  -8  -8   0 117.168 107.742   9-0.04491-0.54876-0.55744-0.11083 0.80723-0.91430
   8   8   0 4.46074 49.8511   5 0.47761 0.11538 0.17351 0.49432 0.93352-0.82649
   8  -8   0 -48.862 79.9940   8 0.50475 0.08894-0.14969-0.51850 0.92760-0.82017
  -8  -8   0 85.6454 93.4358   3-0.44125-0.15299-0.20648-0.46294-0.93877 0.83098
  -9   8   0 192.886 115.713   6-0.30187-0.36618 0.36589 0.30251-0.92053 0.79904
   0   9   0 -23.033 36.8180   6-0.30436 0.30469 0.37572 0.37619-0.91606 0.91567
   0  -9   0 16.4803 65.0037   4-0.04865 0.04847-0.37597-0.37642-0.91879 0.91871
   0  -9   0 -8.0229 39.6081   9 0.04673-0.04685-0.37585-0.37599 0.91871-0.91855
  -1  -9   0 79.3856 58.3094   9 0.04298-0.11727-0.38375-0.36812 0.91502-0.92828
  -1   9   0 190.097 107.951   6-0.29780 0.22388 0.35001 0.40199-0.92747 0.91365
   1  -9   0 157.715 81.6881   9 0.04721 0.02684-0.37483-0.37695 0.91918-0.90560
   1   9   0 111.821 92.1692   2 0.48171-0.40748 0.33221 0.41996 0.88471-0.87142
  -1  -9   0 67.5365 54.2406   4-0.04915-0.02529-0.37480-0.37758-0.91933 0.90578
   1   9   0 118.327 85.9478   6-0.31285 0.38743 0.41024 0.34157-0.89922 0.91225
   1  -9   0 57.9538 38.1208   4-0.04519 0.11928-0.38406-0.36832-0.91507 0.92842
   2  -9   0 14.7589 43.5222   4-0.03905 0.18741-0.39825-0.35409-0.90829 0.93509
   2   9   0 239.522 107.528   6-0.32313 0.47195 0.45411 0.29759-0.87518 0.90160
   2  -9   0 -93.556 61.0947   9 0.04391 0.10427-0.38178-0.36995 0.91594-0.88895
  -2  -9   0 169.671 81.2612   9 0.03634-0.18482-0.39765-0.35425 0.90829-0.93496
  -2  -9   0 60.1052 57.7974   4-0.04628-0.10242-0.38151-0.37084-0.91625 0.88925
   2   9   0 46.8565 56.5319   2 0.45860-0.31016 0.30025 0.45191 0.90557-0.87885
  -3   9   0 408.904 133.983   6-0.29065 0.06816 0.32265 0.42945-0.93860 0.89789
  -3  -9   0 517.688 129.942   3-0.50017 0.27751-0.26116-0.49183-0.90251 0.86199
  -3  -9   0 585.883 147.039   4-0.03947-0.18347-0.39727-0.35505-0.90877 0.86830
   3   9   0 696.316 159.443   6-0.33487 0.55788 0.50775 0.24383-0.84139 0.88120
  -3  -9   0 701.951 172.629   9 0.02709-0.24976-0.41677-0.33513 0.89854-0.93862
   3  -9   0 555.028 134.640   9 0.03617 0.18615-0.39801-0.35366 0.90811-0.86771
   3  -9   0 510.959 143.730   4-0.03049 0.25313-0.41782-0.33447-0.89845 0.93867
   3   9   0 582.890 176.720   2 0.44230-0.21969 0.27815 0.47401 0.91862-0.87845
  -4   9   0 248.267 139.924   6-0.28991-0.00685 0.31988 0.43223-0.93967 0.88550
   4  -9   0 171.293 83.3225   4-0.01969 0.31661-0.44214-0.31008-0.88539 0.93903
  -4  -9   0 178.535 88.9076   3-0.48242 0.18541-0.24449-0.50855-0.91457 0.86060
   4   9   0 166.247 111.068   2 0.43193-0.13513 0.26424 0.48791 0.92627-0.87266
  -4  -9   0 102.449 91.5915   9 0.01548-0.31234-0.44045-0.31145 0.88566-0.93914
  -5   9   0 -44.073 57.8475   6-0.29093-0.08011 0.32371 0.42841-0.93819 0.87055
  -5  -9   0 -66.026 46.8984   9 0.00169-0.37276-0.46808-0.28382 0.86943-0.93632
   5   9   0 54.2428 102.923   2 0.42663-0.05567 0.25718 0.49495 0.92999-0.86295
  -5  -9   0 72.8788 55.7052   3-0.47216 0.10083-0.23495-0.51812-0.92107 0.85364
   5  -9   0 83.6482 67.1015   4-0.00681 0.37799-0.47062-0.28153-0.86887 0.93591
   6   9   0 154.772 108.623   5 0.52061-0.07579 0.19958 0.55187 0.91069-0.83055
  -6  -9   0 26.0290 70.8955   9-0.01412-0.43115-0.49911-0.25279 0.84960-0.92988
  -6   9   0 4.60666 66.9593   6-0.29356-0.15174 0.33370 0.41841-0.93423 0.85312
   6   9   0 -7.2516 97.7951   2 0.42567 0.01944 0.25591 0.49620 0.93065-0.85018
  -6  -9   0 42.1083 81.3016   3-0.46803 0.02239-0.23112-0.52197-0.92359 0.84269
   6  -9   0 21.1986 78.1699   4 0.00801 0.43742-0.50271-0.24935-0.84858 0.92900
   7   9   0 59.0628 81.1918   5 0.51766 0.00126 0.19779 0.55361 0.91239-0.81885
   0 -10   0 311.794 128.839   4-0.03054 0.03032-0.41771-0.41826-0.89850 0.89835
   0 -10   0 141.465 88.6124   9 0.02670-0.02682-0.41758-0.41776 0.89811-0.89793
   0  10   0 311.275 121.608   6-0.31458 0.31495 0.41745 0.41801-0.89548 0.89499
  -1 -10   0 121.355 51.4620   4-0.03026-0.04423-0.41834-0.41762-0.89818 0.88457
   1  10   0 3.91852 57.4826   6-0.32205 0.39666 0.44933 0.38603-0.87794 0.89087
  -1  10   0 49.8015 112.442   6-0.30873 0.23484 0.39333 0.44220-0.90769 0.89377
   1 -10   0 -93.149 96.1474   9 0.02624 0.04781-0.41854-0.41676 0.89761-0.88401
   1 -10   0 90.7030 78.2384   4-0.02800 0.10205-0.42346-0.41251-0.89550 0.90879
  -2  10   0 -129.17 99.9349   6-0.30456 0.15639 0.37655 0.45906-0.91567 0.88832
   2  10   0 14.1059 71.9818   6-0.33095 0.47981 0.48938 0.34586-0.85354 0.87985
   2  10   0 51.5855 66.9212   2 0.49011-0.34168 0.34402 0.49172 0.87638-0.84966
  -2 -10   0 -18.556 36.2083   4-0.02680-0.12194-0.42617-0.40977-0.89407 0.86700
  -2 -10   0 12.8888 65.4006   9 0.01863-0.16711-0.43407-0.40136 0.88922-0.91585
   2 -10   0 -65.061 46.4716   4-0.02292 0.17125-0.43490-0.40105-0.88937 0.91611
   2 -10   0 114.181 79.0249   9 0.02221 0.12597-0.42679-0.40845 0.89321-0.86620
   3  10   0 3.34029 64.0548   2 0.47389-0.25126 0.32131 0.51442 0.89210-0.85195
  -3 -10   0 96.6951 70.1798   9 0.01072-0.23338-0.45007-0.38538 0.88016-0.92020
   3 -10   0 -11.220 64.5297   4-0.01554 0.23815-0.45139-0.38451-0.88017 0.92033
   4  10   0 -3.3188 44.5652   2 0.46294-0.16612 0.30619 0.52952 0.90188-0.84829
  -4 -10   0 -0.2216 41.4107   9 0.00051-0.29737-0.47043-0.36503 0.86799-0.92144
   4 -10   0 -72.447 75.2681   4-0.00600 0.30289-0.47241-0.36345-0.86779 0.92137
  -4  10   0 -53.180 71.5099   6-0.30119 0.00445 0.36319 0.47249-0.92174 0.86747
   5  10   0 15.1166 80.9696   2 0.45662-0.08564 0.29755 0.53816 0.90723-0.84021
  -5 -10   0 -85.099 83.9034   3-0.51258 0.14128-0.27292-0.56382-0.89346 0.82594
   0 -11   0 160.414 118.521   9 0.00609-0.00622-0.45933-0.45954 0.87472-0.87449
   0  11   0 25.9055 79.0705   6-0.32428 0.32469 0.45917 0.45983-0.87220 0.87159
   1 -11   0 589.858 174.432   9 0.00479 0.06924-0.46192-0.45688 0.87317-0.85953
  -1 -11   0 417.991 161.524   4-0.01092-0.06361-0.46159-0.45795-0.87425 0.86056
   1  11   0 424.981 150.041   6-0.33085 0.40551 0.48886 0.43003-0.85387 0.86666
  12   0  -1 125.256 76.9236   8 0.53373 0.33924-0.16220 0.16220 0.91296-0.84982
  12   0  -1 121.660 110.837   5 0.53256 0.33977 0.20691-0.20710 0.90358-0.84064
 -12   0   1 141.382 131.843   7-0.53456-0.33827 0.08464-0.08467-0.92384 0.86043
  11   0  -1 -29.554 73.1141   5 0.50681 0.29135 0.19117-0.19135 0.91847-0.86895
  11   0  -1 -138.09 93.9598   8 0.50784 0.29090-0.15102 0.15102 0.92612-0.87643
 -11   0   1 -82.391 113.750   7-0.50859-0.29000 0.07924-0.07928-0.93533 0.88541
 -10   0   1 -5.8409 39.5195   3-0.48081-0.24364-0.24300 0.24279-0.91561 0.87926
  10   0  -1 -43.382 63.8246   5 0.48299 0.24100 0.17675-0.17690 0.93088-0.89478
  10   0  -1 -8.8682 64.6686   8 0.48391 0.24060-0.14076 0.14075 0.93714-0.90089
 -10   0   1 105.832 83.6532   7-0.48461-0.23974 0.07428-0.07433-0.94497 0.90853
  -9   0   1 18.3019 40.1755   3-0.45976-0.19050-0.22347 0.22330-0.92850 0.90558
   9   0  -1 23.4617 40.8597   2 0.45639 0.19332 0.29724-0.29700 0.90742-0.88455
   9   0  -1 59.3692 53.8301   8 0.46261 0.18767-0.13167 0.13165 0.94607-0.92327
   9   0  -1 -17.307 45.2309   5 0.46179 0.18802 0.16402-0.16414 0.94090-0.91823
  -9   0   1 50.5576 71.5075   7-0.46326-0.18683 0.06990-0.06994-0.95279 0.92983
  -8   0   1 52.0376 38.4476   3-0.44220-0.13386-0.20734 0.20722-0.93826 0.92877
   8   0  -1 33.0373 44.9627   2 0.43910 0.13648 0.27384-0.27363 0.92103-0.91157
   8   0  -1 68.6855 60.4521   8 0.44491 0.13114-0.12415 0.12413 0.95289-0.94354
   8   0  -1 91.9033 53.3090   5 0.44418 0.13148 0.15350-0.15359 0.94853-0.93929
  -8   0   1 52.5268 40.0056   7-0.44556-0.13030 0.06627-0.06632-0.95876 0.94928
   7   0  -1 29.6128 41.1593   8 0.43232 0.06950-0.11883 0.11880 0.95742-0.96151
  -7   0   1 21.1192 26.8281   3-0.42960-0.07226-0.19587 0.19577-0.94473 0.94867
   7   0  -1 12.1371 32.4592   5 0.43164 0.06986 0.14604-0.14611 0.95359-0.95778
   7   0  -1 -10.687 26.9295   2 0.42659 0.07485 0.25712-0.25694 0.93002-0.93397
  -7   0   1 11.9462 34.2577   7-0.43301-0.06860 0.06370-0.06375-0.96272 0.96670
   6   0  -1 758.675 109.335   8 0.42731 0.00029-0.11671 0.11667 0.95915-0.97670
   6   0  -1 728.397 95.5092   2 0.42111 0.00619 0.24985-0.24970 0.93374-0.95111
   6   0  -1 723.717 108.711   5 0.42660 0.00073 0.14306-0.14310 0.95554-0.97317
   6   0  -1 524.936 60.6419   4 0.03859 0.38882-0.56645 0.56663-0.80249 0.78478
  -6   0   1 1101.04 92.0046   9-0.03402-0.39333-0.53713 0.53733 0.82278-0.80506
  -6   0   1 740.332 107.609   7-0.42809 0.00072 0.06269-0.06275-0.96421 0.98165
   5   0  -1 1.60913 25.9912   5 0.43320-0.08002 0.14697-0.14698 0.95298-0.98405
   5   0  -1 2.98434 7.37257   4-0.06746 0.42082-0.33142 0.33149-0.93766 0.90662
  -5   0   1 10.5176 23.7600   3-0.43029 0.07686-0.19649 0.19647-0.94439 0.97521
   5   0  -1 -0.4103 15.6267   8 0.43406-0.08068-0.11956 0.11951 0.95681-0.98781
   5   0  -1 -1.3142 19.5432   2 0.42634-0.07319 0.25679-0.25668 0.93019-0.96099
   5   0  -1 2.83859 8.06513   6-0.06706 0.42048-0.33325 0.33336-0.93698 0.90600
  -5   0   1 9.90908 11.4374   9 0.06763-0.42091-0.33105 0.33111 0.93791-0.90686
  -5   0   1 30.5246 29.0892   7-0.43510 0.08196 0.06412-0.06418-0.96208 0.99297
  -4   0   1 5826.87 155.020   9 0.18349-0.46268-0.05785 0.05776 0.99833-0.95385
   4   0  -1 5307.38 241.206   8 0.46026-0.18112-0.13068 0.13061 0.94700-0.99145
   4   0  -1 6356.32 158.413   6-0.18373 0.46275-0.02610 0.02628-0.99965 0.95528
  -4   0   1 5942.63 259.182   7-0.46194 0.18304 0.06963-0.06970-0.95325 0.99758
  -4   0   1 5881.13 235.345   3-0.45452 0.17532-0.21865 0.21866-0.93150 0.97576
   4   0  -1 6276.90 227.171   2 0.44851-0.16950 0.28653-0.28643 0.91380-0.95804
   4   0  -1 5961.54 152.845   4-0.18378 0.46312-0.02472 0.02466-0.99969 0.95520
   4   0  -1 5853.35 241.840   5 0.45891-0.17989 0.16228-0.16226 0.94220-0.98672
   3   0  -1 11.6978 15.1326   2 0.49751-0.29267 0.35451-0.35444 0.86868-0.92636
  -3   0   1 3.53897 12.3053   7-0.52437 0.31970 0.08252-0.08259-0.92849 0.98623
  -3   0   1 -0.0929 5.18185   3-0.50957 0.30460-0.27007 0.27011-0.89570 0.95340
   3   0  -1 0.01687 5.99261   6-0.29551 0.50023 0.34116-0.34097-0.93118 0.87347
  -3   0   1 -6.4218 2.99998   9 0.30345-0.50847 0.28567-0.28584 0.94890-0.89088
   3   0  -1 0.24007 5.37793   4-0.29530 0.50052 0.34200-0.34214-0.93090 0.87285
   3   0  -1 -2.2759 7.89375   8 0.52094-0.31602-0.15667 0.15659 0.91963-0.97754
   3   0  -1 7.94932 15.0683   5 0.51800-0.31315 0.19799-0.19794 0.91219-0.97018
   2   0  -1 4167.88 172.854   8 0.64453-0.51384-0.21100 0.21092 0.83956-0.91094
  -2   0   1 4486.08 163.391   2 0.48995-0.62063 0.34379-0.34382 0.87654-0.80541
   2   0  -1 4176.59 162.566   5 0.63581-0.50515 0.27179-0.27170 0.82560-0.89706
  -2   0   1 3121.67 147.162   7-0.65393 0.52346 0.10979-0.10987-0.85467 0.92582
  -2   0   1 4139.52 164.415   3-0.61404 0.48329-0.37313 0.37321-0.79517 0.86631
  -4   0  -1 740.505 108.427   7 0.13145-0.44649-0.04737 0.04752-0.94998 0.79783
   4   0   1 684.443 97.6403   8-0.13047 0.44504 0.10710-0.10695 0.94568-0.79373
  -5   0  -1 17.4627 26.3079   7 0.04130-0.43059-0.03016 0.03032-0.97467 0.80908
   5   0   1 0.40722 42.8983   8-0.04113 0.42993 0.07266-0.07250 0.97255-0.80714
   6   0   1 100.132 51.8109   8 0.03331 0.42970 0.04357-0.04339 0.98800-0.80913
  -6   0  -1 67.2071 28.1907   7-0.03349-0.43005-0.01573 0.01590-0.98884 0.80980
  -7   0  -1 75.9212 40.7730   7-0.09873-0.43905-0.00304 0.00321-0.99653 0.80403
   7   0   1 -3.2764 43.3911   8 0.09844 0.43880 0.01783-0.01764 0.99635-0.80403
   8   0   1 114.594 87.5032   8 0.15738 0.45407-0.00572 0.00591 0.99969-0.79392
  -8   0  -1 18.1563 34.6070   7-0.15767-0.45433 0.00852-0.00834-0.99968 0.79373
   9   0   1 235.577 138.215   8 0.21207 0.47363-0.02777 0.02797 0.99912-0.77989
  -9   0  -1 241.299 110.028   7-0.21228-0.47395 0.01930-0.01912-0.99931 0.77989
  12  -1  -1 368.499 129.058   8 0.52344 0.34948-0.15775 0.07418 0.91835-0.85522
  12   1  -1 445.733 158.827   8 0.55250 0.32052-0.17034 0.25395 0.90256-0.83941
 -12  -1   1 327.761 126.396   7-0.54604-0.32674 0.08702-0.17067-0.91839 0.85501
 -12   1   1 867.901 250.768   7-0.53080-0.34207 0.08385-0.00027-0.92558 0.86214
  12   1  -1 364.258 124.907   5 0.51872 0.35351 0.19843-0.11508 0.91178-0.84889
  11  -1  -1 138.358 71.0974   5 0.53054 0.26772 0.20568-0.28942 0.90480-0.85524
 -11  -1   1 236.776 100.418   3-0.48503-0.31369-0.24694 0.16314-0.91286 0.86306
  11   1  -1 237.971 123.452   8 0.52727 0.27152-0.15940 0.24299 0.91637-0.86667
  11  -1  -1 349.935 149.274   8 0.49767 0.30101-0.14665 0.06308 0.93093-0.88125
  11   1  -1 198.547 100.436   5 0.49319 0.30488 0.18291-0.09953 0.92573-0.87624
 -11   1   1 219.211 111.589   7-0.50501-0.29361 0.07850 0.00507-0.93683 0.88689
 -11  -1   1 136.578 62.5203   7-0.52061-0.27793 0.08174-0.16538-0.93015 0.88026
  10  -1  -1 101.675 51.9021   5 0.50764 0.21646 0.19168-0.27540 0.91802-0.88188
 -10  -1   1 103.296 66.2062   3-0.46173-0.26281-0.22529 0.14152-0.92735 0.89098
  10  -1  -1 -50.368 64.1327   8 0.47382 0.25064-0.13645 0.05286 0.94147-0.90523
  10   1  -1 -49.912 67.4464   8 0.50422 0.22033-0.14946 0.23305 0.92786-0.89161
  10   1  -1 -37.634 60.3179   5 0.46953 0.25438 0.16865-0.08525 0.93736-0.90129
 -10   1   1 125.817 69.2595   7-0.48120-0.24318 0.07358 0.00998-0.94626 0.90981
 -10  -1   1 3.26517 45.2687   7-0.49731-0.22700 0.07691-0.16056-0.93998 0.90356
   9   1  -1 -15.874 56.2704   5 0.44833 0.20141 0.15597-0.07255 0.94679-0.92414
  -9  -1   1 21.4660 30.0963   3-0.44077-0.20956-0.20605 0.12231-0.93901 0.91607
  -9   1   1 19.3862 43.4445   3-0.49373-0.15646-0.25510 0.33845-0.90701 0.88413
   9  -1  -1 4.76768 23.8085   5 0.48773 0.16219 0.17961-0.26331 0.92852-0.90582
   9   1  -1 60.7463 68.7083   8 0.48413 0.16618-0.14085 0.22443 0.93704-0.91424
   9  -1  -1 -30.384 64.7581   8 0.45248 0.19776-0.12736 0.04378 0.95004-0.92724
   9   1  -1 66.8430 63.3057   2 0.43145 0.21826 0.26360-0.17983 0.92661-0.90373
  -9   1   1 -9.3691 46.0051   7-0.46000-0.19013 0.06923 0.01435-0.95393 0.93095
  -9  -1   1 57.4636 36.5690   7-0.47687-0.17319 0.07270-0.15634-0.94789 0.92494
   8  -1  -1 1524.94 150.296   2 0.48592 0.08967 0.33810-0.42142 0.88060-0.87118
   8   1  -1 1622.02 181.047   2 0.41399 0.16159 0.24046-0.15674 0.93838-0.92890
  -8   1   1 1466.30 156.240   3-0.47846-0.09754-0.24082 0.32421-0.91711 0.90765
   8  -1  -1 1599.44 172.261   5 0.47201 0.10373 0.17014-0.25382 0.93619-0.92692
  -8  -1   1 1472.74 179.161   3-0.42298-0.15315-0.18986 0.10616-0.94797 0.93846
  -8  -1   1 1615.76 197.934   7-0.46037-0.11545 0.06930-0.15295-0.95380 0.94432
   8   1  -1 1360.65 177.881   8 0.46816 0.10792-0.13404 0.21760 0.94382-0.93447
   8   1  -1 1659.74 199.367   5 0.43047 0.14511 0.14535-0.06190 0.95405-0.94483
  -8   1   1 1524.51 198.844   7-0.44237-0.13351 0.06561 0.01795-0.95979 0.95029
   8  -1  -1 1569.44 201.585   8 0.43455 0.14147-0.11977 0.03617 0.95663-0.94728
   7  -1  -1 70.8583 34.3881   5 0.46239 0.03918 0.16438-0.24803 0.94063-0.94480
  -7   1   1 47.5114 21.1212   7-0.42977-0.07186 0.06303 0.02052-0.96371 0.96767
   7  -1  -1 64.2503 26.6430   8 0.42139 0.08041-0.11421 0.03060 0.96114-0.96524
   7  -1  -1 111.121 35.9520   2 0.47807 0.02338 0.32712-0.41046 0.88820-0.89219
   7   1  -1 91.9533 38.4612   5 0.41723 0.08419 0.13753-0.05403 0.95904-0.96325
  -7  -1   1 91.2326 40.1001   9-0.01666-0.48497-0.50401 0.42068 0.84630-0.84197
  -7   1   1 223.930 63.2955   6-0.33494-0.16640 0.50811-0.42487-0.84115 0.84501
  -7  -1   1 58.8700 40.2287   3-0.40953-0.09239-0.17773 0.09406-0.95418 0.95811
   7  -1  -1 103.768 36.9863   4 0.01599 0.48571-0.51963 0.43634-0.83712 0.83280
   7   1  -1 66.9461 45.5007   8 0.45811 0.04374-0.12977 0.21332 0.94785-0.95195
  -7  -1   1 141.547 58.7151   7-0.44953-0.05206 0.06708-0.15072-0.95747 0.96145
   7   1  -1 76.6822 32.3150   2 0.40057 0.10088 0.22289-0.13920 0.94657-0.95051
   6   1  -1 1409.32 145.657   2 0.39280 0.03450 0.21280-0.12913 0.95099-0.96835
  -6   1   1 1661.00 130.788   6-0.32641-0.10077 0.46862-0.38537-0.86653 0.88385
  -6  -1   1 1173.57 106.940   9 0.04933-0.47685-0.37033 0.28688 0.92123-0.90356
   6  -1  -1 1498.77 164.470   8 0.41511 0.01247-0.11157 0.02795 0.96320-0.98073
   6  -1  -1 1405.37 139.117   5 0.46204-0.03464 0.16416-0.24779 0.94079-0.95841
   6   1  -1 1336.81 142.296   8 0.45702-0.02940-0.12930 0.21285 0.94828-0.96584
  -6  -1   1 1406.63 152.856   7-0.44712 0.01977 0.06659-0.15023-0.95826 0.97570
   6   1  -1 1257.44 145.032   5 0.41063 0.01665 0.13362-0.05011 0.96141-0.97905
   6  -1  -1 1330.85 111.865   4-0.04955 0.47716-0.37385 0.29045-0.91975 0.90210
  -6   1   1 1444.43 131.484   3-0.47039 0.04278-0.23330 0.31678-0.92216 0.93955
  -6   1   1 1338.40 158.539   7-0.42453-0.00285 0.06196 0.02157-0.96527 0.98269
   6  -1  -1 1482.07 121.387   2 0.48047-0.05317 0.33049-0.41386 0.88590-0.90331
   5   1  -1 335.267 71.6452   5 0.41396-0.06083 0.13560-0.05203 0.96022-0.99131
   5  -1  -1 272.582 47.2570   4-0.11559 0.46909-0.21135 0.12780-0.97540 0.94436
   5  -1  -1 275.619 43.3679   2 0.49947-0.14631 0.35730-0.44070 0.86659-0.89743
  -5   1   1 293.388 52.5218   6-0.32167-0.03135 0.44766-0.36442-0.87890 0.90967
   5  -1  -1 300.022 56.9008   5 0.47657-0.12333 0.17288-0.25648 0.93402-0.96509
  -5  -1   1 258.405 44.6498   9 0.11716-0.47054-0.21969 0.13611 0.97374-0.94267
  -5   1   1 249.451 49.8800   3-0.48706 0.13366-0.24884 0.33235-0.91151 0.94235
  -5  -1   1 402.298 76.4935   7-0.45803 0.10491 0.06882-0.15246-0.95461 0.98549
  -5   1   1 306.556 66.2846   7-0.43062 0.07748 0.06321 0.02031-0.96345 0.99432
   5   1  -1 256.308 57.8738   8 0.47018-0.11680-0.13490 0.21844 0.94299-0.97400
   5  -1  -1 331.407 71.7609   8 0.41928-0.06592-0.11333 0.02970 0.96184-0.99282
  -5  -1   1 203.918 52.1761   3-0.40401 0.05055-0.17277 0.08918-0.95659 0.98741
   5   1  -1 284.481 59.4732   2 0.39316-0.03999 0.21327-0.12961 0.95079-0.98158
   4  -1  -1 10979.8 266.379   2 0.54543-0.26644 0.42483-0.50827 0.80929-0.85357
  -4   1   1 9194.38 262.699   3-0.53075 0.25156-0.29032 0.37385-0.87918 0.92346
  -4  -1   1 8847.03 314.144   3-0.41964 0.14041-0.18684 0.10329-0.94955 0.99382
   4   1  -1 8348.77 299.314   2 0.40553-0.12651 0.22936-0.14573 0.94363-0.98786
  -4   1   1 9187.98 268.424   6-0.32214 0.04329 0.44971-0.36646-0.87772 0.92194
   4  -1  -1 8835.88 276.324   5 0.51656-0.23749 0.19711-0.28069 0.91302-0.95754
   4   1  -1 9367.23 303.201   8 0.50763-0.22849-0.15093 0.23448 0.92622-0.97069
   4   1  -1 9022.52 320.934   5 0.43293-0.15395 0.14681-0.06321 0.95309-0.99762
   4  -1  -1 8974.19 330.423   8 0.44017-0.16103-0.12215 0.03851 0.95462-0.99906
  -4  -1   1 8761.90 308.462   7-0.49139 0.21251 0.07569-0.15932-0.94233 0.98666
  -4  -1   1 9000.54 257.733   9 0.18617-0.46539-0.05097-0.03270 0.99869-0.95418
  -4   1   1 8783.56 329.400   7-0.45523 0.17633 0.06825 0.01526-0.95556 0.99987
   4  -1  -1 8844.05 255.044   4-0.18108 0.46046-0.03253-0.05116-0.99947 0.95498
  -4   1   1 9049.58 217.964   1 0.18396-0.46307 0.04394 0.03976 0.99902-0.95469
  -3   1   1 171.371 33.2258   3-0.62010 0.41513-0.37941 0.46296-0.78758 0.84532
  -3   1   1 169.585 25.8764   2 0.35876-0.56364 0.16927-0.08575 0.96773-0.91007
  -3   1   1 168.747 40.7815   7-0.51231 0.30765 0.08002 0.00347-0.93375 0.99149
  -3  -1   1 124.489 29.1146   9 0.25430-0.45934 0.13481-0.21853 0.98788-0.92989
   3  -1  -1 131.012 29.2529   4-0.24362 0.44880 0.15945-0.24325-0.98501 0.92702
  -3   1   1 138.984 33.4309   6-0.32907 0.12441 0.48068-0.39743-0.85907 0.91672
  -3   1   1 136.010 26.0326   1 0.21972-0.42462-0.21227 0.29595 0.97628-0.91847
  -3  -1   1 142.722 33.9109   7-0.56550 0.36083 0.09109-0.17472-0.90862 0.96637
   3  -1  -1 138.159 41.0224   8 0.48954-0.28460-0.14317 0.05951 0.93464-0.99254
  -3  -1   1 130.130 33.4930   3-0.45728 0.25230-0.22119 0.13767-0.92993 0.98764
   3   1  -1 112.248 28.7430   8 0.58909-0.38418-0.18637 0.26991 0.88005-0.93797
   3   1  -1 137.889 37.3407   2 0.43599-0.23114 0.26967-0.18605 0.92333-0.98101
   3  -1  -1 175.967 34.6521   5 0.60227-0.39741 0.25037-0.33393 0.85454-0.91252
   2   1  -1 30768.0 480.220   2 0.49299-0.36230 0.34808-0.26448 0.87343-0.94455
   2  -1  -1 30853.1 484.179   8 0.58961-0.45889-0.18660 0.10292 0.87971-0.95107
  -2   1   1 31813.8 484.396   7-0.62950 0.49905 0.10458-0.02111-0.87127 0.94241
  -2  -1   1 34156.2 491.242   7-0.71486 0.58437 0.12293-0.20654-0.80654 0.87771
  -3   1  -1 62.9894 34.0133   7 0.21497-0.45577-0.06314 0.14692-0.91949 0.78076
   4  -1   1 5877.47 314.367   8-0.09609 0.41063 0.09390-0.17729 0.95710-0.80517
  -4  -1  -1 5813.82 301.839   7 0.13297-0.44797-0.04766-0.03582-0.94949 0.79738
  -4   1  -1 5974.68 320.724   7 0.10970-0.42477-0.04323 0.12702-0.95670 0.80453
   5   1   1 97.5670 52.0022   8-0.04820 0.43704 0.07541 0.00831 0.97075-0.80533
  -5   1  -1 115.020 60.5696   7 0.02656-0.41588-0.02733 0.11112-0.97792 0.81230
   5  -1   1 61.5846 30.7320   8-0.01877 0.40751 0.06396-0.14733 0.97785-0.81246
  -5  -1  -1 74.1557 29.5719   7 0.03875-0.42800-0.02967-0.05380-0.97525 0.80969
   6   1   1 28.9374 23.3322   8 0.03300 0.43006 0.04370 0.04004 0.98794-0.80906
  -6   1  -1 -16.860 39.9428   6-0.09631-0.36715-0.26149 0.34539-0.96190 0.78280
  -6  -1  -1 84.9027 50.6425   7-0.03837-0.42513-0.01478-0.06868-0.98956 0.81056
   6  -1   1 4.78916 32.3084   8 0.04773 0.41524 0.03790-0.12126 0.99026-0.81142
  -6   1  -1 -30.637 27.4943   7-0.04362-0.41994-0.01376 0.09757-0.99032 0.81125
   7   1   1 1154.51 173.665   8 0.10251 0.43477 0.01621 0.06754 0.99671-0.80437
  -7   1  -1 1001.41 177.331   7-0.10564-0.43216-0.00169 0.08549-0.99708 0.80456
  -7   1  -1 785.579 116.931   6-0.13393-0.40371-0.16427 0.24816-0.98534 0.79283
   7  -1   1 1037.83 177.422   8 0.10729 0.42990 0.01431-0.09767 0.99711-0.80481
  -7  -1  -1 1215.54 185.756   7-0.10503-0.43270-0.00181-0.08165-0.99704 0.80458
   8  -1   1 1468.12 218.877   8 0.16215 0.44926-0.00763-0.07573 0.99979-0.79404
   8   1   1 1212.22 190.547   8 0.16448 0.44703-0.00857 0.09233 0.99982-0.79402
  -8   1  -1 1186.86 205.130   7-0.16224-0.44980 0.00942 0.07440-0.99977 0.79378
  -8  -1  -1 1310.69 200.838   7-0.16490-0.44706 0.00994-0.09339-0.99982 0.79390
  -9   1  -1 25.7492 67.0574   7-0.21507-0.47121 0.01985 0.06396-0.99921 0.77975
   9   1   1 278.241 111.711   8 0.22133 0.46442-0.03152 0.11530 0.99866-0.77941
   9  -1   1 314.222 117.624   8 0.21372 0.47192-0.02844-0.05491 0.99905-0.77985
  -9  -1  -1 108.931 73.7735   7-0.22014-0.46605 0.02086-0.10430-0.99899 0.77961
 -12  -2   1 -74.289 82.1790   3-0.49929-0.37371-0.26034 0.09294-0.90314 0.83987
  12  -2  -1 129.977 174.283   8 0.52076 0.35211-0.15659-0.01054 0.91972-0.85660
  12   2  -1 101.527 138.769   5 0.51287 0.35928 0.19486-0.02797 0.91511-0.85226
 -12  -2   1 27.9224 49.8834   7-0.56563-0.30707 0.09112-0.25836-0.90855 0.84517
 -11  -2   1 352.603 127.661   7-0.54153-0.25695 0.08609-0.25332-0.92056 0.87067
  11   2  -1 517.013 167.857   5 0.48819 0.30979 0.17989-0.01298 0.92828-0.87884
  11  -2  -1 422.927 135.722   8 0.49577 0.30288-0.14584-0.02131 0.93181-0.88214
  11   2  -1 519.976 162.337   8 0.55709 0.24174-0.17235 0.33955 0.89990-0.85019
 -11  -2   1 399.066 142.739   3-0.47524-0.32358-0.23780 0.07044-0.91915 0.86932
 -11   2   1 641.992 177.778   7-0.50940-0.28924 0.07941 0.08780-0.93499 0.88502
  10  -2  -1 96.7761 67.8916   8 0.47273 0.25169-0.13599-0.03116 0.94192-0.90568
  10   2  -1 8.90852 59.1156   5 0.46543 0.25840 0.16619 0.00075 0.93925-0.90323
 -10  -2   1 25.0834 47.5185   3-0.45298-0.27163-0.21723 0.04989-0.93237 0.89597
  10   2  -1 66.5941 68.6596   8 0.53613 0.18845-0.16324 0.33044 0.91167-0.87541
  10   2  -1 155.532 70.3600   2 0.43859 0.28526 0.27316-0.10584 0.92141-0.88512
 -10   2   1 38.1146 55.1783   7-0.48651-0.23789 0.07468 0.09252-0.94424 0.90776
 -10  -2   1 -5.7848 36.3644   7-0.51987-0.20438 0.08158-0.24882-0.93048 0.89407
   9   2  -1 220.559 78.6677   8 0.51877 0.13158-0.15573 0.32292 0.92073-0.89792
   9   2  -1 177.530 82.5247   5 0.44515 0.20452 0.15408 0.01289 0.94813-0.92552
   9  -2  -1 270.985 114.100   8 0.45226 0.19795-0.12728-0.03988 0.95012-0.92732
   9  -2  -1 267.556 70.5953   5 0.52887 0.12114 0.20465-0.37195 0.90581-0.88308
  -9  -2   1 156.543 71.9522   3-0.43305-0.21736-0.19900 0.03169-0.94300 0.92004
   9   2  -1 130.408 50.2613   2 0.41938 0.23034 0.24757-0.08029 0.93488-0.91199
  -9   2   1 116.216 77.7760   7-0.46636-0.18378 0.07054 0.09665-0.95170 0.92870
  -9  -2   1 158.323 63.0400   7-0.50149-0.14851 0.07777-0.24500-0.93828 0.91535
  -8  -2   1 232.262 81.0171   9-0.02567-0.55020-0.52130 0.35443 0.83430-0.84333
   8  -2  -1 282.563 108.636   8 0.43522 0.14076-0.12005-0.04710 0.95640-0.94704
   8  -2  -1 154.610 61.7775   5 0.51751 0.05833 0.19769-0.36497 0.91248-0.90319
   8   2  -1 238.313 71.1785   8 0.50647 0.06964-0.15043 0.31762 0.92678-0.91743
   8   2  -1 127.275 71.3094   5 0.42817 0.14735 0.14399 0.02300 0.95494-0.94575
  -8  -2   1 168.416 74.7136   3-0.41617-0.16002-0.18372 0.01644-0.95117 0.94164
   8   2  -1 137.253 62.6704   2 0.40298 0.17261 0.22603-0.05877 0.94515-0.93567
  -8   2   1 191.765 79.7162   7-0.44993-0.12596 0.06716 0.10001-0.95733 0.94781
  -8  -2   1 226.285 79.2874   7-0.48769-0.08809 0.07492-0.24215-0.94378 0.93431
  -7  -2   1 -9.6623 19.9830   3-0.40339-0.09858-0.17222 0.00497-0.95686 0.96078
   7   2  -1 71.8760 64.2100   2 0.39027 0.11118 0.20954-0.04231 0.95237-0.95631
  -7   2   1 11.3592 21.8678   6-0.31393-0.18750 0.41473-0.24802-0.89690 0.90076
  -7  -2   1 -9.9112 22.3617   9 0.02638-0.52811-0.41824 0.25127 0.89777-0.89347
   7  -2  -1 -18.449 39.6363   8 0.42289 0.07889-0.11485-0.05232 0.96064-0.96473
   7   2  -1 2.13912 21.9646   5 0.41566 0.08571 0.13660 0.03043 0.95961-0.96384
  -7   2   1 -8.4800 35.3373   3-0.53871 0.03695-0.29799 0.46491-0.87254 0.87657
   7  -2  -1 -44.972 40.9640   5 0.51418-0.01251 0.19566-0.36292 0.91437-0.91852
   7   2  -1 28.2785 31.8805   8 0.50159 0.00029-0.14833 0.31551 0.92910-0.93321
   7  -2  -1 -38.367 22.8183   4-0.02768 0.52951-0.42418 0.25729-0.89512 0.89085
  -7   2   1 43.0952 69.9367   7-0.43868-0.06296 0.06486 0.10231-0.96096 0.96490
  -7  -2   1 -42.838 42.8913   7-0.48045-0.02109 0.07343-0.24064-0.94655 0.95054
   6   2  -1 953.589 128.255   2 0.38255 0.04476 0.19960-0.03238 0.95646-0.97383
  -6  -2   1 1058.81 134.379   3-0.39622-0.03151-0.16580-0.00142-0.95987 0.97725
   6  -2  -1 1163.57 151.178   8 0.41722 0.01034-0.11246-0.05472 0.96251-0.98004
  -6   2   1 799.507 103.863   6-0.30552-0.12174 0.38038-0.21365-0.91388 0.93122
  -6  -2   1 1027.11 114.846   9 0.07778-0.50535-0.30886 0.14178 0.94637-0.92869
  -6   2   1 1187.45 113.839   3-0.55360 0.12603-0.31248 0.47943-0.85940 0.87686
   6   2  -1 1110.72 128.671   8 0.50809-0.08046-0.15113 0.31831 0.92600-0.94356
   6  -2  -1 1145.18 118.965   5 0.52339-0.09591 0.20128-0.36854 0.90907-0.92667
   6  -2  -1 1031.08 117.840   4-0.07725 0.50498-0.30767 0.14063-0.94660 0.92897
   6   2  -1 1095.52 135.454   5 0.40943 0.01781 0.13291 0.03414 0.96183-0.97950
  -6   2   1 1093.01 144.699   7-0.43493 0.00754 0.06409 0.10306-0.96213 0.97953
  -6  -2   1 936.583 123.405   7-0.48310 0.05580 0.07397-0.24118-0.94554 0.96298
  -5  -2   1 4201.11 219.106   9 0.12827-0.48168-0.19365 0.02647 0.97982-0.94873
   5   2  -1 4485.35 257.559   2 0.38165-0.02849 0.19844-0.03125 0.95693-0.98772
  -5   2   1 4180.27 219.332   6-0.30033-0.05275 0.35983-0.19309-0.92322 0.95402
  -5   2   1 5141.66 204.841   3-0.59347 0.24010-0.35213 0.51910-0.81921 0.85013
   5  -2  -1 4519.75 211.689   5 0.55336-0.20006 0.21974-0.38697 0.89036-0.92141
   5  -2  -1 4641.45 274.963   8 0.42142-0.06806-0.11423-0.05297 0.96113-0.99211
   5  -2  -1 4511.29 230.765   4-0.12516 0.47874-0.18637 0.01919-0.98099 0.94996
  -5   2   1 4421.56 264.446   7-0.44252 0.08939 0.06564 0.10148-0.95974 0.99059
  -5  -2   1 4368.56 237.456   7-0.50146 0.14838 0.07777-0.24497-0.93829 0.96918
   5   2  -1 4345.07 223.129   8 0.53311-0.17972-0.16193 0.32910 0.91329-0.94431
   4   2  -1 77.7744 30.8635   2 0.39029-0.11126 0.20955-0.04237 0.95237-0.99661
  -4  -2   1 100.105 23.7165   1 0.21059-0.48962-0.13712-0.03007 0.99007-0.94570
  -4   2   1 68.8793 21.3536   1 0.17854-0.45768 0.07624 0.09109 0.99707-0.95275
  -4  -2   1 93.8111 33.5927   9 0.17738-0.45662-0.07342-0.09383 0.99731-0.95278
   4  -2  -1 98.7991 28.3120   4-0.17088 0.45027-0.06170-0.10562-0.99803 0.95356
  -4   2   1 114.359 42.1513   6-0.29929 0.02041 0.35577-0.18902-0.92499 0.96924
   4  -2  -1 101.289 42.6493   8 0.44085-0.16170-0.12244-0.04477 0.95437-0.99880
   4  -2  -1 112.424 26.8937   5 0.61946-0.34037 0.26130-0.42853 0.84020-0.88470
   4   2  -1 105.548 33.9974   8 0.59011-0.31097-0.18681 0.35399 0.87938-0.92385
  -4   2   1 98.0715 30.1214   7-0.46827 0.18938 0.07093 0.09617-0.95102 0.99531
  -4  -2   1 95.9599 34.9589   7-0.54644 0.26757 0.08710-0.25429-0.91820 0.96252
  -3   2   1 581.695 78.6941   7-0.52491 0.32026 0.08263 0.08443-0.92824 0.98596
  -3   2   1 492.787 62.7176   1 0.20263-0.40754-0.07814 0.24547 0.99670-0.93891
   3   2  -1 561.539 47.5675   6-0.13458 0.33953-0.16253 0.32993-0.98566 0.92771
   3   2  -1 532.385 77.4209   2 0.41239-0.20752 0.23835-0.07119 0.93940-0.99708
  -3   2   1 561.082 73.8596   6-0.30335 0.09868 0.37172-0.20499-0.91789 0.97557
  -3  -2   1 554.020 74.6993   9 0.22435-0.42939 0.05037-0.21767 0.99774-0.93975
  -3   2   1 550.119 41.9778   9 0.14753-0.35242-0.14752 0.31458 0.98856-0.93071
   3   2  -1 614.238 81.4711   8 0.70329-0.49841-0.23769 0.40487 0.78639-0.84430
   3  -2  -1 600.872 41.9165   3-0.34081 0.54593-0.11686-0.05044-0.97913 0.92140
   3  -2  -1 546.878 78.7907   8 0.48515-0.28020-0.14129-0.02594 0.93659-0.99447
   3   2  -1 611.236 49.6011   4-0.13363 0.33858-0.16400 0.33105-0.98538 0.92748
  -3  -2   1 540.508 67.3352   7-0.63913 0.43445 0.10663-0.27379-0.86489 0.92264
   3  -2  -1 578.899 74.2093   4-0.21361 0.41878 0.06424-0.23168-0.99738 0.93943
   2  -2  -1 233.014 45.4966   4-0.25235 0.38326 0.18843-0.35596-0.97916 0.90770
  -2   2   1 249.034 48.7322   6-0.31323 0.18274 0.41179-0.24506-0.89842 0.96952
   2   2  -1 242.497 37.1365   6-0.06952 0.20024-0.32733 0.49479-0.93929 0.86783
  -2  -2   1 310.487 53.0277   9 0.26806-0.39889 0.17529-0.34259 0.98018-0.90873
  -2  -2   1 273.907 36.7540   8 0.61015-0.74074-0.19567 0.02856 0.86563-0.79430
   2   2  -1 254.480 47.6200   5 0.54018-0.40952 0.21160-0.04432 0.89887-0.97034
  -2   2   1 250.066 45.8337   7-0.63644 0.50600 0.10606 0.06096-0.86670 0.93781
   2  -2  -1 197.387 42.1775   8 0.57165-0.44091-0.17871 0.01145 0.89116-0.96252
  -2   2   1 202.771 39.5774   1 0.22000-0.35070-0.21480 0.38213 0.97571-0.90444
  -1   2   1 7352.90 252.577   6-0.32885 0.27255 0.47970-0.31299-0.85969 0.94419
  -1  -2   1 7559.71 251.333   3-0.58659 0.53015-0.34519 0.17820-0.82672 0.91127
   1   2  -1 7849.54 246.822   5 0.66720-0.61072 0.29222-0.12488 0.79465-0.87963
   1   2  -1 7537.85 242.271   6-0.04072 0.09716-0.39522 0.56272-0.90981 0.82484
  -1  -2   1 7046.18 244.528   9 0.30707-0.36367 0.29759-0.46487 0.94459-0.85969
   0   2  -1 -0.4279 12.4634   6-0.03171 0.01387-0.41583 0.58336-0.89953 0.80108
   0   2   1 42.5545 21.3794   6-0.34833 0.36619 0.57637-0.40968-0.79022 0.88810
   0  -2  -1 37.5354 22.3617   9-0.05566 0.03801-0.57717 0.41024 0.79124-0.88928
  -1   2  -1 9641.63 337.116   6-0.03475-0.05739-0.40891 0.57645-0.90305 0.79114
  -1  -2  -1 9876.80 338.238   9-0.05553-0.03626-0.57693 0.41003 0.79144-0.90290
  -2   2  -1 448.778 77.9683   6-0.04565-0.12076-0.38379 0.55134-0.91524 0.78987
  -2  -2  -1 70.1408 28.6617   9-0.06457-0.10136-0.59327 0.42640 0.77752-0.90240
  -3   2  -1 3495.43 229.472   6-0.06199-0.17870-0.34536 0.51292-0.93210 0.79328
   3  -2   1 3234.87 216.759   8-0.12560 0.36589 0.10523-0.27215 0.94738-0.80892
  -3   2  -1 3099.91 218.102   7 0.16088-0.40171-0.05295 0.22037-0.94008 0.80133
  -4   2  -1 1095.97 134.746   6-0.08224-0.23271-0.29641 0.46396-0.95062 0.79837
   4  -2   1 872.036 123.834   8-0.04908 0.36358 0.07575-0.24266 0.97053-0.81861
  -4   2  -1 1015.52 130.403   7 0.07008-0.38516-0.03567 0.20311-0.96770 0.81551
  -4  -2  -1 1155.74 130.407   7 0.11103-0.42598-0.04348-0.12361-0.95631 0.80424
  -5   2  -1 2669.12 214.777   6-0.10539-0.28381-0.23854 0.40608-0.96847 0.80279
  -5   2  -1 2157.96 211.324   7-0.00366-0.38567-0.02150 0.18894-0.98387 0.81823
  -5  -2  -1 2638.00 222.381   7 0.01656-0.40576-0.02540-0.14168-0.97999 0.81448
   5   2   1 2669.49 205.336   8-0.03555 0.42442 0.07049 0.09679 0.97393-0.80848
   5  -2   1 2455.82 222.267   8 0.01586 0.37285 0.05043-0.21733 0.98494-0.81956
  -6   2  -1 267.006 77.4008   6-0.13075-0.33267-0.17271 0.34023-0.98376 0.80465
  -6  -2  -1 260.147 75.8095   7-0.06002-0.40342-0.01058-0.15650-0.99249 0.81353
   6   2   1 133.165 49.7538   8 0.05032 0.41279 0.03688 0.13043 0.99064-0.81174
  -6   2  -1 162.418 68.6778   7-0.06735-0.39623-0.00915 0.17660-0.99337 0.81428
   6  -2   1 177.041 68.4538   8 0.07372 0.38922 0.02763-0.19453 0.99375-0.81492
  -7  -2  -1 810.319 148.304   7-0.12593-0.41175 0.00228-0.16935-0.99843 0.80601
  -7   2  -1 858.021 128.165   6-0.15785-0.37978-0.09937 0.26685-0.99477 0.80225
  -7   2  -1 867.791 162.752   7-0.12466-0.41316 0.00204 0.16541-0.99836 0.80581
   7   2   1 816.115 140.929   8 0.12236 0.41497 0.00830 0.15903 0.99819-0.80583
   7  -2   1 751.282 151.924   8 0.12694 0.41021 0.00647-0.17337 0.99847-0.80619
  -8   2  -1 -5.7000 34.5091   6-0.18632-0.42548-0.01859 0.18601-0.99981 0.79387
   8  -2   1 -62.183 76.5640   8 0.17699 0.43438-0.01360-0.15330 0.99990-0.79417
   8   2   1 -20.320 42.4486   8 0.18577 0.42580-0.01714 0.18448 0.99985-0.79402
  -8   2  -1 -14.602 64.2060   7-0.17770-0.43436 0.01246 0.15499-0.99992 0.79390
  -8  -2  -1 -10.286 36.9497   7-0.18502-0.42688 0.01391-0.18097-0.99990 0.79402
  -9  -2  -1 80.6525 71.3562   7-0.23952-0.44660 0.02471-0.19176-0.99792 0.77857
   9  -2   1 49.7062 41.0217   8 0.22478 0.46081-0.03292-0.13397 0.99847-0.77929
  -9   2  -1 128.537 97.5818   7-0.22774-0.45855 0.02237 0.14509-0.99862 0.77913
   9   2   1 97.1463 69.5884   8 0.24347 0.44234-0.04052 0.20788 0.99714-0.77786
 -12  -3   1 148.931 106.060   7-0.59374-0.27891 0.09702-0.34784-0.89317 0.82980
 -12  -3   1 208.686 123.423   3-0.49571-0.37738-0.25697 0.00598-0.90564 0.84233
  11  -3  -1 283.416 129.066   8 0.50120 0.29740-0.14817-0.10252 0.92928-0.87962
  11   3  -1 459.095 164.075   5 0.49056 0.30735 0.18132 0.06911 0.92708-0.87769
  11   3  -1 364.853 142.075   2 0.45366 0.34433 0.29353-0.04267 0.90966-0.85996
 -11  -3   1 249.639 111.912   7-0.57182-0.22659 0.09241-0.34322-0.90530 0.85541
 -11  -3   1 433.920 150.315   3-0.47308-0.32581-0.23580-0.01517-0.92050 0.87063
 -11   3   1 255.328 117.875   7-0.52128-0.27737 0.08188 0.16897-0.92986 0.87985
  10   3  -1 679.507 171.412   5 0.46922 0.25454 0.16847 0.08199 0.93750-0.90152
  10  -3  -1 327.048 127.444   8 0.47958 0.24481-0.13891-0.11179 0.93902-0.90279
 -10  -3   1 367.956 139.691   3-0.45232-0.27236-0.21662-0.03432-0.93274 0.89632
  10   3  -1 176.985 83.9214   2 0.43393 0.28994 0.26691-0.01607 0.92483-0.88853
 -10   3   1 341.813 110.348   7-0.49998-0.22443 0.07746 0.17336-0.93890 0.90238
 -10  -3   1 284.262 92.8484   7-0.55283-0.17134 0.08844-0.33925-0.91506 0.87865
  -9  -3   1 572.575 121.373   7-0.53783-0.11212 0.08532-0.33611-0.92231 0.89938
   9  -3  -1 330.771 97.0138   8 0.46066 0.18952-0.13085-0.11985 0.94684-0.92405
   9   3  -1 451.204 124.667   5 0.45047 0.19914 0.15725 0.09324 0.94588-0.92331
   9   3  -1 753.991 155.228   8 0.56845 0.08194-0.17731 0.42813 0.89313-0.87031
  -9  -3   1 468.058 129.452   3-0.43394-0.21653-0.19982-0.05111-0.94255 0.91957
   9   3  -1 748.506 165.594   2 0.41635 0.23339 0.24357 0.00724 0.93687-0.91397
  -9   3   1 587.630 142.629   7-0.48166-0.16848 0.07368 0.17713-0.94609 0.92306
  -8  -3   1 16.4079 54.0336   7-0.52835-0.04737 0.08334-0.33412-0.92669 0.91722
  -8   3   1 23.9492 36.7400   6-0.31363-0.26205 0.41346-0.16325-0.89756 0.88794
  -8  -3   1 -41.501 29.6797   9 0.00166-0.57761-0.46814 0.21766 0.86940-0.87844
   8   3  -1 31.9244 32.6814   5 0.43511 0.14036 0.14810 0.10242 0.95222-0.94307
   8   3  -1 -68.555 52.9670   8 0.56233 0.01382-0.17464 0.42546 0.89681-0.88745
   8  -3  -1 -38.768 40.3255   8 0.44533 0.13064-0.12433-0.12637 0.95273-0.94338
  -8  -3   1 -11.525 42.4411   3-0.41862-0.15762-0.18593-0.06497-0.95003 0.94050
   8   3  -1 -52.188 42.8562   2 0.40152 0.17408 0.22413 0.02665 0.94601-0.93654
   8  -3  -1 25.4261 28.8093   4-0.00429 0.58037-0.47614 0.22575-0.86551 0.87460
  -8   3   1 -45.278 30.7564   7-0.46737-0.10852 0.07074 0.18006-0.95134 0.94178
   7  -3  -1 95.3404 46.6155   4-0.04598 0.54792-0.38220 0.13168-0.91593 0.91168
  -7   3   1 69.2990 29.2087   6-0.30401-0.19749 0.37435-0.12411-0.91669 0.92055
   7  -3  -1 45.0536 43.7785   8 0.43482 0.06695-0.11988-0.13083 0.95654-0.96062
   7  -3  -1 10.6546 19.4669   5 0.59301-0.09127 0.24451-0.49543 0.86187-0.86600
  -7   3   1 50.4726 42.3912   7-0.45863-0.04301 0.06895 0.18183-0.95440 0.95831
  -6  -3   1 532.988 93.4906   9 0.08681-0.51443-0.28883 0.03816 0.95343-0.93572
   6   3  -1 539.705 100.066   2 0.38351 0.04382 0.20083 0.04993 0.95597-0.97334
   6  -3  -1 616.773 117.859   8 0.43104-0.00348-0.11829-0.13245 0.95786-0.97539
  -6   3   1 623.283 101.641   6-0.29656-0.13075 0.34518-0.09490-0.92951 0.94685
  -6  -3   1 606.366 101.018   7-0.53743 0.11017 0.08524-0.33598-0.92250 0.93994
  -6   3   1 561.842 107.801   7-0.45781 0.03043 0.06878 0.18198-0.95468 0.97205
   6  -3  -1 617.050 84.0602   5 0.61900-0.19146 0.26101-0.51192 0.84059-0.85817
   6   3  -1 563.455 87.4900   8 0.58495-0.15730-0.18454 0.43537 0.88276-0.90031
   6   3  -1 513.568 87.5191   5 0.41953 0.00767 0.13888 0.11172 0.95820-0.97589
   6  -3  -1 632.521 106.831   4-0.08570 0.51348-0.28695 0.03627-0.95379 0.93617
  -6  -3   1 497.878 102.912   3-0.40131-0.02646-0.17035-0.08049-0.95775 0.97513
   5   3  -1 48.5364 38.4314   2 0.38284-0.02965 0.19996 0.05078 0.95632-0.98712
   5  -3  -1 81.7021 35.0156   4-0.12322 0.47684-0.19146-0.05935-0.97991 0.94888
  -5  -3   1 23.1072 26.8367   9 0.12687-0.48031-0.19696-0.05380 0.97910-0.94798
  -5   3   1 21.8434 23.7639   1 0.14918-0.50256 0.23332 0.01763 0.97198-0.94112
   5  -3  -1 47.1421 21.9123   5 0.67490-0.32157 0.29729-0.54821 0.78641-0.81743
   5   3  -1 51.2723 27.2907   8 0.62878-0.27540-0.20395 0.45478 0.85192-0.88292
   5   3  -1 65.8539 43.9397   5 0.42346-0.07039 0.14120 0.10944 0.95673-0.98786
   5  -3  -1 64.1729 33.0147   8 0.43692-0.08357-0.12077-0.12997 0.95579-0.98676
  -5  -3   1 11.3905 38.2237   3-0.40255 0.04902-0.17146-0.07935-0.95722 0.98806
  -5   3   1 26.4066 16.5690   6-0.29187-0.06124 0.32727-0.07699-0.93679 0.96759
  -5   3   1 33.2057 19.8606   7-0.46877 0.11565 0.07103 0.17970-0.95084 0.98166
  -5  -3   1 57.5214 33.0697   7-0.56717 0.21412 0.09144-0.34217-0.90775 0.93863
   4   3  -1 588.785 93.8209   2 0.39021-0.11118 0.20946 0.04128 0.95241-0.99666
   4   3  -1 608.427 58.1485   6-0.26686 0.54596 0.23653 0.01419-0.96719 0.92275
  -4   3   1 593.437 94.3886   6-0.29058 0.01168 0.32240-0.07211-0.93870 0.98295
  -4   3   1 554.603 93.5760   7-0.49813 0.21926 0.07708 0.17361-0.93965 0.98390
   4  -3  -1 605.912 95.2581   4-0.15827 0.43767-0.09705-0.15390-0.99501 0.95054
  -4  -3   1 463.461 83.2992   9 0.16486-0.44410-0.10491-0.14590 0.99438-0.94982
  -4   3   1 625.757 88.6829   1 0.17192-0.45108 0.11412 0.13683 0.99341-0.94910
   4   3  -1 282.972 65.4004   8 0.71423-0.43513-0.24274 0.49358 0.77508-0.81950
   4  -3  -1 516.002 84.0389   8 0.45729-0.17812-0.12942-0.12135 0.94817-0.99259
  -4  -3   1 602.367 77.8170   7-0.62902 0.35016 0.10448-0.35518-0.87159 0.91591
  -3  -3   1 609.606 84.6010   9 0.20037-0.40542-0.01401-0.23684 0.99971-0.94172
   3   3  -1 701.073 68.9136   6-0.19622 0.40116 0.01047 0.24044-0.99983 0.94190
  -3   3   1 840.003 99.0510   6-0.29332 0.08864 0.33280-0.08252-0.93459 0.99228
   3  -3  -1 710.440 91.0231   8 0.50026-0.29529-0.14776-0.10303 0.92973-0.98760
  -3  -3   1 695.640 93.2445   3-0.43942 0.23445-0.20482-0.04592-0.93972 0.99746
   3  -3  -1 326.520 56.3042   9-0.06196 0.26660-0.58857 0.33806 0.78158-0.83937
   3   3  -1 677.372 91.7197   5 0.47530-0.27049 0.17211 0.07865 0.93463-0.99265
  -3  -3   1 859.547 91.4606   4 0.04406-0.24895-0.57749 0.32701-0.79365 0.85140
  -3   3   1 629.954 83.7561   7-0.55769 0.35306 0.08945 0.16118-0.91263 0.97030
   3  -3  -1 589.600 85.7691   4-0.19044 0.39561-0.00528-0.24578-0.99994 0.94200
  -3  -3   1 739.294 88.7367   7-0.74523 0.54053 0.12957-0.38023-0.77834 0.83610
  -3   3   1 627.084 86.3650   1 0.19019-0.39513 0.00530 0.24565 0.99994-0.94216
   2   3  -1 7519.56 277.332   5 0.53960-0.40893 0.21123 0.03960 0.89923-0.97072
  -2   3   1 7221.96 283.669   1 0.20436-0.33507-0.09054 0.34150 0.99561-0.92437
  -2  -3   1 7638.36 301.157   9 0.23295-0.36378 0.07411-0.32497 0.99581-0.92436
   2   3  -1 7404.33 250.712   6-0.14971 0.28043-0.12174 0.37277-0.99207 0.92064
  -2   3   1 7183.16 295.593   6-0.30064 0.17017 0.36102-0.11077-0.92270 0.99381
   2  -3  -1 6672.94 259.983   9-0.02487 0.15543-0.51977 0.26929 0.83538-0.90657
   2  -3  -1 6511.80 254.755   8 0.57958-0.44880-0.18219-0.06864 0.88620-0.95755
  -2  -3   1 7850.62 297.504   3-0.48544 0.35474-0.24732-0.00335-0.91259 0.98376
  -2  -3   1 8354.58 167.664   8 0.59973-0.73027-0.19105-0.05962 0.87291-0.80159
  -2  -3   1 8070.11 276.301   4 0.01388-0.14462-0.51517 0.26472-0.84020 0.91139
  -2   3   1 7688.76 262.697   7-0.66810 0.53768 0.11282 0.13777-0.84438 0.91544
   2  -3  -1 7059.46 293.028   4-0.21936 0.35025 0.08199-0.33315-0.99586 0.92444
   1   3  -1 1083.46 108.983   2 0.49181-0.43530 0.34643-0.09573 0.87464-0.95922
   1   3  -1 928.973 96.5611   6-0.12157 0.17803-0.19686 0.44795-0.97876 0.89383
  -1   3   1 938.795 101.459   6-0.31272 0.25645 0.40969-0.15948-0.89950 0.98403
  -1  -3   1 1041.72 107.891   9 0.26204-0.31866 0.15742-0.40827 0.98382-0.89894
   1   3  -1 1083.41 99.1023   5 0.64659-0.59008 0.27876-0.02783 0.81542-0.90042
  -1  -3   1 1095.84 105.831   3-0.55957 0.50317-0.31835 0.06775-0.85386 0.93843
   1  -3  -1 1018.99 99.7546   9-0.00857 0.06503-0.48828 0.23781 0.85672-0.94134
   1  -3  -1 415.752 73.2512   8 0.71418-0.65761-0.24272-0.00815 0.77513-0.86000
  -1  -3   1 970.651 99.8305   4 0.00060-0.05717-0.48675 0.23634-0.85890 0.94354
   0   3  -1 35.3858 21.2124   6-0.10682 0.08900-0.23491 0.48605-0.96946 0.87105
   0   3  -1 12.1784 8.97559   2 0.56219-0.57988 0.45064-0.19998 0.78373-0.88173
   0  -3   1 10.4652 10.1472   9 0.28714-0.26954 0.23356-0.48439 0.96559-0.86727
   0  -3  -1 4.71682 9.88593   4-0.26576 0.24806 0.23424-0.48550-0.96787 0.86946
   0  -3  -1 61.4451 29.6251   9-0.00519-0.01248-0.48167 0.23121 0.86096-0.95902
   0   3   1 20.6204 16.5477   6-0.32908 0.34698 0.48072-0.23055-0.85905 0.95696
   0  -3   1 0.20447 10.2266   4-0.00160 0.01922-0.48198 0.23160-0.86189 0.95997
  -1   3  -1 6961.06 302.066   6-0.10188 0.00978-0.24744 0.49860-0.96600 0.85412
   1   3   1 6653.90 279.684   1 0.22705-0.13503-0.28116 0.53216 0.95817-0.84653
   1   3   1 6313.06 280.327   6-0.34787 0.43993 0.57382-0.32367-0.79230 0.90359
  -1  -3  -1 7077.78 296.359   9-0.01053-0.08129-0.49211 0.24167 0.85423-0.96571
   1  -3   1 6750.97 266.408   9 0.30776-0.21596 0.29988-0.55065 0.94374-0.83200
  -1  -3  -1 6947.00 273.352   4-0.28258 0.19056 0.29426-0.54555-0.94914 0.83724
  -2   3  -1 1307.81 137.124   6-0.10426-0.06212-0.24141 0.49259-0.96769 0.84234
   2  -3   1 1336.44 117.564   9 0.32356-0.15755 0.35352-0.60424 0.92172-0.79659
  -2  -3  -1 1370.32 141.505   9-0.02206-0.14390-0.51439 0.26399 0.83916-0.96406
   2  -3   1 1457.05 132.353   8-0.11900 0.28508 0.10271-0.35315 0.94964-0.82463
  -2   3  -1 1526.71 135.724   7 0.18311-0.34966-0.05714 0.30820-0.93200 0.80669
   2  -3   1 1353.36 143.410   4 0.01523 0.15078-0.51802 0.26774-0.83824 0.96314
  -2  -3  -1 1506.50 130.695   4-0.29479 0.12846 0.34003-0.59132-0.93171 0.80634
  -3  -3  -1 2545.57 205.234   9-0.03817-0.20195-0.54490 0.29453 0.81693-0.95524
  -3   3  -1 2287.42 193.812   6-0.11218-0.12847-0.22116 0.47234-0.97302 0.83422
   3  -3   1 2144.33 175.115   8-0.05041 0.29069 0.07626-0.32671 0.97018-0.83171
   3  -3   1 2500.42 208.358   4 0.03082 0.20937-0.55055 0.30033-0.81476 0.95305
  -3  -3  -1 1940.05 144.253   7 0.18319-0.42384-0.05716-0.19356-0.93197 0.79339
  -3   3  -1 2391.29 183.621   7 0.08814-0.32896-0.03912 0.29019-0.96289 0.82414
  -4   3  -1 40.9493 29.0241   6-0.12439-0.19054-0.18949 0.44066-0.98036 0.82811
   4   3   1 16.1430 21.7640   1 0.22906 0.08574-0.30197 0.55298 0.95163-0.79960
  -4  -3  -1 -17.239 38.3484   9-0.05779-0.25649-0.58104 0.33071 0.78799-0.93971
   4   3   1 18.2088 22.2276   8-0.11080 0.42552 0.09956 0.15128 0.95238-0.80036
   4  -3   1 12.3933 19.1342   8 0.00797 0.30652 0.05351-0.30395 0.98344-0.83152
  -4  -3  -1 32.2867 32.6853   7 0.06094-0.37584-0.03392-0.21678-0.97001 0.81799
  -4   3  -1 83.5200 52.0087   7 0.01441-0.32948-0.02499 0.27605-0.98042 0.82822
   4  -3   1 12.3107 27.8140   4 0.04980 0.26458-0.58898 0.33882-0.78415 0.93582
   5   3   1 717.719 92.2939   1 0.22538 0.16367-0.26464 0.51565 0.96300-0.79752
  -5   3  -1 745.192 118.531   6-0.13993-0.24924-0.14821 0.39937-0.98813 0.82245
   5  -3   1 711.642 123.427   8 0.06049 0.32821 0.03286-0.28330 0.99207-0.82670
   5   3   1 807.606 109.436   8 0.00371 0.38521 0.05517 0.19570 0.98261-0.81713
  -5  -3  -1 789.055 117.955   7-0.02848-0.36066-0.01670-0.23398-0.98807 0.82260
  -5   3  -1 712.841 122.399   7-0.04794-0.34139-0.01293 0.26401-0.99092 0.82526
  -6   3  -1 1522.75 182.759   6-0.15815-0.30526-0.09852 0.34964-0.99486 0.81574
   6   3   1 1477.35 124.239   1 0.21817 0.24515-0.19878 0.44976 0.97920-0.80027
   6   3   1 1583.99 165.579   8 0.09050 0.37266 0.02098 0.22992 0.99559-0.81666
   6  -3   1 1569.11 203.899   8 0.10934 0.35357 0.01349-0.26393 0.99727-0.81845
  -6  -3  -1 1622.56 189.896   7-0.10075-0.36263-0.00264-0.24803-0.99669 0.81777
  -6   3  -1 1627.21 207.159   7-0.10355-0.36002-0.00210 0.25318-0.99692 0.81780
  -7   3  -1 1537.52 195.559   6-0.17851-0.35911-0.04115 0.29222-0.99914 0.80659
   7  -3   1 1364.54 212.376   8 0.15577 0.38135-0.00507-0.24537 0.99966-0.80739
   7   3   1 1432.17 180.818   8 0.16203 0.37535-0.00759 0.25851 0.99978-0.80739
  -7   3  -1 1446.41 216.215   7-0.15486-0.38295 0.00797 0.24313-0.99961 0.80703
  -7  -3  -1 1399.77 192.066   7-0.16313-0.37446 0.00959-0.26026-0.99979 0.80742
   8   3   1 104.671 57.8892   8 0.22446 0.38717-0.03279 0.28374 0.99849-0.79262
  -8   3  -1 74.9208 45.3899   6-0.20060-0.41121 0.02352 0.22749-0.99953 0.79355
   8  -3   1 187.442 97.6379   8 0.20052 0.41083-0.02309-0.22734 0.99954-0.79383
  -8   3  -1 213.221 104.882   7-0.20328-0.40877 0.01752 0.23357-0.99960 0.79354
  -8  -3  -1 47.8780 46.4028   7-0.21936-0.39247 0.02071-0.27136-0.99903 0.79320
  11   4  -1 451.044 177.277   5 0.49923 0.29862 0.18657 0.14737 0.92256-0.87322
  11  -4  -1 307.227 96.4259   8 0.51319 0.28540-0.15333-0.18091 0.92351-0.87386
  11   4  -1 335.750 152.985   2 0.45362 0.34441 0.29346 0.04094 0.90970-0.86000
 -11  -4   1 305.053 108.144   3-0.47708-0.32188-0.23953-0.09505-0.91799 0.86809
 -11   4   1 124.019 72.2225   7-0.54018-0.25847 0.08581 0.24867-0.92120 0.87115
 -10  -4   1 36.6956 41.2944   7-0.59672-0.12738 0.09765-0.43200-0.89144 0.85504
  10   4  -1 29.1679 106.589   5 0.47969 0.24403 0.17475 0.15922 0.93251-0.89658
 -10  -4   1 6.44218 40.2144   3-0.45807-0.26668-0.22192-0.11265-0.92948 0.89303
  10   4  -1 40.1603 55.7115   2 0.43563 0.28825 0.26919 0.06518 0.92359-0.88730
  10  -4  -1 13.1114 55.4868   8 0.49341 0.23096-0.14482-0.18941 0.93289-0.89668
 -10   4   1 26.1298 54.7637   7-0.52103-0.20337 0.08182 0.25263-0.92997 0.89341
  -9  -4   1 1740.54 254.846   3-0.44152-0.20901-0.20672-0.12782-0.93862 0.91562
   9   4  -1 1756.32 258.062   2 0.41984 0.22992 0.24818 0.08617 0.93458-0.91169
  -9  -4   1 1655.37 239.752   9-0.02422-0.62596-0.51853 0.18451 0.83626-0.85864
   9   4  -1 1863.31 264.061   5 0.46288 0.18669 0.16467 0.16934 0.94041-0.91789
   9  -4  -1 1724.33 256.224   8 0.47655 0.17362-0.13762-0.19662 0.94031-0.91753
  -9   4   1 1529.86 224.592   7-0.50521-0.14492 0.07854 0.25589-0.93675 0.91367
  -9  -4   1 2138.15 254.700   7-0.58648-0.06339 0.09549-0.42983-0.89729 0.87435
   8   4  -1 508.983 123.850   5 0.44959 0.12584 0.15672 0.17732 0.94625-0.93714
  -8   4   1 387.029 100.498   6-0.30896-0.26678 0.39427-0.06050-0.90723 0.89760
  -8  -4   1 341.340 98.4134   9 0.01446-0.59047-0.44252 0.10841 0.88449-0.89352
   8  -4  -1 419.490 112.629   8 0.46349 0.11246-0.13205-0.20219 0.94571-0.93636
  -8  -4   1 352.500 114.858   3-0.42807-0.14822-0.19448-0.14003-0.94549 0.93595
   8   4  -1 189.139 76.4264   2 0.40678 0.16886 0.23100 0.10332 0.94287-0.93340
  -8   4   1 346.232 100.806   7-0.49385-0.08203 0.07619 0.25822-0.94136 0.93176
   8  -4  -1 375.120 101.237   4-0.01706 0.59323-0.44802 0.11400-0.88209 0.89120
  -8  -4   1 351.895 97.0327   7-0.58311 0.00745 0.09479-0.42910-0.89916 0.88969
  -7  -4   1 1783.60 215.658   3-0.41860-0.08346-0.18591-0.14860-0.95004 0.95396
   7   4  -1 1852.62 226.617   2 0.39712 0.10437 0.21841 0.11590 0.94856-0.95252
  -7   4   1 2005.88 220.042   6-0.30060-0.20095 0.36089-0.02708-0.92276 0.92661
   7  -4  -1 1589.28 204.566   8 0.45551 0.04626-0.12866-0.20560 0.94887-0.95295
   7   4  -1 1648.70 202.025   5 0.44091 0.06039 0.15156 0.18252 0.94988-0.95419
  -7  -4   1 1772.76 202.076   9 0.05142-0.55325-0.36591 0.03172 0.92322-0.91888
   7  -4  -1 1860.03 205.651   4-0.05224 0.55425-0.36755 0.03339-0.92257 0.91833
  -7   4   1 1713.32 209.395   7-0.48854-0.01308 0.07510 0.25929-0.94345 0.94732
  -7  -4   1 1699.24 183.882   7-0.58967 0.08823 0.09617-0.43046-0.89549 0.89947
   6   4  -1 738.746 131.109   2 0.39177 0.03558 0.21148 0.12283 0.95156-0.96894
   6  -4  -1 673.608 119.071   4-0.08531 0.51314-0.28791-0.04640-0.95347 0.93585
  -6   4   1 864.260 134.929   6-0.29420-0.13314 0.33614-0.00232-0.93324 0.95056
  -6  -4   1 668.158 115.562   9 0.08654-0.51418-0.28944-0.04483 0.95322-0.93549
   6   4  -1 1065.60 139.526   8 0.69166-0.26403-0.23235 0.56684 0.79789-0.81540
   6  -4  -1 736.388 127.457   8 0.45442-0.02685-0.12820-0.20607 0.94929-0.96681
   6   4  -1 826.380 134.867   5 0.43838-0.01121 0.15005 0.18407 0.95091-0.96864
  -6  -4   1 791.574 130.467   3-0.41427-0.01354-0.18199-0.15249-0.95204 0.96942
  -6   4   1 896.934 142.776   7-0.49177 0.06442 0.07576 0.25859-0.94219 0.95951
  -6  -4   1 832.552 117.120   7-0.61116 0.18393 0.10069-0.43496-0.88284 0.90027
   5   4  -1 34.7280 32.4104   2 0.39190-0.03869 0.21164 0.12266 0.95149-0.98231
  -5  -4   1 25.2988 31.4963   7-0.65611 0.30306 0.11025-0.44448-0.85312 0.88401
   5   4  -1 24.5905 38.5664   5 0.44426-0.09120 0.15354 0.18063 0.94850-0.97966
  -5  -4   1 35.9357 33.4593   9 0.11962-0.47308-0.21395-0.12039 0.97515-0.94401
   5  -4  -1 -7.2094 17.8111   4-0.11609 0.46972-0.21004-0.12441-0.97571 0.94467
   5   4  -1 47.9416 15.8768   6-0.32906 0.68234 0.48066-0.14662-0.85908 0.82799
  -5   4   1 73.1412 43.0259   6-0.29021-0.06292 0.32103 0.01281-0.93923 0.97002
  -5  -4   1 18.8903 28.1732   3-0.41670 0.06316-0.18419-0.15026-0.95092 0.98176
   5  -4  -1 21.5358 32.8155   8 0.46303-0.10965-0.13185-0.20244 0.94590-0.97686
  -5   4   1 31.1731 25.9870   7-0.50745 0.15435 0.07901 0.25531-0.93581 0.96659
  -4   4   1 1056.32 135.564   6-0.28908 0.01018 0.31679 0.01705-0.94085 0.98510
   4   4  -1 1087.26 141.196   2 0.39906-0.12000 0.22092 0.11337 0.94745-0.99172
   4   4  -1 1212.19 106.846   6-0.27286 0.55202 0.25764 0.07661-0.96106 0.91657
  -4  -4   1 1164.23 140.284   3-0.42820 0.14895-0.19460-0.13982-0.94542 0.98972
   4  -4  -1 1128.26 121.536   9-0.05708 0.33579-0.57974 0.24574 0.78908-0.83345
  -4  -4   1 1040.74 131.315   9 0.15045-0.42972-0.14039-0.19398 0.98968-0.94511
   4   4  -1 935.958 124.123   5 0.46192-0.18300 0.16410 0.17014 0.94085-0.98544
   4  -4  -1 1147.58 138.634   8 0.48569-0.20650-0.14152-0.19279 0.93636-0.98077
  -4  -4   1 1432.95 133.472   4 0.03919-0.31830-0.56767 0.23365-0.80153 0.84583
   4  -4  -1 1080.80 137.904   4-0.14440 0.42381-0.13504-0.19954-0.99018 0.94571
  -4   4   1 1170.62 133.287   7-0.54206 0.26323 0.08620 0.24808-0.92031 0.96451
  -4  -4   1 1266.04 125.064   7-0.73864 0.45977 0.12812-0.46231-0.78473 0.82906
  -3   4   1 192.365 47.7556   7-0.60653 0.40193 0.09972 0.23450-0.88565 0.94327
  -3   4   1 214.849 28.3344   2 0.42237-0.62726 0.25152 0.08272 0.93290-0.87526
   3  -4  -1 165.462 51.4904   4-0.17002 0.37517-0.06412-0.27057-0.99787 0.93994
   3   4  -1 196.364 44.7106   6-0.22649 0.43148 0.10297 0.23146-0.99358 0.93563
  -3   4   1 126.562 48.3117   6-0.29125 0.08656 0.32492 0.00890-0.93772 0.99540
  -3  -4   1 125.865 43.2905   3-0.45203 0.24705-0.21635-0.11802-0.93291 0.99065
   3  -4  -1 193.572 57.8197   8 0.52940-0.32439-0.16032-0.17402 0.91526-0.97313
   3  -4  -1 181.319 50.9500   9-0.01625 0.22091-0.50323 0.16924 0.84683-0.90459
  -3  -4   1 173.961 22.1357   8-0.05724-0.14760 0.07891-0.41293 0.96838-0.91052
  -3  -4   1 217.865 61.2118   9 0.17878-0.38384-0.06988-0.26453 0.99757-0.93955
  -3  -4   1 175.057 40.8695   4 0.00570-0.21066-0.49776 0.16374-0.85183 0.90960
   2   4  -1 756.351 97.3369   5 0.55585-0.42518 0.22128 0.11311 0.88869-0.96021
  -2   4   1 669.275 102.515   6-0.29707 0.16661 0.34712-0.01333-0.92869 0.99980
  -2  -4   1 730.042 100.445   3-0.49258 0.36191-0.25402-0.08028-0.90779 0.97897
  -2  -4   1 702.121 99.4601   9 0.20429-0.33513-0.00367-0.33074 0.99972-0.92827
   2  -4  -1 725.754 91.6642   8 0.60514-0.47432-0.19345-0.14094 0.86917-0.94053
   2   4  -1 739.432 94.0912   6-0.19210 0.32286-0.00167 0.33622-0.99994 0.92851
   2  -4  -1 829.856 99.3130   9 0.00537 0.12520-0.46077 0.12679 0.87386-0.94504
   2   4  -1 684.492 49.4945   7-0.25717 0.38774 0.02823 0.30619-0.99657 0.92524
  -2   4   1 890.281 96.4371   7-0.71800 0.58761 0.12361 0.21054-0.80377 0.87477
  -2  -4   1 745.230 97.6135   4-0.01239-0.11840-0.45836 0.12436-0.87615 0.94737
   1   4  -1 6599.00 301.104   2 0.48481-0.42829 0.33655-0.00229 0.88169-0.96629
   1   4  -1 6516.10 294.014   6-0.16851 0.22501-0.06958 0.40423-0.99749 0.91258
  -1   4   1 6430.25 308.811   6-0.30671 0.25047 0.38517-0.05142-0.91162 0.99615
  -1  -4   1 6534.85 305.447   9 0.22667-0.28331 0.05675-0.39115 0.99728-0.91240
   1   4  -1 7295.74 288.500   5 0.64960-0.59308 0.28071 0.05378 0.81250-0.89753
   1  -4  -1 6519.35 286.591   9 0.01455 0.04189-0.44233 0.10835 0.88459-0.96921
  -1  -4   1 6672.40 284.417   3-0.55518 0.49882-0.31403-0.02018-0.85795 0.94252
  -1  -4   1 6618.67 297.805   4-0.01999-0.03660-0.44146 0.10748-0.88576 0.97044
   1   4   1 -2.3490 26.5357   6-0.33615 0.42829 0.51394-0.18030-0.83716 0.94846
  -1   4  -1 8.31793 24.9537   6-0.14678 0.05471-0.12973 0.46448-0.99097 0.87910
   1   4   1 -5.9541 15.9858   1 0.21138-0.11939-0.14332 0.47795 0.98916-0.87754
  -1  -4  -1 -31.077 30.0963   4-0.24050 0.14849 0.14924-0.48416-0.98684 0.87500
  -1   4  -1 5.68322 14.5369   7 0.14801-0.24028-0.05051 0.38518-0.94452 0.83268
  -1  -4  -1 -17.394 33.2082   9 0.00900-0.10083-0.45351 0.11954 0.87815-0.98964
   1   4   1 -14.015 18.2216   8 0.61072-0.51878-0.19591 0.53054 0.86523-0.75339
   1  -4   1 -35.002 37.8092   9 0.26065-0.16888 0.15334-0.48768 0.98460-0.87287
   1  -4   1 5.05380 20.4486   8-0.05626 0.14814 0.07853-0.41249 0.96864-0.85706
  -2   4  -1 1.25341 32.0135   6-0.14558-0.02076-0.13296 0.46773-0.99050 0.86517
   2  -4   1 -2.0993 22.8298   9 0.27143-0.10546 0.18540-0.51970 0.97795-0.85281
  -2  -4  -1 15.2072 26.5382   4-0.24866 0.08235 0.17607-0.51099-0.98178 0.85647
   2   4   1 39.7883 28.9221   6-0.35321 0.51949 0.60409-0.27050-0.76665 0.89130
  -2  -4  -1 -13.784 20.5237   9-0.00198-0.16401-0.47534 0.14140 0.86495-0.98985
   2   4   1 -10.256 26.5138   1 0.21371-0.04745-0.16173 0.49638 0.98622-0.86114
   2  -4   1 9.82425 14.2339   8-0.01073 0.17681 0.06082-0.39479 0.97962-0.85459
  -2  -4  -1 4.83686 6.93012   7 0.25459-0.42092-0.07057-0.26378-0.90237 0.77729
  -2   4  -1 -19.882 22.5854   7 0.06260-0.22914-0.03424 0.36892-0.96959 0.84430
  -3   4  -1 2336.40 213.246   6-0.14926-0.09136-0.12298 0.45775-0.99190 0.85312
   3   4   1 2465.43 193.742   1 0.21399 0.02651-0.16410 0.49874 0.98582-0.84728
   3  -4   1 2265.76 170.340   9 0.27732-0.03716 0.20324-0.53748 0.97370-0.83516
  -3  -4  -1 2755.24 234.995   9-0.01689-0.22328-0.50446 0.17053 0.84600-0.98432
   3  -4   1 2540.37 196.096   8 0.03193 0.20836 0.04412-0.37808 0.98777-0.84929
   3  -4   1 2596.12 231.569   4 0.01062 0.22960-0.50825 0.17446-0.84489 0.98324
  -3  -4  -1 2653.49 156.433   7 0.08010-0.32069-0.03759-0.29671-0.96507 0.82655
  -3   4  -1 2421.12 184.947   7-0.00148-0.23931-0.02192 0.35661-0.98347 0.84473
  -3  -4  -1 2396.29 179.123   4-0.25213 0.01154 0.18769-0.52260-0.97932 0.84056
  -4   4  -1 1.84737 41.1866   6-0.15689-0.15799-0.10202 0.43678-0.99448 0.84224
  -4  -4  -1 75.0914 36.7584   4-0.25001-0.06485 0.18057-0.51546-0.98084 0.82864
   4   4   1 31.5608 18.0244   1 0.21211 0.10266-0.14903 0.48366 0.98829-0.83629
  -4  -4  -1 137.301 70.7048   9-0.03498-0.27936-0.53892 0.20503 0.82144-0.97317
   4  -4   1 54.8692 25.0057   9 0.27733 0.03699 0.20327-0.53745 0.97370-0.82175
   4  -4   1 66.8611 48.9727   8 0.07309 0.24139 0.02788-0.36184 0.99367-0.84175
   4   4   1 100.003 30.0084   8-0.02821 0.34296 0.06763 0.26682 0.97568-0.82364
  -4  -4  -1 69.9522 35.4866   7-0.02458-0.29025-0.01745-0.31681-0.98745 0.83549
  -4   4  -1 61.1540 35.4169   7-0.05587-0.25918-0.01139 0.34609-0.99197 0.83976
   4  -4   1 58.6002 46.8086   4 0.02790 0.28652-0.54453 0.21081-0.81926 0.97100
   5   4   1 5405.34 280.367   1 0.20761 0.18143-0.11442 0.44905 0.99305-0.82760
  -5   4  -1 5624.10 360.223   6-0.16777-0.22137-0.07166 0.40640-0.99733 0.83164
   5  -4   1 6075.40 266.644   9 0.26958 0.11888 0.17986-0.51399 0.97919-0.81385
   5   4   1 5526.33 258.393   8 0.08167 0.30731 0.02448 0.31001 0.99466-0.82916
  -5  -4  -1 5366.73 372.207   9-0.05569-0.33282-0.57723 0.24337 0.79119-0.95631
   5  -4   1 6076.30 406.586   4 0.04777 0.34085-0.58493 0.25127-0.78753 0.95264
  -5  -4  -1 5537.46 297.420   7-0.10095-0.28812-0.00260-0.33164-0.99671 0.83130
  -5   4  -1 5587.90 350.146   7-0.10509-0.28420-0.00179 0.33650-0.99704 0.83137
   5  -4   1 5192.81 346.296   8 0.11337 0.27532 0.01188-0.34584 0.99758-0.83221
  -5  -4  -1 5671.24 255.016   4-0.24047-0.14863 0.14914-0.48400-0.98685 0.82121
  -6   4  -1 148.619 65.0417   6-0.18133-0.28204-0.03302 0.36772-0.99945 0.82031
   6   4   1 127.507 44.3503   1 0.19956 0.26372-0.05675 0.39135 0.99822-0.81931
  -6  -4  -1 -61.362 42.3018   9-0.07860-0.38409-0.61813 0.28432 0.75504-0.93354
   6  -4   1 115.051 84.7641   8 0.15310 0.30979-0.00400-0.32997 0.99959-0.82078
  -6   4  -1 164.811 79.4515   7-0.15125-0.31228 0.00726 0.32746-0.99951 0.82038
   6   4   1 131.152 48.6167   8 0.16201 0.30120-0.00758 0.34210 0.99978-0.82082
  -6  -4  -1 135.622 53.4693   7-0.16368-0.29962 0.00970-0.34394-0.99980 0.82093
  -7   4  -1 837.689 160.200   6-0.19711-0.34050 0.01314 0.32152-0.99978 0.80720
   7  -4   1 890.567 201.426   8 0.19247 0.34464-0.01984-0.31412 0.99974-0.80749
  -7   4  -1 655.047 163.150   7-0.19546-0.34233 0.01597 0.31875-0.99977 0.80716
  -7  -4  -1 556.140 110.816   7-0.21891-0.31860 0.02062-0.35485-0.99905 0.80673
  -8   4  -1 -62.753 49.2865   6-0.21472-0.39709 0.06633 0.26827-0.99721 0.79119
   8  -4   1 -75.334 78.6380   8 0.23157 0.37975-0.03568-0.29828 0.99804-0.79234
  -8   4  -1 84.2745 72.7056   7-0.23835-0.37369 0.02448 0.31026-0.99799 0.79191
  -8  -4  -1 32.5636 33.9046   7-0.26962-0.34211 0.03071-0.36494-0.99540 0.78962
  11   5  -1 295.088 144.120   2 0.45833 0.33972 0.29989 0.11803 0.90580-0.85610
 -11   5   1 224.815 127.705   7-0.56563-0.23300 0.09112 0.32698-0.90855 0.85844
  10   5  -1 51.9051 77.3160   5 0.49580 0.22788 0.18449 0.23300 0.92437-0.88849
  10  -5  -1 276.872 128.274   8 0.51337 0.21099-0.15341-0.26436 0.92342-0.88722
 -10  -5   1 154.747 124.908   3-0.46894-0.25587-0.23196-0.18623-0.92304 0.88656
  10   5  -1 283.328 139.356   2 0.44213 0.28178 0.27792 0.13999 0.91875-0.88246
 -10   5   1 99.5661 57.9732   7-0.54912-0.17524 0.08766 0.33042-0.91689 0.88027
  -9  -5   1 309.885 108.079   9-0.01533-0.63489-0.50145 0.08383 0.84803-0.87039
  -9   5   1 222.890 63.4501   6-0.31699-0.33300 0.42758-0.01030-0.89008 0.86693
   9  -5  -1 111.191 76.8843   8 0.49894 0.15123-0.14719-0.27057 0.93035-0.90757
  -9  -5   1 437.778 154.063   3-0.45435-0.19623-0.21849-0.19969-0.93160 0.90859
   9   5  -1 439.510 152.214   5 0.48118 0.16835 0.17566 0.24186 0.93178-0.90931
   9   5  -1 259.070 107.986   2 0.42815 0.22164 0.25919 0.15869 0.92894-0.90606
  -9   5   1 259.910 112.585   7-0.53636-0.11375 0.08501 0.33306-0.92300 0.89987
  -8   5   1 -0.1404 41.1803   6-0.30833-0.26746 0.39171 0.02562-0.90848 0.89882
  -8  -5   1 -20.550 34.0660   9 0.01864-0.59469-0.43404 0.01633 0.88924-0.89824
   8  -5  -1 12.9968 28.7050   8 0.48857 0.08739-0.14275-0.27502 0.93508-0.92573
   8   5  -1 28.9818 50.7597   5 0.47025 0.10516 0.16908 0.24847 0.93702-0.92796
  -8  -5   1 57.2024 52.3531   3-0.44290-0.13344-0.20799-0.21018-0.93789 0.92833
   8   5  -1 -50.987 35.1597   2 0.41686 0.15880 0.24423 0.17364 0.93654-0.92708
  -8   5   1 -23.591 29.3734   7-0.52853-0.04730 0.08338 0.33466-0.92661 0.91695
   8  -5  -1 70.3692 54.5465   4-0.02135 0.59759-0.43843 0.02079-0.88744 0.89654
   7   5  -1 146.279 50.2271   5 0.46404 0.03724 0.16537 0.25223 0.93988-0.94423
   7  -5  -1 92.4187 42.4578   4-0.05174 0.55380-0.36873-0.04906-0.92205 0.91780
  -7  -5   1 148.416 86.0410   9 0.05078-0.55264-0.36727-0.05052 0.92261-0.91824
  -7   5   1 203.422 73.0591   6-0.30113-0.20046 0.36295 0.05441-0.92184 0.92567
   7  -5  -1 76.1001 44.6375   8 0.48353 0.01823-0.14060-0.27719 0.93730-0.94139
  -7  -5   1 144.905 70.6299   3-0.43540-0.06669-0.20115-0.21701-0.94181 0.94572
   7   5  -1 -14.763 51.9212   2 0.40887 0.09265 0.23373 0.18413 0.94159-0.94557
  -7   5   1 115.172 68.7460   7-0.52737 0.02580 0.08314 0.33486-0.92714 0.93094
   6   5  -1 361.427 96.9345   5 0.46403-0.03686 0.16536 0.25228 0.93989-0.95766
  -6  -5   1 578.046 105.227   7-0.70450 0.27728 0.12067-0.53843-0.81548 0.83291
   6  -5  -1 520.484 118.163   4-0.08001 0.50787-0.30093-0.11701-0.94900 0.93137
  -6   5   1 421.310 107.621   6-0.29570-0.13166 0.34188 0.07551-0.93089 0.94819
  -6  -5   1 510.916 114.972   9 0.08096-0.50863-0.30182-0.11603 0.94891-0.93115
   6  -5  -1 386.187 99.7400   8 0.48563-0.05805-0.14150-0.27631 0.93638-0.95391
  -6  -5   1 439.841 110.499   3-0.43290 0.00507-0.19887-0.21927-0.94308 0.96045
   6   5  -1 342.564 96.4781   2 0.40494 0.02244 0.22860 0.18926 0.94398-0.96138
  -6   5   1 309.281 86.5255   7-0.53546 0.10814 0.08482 0.33314-0.92342 0.94069
   5  -5  -1 316.978 95.3947   4-0.10605 0.45969-0.23585-0.18223-0.96917 0.93813
  -5   5   1 392.834 103.927   6-0.29240-0.06075 0.32924 0.08815-0.93601 0.96678
   5   5  -1 363.098 92.4699   5 0.47226-0.11921 0.17029 0.24741 0.93608-0.96727
   5   5  -1 369.299 62.8679   6-0.32194 0.67531 0.44890-0.03131-0.87819 0.84704
   5  -5  -1 345.135 85.5820   8 0.49752-0.14412-0.14659-0.27123 0.93100-0.96198
  -5  -5   1 247.171 78.0596   3-0.43680 0.08326-0.20242-0.21569-0.94109 0.97192
  -5  -5   1 303.393 86.0488   9 0.10905-0.46252-0.23846-0.17944 0.96883-0.93766
   5   5  -1 209.683 67.5012   2 0.40606-0.05283 0.23005 0.18780 0.94331-0.97415
  -5   5   1 382.759 83.9910   7-0.55675 0.20370 0.08926 0.32865-0.91310 0.94381
   4   5  -1 1009.85 143.012   2 0.41342-0.13435 0.23971 0.17814 0.93874-0.98303
   4  -5  -1 1454.16 159.677   9-0.02962 0.30835-0.52880 0.11133 0.82890-0.87324
   4   5  -1 1187.01 126.460   6-0.28190 0.56111 0.29019 0.12759-0.95050 0.90595
  -4   5   1 1039.11 147.644   6-0.29153 0.01262 0.32597 0.09142-0.93731 0.98152
   4  -5  -1 872.810 133.216   4-0.12970 0.40911-0.17440-0.24380-0.98341 0.93893
  -4  -5   1 1014.53 142.505   9 0.13486-0.41413-0.17799-0.23994 0.98308-0.93848
  -4  -5   1 1095.87 149.853   3-0.44901 0.16975-0.21358-0.20449-0.93458 0.97887
   4   5  -1 988.642 135.088   5 0.49169-0.21276 0.18201 0.23576 0.92649-0.97113
   4  -5  -1 1172.01 149.397   8 0.52317-0.24396-0.15763-0.26023 0.91849-0.96291
  -4   5   1 945.177 136.834   1 0.15689-0.43609 0.19462 0.22358 0.98062-0.93632
  -4  -5   1 1331.83 151.495   4 0.01688-0.29606-0.52152 0.10395-0.83581 0.88012
  -4   5   1 1166.20 137.643   7-0.59754 0.31874 0.09782 0.32003-0.89097 0.93511
  -3   5   1 1174.07 88.3027   2 0.46152-0.66641 0.30425 0.11357 0.90310-0.84547
   3   5  -1 840.773 129.294   2 0.42855-0.22365 0.25972 0.15812 0.92866-0.98639
   3   5  -1 999.476 118.160   6-0.24769 0.45271 0.17141 0.24654-0.98268 0.92469
  -3   5   1 947.003 136.482   6-0.29341 0.08875 0.33312 0.08426-0.93446 0.99212
   3  -5  -1 1133.46 133.631   9-0.00142 0.20609-0.47425 0.05678 0.86563-0.92338
  -3  -5   1 920.921 133.614   9 0.15821-0.36327-0.12137-0.29659 0.99238-0.93436
   3   5  -1 978.941 125.172   5 0.52660-0.32178 0.20326 0.21460 0.90717-0.96525
   3  -5  -1 950.525 123.336   8 0.56862-0.36357-0.17739-0.24051 0.89302-0.95092
  -3   5   1 921.285 130.283   1 0.16944-0.37442 0.12788 0.29033 0.99171-0.93396
  -3  -5   1 986.138 132.605   3-0.47207 0.26711-0.23486-0.18316-0.92113 0.97887
  -3  -5   1 1189.52 140.272   4-0.00677-0.19826-0.47072 0.05314-0.86881 0.92658
   3  -5  -1 896.403 131.607   4-0.15084 0.35597-0.11753-0.30077-0.99261 0.93468
  -3   5   1 1138.18 123.012   7-0.66769 0.46311 0.11274 0.30505-0.84468 0.90223
   2  -5  -1 -9.1871 32.9284   4-0.16924 0.30010-0.06633-0.35206-0.99772 0.92633
  -2   5   1 -16.545 20.7960   1 0.17956-0.31032 0.07024 0.34799 0.99752-0.92630
   2   5  -1 3.52252 21.1139   6-0.22078 0.35157 0.08509 0.33301-0.99554 0.92409
  -2   5   1 6.70534 10.6354   2 0.32363-0.45430 0.12538 0.29247 0.98093-0.90992
  -2   5   1 0.08479 30.5370   6-0.29829 0.16786 0.35190 0.06545-0.92666 0.99776
   2  -5  -1 30.2820 36.2421   9 0.01419 0.11638-0.44306 0.02557 0.88418-0.95536
  -2  -5   1 -7.3877 30.6890   9 0.17888-0.30974-0.06962-0.34834 0.99758-0.92613
  -2  -5   1 -24.231 21.1708   3-0.50923 0.37859-0.26974-0.14820-0.89596 0.96713
   2   5  -1 -3.1897 25.8585   2 0.45320-0.32248 0.29289 0.12496 0.91004-0.98122
   2  -5  -1 -11.157 21.7321   8 0.64258-0.51171-0.21012-0.20781 0.84113-0.91252
   2   5  -1 -1.9372 12.1664   5 0.58293-0.45223 0.23817 0.17978 0.86955-0.94111
   2  -5  -1 3.74941 8.43483   3-0.37471 0.50568-0.14666-0.27168-0.96818 0.89696
  -1   5   1 41.0465 24.2705   1 0.18744-0.24395 0.02263 0.39562 0.99972-0.91504
   1   5  -1 21.2043 20.4278   6-0.20104 0.25758 0.02485 0.39335-0.99949 0.91456
   1  -5  -1 57.2083 37.6967   4-0.18472 0.24130-0.02198-0.39648-0.99975 0.91489
   1  -5  -1 119.446 48.9071   9 0.02084 0.03560-0.42956 0.01207 0.89169-0.97630
  -1   5   1 88.9658 47.5762   6-0.30630 0.25009 0.38350 0.03379-0.91242 0.99692
   1   5  -1 71.8189 38.0138   5 0.66748-0.61093 0.29240 0.12566 0.79435-0.87944
  -1  -5   1 75.8839 32.8230   3-0.56416 0.50784-0.32285-0.09500-0.84950 0.93406
  -1   5   1 81.1212 31.8430   2 0.24818-0.30463 0.03416 0.38370 0.99705-0.91260
  -1  -5   1 47.2211 15.6668   8 0.20675-0.26313-0.02562-0.39197 0.99934-0.91456
  -1  -5   1 57.5990 45.3563   9 0.19660-0.25325-0.02392-0.39403 0.99959-0.91471
   0   5  -1 4493.44 270.703   2 0.53740-0.55508 0.41272 0.00510 0.82055-0.91859
   0   5  -1 3520.70 248.663   6-0.18776 0.17003-0.01437 0.43262-0.99987 0.90148
   0   5   1 3885.82 265.910   6-0.31733 0.33533 0.42905-0.01181-0.88929 0.98720
   0  -5  -1 3716.03 253.692   9 0.02073-0.03843-0.42980 0.01229 0.89157-0.98961
   0  -5   1 4026.58 169.069   8 0.10792-0.09016 0.01406-0.43158 0.99716-0.89897
   0  -5   1 3821.35 254.680   9 0.21107-0.19353 0.01440-0.43232 0.99943-0.90112
   0  -5   1 2954.86 230.395   4-0.02515 0.04273-0.42989 0.01235-0.89208 0.99021
   0   5  -1 3845.78 127.170   7-0.05134 0.03339-0.01227 0.43047-0.99138 0.89304
   0  -5  -1 3798.25 116.125   7-0.18798 0.17010 0.01449-0.43217-0.99987 0.90184
   0  -5  -1 3646.86 251.679   4-0.19706 0.17934 0.01424-0.43274-0.99977 0.90144
   0   5   1 3648.12 256.522   1 0.19320-0.17547-0.01411 0.43236 0.99983-0.90169
   1   5   1 978.885 135.169   1 0.19698-0.10500-0.03917 0.45743 0.99911-0.88751
  -1  -5  -1 883.881 124.946   9 0.01531-0.10717-0.44080 0.02329 0.88546-0.99694
  -1   5  -1 1098.48 147.628   6-0.18014 0.08813-0.03647 0.45478-0.99933 0.88746
   1   5   1 1068.74 135.696   6-0.33092 0.42311 0.48919-0.07203-0.85365 0.96494
   1  -5   1 985.155 103.134   8 0.09209-0.00016 0.02035-0.43785 0.99575-0.88413
   1  -5   1 1158.66 137.507   9 0.22195-0.13020 0.04378-0.46167 0.99816-0.88644
   1  -5   1 1153.14 152.560   4-0.01992 0.11173-0.44163 0.02412-0.88567 0.99724
  -1   5  -1 1020.11 88.3960   7-0.05299-0.03923-0.01195 0.43019-0.99159 0.87979
   2   5   1 2415.79 212.122   1 0.19883-0.03260-0.05173 0.47000 0.99850-0.87344
  -2  -5  -1 2342.88 219.346   9 0.00561-0.17163-0.46029 0.04279 0.87414-0.99905
  -2   5  -1 2219.60 216.213   6-0.17736 0.01106-0.04445 0.46278-0.99900 0.87366
   2   5   1 2857.97 237.577   6-0.34599 0.51235 0.56373-0.14662-0.80039 0.92503
   2  -5   1 2380.34 180.073   8 0.10057 0.06555 0.01698-0.43447 0.99654-0.87149
   2   5   1 2338.30 81.8419   8 0.47303-0.30684-0.13611 0.55436 0.94180-0.81654
   2  -5   1 2061.31 207.738   4-0.01073 0.17676-0.46202 0.04457-0.87400 0.99899
  -2  -5  -1 2604.35 102.051   7 0.00010-0.16640-0.02222-0.39559-0.98318 0.85818
  -2   5  -1 2406.05 162.617   7-0.07644-0.09004-0.00738 0.42566-0.99439 0.86911
   2  -5   1 2163.15 185.913   9 0.22872-0.06280 0.06241-0.48025 0.99684-0.87170
  -3   5  -1 160.004 27.0997   6-0.17870-0.06186-0.04058 0.45893-0.99917 0.86037
   3   5   1 136.974 54.0207   1 0.19871 0.04178-0.05087 0.46914 0.99855-0.86003
  -3  -5  -1 190.553 81.0153   9-0.00763-0.23256-0.48645 0.06896 0.85790-0.99623
   3  -5   1 161.425 56.1616   8 0.11978 0.12052 0.00933-0.42681 0.99803-0.85954
   3  -5   1 169.177 57.0255   9 0.23072 0.00938 0.06793-0.48571 0.99637-0.85783
   3   5   1 205.554 27.8337   8 0.01023 0.23033 0.05263 0.36545 0.98388-0.84527
  -3  -5  -1 203.724 38.9609   7-0.09736-0.14317-0.00330-0.41448-0.99641 0.85797
  -3   5  -1 276.006 68.3761   7-0.10655-0.13419-0.00151 0.41981-0.99715 0.85841
   3  -5   1 180.094 71.2919   4 0.00180 0.23845-0.48935 0.07196-0.85725 0.99565
   4   5   1 351.054 80.6178   1 0.19642 0.11832-0.03541 0.45367 0.99926-0.84728
  -4   5  -1 163.315 65.6415   6-0.18357-0.13128-0.02658 0.44492-0.99964 0.84738
   4  -5   1 223.409 58.8593   9 0.22680 0.08745 0.05711-0.47484 0.99726-0.84531
  -4  -5  -1 294.905 70.5220   4-0.20648-0.10834 0.04252-0.46101-0.99877 0.84661
  -4  -5  -1 246.145 83.6165   9-0.02384-0.29053-0.51781 0.10034 0.83677-0.98850
   4  -5   1 251.033 69.0022   8 0.14474 0.16976-0.00065-0.41684 0.99932-0.84739
  -4   5  -1 221.204 66.8861   7-0.13959-0.17541 0.00496 0.41335-0.99910 0.84689
  -4  -5  -1 252.264 57.3601   7-0.15807-0.15669 0.00860-0.42637-0.99969 0.84780
   4  -5   1 197.923 69.6294   4 0.01718 0.29727-0.52216 0.10483-0.83537 0.98716
   5  -5   1 54.8275 45.0201   9 0.21500 0.17337 0.02497-0.44264 0.99909-0.83374
  -5   5  -1 61.4250 32.2596   6-0.19140-0.19770-0.00373 0.42205-0.99994 0.83423
  -5  -5  -1 60.8215 28.0368   4-0.19434-0.19469 0.00622-0.42466-0.99989 0.83431
  -5  -5  -1 0.13061 31.9635   9-0.04259-0.34597-0.55314 0.13571 0.81059-0.97573
   5  -5   1 95.0610 39.3098   8 0.17314 0.21555-0.01205-0.40543 0.99990-0.83454
   5   5   1 111.175 33.3071   1 0.19159 0.19742-0.00370 0.42194 0.99994-0.83450
  -5   5  -1 61.8789 31.9453   7-0.17417-0.21508 0.01177 0.40656-0.99991 0.83422
   5  -5   1 67.9000 43.5527   4 0.03505 0.35363-0.55921 0.14196-0.80814 0.97330
  -5  -5  -1 24.7240 17.3136   7-0.20795-0.18103 0.01844-0.43622-0.99946 0.83411
  -6   5  -1 1469.68 206.858   6-0.20176-0.26160 0.02701 0.39128-0.99942 0.82025
  -6  -5  -1 265.366 102.052   9-0.06353-0.39922-0.59139 0.17400 0.77915-0.95766
   6  -5   1 1958.52 244.566   8 0.20379 0.25911-0.02441-0.39307 0.99944-0.82064
  -6   5  -1 1667.70 216.405   7-0.20969-0.25382 0.01879 0.39956-0.99940 0.82025
  -6  -5  -1 1758.59 178.928   7-0.25330-0.20991 0.02745-0.44522-0.99689 0.81808
   7  -5   1 269.441 117.757   8 0.23595 0.30115-0.03746-0.38002 0.99773-0.80549
  -7   5  -1 186.920 129.871   6-0.21427-0.32332 0.06493 0.35330-0.99732 0.80471
   7   5   1 146.971 70.2612   2 0.24347 0.29330 0.02860 0.38919 0.99755-0.80566
  -7   5  -1 312.880 179.741   7-0.24580-0.29195 0.02596 0.39240-0.99748 0.80484
  -8   5  -1 -28.116 44.4127   6-0.22858-0.38322 0.10959 0.30859-0.99276 0.78670
   8   5   1 76.1916 70.4251   2 0.26623 0.34467 0.05563 0.36217 0.99460-0.78930
   8  -5   1 92.7653 55.0513   8 0.26923 0.34208-0.05104-0.36644 0.99460-0.78892
  -8   5  -1 89.7321 51.4279   7-0.28232-0.32967 0.03325 0.38512-0.99403 0.78792
  10   6  -1 -97.884 65.5809   5 0.51670 0.20696 0.19720 0.30379 0.91294-0.87713
  10  -6  -1 42.6247 92.6524   8 0.53872 0.18563-0.16436-0.33693 0.91027-0.87409
 -10  -6   1 -1.5289 76.7939   3-0.48393-0.24093-0.24591-0.25593-0.91358 0.87707
  10   6  -1 75.7537 75.4836   2 0.45229 0.27166 0.29165 0.20979 0.91078-0.87450
 -10   6   1 61.5257 49.6303   7-0.58370-0.14063 0.09491 0.40680-0.89884 0.86215
  -9  -6   1 327.685 118.707   9-0.01301-0.63724-0.49696-0.00427 0.85103-0.87336
  -9   6   1 343.372 127.372   6-0.31786-0.33219 0.43127 0.06957-0.88807 0.86487
  -9  -6   1 446.842 147.567   3-0.47131-0.17931-0.23416-0.26768-0.92159 0.89855
   9   6  -1 466.254 146.943   5 0.50442 0.14511 0.18972 0.31130 0.91978-0.89737
   9  -6  -1 260.595 98.9563   8 0.52696 0.12321-0.15927-0.34203 0.91653-0.89378
   9   6  -1 442.862 149.266   2 0.44004 0.20978 0.27510 0.22632 0.92033-0.89747
   9  -6  -1 370.578 134.854   4 0.00848 0.64199-0.50371 0.00256-0.84792 0.87035
  -9   6   1 420.424 138.778   7-0.57442-0.07564 0.09296 0.40872-0.90390 0.88070
  -8   6   1 32.1111 60.8903   6-0.31031-0.26551 0.39980 0.10109-0.90450 0.89480
  -8  -6   1 46.4901 57.2707   9 0.01723-0.59330-0.43692-0.06439 0.88764-0.89661
   8   6  -1 48.2282 71.0220   5 0.49597 0.07944 0.18459 0.31647 0.92428-0.91528
   8  -6  -1 59.8101 69.0750   8 0.51952 0.05645-0.15606-0.34525 0.92035-0.91103
  -8  -6   1 14.4959 53.3684   3-0.46188-0.11450-0.22542-0.27640-0.92727 0.91769
   8   6  -1 166.624 105.015   2 0.43045 0.14523 0.26226 0.23916 0.92732-0.91788
   8  -6  -1 71.1291 80.5211   4-0.02024 0.59653-0.44090-0.06039-0.88608 0.89517
  -8   6   1 67.5195 51.1261   7-0.57062-0.00517 0.09216 0.40948-0.90593 0.89620
   7  -6  -1 68.4540 59.9239   4-0.04697 0.54906-0.37990-0.12154-0.91699 0.91273
  -7   6   1 187.217 96.9691   6-0.30412-0.19748 0.37480 0.12613-0.91648 0.92027
  -7  -6   1 237.917 87.1316   9 0.04559-0.54747-0.37825-0.12312 0.91760-0.91319
   7  -6  -1 248.209 103.638   8 0.51769-0.01590-0.15527-0.34605 0.92127-0.92538
   7   6  -1 170.902 70.2241   5 0.49236 0.00892 0.18241 0.31870 0.92615-0.93056
  -7  -6   1 166.895 71.4794   3-0.45635-0.04576-0.22033-0.28148-0.93047 0.93436
   7   6  -1 147.540 79.2180   2 0.42405 0.07749 0.25374 0.24767 0.93176-0.93575
  -7   6   1 263.709 92.3476   7-0.57412 0.07259 0.09290 0.40870-0.90406 0.90780
  -6   6   1 1.08565 40.3757   7-0.58757 0.16031 0.09572 0.40583-0.89668 0.91387
   6  -6  -1 47.4526 34.1094   4-0.07161 0.49949-0.32137-0.18021-0.94154 0.92388
  -6  -6   1 68.6437 66.8402   9 0.07199-0.49967-0.32156-0.17986 0.94162-0.92381
  -6   6   1 27.7498 53.0980   6-0.29954-0.12784 0.35675 0.14420-0.92457 0.94183
   6  -6  -1 86.6634 56.1221   8 0.52323-0.09562-0.15766-0.34368 0.91846-0.93601
   6   6  -1 45.9182 43.2509   5 0.49498-0.06781 0.18399 0.31717 0.92480-0.94262
  -6  -6   1 -32.590 50.1204   3-0.45568 0.02785-0.21972-0.28207-0.93084 0.94820
   6   6  -1 9.23105 72.7952   2 0.42150 0.00590 0.25036 0.25105 0.93348-0.95090
   5   6  -1 2121.42 242.248   2 0.42360-0.07036 0.25315 0.24826 0.93207-0.96293
  -5   6   1 2069.29 237.657   6-0.29683-0.05631 0.34622 0.15474-0.92907 0.95980
  -5  -6   1 1744.79 210.968   9 0.09630-0.44977-0.26752-0.23394 0.96035-0.92914
  -5  -6   1 2069.57 229.731   3-0.46110 0.10756-0.22471-0.27706-0.92772 0.95854
   5   6  -1 2250.09 231.094   5 0.50568-0.15263 0.19049 0.31074 0.91909-0.95034
   5  -6  -1 2243.48 231.989   8 0.53863-0.18520-0.16432-0.33704 0.91032-0.94131
   5  -6  -1 1959.35 232.240   4-0.09412 0.44775-0.26600-0.23570-0.96050 0.92943
  -5   6   1 2215.16 214.005   7-0.61495 0.26194 0.10149 0.40000-0.88051 0.91114
  -4   6   1 34.2352 35.1709   7-0.66217 0.38341 0.11155 0.38987-0.84875 0.89280
   4  -6  -1 18.6095 28.5760   8 0.56750-0.28825-0.17690-0.32450 0.89370-0.93815
   4  -6  -1 7.38059 44.6571   4-0.11435 0.39373-0.21456-0.28726-0.97462 0.93013
  -4   6   1 -36.882 39.5672   1 0.14868-0.42791 0.23579 0.26603 0.97137-0.92707
   4   6  -1 84.2880 45.1889   6-0.29177 0.57104 0.32689 0.17443-0.93694 0.89233
  -4   6   1 68.6801 72.6055   6-0.29624 0.01734 0.34393 0.15703-0.93003 0.97421
  -4  -6   1 38.1724 42.9199   9 0.11838-0.39765-0.21684-0.28465 0.97445-0.92983
   4  -6  -1 104.835 56.0598   9-0.02227 0.30101-0.51481 0.01385 0.83887-0.88320
   4   6  -1 55.2466 46.6575   5 0.52706-0.24811 0.20354 0.29776 0.90689-0.95158
  -4  -6   1 -1.0875 35.1739   3-0.47418 0.19494-0.23682-0.26491-0.91982 0.96410
   4   6  -1 -15.607 55.7215   2 0.43132-0.15225 0.26343 0.23799 0.92670-0.97101
  -3   6   1 534.031 91.4640   7-0.73763 0.53309 0.12790 0.37344-0.78570 0.84313
   3  -6  -1 373.371 94.7406   4-0.13219 0.33730-0.16783-0.33409-0.98467 0.92673
   3   6  -1 560.116 119.660   2 0.44582-0.24092 0.28289 0.21853 0.91591-0.97366
   3   6  -1 379.243 87.0650   6-0.26490 0.46997 0.22972 0.27175-0.96905 0.91101
  -3   6   1 409.621 104.283   6-0.29797 0.09333 0.35066 0.15029-0.92719 0.98482
  -3  -6   1 533.389 111.382   9 0.13808-0.34314-0.17031-0.33119 0.98456-0.92652
   3  -6  -1 568.337 108.160   9-0.00001 0.20468-0.47146-0.02952 0.86736-0.92510
  -3   6   1 434.235 102.321   1 0.15962-0.36463 0.18049 0.32134 0.98336-0.92561
   3   6  -1 457.249 94.1541   5 0.56265-0.35781 0.22551 0.27589 0.88408-0.94223
  -3  -6   1 357.199 94.0706   3-0.49692 0.29200-0.25809-0.24357-0.90480 0.96253
   3  -6  -1 482.166 91.7909   8 0.61499-0.40991-0.19782-0.30362 0.86216-0.92009
  -3  -6   1 499.212 103.226   4-0.00771-0.19736-0.46865-0.03250-0.87005 0.92782
  -2   6   1 331.634 61.9644   2 0.38671-0.51739 0.20495 0.29648 0.95429-0.88327
  -2  -6   1 262.871 87.4154   9 0.15519-0.28605-0.12880-0.37270 0.99138-0.91991
  -2   6   1 223.451 74.5737   6-0.30222 0.17181 0.36726 0.13364-0.91992 0.99098
   2  -6  -1 302.596 78.6920   9 0.01280 0.11775-0.44585-0.05515 0.88259-0.95375
   2  -6  -1 199.995 72.3079   4-0.14747 0.27832-0.12670-0.37530-0.99138 0.91999
   2   6  -1 306.663 87.4113   6-0.24301 0.37384 0.15599 0.34561-0.98561 0.91412
   2  -6  -1 357.697 51.8338   3-0.47596 0.60702-0.23848-0.26342-0.91870 0.84740
   2   6  -1 362.173 90.4480   2 0.46837-0.33764 0.31367 0.18775 0.89711-0.96831
  -2  -6   1 243.212 69.5751   3-0.53176 0.40115-0.29127-0.21032-0.87836 0.94951
   2  -6  -1 340.782 83.4386   8 0.68783-0.55692-0.23060-0.27089 0.80156-0.87301
  -2   6   1 215.611 69.1681   1 0.16848-0.29924 0.13318 0.36867 0.99101-0.91980
  -2  -6   1 252.744 69.7456   4-0.01864-0.11223-0.44447-0.05669-0.88408 0.95532
   1   6  -1 4487.80 299.837   2 0.50016-0.44363 0.35829 0.14313 0.86584-0.95047
   1   6  -1 4199.46 290.752   6-0.22623 0.28282 0.10215 0.39957-0.99368 0.90873
  -1   6   1 4377.06 247.500   2 0.31778-0.37424 0.11816 0.38328 0.98276-0.89832
  -1   6   1 4745.62 330.531   6-0.30905 0.25287 0.39463 0.10622-0.90706 0.99153
  -1  -6   1 4432.89 305.008   9 0.16951-0.22617-0.09328-0.40820 0.99559-0.91070
  -1  -6   1 4449.01 283.618   3-0.58119 0.52492-0.33978-0.16173-0.83243 0.91696
   1  -6  -1 4357.15 295.537   9 0.01849 0.03794-0.43435-0.06668 0.88907-0.97366
   1  -6  -1 4729.82 220.290   3-0.34916 0.40583-0.12416-0.37795-0.97667 0.89198
  -1  -6   1 4268.43 296.599   4-0.02341-0.03326-0.43381-0.06734-0.88997 0.97465
  -1   6   1 4188.90 303.703   1 0.17537-0.23191 0.09456 0.40731 0.99549-0.91082
   1  -6  -1 4240.52 305.363   4-0.16004 0.21660-0.09211-0.40995-0.99552 0.91067
   0  -6  -1 169.709 47.0233   3-0.28256 0.26485-0.06662-0.43559-0.99228 0.89413
   0  -6  -1 136.162 57.4829   4-0.16966 0.15192-0.06514-0.43695-0.99780 0.89949
   0   6  -1 106.624 42.7603   6-0.21432 0.19664 0.06511 0.43668-0.99730 0.89889
   0   6   1 201.595 64.8984   1 0.18040-0.16269 0.06528 0.43660 0.99786-0.89973
   0   6   1 219.471 75.0797   6-0.31839 0.33643 0.43355 0.06723-0.88683 0.98470
   0  -6   1 129.309 53.8250   9 0.18074-0.16320-0.06488-0.43658 0.99790-0.89959
   0  -6  -1 180.811 60.1378   9 0.01855-0.03626-0.43423-0.06681 0.88913-0.98716
   0  -6   1 227.872 41.7502   8 0.30671-0.28885-0.06644-0.43467 0.98935-0.89115
   0  -6   1 191.606 70.9255   4-0.02318 0.04074-0.43433-0.06681-0.88968 0.98782
  -1   6  -1 3200.27 276.524   6-0.20686 0.11489 0.04235 0.45951-0.99876 0.88687
   1   6   1 3061.07 259.652   6-0.32992 0.42217 0.48459 0.01612-0.85660 0.96786
   1   6   1 3173.50 252.219   2 0.25027-0.15836 0.03664 0.46477 0.99681-0.88551
   1  -6   1 2866.00 237.116   9 0.18854-0.09681-0.04487-0.45655 0.99897-0.88724
  -1  -6  -1 3089.10 265.591   9 0.01402-0.10589-0.44340-0.05766 0.88399-0.99545
   1  -6   1 3366.16 199.437   8 0.23688-0.14489-0.03784-0.46321 0.99766-0.88603
   1  -6   1 2998.87 266.173   4-0.01880 0.11059-0.44414-0.05698-0.88427 0.99585
  -1   6  -1 3480.02 159.402   7-0.27910 0.18700 0.03260 0.46916-0.99440 0.88261
  -1  -6  -1 3303.41 262.303   4-0.17603 0.08401-0.04704-0.45508-0.99887 0.88710
   1   6   1 2587.69 241.029   1 0.18363-0.09166 0.04602 0.45586 0.99893-0.88734
   2  -6   1 129.308 56.5510   9 0.19242-0.02651-0.03482-0.46655 0.99933-0.87420
  -2   6  -1 44.3534 44.3553   6-0.20336 0.03711 0.03180 0.47010-0.99924 0.87389
  -2  -6  -1 45.1687 37.5067   4-0.17875 0.01245-0.03924-0.46288-0.99922 0.87399
   2   6   1 28.0219 52.5859   6-0.34295 0.50937 0.54778-0.04714-0.81272 0.93734
  -2  -6  -1 76.7951 51.7474   9 0.00568-0.17171-0.46016-0.04090 0.87422-0.99911
   2   6   1 73.3280 54.8763   1 0.18503-0.01881 0.03747 0.46442 0.99928-0.87424
   2  -6   1 70.8107 32.2413   8 0.21376-0.04759-0.02845-0.47257 0.99905-0.87399
  -2   6  -1 100.388 35.8768   7-0.23281 0.06643 0.02338 0.47845-0.99834 0.87307
   2  -6   1 75.8129 58.8776   4-0.01090 0.17692-0.46165-0.03941-0.87422 0.99922
  -3   6  -1 42.8322 35.9134   6-0.20336-0.03717 0.03180 0.47011-0.99924 0.86042
  -3  -6  -1 133.112 49.8651   4-0.17724-0.06333-0.04360-0.45850-0.99903 0.86035
   3  -6   1 99.7106 41.1445   9 0.19169 0.04838-0.03672-0.46460 0.99927-0.86073
   3  -6   1 136.568 53.4629   8 0.21191 0.02844-0.02770-0.47331 0.99913-0.86064
   3   6   1 -51.809 38.7923   6-0.35622 0.59680 0.62227-0.12169-0.75019 0.88815
  -3  -6  -1 82.6874 57.6406   9-0.00592-0.23429-0.48311-0.01794 0.86005-0.99836
   3   6   1 48.8548 50.9889   1 0.18455 0.05593 0.04042 0.46148 0.99917-0.86066
  -3   6  -1 3.48831 33.5541   7-0.22596-0.01470 0.02201 0.47986-0.99871 0.85996
   3  -6   1 134.492 63.3766   4 0.00005 0.24020-0.48557-0.01543-0.85964 0.99806
  -4   6  -1 505.782 136.317   6-0.20643-0.10837 0.04105 0.46086-0.99883 0.84655
  -4  -6  -1 430.046 99.2422   4-0.17056-0.14425-0.06259-0.43946-0.99797 0.84585
   4  -6   1 395.292 88.4337   9 0.18527 0.12894-0.05329-0.44797 0.99858-0.84663
   4   6   1 492.722 110.715   1 0.18199 0.13274 0.05584 0.44605 0.99843-0.84647
  -4  -6  -1 237.239 84.9974   9-0.02032-0.29408-0.51106 0.01003 0.84147-0.99320
   4  -6   1 370.917 100.333   8 0.22173 0.09279-0.03169-0.46933 0.99864-0.84672
  -4   6  -1 350.233 81.7328   7-0.23578-0.07913 0.02397 0.47794-0.99816 0.84593
   4  -6   1 333.635 114.928   4 0.01368 0.30081-0.51474 0.01381-0.84049 0.99230
  -5   6  -1 1579.90 223.619   6-0.21218-0.17690 0.05851 0.44338-0.99779 0.83205
   5   6   1 1915.84 287.839   2 0.24715 0.14139 0.03294 0.46842 0.99716-0.83213
  -5  -6  -1 1538.66 240.174   9-0.03717-0.35142-0.54303 0.04202 0.81835-0.98348
   5  -6   1 1770.12 224.614   8 0.23870 0.15001-0.03858-0.46242 0.99752-0.83217
   5  -6   1 1724.48 243.842   4 0.02966 0.35905-0.54816 0.04730-0.81655 0.98174
  -5   6  -1 1606.87 197.100   7-0.25438-0.13481 0.02767 0.47428-0.99680 0.83110
   5   6   1 1627.36 187.498   1 0.17703 0.21197 0.08504 0.41684 0.99636-0.83094
  -6   6  -1 -49.862 77.7422   6-0.22023-0.24309 0.08339 0.41846-0.99571 0.81651
  -6  -6  -1 -55.325 81.9955   9-0.05618-0.40660-0.57811 0.07713 0.79045-0.96896
   6   6   1 -41.198 66.8782   2 0.26003 0.20264 0.04823 0.45312 0.99554-0.81708
   6  -6   1 -103.34 83.4998   8 0.26039 0.20253-0.04743-0.45358 0.99556-0.81678
   6  -6   1 -63.645 53.0203   4 0.04777 0.41515-0.58495 0.08417-0.78752 0.96606
  -6   6  -1 35.6655 46.6394   7-0.27816-0.18528 0.03241 0.46955-0.99450 0.81532
  -7  -6  -1 215.026 111.023   3-0.27990-0.25787-0.06435-0.43795-0.99272 0.80029
  -7   6  -1 149.145 70.5807   6-0.23032-0.30726 0.11507 0.38673-0.99205 0.79939
   7   6   1 132.902 95.3595   2 0.27616 0.26065 0.06752 0.43383 0.99289-0.80102
  -7  -6  -1 -168.91 85.1835   9-0.07712-0.45985-0.61554 0.11460 0.75746-0.94934
   7  -6   1 124.188 67.9783   8 0.28535 0.25177-0.05765-0.44335 0.99257-0.80035
  -7   6  -1 316.462 93.2093   7-0.30529-0.23240 0.03784 0.46413-0.99108 0.79842
   8   6   1 -49.913 66.2925   2 0.29490 0.31604 0.09017 0.41119 0.98894-0.78364
   8  -6   1 49.1931 59.8949   8 0.31269 0.29863-0.06890-0.43211 0.98834-0.78269
   9   6   1 120.618 116.059   2 0.31579 0.36929 0.11570 0.38566 0.98336-0.76465
  -9  -6  -1 77.4808 77.0598   3-0.32556-0.36068-0.10360-0.39869-0.98324 0.76391
  -9   7   1 218.557 127.203   7-0.61875-0.03127 0.10230 0.48299-0.87815 0.85484
  -9   7   1 19.0363 74.4236   6-0.32058-0.32950 0.44296 0.14146-0.88158 0.85832
  -9  -7   1 -12.023 76.0186   9-0.01531-0.63496-0.50140-0.08342 0.84806-0.87035
   9   7  -1 42.4520 58.9533   5 0.53175 0.11778 0.20641 0.37813 0.90408-0.88174
  -9  -7   1 16.8426 79.4874   3-0.49154-0.15911-0.25304-0.33245-0.90850 0.88543
   9  -7  -1 -14.974 57.7854   8 0.55982 0.09035-0.17354-0.41127 0.89830-0.87558
   9   7  -1 111.882 99.1575   2 0.45463 0.19521 0.29485 0.29014 0.90887-0.88602
   9  -7  -1 162.257 101.065   4 0.01033 0.64020-0.50764-0.07715-0.84530 0.86769
  -8   7   1 691.990 154.239   7-0.61930 0.04356 0.10242 0.48283-0.87779 0.86797
  -8   7   1 852.181 190.277   6-0.31403-0.26184 0.41510 0.16936-0.89670 0.88694
  -8  -7   1 838.951 198.789   9 0.01189-0.58798-0.44769-0.13720 0.88153-0.89047
   8   7  -1 751.104 174.774   5 0.52581 0.04959 0.20277 0.38180 0.90764-0.89871
   8  -7  -1 715.413 172.186   8 0.55546 0.02053-0.17164-0.41318 0.90085-0.89156
  -8  -7   1 780.930 173.803   3-0.48405-0.09234-0.24602-0.33946-0.91350 0.90390
   8   7  -1 771.867 180.443   2 0.44663 0.12908 0.28398 0.30100 0.91528-0.90586
   8  -7  -1 556.554 159.359   4-0.01544 0.59177-0.45161-0.13332-0.88004 0.88910
   7  -7  -1 134.531 91.7899   4-0.03925 0.54137-0.39777-0.18731-0.90852 0.90422
  -7   7   1 348.632 107.043   7-0.62778 0.12630 0.10422 0.48098-0.87239 0.87603
  -7   7   1 252.524 93.7399   6-0.30871-0.19292 0.39322 0.19128-0.90774 0.91148
  -7  -7   1 165.748 112.098   9 0.03724-0.53913-0.39577-0.18917 0.90921-0.90477
   7   7  -1 135.351 57.2882   5 0.52482-0.02353 0.20216 0.38246 0.90823-0.91270
   7  -7  -1 232.312 79.6769   8 0.55694-0.05513-0.17228-0.41256 0.89999-0.90414
  -7  -7   1 118.345 69.5469   3-0.48043-0.02169-0.24265-0.34283-0.91585 0.91972
   7   7  -1 378.848 131.030   2 0.44169 0.05987 0.27733 0.30765 0.91908-0.92309
   6  -7  -1 654.884 149.969   4-0.06107 0.48894-0.34669-0.23852-0.93151 0.91383
  -6   7   1 665.405 150.703   6-0.30484-0.12254 0.37767 0.20686-0.91516 0.93237
  -6  -7   1 470.387 127.532   9 0.06063-0.48831-0.34621-0.23878 0.93174-0.91390
  -6  -7   1 705.091 159.677   3-0.48151 0.05369-0.24366-0.34181-0.91515 0.93249
   6   7  -1 575.841 143.753   2 0.44040-0.01298 0.27559 0.30940 0.92006-0.93750
   6   7  -1 465.070 128.745   5 0.53003-0.10285 0.20536 0.37932 0.90511-0.92301
   6  -7  -1 616.008 137.316   8 0.56597-0.13833-0.17623-0.40864 0.89463-0.91222
   5  -7  -1 -3.6690 30.6828   4-0.08081 0.43444-0.29896-0.28637-0.94969 0.91860
  -5  -7   1 -26.761 50.2723   9 0.08198-0.43545-0.29958-0.28544 0.94971-0.91847
  -5   7   1 42.9342 57.8374   6-0.30264-0.05049 0.36891 0.21562-0.91917 0.94985
   5   7  -1 35.7816 41.6199   5 0.54316-0.19008 0.21344 0.37132 0.89698-0.92830
  -5  -7   1 78.0203 49.2767   3-0.48837 0.13484-0.25006-0.33537-0.91064 0.94144
   5  -7  -1 38.7134 59.0368   8 0.58488-0.23141-0.18451-0.40038 0.88280-0.91383
   5   7  -1 -22.845 37.1769   2 0.44341-0.09015 0.27964 0.30534 0.91777-0.94866
   4  -7  -1 994.028 177.065   4-0.09840 0.37777-0.25523-0.33020-0.96373 0.91921
   4   7  -1 1153.89 161.698   6-0.30178 0.58111 0.36554 0.21929-0.92069 0.87600
   4   7  -1 1047.31 158.181   5 0.56643-0.28746 0.22786 0.35698 0.88146-0.92622
  -4   7   1 1031.99 174.290   6-0.30228 0.02340 0.36751 0.21702-0.91980 0.96394
   4  -7  -1 1203.36 187.990   9-0.02472 0.30346-0.51948-0.06498 0.83559-0.87990
  -4  -7   1 1052.25 171.392   3-0.50229 0.22308-0.26317-0.32222-0.90100 0.94525
   4  -7  -1 808.655 139.628   8 0.61690-0.33760-0.19867-0.38627 0.86078-0.90528
   4   7  -1 1059.28 175.149   2 0.45151-0.17241 0.29060 0.29439 0.91141-0.95573
  -4  -7   1 972.116 164.348   9 0.10116-0.38043-0.25650-0.32854 0.96370-0.91905
  -4  -7   1 1375.09 199.506   4 0.01373-0.29304-0.51487-0.06983-0.84040 0.88467
  -3  -7   1 214.931 79.5436   9 0.11803-0.32310-0.21766-0.36739 0.97425-0.91618
   3  -7  -1 281.304 94.9895   4-0.11372 0.31882-0.21618-0.36936-0.97423 0.91627
  -3   7   1 206.682 79.5896   1 0.14978-0.35480 0.23041 0.35505 0.97268-0.91494
   3   7  -1 128.499 66.0902   6-0.27988 0.48500 0.28284 0.30215-0.95300 0.89489
  -3   7   1 270.088 100.072   6-0.30394 0.09930 0.37405 0.21045-0.91683 0.97441
   3  -7  -1 167.431 61.8668   9-0.00568 0.21033-0.48262-0.10187 0.86036-0.91809
   3   7  -1 191.305 70.4113   5 0.60274-0.39787 0.25066 0.33428 0.85416-0.91239
  -3  -7   1 113.951 40.4592   3-0.52489 0.32000-0.28468-0.30065-0.88392 0.94161
   3   7  -1 151.327 78.3597   2 0.46558-0.26066 0.30983 0.27517 0.89958-0.95735
   3  -7  -1 192.645 72.4559   8 0.66629-0.46115-0.22081-0.36417 0.82124-0.87924
  -3  -7   1 139.308 76.1242   4-0.00248-0.20264-0.48007-0.10466-0.86308 0.92082
   2   7  -1 2251.64 215.745   5 0.65546-0.52470 0.28453 0.30052 0.80671-0.87843
   2   7  -1 1706.91 210.098   2 0.48654-0.35581 0.33898 0.24602 0.87998-0.95119
   2   7  -1 1670.15 195.196   6-0.26157 0.39246 0.21825 0.36689-0.97206 0.90051
  -2   7   1 1872.45 225.334   6-0.30771 0.17733 0.38918 0.19528-0.90970 0.98071
   2  -7  -1 2063.77 221.646   9 0.00571 0.12485-0.46010-0.12442 0.87426-0.94541
  -2  -7   1 1916.16 207.139   3-0.55796 0.42741-0.31676-0.26850-0.85537 0.92647
  -2   7   1 1444.77 197.858   1 0.15766-0.28845 0.19067 0.39481 0.98141-0.91020
  -2  -7   1 1680.82 211.316   9 0.13243-0.26329-0.18379-0.40125 0.98191-0.91042
  -2  -7   1 1838.04 215.376   4-0.01220-0.11873-0.45879-0.12596-0.87590 0.94711
   2  -7  -1 1822.37 224.400   4-0.12663 0.25745-0.18251-0.40309-0.98179 0.91039
  -1   7   1 181.557 62.5970   2 0.37498-0.43145 0.18990 0.39513 0.96026-0.87584
   1  -7  -1 351.185 104.483   4-0.13697 0.19350-0.15506-0.43059-0.98696 0.90210
   1   7  -1 228.484 90.3148   6-0.24712 0.30375 0.16955 0.41570-0.98305 0.89805
  -1   7   1 213.222 69.2333   6-0.31365 0.25751 0.41355 0.17085-0.89751 0.98194
   1  -7  -1 249.656 70.5488   9 0.01108 0.04536-0.44935-0.13520 0.88058-0.96516
   1   7  -1 307.625 84.9727   2 0.51519-0.45866 0.37994 0.20505 0.84881-0.93347
  -1  -7   1 249.834 85.3875   3-0.60317 0.54695-0.36197-0.22318-0.80819 0.89267
  -1   7   1 262.377 81.1211   1 0.16378-0.22033 0.15862 0.42688 0.98719-0.90253
  -1  -7   1 296.386 86.5737   9 0.14414-0.20081-0.15572-0.42930 0.98720-0.90229
  -1  -7   1 244.113 81.2160   4-0.01669-0.04001-0.44884-0.13591-0.88162 0.96630
   0  -7  -1 110.515 47.9296   4-0.14452 0.12677-0.13471-0.45096-0.99023 0.89191
   0   7  -1 231.131 106.681   6-0.23646 0.21882 0.13472 0.45061-0.98920 0.89073
   0   7   1 160.024 61.2271   2 0.33298-0.31525 0.13696 0.44805 0.97780-0.87994
   0   7  -1 179.866 74.6618   2 0.55182-0.56950 0.43459 0.15039 0.79989-0.89796
   0  -7   1 202.619 68.9442   9 0.15290-0.13538-0.13441-0.45058 0.99058-0.89226
   0  -7  -1 122.792 51.0544   9 0.01154-0.02927-0.44840-0.13618 0.88113-0.97914
   0   7   1 176.098 66.6852   6-0.32169 0.33977 0.44776 0.13657-0.87884 0.97668
   0   7   1 205.921 72.8192   1 0.16819-0.15049 0.13479 0.45072 0.99078-0.89267
   0  -7  -1 169.763 55.4448   3-0.36515 0.34753-0.13822-0.44763-0.97153 0.87334
   0  -7   1 199.667 76.6847   4-0.01684 0.03437-0.44851-0.13624-0.88181 0.97994
   1   7   1 397.298 111.269   1 0.17091-0.07897 0.11974 0.46577 0.99274-0.88117
  -1  -7  -1 426.069 112.320   4-0.14901 0.05697-0.12251-0.46319-0.99196 0.88018
  -1   7  -1 498.760 122.035   6-0.22937 0.13745 0.11207 0.47333-0.99244 0.88052
   1   7   1 301.267 94.1441   2 0.30603-0.21410 0.10373 0.48128 0.98612-0.87483
   1   7   1 409.814 103.438   6-0.33158 0.42387 0.49223 0.09203-0.85169 0.96291
  -1  -7  -1 605.212 137.606   9 0.00794-0.09982-0.45563-0.12896 0.87691-0.98835
   1  -7   1 368.476 99.9656   9 0.15839-0.06668-0.12095-0.46399 0.99244-0.88071
  -1  -7  -1 561.746 103.790   3-0.32384 0.23185-0.10211-0.48381-0.98368 0.87203
   1  -7   1 384.454 106.906   4-0.01330 0.10508-0.45636-0.12836-0.87731 0.98888
  -2   7  -1 2847.17 294.631   6-0.22558 0.05937 0.10007 0.48537-0.99392 0.86854
   2   7   1 3414.13 305.562   2 0.29033-0.12422 0.08462 0.50036 0.98999-0.86527
   2   7   1 3728.83 326.232   6-0.34281 0.50930 0.54707 0.03711-0.81325 0.93783
   2  -7   1 2860.87 254.288   9 0.16013 0.00576-0.11666-0.46823 0.99299-0.86785
  -2  -7  -1 3431.58 319.929   9 0.00085-0.16690-0.46976-0.11484 0.86841-0.99328
  -2  -7  -1 3239.05 273.501   3-0.30097 0.13464-0.08237-0.50359-0.98886 0.86374
   2  -7   1 3469.88 240.401   8 0.32809-0.16184-0.07526-0.50932 0.98552-0.86047
   2  -7   1 2672.98 281.524   4-0.00655 0.17257-0.47119-0.11349-0.86853 0.99353
   2   7   1 3216.08 301.048   1 0.17193-0.00572 0.11407 0.47145 0.99342-0.86838
  -2  -7  -1 3301.57 288.865   4-0.15005-0.01627-0.11967-0.46601-0.99233 0.86711
  -3  -7  -1 442.580 111.074   3-0.29073 0.05007-0.07359-0.51239-0.99085 0.85225
   3   7   1 516.734 133.091   1 0.17115 0.06932 0.11843 0.46708 0.99290-0.85441
   3  -7   1 539.059 109.552   8 0.30733-0.06692-0.06669-0.51787 0.98925-0.85077
  -3  -7  -1 492.042 106.182   4-0.14709-0.09349-0.12775-0.45791-0.99123 0.85256
  -3   7  -1 569.982 129.741   6-0.22476-0.01573 0.09751 0.48794-0.99422 0.85536
  -3  -7  -1 518.814 132.754   9-0.00927-0.23097-0.48965-0.09495 0.85583-0.99412
   3   7   1 -19.081 45.0574   6-0.35451 0.59516 0.61182-0.02772-0.75976 0.89768
   3   7   1 491.330 128.848   2 0.28322-0.04295 0.07601 0.50895 0.99152-0.85336
   3  -7   1 507.811 103.751   9 0.15746 0.08258-0.12325-0.46159 0.99214-0.85359
   3  -7   1 491.288 131.553   4 0.00300 0.23726-0.49194-0.09268-0.85560 0.99401
  -4  -7  -1 498.585 112.422   3-0.28949-0.02547-0.07254-0.51345-0.99107 0.83900
   4  -7   1 755.439 130.161   8 0.30308 0.01149-0.06494-0.51960 0.98994-0.83803
  -4  -7  -1 764.881 138.936   4-0.13932-0.17551-0.14877-0.43684-0.98802 0.83591
  -4   7  -1 781.320 165.687   6-0.22662-0.08815 0.10338 0.48208-0.99353 0.84121
   4  -7   1 708.318 125.989   9 0.14939 0.16477-0.14298-0.44179 0.98928-0.83734
   4   7   1 915.524 177.836   2 0.28277 0.03165 0.07548 0.50947 0.99161-0.84002
  -4  -7  -1 660.068 155.768   9-0.02203-0.29239-0.51434-0.07025 0.83920-0.99090
   4   7   1 744.944 146.075   1 0.16839 0.14633 0.13365 0.45186 0.99094-0.83899
   4  -7   1 780.718 172.628   4 0.01507 0.29943-0.51769-0.06687-0.83847 0.99028
  -5  -7  -1 384.388 126.206   3-0.29493-0.09431-0.07719-0.50879-0.99006 0.82453
  -5   7  -1 309.141 118.316   6-0.23088-0.15817 0.11684 0.46861-0.99181 0.82602
   5  -7   1 349.408 106.230   8 0.30914 0.07962-0.06744-0.51710 0.98895-0.82361
   5   7   1 435.039 138.494   2 0.28760 0.10097 0.08130 0.50362 0.99059-0.82558
  -5  -7  -1 312.588 107.411   9-0.03715-0.35146-0.54300-0.04157 0.81837-0.98347
   5   7   1 322.673 80.6206   1 0.16337 0.22562 0.16078 0.42472 0.98684-0.82142
   5  -7   1 191.495 86.4055   4 0.02939 0.35934-0.54762-0.03686-0.81696 0.98216
   6   7   1 278.012 112.575   2 0.29664 0.16607 0.09229 0.49264 0.98852-0.81008
  -6   7  -1 113.930 72.7804   6-0.23724-0.22606 0.13724 0.44817-0.98880 0.80955
  -6  -7  -1 232.363 105.565   9-0.05440-0.40841-0.57487-0.00968 0.79315-0.97164
   6  -7   1 245.293 112.305   8 0.32209 0.14085-0.07278-0.51175 0.98666-0.80789
   6  -7   1 195.719 108.414   4 0.04579 0.41717-0.58097-0.00344-0.79080 0.96937
  -6  -7  -1 129.647 73.9904   3-0.30544-0.15809-0.08621-0.49977-0.98793 0.80893
  -7   7  -1 -78.885 68.9625   6-0.24546-0.29209 0.16407 0.42131-0.98411 0.79140
   7   7   1 -30.476 66.5069   2 0.30912 0.22773 0.10752 0.47741 0.98528-0.79341
  -7  -7  -1 -215.67 103.338   9-0.07356-0.46344-0.60927 0.02475 0.76323-0.95510
   7  -7   1 116.836 78.5755   8 0.33990 0.19724-0.08015-0.50437 0.98313-0.79094
  -7   7  -1 -131.56 105.148   7-0.37346-0.16415 0.05158 0.53400-0.97856 0.78585
  -7  -7  -1 -56.455 67.1309   3-0.31988-0.21791-0.09868-0.48730-0.98465 0.79219
  -9  -8   1 -149.42 127.405   9-0.02103-0.62925-0.51243-0.15599 0.84053-0.86277
  -9   8   1 74.7544 67.0744   6-0.32455-0.32555 0.46037 0.20763-0.87149 0.84816
   9  -8  -1 -34.227 76.8572   8 0.59685 0.05334-0.18979-0.47855 0.87487-0.85220
   9  -8  -1 128.766 129.422   4 0.01544 0.63512-0.51847-0.14998-0.83793 0.86028
  -8   8   1 324.657 148.785   6-0.31885-0.25701 0.43555 0.23249-0.88572 0.87590
  -8  -8   1 143.227 85.9254   9 0.00367-0.57976-0.46415-0.20431 0.87182-0.88071
   8   8  -1 233.803 116.119   5 0.55901 0.01641 0.22323 0.44485 0.88657-0.87773
  -8  -8   1 286.624 139.619   3-0.50870-0.06771-0.26924-0.39992-0.89635 0.88670
   8  -8  -1 140.979 86.0581   8 0.59559-0.01957-0.18923-0.47912 0.87572-0.86648
   8  -8  -1 336.865 147.778   4-0.00791 0.58426-0.46821-0.20037-0.87032 0.87934
  -7   8   1 -35.258 76.9216   6-0.31429-0.18734 0.41625 0.25183-0.89611 0.89977
  -7  -8   1 -59.825 74.9265   9 0.02653-0.52841-0.41794-0.25057 0.89793-0.89344
   7   8  -1 72.9370 88.1106   5 0.56054-0.05922 0.22418 0.44395 0.88553-0.89009
   7   8  -1 10.4821 65.4998   2 0.46109 0.04050 0.30367 0.36488 0.90346-0.90749
  -7  -8   1 2.92230 58.9532   3-0.50685 0.00473-0.26748-0.40167-0.89771 0.90153
   7  -8  -1 -45.090 63.4754   8 0.60037-0.09852-0.19134-0.47702 0.87247-0.87667
   7  -8  -1 -21.315 48.5908   4-0.02938 0.53149-0.42035-0.24836-0.89713 0.89279
   6  -8  -1 139.422 93.7452   4-0.04890 0.47677-0.37538-0.29345-0.91906 0.90133
  -6  -8   1 287.740 123.149   9 0.04747-0.47515-0.37429-0.29426 0.91943-0.90155
  -6   8   1 391.379 155.485   6-0.31104-0.11634 0.40278 0.26531-0.90301 0.92016
   6   8  -1 544.758 165.948   5 0.56823-0.14102 0.22898 0.43923 0.88020-0.89817
  -6  -8   1 231.517 86.1859   3-0.50955 0.08173-0.27004-0.39909-0.89572 0.91302
   6   8  -1 306.490 137.822   2 0.46092-0.03348 0.30342 0.36512 0.90361-0.92108
   6  -8  -1 356.051 121.536   8 0.61280-0.18512-0.19684-0.47155 0.86374-0.88138
   5  -8  -1 81.1388 75.9143   4-0.06645 0.42006-0.33384-0.33511-0.93671 0.90558
  -5  -8   1 92.5080 80.4174   9 0.06642-0.41990-0.33369-0.33488 0.93686-0.90559
   5   8  -1 -53.058 75.9010   5 0.58361-0.23049 0.23860 0.42969 0.86904-0.90045
   5   8  -1 45.5188 44.3179   2 0.46473-0.11144 0.30866 0.35990 0.90032-0.93123
  -5  -8   1 116.671 48.9244   3-0.51769 0.16419-0.27779-0.39131-0.88956 0.92032
   5  -8  -1 25.5407 62.8008   8 0.63503-0.28152-0.20674-0.46168 0.84710-0.87819
   4  -8  -1 115.631 78.7585   4-0.08192 0.36126-0.29626-0.37280-0.95063 0.90608
  -4   8   1 243.054 107.141   6-0.30911 0.03025 0.39489 0.27321-0.90693 0.95100
   4   8  -1 230.890 91.4866   5 0.60857-0.32956 0.25435 0.41402 0.84940-0.89426
  -4  -8   1 83.6897 45.7401   3-0.53238 0.25320-0.29187-0.37719-0.87785 0.92205
   4   8  -1 42.6207 40.8421   2 0.47315-0.19404 0.32029 0.34828 0.89278-0.93713
  -4  -8   1 212.771 105.585   9 0.08327-0.36254-0.29671-0.37187 0.95072-0.90604
   3  -8  -1 9.98050 54.0380   4-0.09523 0.30029-0.26321-0.40592-0.96135 0.90336
   3   8  -1 79.7039 62.6293   6-0.29337 0.49854 0.33298 0.33554-0.93452 0.87633
  -3   8   1 55.2660 52.1964   6-0.31069 0.10609 0.40135 0.26671-0.90373 0.96124
   3  -8  -1 -31.505 52.1508   9-0.01562 0.22028-0.50201-0.16598 0.84765-0.90536
  -3  -8   1 107.419 52.3264   3-0.55485 0.35001-0.31370-0.35530-0.85826 0.91589
   3   8  -1 -0.4391 35.5459   5 0.64541-0.44050 0.27799 0.39049 0.81656-0.87489
   3   8  -1 27.7198 60.1804   2 0.48687-0.28194 0.33944 0.32913 0.87965-0.93744
  -3  -8   1 144.211 72.9494   9 0.09789-0.30295-0.26392-0.40466 0.96146-0.90337
  -3  -8   1 44.7605 46.8266   4 0.00653-0.21171-0.49955-0.16878-0.85066 0.90837
   2  -8  -1 64.6783 62.4557   4-0.10625 0.23703-0.23534-0.43386-0.96931 0.89788
   2   8  -1 -0.3630 42.9688   6-0.27779 0.40872 0.27528 0.39337-0.95550 0.88388
  -2   8   1 -1.1906 52.3144   6-0.31409 0.18374 0.41542 0.25260-0.89654 0.96749
   2  -8  -1 97.4476 75.3408   9-0.00502 0.13556-0.48132-0.18671 0.86119-0.93232
   2   8  -1 -11.695 49.0889   2 0.50653-0.37580 0.36742 0.30116 0.85881-0.93004
  -2  -8   1 40.4933 37.6229   3-0.58642 0.45591-0.34502-0.32390-0.82691 0.89795
  -2  -8   1 -116.65 87.4570   9 0.11012-0.24098-0.23599-0.43258 0.96951-0.89800
  -2  -8   1 41.9629 58.9788   4-0.00252-0.12845-0.48001-0.18833-0.86312 0.93430
  -1  -8   1 484.906 122.929   3-0.62810 0.57193-0.38776-0.28106-0.77719 0.86159
   1  -8  -1 369.876 124.604   4-0.11482 0.17131-0.21333-0.45591-0.97492 0.89004
   1   8  -1 328.048 102.716   6-0.26519 0.32187 0.23074 0.43802-0.96878 0.88371
  -1   8   1 258.434 95.4282   1 0.15236-0.20892 0.21760 0.45152 0.97569-0.89103
  -1   8   1 430.807 124.568   6-0.31933 0.26323 0.43757 0.23039-0.88460 0.96897
   1   8  -1 197.616 92.6292   2 0.53266-0.47614 0.40564 0.26293 0.82692-0.91158
  -1  -8   1 416.091 107.094   9 0.11977-0.17644-0.21362-0.45493 0.97524-0.89032
   1  -8  -1 348.015 107.605   9 0.00033 0.05609-0.47077-0.19730 0.86778-0.95234
  -1  -8   1 326.605 104.745   4-0.00697-0.04976-0.47027-0.19809-0.86908 0.95373
   0   8   1 132.619 65.1256   2 0.38397-0.36624 0.20143 0.46717 0.95573-0.85788
   0   8   1 215.453 72.9523   6-0.32633 0.34445 0.46826 0.19964-0.86675 0.96452
   0  -8   1 253.382 80.9785   9 0.12658-0.10907-0.19763-0.47089 0.97895-0.88062
   0  -8  -1 116.302 52.0293   4-0.12075 0.10296-0.19794-0.47133-0.97849 0.88016
   0   8  -1 179.163 89.3551   2 0.56529-0.58297 0.45549 0.21306 0.77867-0.87676
   0   8  -1 167.949 48.8061   6-0.25562 0.23802 0.19797 0.47088-0.97698 0.87846
   0  -8  -1 196.435 80.9641   9 0.00131-0.01904-0.46884-0.19926 0.86897-0.96696
   0   8   1 260.103 91.3543   1 0.15625-0.13856 0.19792 0.47121 0.97994-0.88183
   0  -8   1 321.529 105.641   4-0.00756 0.02506-0.46898-0.19937-0.86986 0.96796
  -1  -8  -1 177.270 62.8726   4-0.12376 0.03169-0.19006-0.47920-0.98021 0.86843
  -1   8  -1 285.106 109.322   6-0.24899 0.15711 0.17573 0.49319-0.98181 0.86984
   1   8   1 164.968 74.0219   6-0.33488 0.42722 0.50779 0.16002-0.84137 0.95252
  -1  -8  -1 283.933 111.404   9-0.00143-0.09046-0.47427-0.19386 0.86562-0.97704
   1   8   1 135.868 69.4388   1 0.15855-0.06662 0.18606 0.48308 0.98231-0.87073
   1  -8   1 200.021 77.4920   9 0.13025-0.03855-0.18896-0.47950 0.98083-0.86909
  -1  -8  -1 127.106 62.5430   3-0.39345 0.30154-0.16332-0.50624-0.96101 0.84931
   1  -8   1 129.046 79.9950   4-0.00480 0.09655-0.47502-0.19331-0.86619 0.97774
  -2  -8  -1 126.154 56.6762   4-0.12350-0.04285-0.19075-0.47850-0.98007 0.85483
   2   8   1 192.908 78.8720   2 0.33847-0.17235 0.14378 0.52479 0.97584-0.85112
  -2   8  -1 177.497 106.859   6-0.24511 0.07896 0.16293 0.50605-0.98433 0.85889
   2  -8   1 115.255 63.9702   9 0.13033 0.03553-0.18877-0.47964 0.98087-0.85573
  -2  -8  -1 296.736 94.7214   9-0.00740-0.15867-0.48600-0.18215 0.85820-0.98304
   2   8   1 142.883 69.5499   1 0.15923 0.00696 0.18255 0.48660 0.98298-0.85795
   2   8   1 200.652 96.1689   6-0.34459 0.51113 0.55628 0.11145-0.80621 0.93073
  -2  -8  -1 193.923 80.8188   3-0.36566 0.19939-0.13867-0.53095-0.97136 0.84620
   2  -8   1 195.061 103.662   4 0.00091 0.16509-0.48743-0.18086-0.85847 0.98345
  -3  -8  -1 146.509 68.7499   4-0.11946-0.12114-0.20129-0.46792-0.97774 0.83905
  -3   8  -1 130.979 65.1247   6-0.24380 0.00335 0.15861 0.51040-0.98513 0.84623
   3   8   1 97.9038 88.5666   2 0.32863-0.08834 0.13154 0.53701 0.97930-0.84115
  -3  -8  -1 217.116 123.208   9-0.01619-0.22405-0.50311-0.16505 0.84691-0.98517
   3  -8   1 62.4741 33.8725   9 0.12621 0.11380-0.19850-0.46984 0.97875-0.84021
   3   8   1 -88.505 60.1252   6-0.35478 0.59549 0.61344 0.05420-0.75829 0.89615
   3   8   1 116.030 79.9058   1 0.15819 0.08226 0.18793 0.48121 0.98195-0.84345
   3  -8   1 273.242 110.739   4 0.00925 0.23100-0.50535-0.16289-0.84683 0.98523
  -3  -8  -1 118.769 76.3232   3-0.35022 0.10962-0.12510-0.54455-0.97634 0.83772
  -4   8  -1 399.480 123.893   6-0.24483-0.06989 0.16199 0.50702-0.98450 0.83214
   4   8   1 332.758 123.688   2 0.32514-0.01070 0.12723 0.54130 0.98045-0.82887
  -4  -8  -1 506.239 153.094   9-0.02752-0.28692-0.52481-0.14334 0.83178-0.98345
   4   8   1 231.645 96.7240   1 0.15527 0.15945 0.20292 0.46622 0.97890-0.82695
   4  -8   1 243.086 93.3856   4 0.01997 0.29453-0.52802-0.14016-0.83124 0.98305
  -4  -8  -1 209.957 102.367   3-0.34393 0.02900-0.11958-0.55008-0.97823 0.82613
  -5   8  -1 40.3628 67.6420   6-0.24799-0.14102 0.17240 0.49661-0.98248 0.81665
   5   8   1 112.350 79.2133   1 0.15018 0.23879 0.22838 0.44074 0.97317-0.80775
   5   8   1 93.1552 45.9114   2 0.32681 0.06178 0.12931 0.53920 0.97990-0.81489
  -5  -8  -1 -88.629 117.437   9-0.04111-0.34752-0.55039-0.11776 0.81272-0.97780
   5  -8   1 5.87527 67.1293   8 0.38369 0.00512-0.09839-0.56967 0.97255-0.80724
   5  -8   1 103.496 96.1060   4 0.03286 0.35589-0.55473-0.11338-0.81158 0.97678
  -5  -8  -1 84.3376 90.2703   3-0.34458-0.04465-0.12015-0.54951-0.97804 0.81247
   6   8   1 151.084 112.048   2 0.33272 0.13002 0.13664 0.53186 0.97789-0.79946
  -6   8  -1 93.8427 59.5258   6-0.25305-0.21023 0.18929 0.47969-0.97893 0.79963
  -6  -8  -1 193.404 112.804   9-0.05677-0.40606-0.57919-0.08894 0.78955-0.96801
   6  -8   1 156.740 87.0600   8 0.38818 0.07481-0.10027-0.56778 0.97130-0.79257
   6  -8   1 241.738 124.558   4 0.04773 0.41526-0.58485-0.08319-0.78760 0.96616
  -6  -8  -1 173.132 95.8619   3-0.35064-0.11288-0.12546-0.54421-0.97622 0.79718
   7   8   1 80.1827 129.698   2 0.34214 0.19474 0.14837 0.52012 0.97447-0.78261
  -7  -8  -1 -135.46 88.3902   9-0.07433-0.46270-0.61062-0.05748 0.76200-0.95383
  -7  -8  -1 -136.35 80.2091   3-0.36098-0.17681-0.13454-0.53512-0.97293 0.78043
   7   9  -1 90.3862 100.415   5 0.59878-0.09745 0.24816 0.50351 0.85734-0.86200
  -7  -9   1 -32.791 79.2275   3-0.53498 0.03288-0.29439-0.45843-0.87568 0.87945
   6  -9  -1 81.4900 88.8294   4-0.03543 0.46329-0.40653-0.34593-0.90420 0.88641
  -6   9   1 311.028 135.729   6-0.31778-0.10960 0.43093 0.32074-0.88826 0.90532
  -6  -9   1 125.822 72.2545   9 0.03287-0.46055-0.40486-0.34724 0.90468-0.88676
   6   9  -1 63.2333 58.8361   5 0.60876-0.18152 0.25448 0.49725 0.84924-0.86734
  -6  -9   1 192.904 122.841   3-0.53912 0.11132-0.29839-0.45442-0.87219 0.88942
   6   9  -1 0.41238 68.5185   2 0.48250-0.05504 0.33331 0.41881 0.88395-0.90144
   5  -9  -1 150.219 108.887   4-0.05116 0.40476-0.37009-0.38248-0.92145 0.89026
  -5   9   1 -29.145 68.5437   6-0.31636-0.03675 0.42491 0.32677-0.89152 0.92205
  -5  -9   1 91.6046 81.3237   3-0.54839 0.19492-0.30739-0.44539-0.86410 0.89479
   5   9  -1 164.391 133.818   2 0.48698-0.13369 0.33961 0.41252 0.87953-0.91046
  -5  -9   1 3.88111 59.0745   9 0.04982-0.40331-0.36930-0.38283 0.92170-0.89038
   4  -9  -1 732.262 179.067   4-0.06491 0.34422-0.33753-0.41513-0.93524 0.89064
  -4  -9   1 461.871 140.322   9 0.06475-0.34402-0.33732-0.41481 0.93540-0.89068
  -4   9   1 694.775 189.208   6-0.31636 0.03751 0.42495 0.32672-0.89150 0.93549
  -4  -9   1 478.755 136.301   3-0.56368 0.28454-0.32238-0.43035-0.84996 0.89410
   4   9  -1 469.391 159.303   2 0.49566-0.21654 0.35187 0.40028 0.87064-0.91501
  -3  -9   1 27.7259 84.1927   9 0.07751-0.28257-0.30945-0.44266 0.94616-0.88804
   3  -9  -1 103.261 79.0341   4-0.07657 0.28160-0.30934-0.44339-0.94600 0.88797
   3   9  -1 56.8443 53.9945   6-0.30573 0.51095 0.38124 0.37079-0.91348 0.85520
  -3   9   1 -47.954 64.6302   6-0.31789 0.11331 0.43139 0.32024-0.88801 0.94545
   3   9  -1 -200.29 90.8188   2 0.50903-0.30410 0.37102 0.38114 0.85598-0.91379
   3  -9  -1 2.70890 51.3322   9-0.02849 0.23313-0.52664-0.22486 0.83046-0.88816
  -3  -9   1 135.849 93.3631   3-0.58595 0.38115-0.34455-0.40812-0.82741 0.88496
  -3  -9   1 -49.088 70.7164   4 0.01813-0.22337-0.52416-0.22774-0.83397 0.89162
   2  -9  -1 1346.18 230.925   4-0.08604 0.21679-0.28610-0.46669-0.95408 0.88261
   2   9  -1 1230.89 204.908   6-0.29232 0.42329 0.32894 0.42323-0.93613 0.86442
  -2  -9   1 1591.35 250.935   9 0.08796-0.21882-0.28626-0.46583 0.95430-0.88277
  -2   9   1 1127.34 224.236   6-0.32097 0.19064 0.44465 0.30693-0.88062 0.95150
   2   9  -1 1052.02 204.557   2 0.52756-0.39683 0.39808 0.35408 0.83356-0.90480
   2  -9  -1 1280.43 192.515   9-0.01826 0.14880-0.50709-0.24446 0.84420-0.91532
  -2  -9   1 1144.03 212.459   4 0.00943-0.14045-0.50574-0.24619-0.84657 0.91770
   1  -9  -1 293.666 104.652   4-0.09317 0.14962-0.26837-0.48445-0.95977 0.87485
   1   9  -1 83.7845 83.7948   6-0.28125 0.33796 0.28783 0.46447-0.95131 0.86617
   1   9  -1 123.617 95.2686   2 0.55154-0.49502 0.43416 0.31799 0.80031-0.88498
  -1   9   1 36.9451 49.8814   6-0.32561 0.26955 0.46507 0.28645-0.86868 0.95297
  -1  -9   1 161.752 72.3052   9 0.09592-0.15259-0.26838-0.48368 0.96008-0.87514
   1  -9  -1 115.407 69.1997   9-0.01276 0.06917-0.49647-0.25512 0.85135-0.93590
  -1  -9   1 80.9704 63.8025   4 0.00487-0.06164-0.49595-0.25600-0.85301 0.93761
   0  -9  -1 18.9203 53.0847   4-0.09777 0.07993-0.25684-0.49600-0.96326 0.86489
   0   9  -1 50.0420 56.2570   6-0.27265 0.25509 0.25689 0.49550-0.96129 0.86269
   0   9   1 -44.621 63.6398   6-0.33174 0.34992 0.49300 0.25844-0.85119 0.94888
   0  -9  -1 35.8961 50.6667   9-0.01126-0.00647-0.49356-0.25807 0.85328-0.95125
   0  -9   1 -51.091 63.8360   9 0.10114-0.08363-0.25654-0.49549 0.96368-0.86534
   0  -9   1 102.495 74.5735   4 0.00383 0.01363-0.49372-0.25823-0.85445 0.95251
   1   9   1 20.6473 46.5320   6-0.33917 0.43156 0.52870 0.22266-0.82678 0.93785
  -1  -9  -1 144.004 84.9305   4-0.09958 0.00746-0.25227-0.50056-0.96459 0.85277
  -1   9  -1 6.10832 78.0927   6-0.26647 0.17464 0.23520 0.51726-0.96756 0.85551
   1  -9   1 47.6880 37.0055   9 0.10334-0.01165-0.25154-0.50043 0.96515-0.85340
  -1  -9  -1 21.3388 36.2247   9-0.01321-0.07869-0.49733-0.25434 0.85078-0.96217
   1  -9   1 -59.357 51.8452   4 0.00588 0.08584-0.49815-0.25380-0.85158 0.96309
   1   9   1 16.7705 53.8189   2 0.40222-0.31027 0.22504 0.52713 0.94560-0.83434
   2   9   1 957.016 196.880   2 0.38324-0.21712 0.20048 0.55169 0.95611-0.83140
  -2  -9  -1 1126.65 212.767   4-0.09827-0.06812-0.25558-0.49723-0.96363 0.83835
  -2   9  -1 962.479 206.941   6-0.26265 0.09653 0.22196 0.53057-0.97110 0.84559
   2   9   1 730.382 179.513   6-0.34757 0.51417 0.57222 0.17905-0.79359 0.91803
  -2  -9  -1 1192.41 234.517   9-0.01817-0.14790-0.50692-0.24477 0.84432-0.96913
   2  -9   1 788.476 160.199   9 0.10208 0.06377-0.25440-0.49752 0.96431-0.83916
   2  -9   1 980.004 204.989   4 0.01069 0.15528-0.50842-0.24350-0.84478 0.96972
   3  -9   1 -55.288 61.5425   9 0.09681 0.14318-0.26637-0.48548 0.96071-0.82216
  -3  -9  -1 -58.281 47.1160   4-0.09337-0.14727-0.26788-0.48488-0.95992 0.82120
   3   9   1 -100.12 73.4334   2 0.37149-0.13119 0.18544 0.56670 0.96195-0.82381
  -3   9  -1 -39.190 96.1716   6-0.26103 0.02063 0.21639 0.53616-0.97253 0.83355
  -3  -9  -1 -72.780 72.8524   9-0.02581-0.21445-0.52155-0.23015 0.83411-0.97234
  -3  -9  -1 -47.116 56.6836   3-0.40757 0.16702-0.17596-0.57734-0.95504 0.81637
   3  -9   1 124.187 95.7000   4 0.01798 0.22226-0.52383-0.22804-0.83420 0.97257
   4   9   1 280.824 169.539   2 0.36571-0.05125 0.17809 0.57403 0.96464-0.81307
  -4   9  -1 551.096 162.192   6-0.26147-0.05322 0.21790 0.53466-0.97215 0.81971
  -4  -9  -1 355.432 140.364   9-0.03585-0.27859-0.54056-0.21115 0.82021-0.97184
  -4  -9  -1 249.671 99.8268   3-0.39722 0.08233-0.16668-0.58665-0.95947 0.80732
   4  -9   1 346.302 131.614   4 0.02752 0.28697-0.54374-0.20808-0.81985 0.97162
   5   9   1 118.176 120.926   2 0.36489 0.02373 0.17705 0.57505 0.96502-0.80002
  -5   9  -1 -66.679 72.1473   6-0.26380-0.12517 0.22592 0.52664-0.97006 0.80415
  -5  -9  -1 -28.685 51.5364   9-0.04810-0.34055-0.56332-0.18839 0.80255-0.96758
  -5  -9  -1 -20.604 50.7502   3-0.39388 0.00467-0.16370-0.58964-0.96084 0.79522
   5  -9   1 -14.564 75.1179   4 0.03913 0.34962-0.56755-0.18420-0.80162 0.96678
   6   9   1 -19.187 50.0714   2 0.36822 0.09455 0.18126 0.57081 0.96349-0.78507
  -6   9  -1 69.4170 147.323   6-0.26785-0.19539 0.24001 0.51252-0.96622 0.78684
  -6  -9  -1 -86.634 124.246   9-0.06236-0.40050-0.58928-0.16242 0.78097-0.95940
   6   9   1 1.85453 51.0644   5 0.43015 0.03224 0.14516 0.60602 0.95417-0.77589
  -6  -9  -1 -8.4410 73.7693   3-0.39610-0.06739-0.16569-0.58764-0.95992 0.78083
   7   9   1 277.250 143.127   5 0.43571 0.10079 0.14846 0.60268 0.95198-0.76031
   5  10  -1 1610.18 304.452   2 0.50976-0.15647 0.37208 0.46364 0.85514-0.88609
  -5 -10   1 1131.44 228.468   3-0.57991 0.22647-0.33849-0.49796-0.83377 0.86437
   4 -10  -1 16.4142 57.2739   4-0.04736 0.32664-0.37898-0.45728-0.91741 0.87274
  -4  10   1 -6.3757 103.678   6-0.32378 0.04496 0.45698 0.37825-0.87349 0.91739
  -4 -10   1 109.543 104.507   9 0.04560-0.32487-0.37822-0.45744 0.91761-0.87285
   4  10  -1 0.61921 57.0825   2 0.51859-0.23947 0.38490 0.45082 0.84474-0.88913
   3 -10  -1 237.166 107.267   4-0.05764 0.26263-0.35483-0.48150-0.92810 0.87000
   3  10  -1 238.323 123.221   2 0.53159-0.32666 0.40405 0.43168 0.82833-0.88615
  -3  10   1 296.796 114.198   6-0.32524 0.12068 0.46342 0.37178-0.86967 0.92701
  -3 -10   1 422.884 155.380   9 0.05680-0.26186-0.35444-0.48121 0.92825-0.87009
   2 -10  -1 102.432 102.450   4-0.06581 0.19651-0.33536-0.50102-0.93610 0.86457
   2  10  -1 90.9521 71.1595   2 0.54907-0.41834 0.43037 0.40536 0.80399-0.87525
  -2  10   1 -20.680 57.2020   6-0.32804 0.19775 0.47602 0.35914-0.86199 0.93277
  -2 -10   1 -44.821 74.6998   9 0.06575-0.19661-0.33515-0.50047 0.93628-0.86472
   2  10  -1 -23.106 81.6689   6-0.30551 0.43652 0.38032 0.45537-0.91392 0.84210
   2 -10  -1 135.566 69.2842   9-0.03341 0.16395-0.53598-0.29909 0.82363-0.89473
  -2 -10   1 109.965 76.3870   4 0.02311-0.15417-0.53457-0.30095-0.82655 0.89762
   1 -10  -1 964.523 223.424   4-0.07172 0.12814-0.32112-0.51529-0.94163 0.85666
   1  10  -1 836.908 186.967   6-0.29575 0.35251 0.34206 0.49376-0.93081 0.84557
  -1  10   1 720.635 172.872   6-0.33217 0.27614 0.49504 0.34004-0.84986 0.93405
  -1 -10   1 717.283 168.676   9 0.07228-0.12895-0.32093-0.51466 0.94186-0.85689
   1 -10  -1 846.386 191.988   9-0.02769 0.08409-0.52514-0.30998 0.83155-0.91606
  -1 -10   1 743.846 197.688   4 0.01834-0.07518-0.52461-0.31094-0.83365 0.91819
   0 -10  -1 109.385 104.496   4-0.07519 0.05732-0.31269-0.52372-0.94478 0.84636
   0  10  -1 -39.101 54.2796   6-0.28801 0.27050 0.31273 0.52318-0.94238 0.84370
   0  10   1 59.4254 62.1783   6-0.33756 0.35577 0.52078 0.31423-0.83240 0.93000
   0 -10   1 13.1184 38.6366   9 0.07617-0.05866-0.31241-0.52314 0.94507-0.84670
   0 -10  -1 68.4244 89.6624   9-0.02567 0.00792-0.52129-0.31387 0.83430-0.93224
   0 -10   1 75.3672 86.1758   4 0.01686 0.00056-0.52149-0.31407-0.83583 0.93383
  -1 -10  -1 1097.51 233.040   4-0.07599-0.01616-0.31075-0.52565-0.94549 0.83362
  -1  10  -1 1018.65 222.001   6-0.28230 0.19051 0.29166 0.54433-0.94999 0.83785
  -1 -10  -1 949.802 211.412   9-0.02687-0.06504-0.52357-0.31162 0.83267-0.94402
   1  10   1 1202.33 243.896   6-0.34403 0.43647 0.55338 0.28153-0.80845 0.91942
   1 -10   1 1212.15 226.284   9 0.07711 0.01456-0.31032-0.52517 0.94584-0.83407
   1 -10   1 1189.71 240.919   4 0.01828 0.07340-0.52447-0.31109-0.83375 0.94521
  -2 -10  -1 -52.013 70.4342   4-0.07379-0.09263-0.31609-0.52027-0.94352 0.81820
  -2  10  -1 -48.824 79.2131   6-0.27859 0.11252 0.27818 0.55786-0.95455 0.82896
   2  10   1 -24.469 69.9941   6-0.35129 0.51794 0.59292 0.24192-0.77638 0.90071
   2 -10   1 181.916 113.322   9 0.07473 0.09109-0.31554-0.51988 0.94390-0.81873
  -2 -10  -1 -64.902 59.4186   9-0.03091-0.13516-0.53127-0.30397 0.82710-0.95188
   2  10   1 44.6403 61.4762   2 0.42523-0.25910 0.25531 0.58043 0.93096-0.80626
   2 -10   1 10.0504 75.6136   4 0.02228 0.14367-0.53285-0.30268-0.82780 0.95269
  -3  10  -1 186.320 152.099   6-0.27680 0.03644 0.27173 0.56435-0.95665 0.81759
  -3 -10  -1 -135.64 115.808   9-0.03752-0.20274-0.54370-0.29156 0.81785-0.95603
   3  10   1 33.2151 72.3886   2 0.41218-0.17186 0.23808 0.59765 0.93953-0.80140
   3 -10   1 27.8759 79.8032   4 0.02863 0.21158-0.54605-0.28945-0.81813 0.95645
   4  10   1 90.7297 100.239   2 0.40467-0.09019 0.22824 0.60746 0.94415-0.79259
   1  11  -1 -54.475 99.9303   6-0.30896 0.36576 0.39423 0.52511-0.90725 0.82188
   1 -11  -1 167.582 106.879   9-0.04411 0.10050-0.55595-0.36268 0.80840-0.89288
  -1 -11   1 55.1040 65.8514   4 0.03319-0.09007-0.55541-0.36373-0.81106 0.89552
   0 -11   1 24.9591 78.6194   9 0.05135-0.03385-0.36605-0.55300 0.92316-0.82476
   0 -11  -1 43.1665 99.6647   9-0.04156 0.02382-0.55123-0.36746 0.81208-0.90997
  -1 -11  -1 -20.511 58.0782   4-0.05269-0.03951-0.36651-0.55345-0.92303 0.81110
   1 -11   1 -50.466 110.589   9 0.05121 0.04045-0.36634-0.55265 0.92303-0.81124
   1  11   1 110.636 114.694   6-0.34914 0.44162 0.58081 0.33767-0.78657 0.89743
 -12   0   2 132.231 100.448   7-0.62389-0.23090 0.10339-0.10353-0.87489 0.90962
  12   0  -2 141.519 98.4806   5 0.61728 0.23744 0.25991-0.25993 0.84207-0.87743
  12   0  -2 73.2718 61.9006   8 0.62077 0.23447-0.20039 0.20029 0.85793-0.89306
 -11   0   2 -76.829 52.9027   7-0.60858-0.17196 0.10015-0.10030-0.88441 0.93262
  11   0  -2 -49.316 57.8889   5 0.60209 0.17847 0.25025-0.25025 0.85468-0.90346
  11   0  -2 58.8379 73.3745   8 0.60547 0.17554-0.19359 0.19349 0.86894-0.91751
 -10   0   2 2201.70 252.570   3-0.58140-0.12529-0.33998 0.33991-0.83222 0.89390
  10   0  -2 1902.89 243.005   5 0.59038 0.11601 0.24286-0.24284 0.86390-0.92611
  10   0  -2 2311.10 282.885   8 0.59375 0.11304-0.18842 0.18830 0.87696-0.93898
 -10   0   2 2654.57 302.793   7-0.59695-0.10935 0.09770-0.09784-0.89132 0.95300
  -9   0   2 4.63369 49.2020   7-0.59008-0.04197 0.09625-0.09641-0.89526 0.97041
   9   0  -2 -24.582 37.1034   2 0.55874 0.07335 0.44526-0.44500 0.78924-0.86439
  -9   0   2 18.9392 23.6084   3-0.57387-0.05863-0.33246 0.33243-0.83995 0.91505
   9   0  -2 -22.342 39.3216   5 0.58321 0.04902 0.23835-0.23830 0.86934-0.94498
   9   0  -2 -48.803 68.3134   8 0.58668 0.04587-0.18531 0.18518 0.88163-0.95710
  -8   0   2 -12.202 44.4587   7-0.58957 0.03176 0.09614-0.09630-0.89555 0.98415
   8   0  -2 48.9017 50.8658   2 0.55574 0.00221 0.44062-0.44040 0.79392-0.88247
  -8   0   2 3.22375 30.0307   3-0.57184 0.01354-0.33046 0.33046-0.84198 0.93050
   8   0  -2 89.1609 51.4667   5 0.58201-0.02395 0.23760-0.23752 0.87023-0.95932
   8   0  -2 76.9001 53.6596   8 0.58578-0.02745-0.18491 0.18478 0.88222-0.97114
  -7   0   2 -38.300 41.2914   7-0.59765 0.11408 0.09785-0.09800-0.89090 0.99295
   7   0  -2 16.9482 22.7496   4-0.10473 0.58898-0.23922 0.23918-0.96826 0.86583
   7   0  -2 -6.5384 23.2711   2 0.55888-0.07507 0.44548-0.44529 0.78902-0.89100
  -7   0   2 3.96910 17.5582   9 0.10384-0.58798-0.25039 0.25036 0.96548-0.86302
  -7   0   2 16.0841 23.3631   3-0.57708 0.09298-0.33567 0.33571-0.83668 0.93864
   7   0  -2 -41.388 40.9761   5 0.58880-0.10491 0.24186-0.24176 0.86512-0.96765
   7   0  -2 22.7186 35.4896   8 0.59317-0.10907-0.18816 0.18803 0.87734-0.97972
  -6   0   2 2508.94 95.4999   1 0.20744-0.61716-0.11319 0.11329 0.99320-0.87760
  -6   0   2 2377.88 130.845   9 0.21051-0.62055 0.01290-0.01310 0.99947-0.88351
   6   0  -2 2483.82 210.199   5 0.60635-0.19663 0.25294-0.25282 0.85123-0.96723
   6   0  -2 2410.45 212.187   8 0.61184-0.20198-0.19641 0.19627 0.86443-0.98027
  -6   0   2 2273.47 208.625   7-0.61755 0.20820 0.10204-0.10221-0.87890 0.99437
   6   0  -2 2527.51 131.981   4-0.20974 0.61999 0.05240-0.05259-0.99820 0.88224
  -5   0   2 19.6498 27.0704   7-0.65382 0.31868 0.10976-0.10993-0.85475 0.98365
   5   0  -2 -21.138 20.0087   4-0.29269 0.62878 0.33197-0.33223-0.93498 0.80541
  -5   0   2 -25.326 16.2304   9 0.30149-0.63733 0.27932-0.27959 0.95113-0.82161
   5   0  -2 -4.1208 19.1863   5 0.63830-0.30277 0.27339-0.27324 0.82329-0.95275
  -5   0   2 24.0546 33.9251   3-0.61886 0.28317-0.37811 0.37823-0.78916 0.91799
   5   0  -2 32.0915 24.7001   8 0.64591-0.31028-0.21161 0.21146 0.83844-0.96775
   4   0  -2 16564.4 544.650   8 0.70030-0.43892-0.23631 0.23615 0.78940-0.93216
  -4   0   2 16477.3 493.076   7-0.71232 0.45137 0.12237-0.12254-0.80876 0.95106
 -12   1   2 86.8697 102.775   7-0.61891-0.23592 0.10233-0.01887-0.87805 0.91276
 -12  -1   2 13.9548 48.5972   7-0.63602-0.21873 0.10597-0.18971-0.86698 0.90172
  12   1  -2 304.361 114.014   5 0.60078 0.25385 0.24942-0.16588 0.85574-0.89112
  12  -1  -2 -29.228 58.9417   8 0.60838 0.24682-0.19488 0.11120 0.86689-0.90202
  12   1  -2 161.268 129.023   8 0.64092 0.21436-0.20938 0.29289 0.84246-0.87758
 -11   1   2 42.3302 71.0355   7-0.60346-0.17711 0.09906-0.01561-0.88749 0.93569
 -11  -1   2 134.454 102.296   7-0.62147-0.15902 0.10288-0.18662-0.87643 0.92464
 -11  -1   2 -5.3948 55.5904   3-0.56969-0.21126-0.32832 0.24468-0.84411 0.89233
  11  -1  -2 -27.491 38.6439   5 0.62837 0.15228 0.26700-0.35060 0.83236-0.88112
  11   1  -2 103.430 81.4078   5 0.58502 0.19545 0.23949-0.15592 0.86798-0.91678
  11  -1  -2 59.6183 99.9470   8 0.59263 0.18835-0.18792 0.10423 0.87771-0.92628
  11   1  -2 -3.7378 61.1246   8 0.62680 0.15425-0.20307 0.28657 0.85342-0.90200
 -10   1   2 104.023 81.9159   7-0.59158-0.11473 0.09657-0.01311-0.89441 0.95608
 -10  -1   2 97.8385 34.7400   7-0.61080-0.09546 0.10062-0.18436-0.88306 0.94475
 -10  -1   2 94.1644 38.2089   3-0.55692-0.14983-0.31574 0.23213-0.85634 0.91799
  10  -1  -2 21.2202 43.5407   5 0.61843 0.08804 0.26064-0.34422 0.84109-0.90328
  10   1  -2 118.054 71.1126   5 0.57249 0.13382 0.23164-0.14805 0.87717-0.93940
  10  -1  -2 75.9015 41.3661   8 0.58024 0.12651-0.18248 0.09878 0.88578-0.94779
  10   1  -2 67.9030 59.8594   8 0.61657 0.09023-0.19852 0.28202 0.86101-0.92304
  -9  -1   2 82.3193 45.4323   7-0.60517-0.02685 0.09944-0.18316-0.88646 0.96161
   9   1  -2 -62.064 59.0804   2 0.52730 0.10479 0.39769-0.31390 0.83390-0.90900
  -9   1   2 16.6625 52.0057   3-0.61290-0.01954-0.37196 0.45542-0.79656 0.87172
  -9  -1   2 8.45779 41.4335   3-0.54790-0.08465-0.30692 0.22336-0.86453 0.93961
   9  -1  -2 113.233 67.0918   5 0.61359 0.01871 0.25755-0.34111 0.84520-0.92084
   9   1  -2 97.3356 67.1270   5 0.56412 0.06803 0.22642-0.14279 0.88307-0.95872
   9  -1  -2 44.4656 64.9400   8 0.57223 0.06029-0.17897 0.09526 0.89080-0.96627
   9   1  -2 -14.330 30.0504   8 0.61147 0.02111-0.19626 0.27974 0.86469-0.94017
  -9   1   2 -8.6170 38.1359   7-0.58435-0.04772 0.09505-0.01160-0.89848 0.97362
  -8  -1   2 305.276 96.2661   7-0.60627 0.04848 0.09967-0.18340-0.88580 0.97440
  -8   1   2 245.188 81.6312   3-0.61464 0.05638-0.37376 0.45725-0.79442 0.88300
  -8  -1   2 183.802 68.8687   3-0.54375-0.01460-0.30288 0.21934-0.86820 0.95671
   8  -1  -2 130.233 50.2494   5 0.61553-0.05740 0.25879-0.34232 0.84357-0.93265
   8   1  -2 271.559 94.8426   5 0.56118-0.00318 0.22458-0.14094 0.88509-0.97418
   8  -1  -2 251.038 95.5036   8 0.56994-0.01163-0.17796 0.09424 0.89221-0.98113
   8   1  -2 242.795 77.6605   8 0.61318-0.05484-0.19701 0.28049 0.86347-0.95241
   8   1  -2 236.994 82.1181   2 0.52208 0.03588 0.39000-0.30624 0.84047-0.92898
  -8   1   2 226.301 90.9304   7-0.58327 0.02543 0.09482-0.01138-0.89908 0.98768
   7   1  -2 1869.41 194.916   2 0.52218-0.03836 0.39015-0.30642 0.84034-0.94228
  -7  -1   2 1689.49 137.297   9 0.13278-0.61700-0.18295 0.09927 0.98208-0.87958
  -7  -1   2 1692.38 183.471   3-0.54590 0.06177-0.30498 0.22149-0.86630 0.96825
   7  -1  -2 1812.35 187.894   5 0.62654-0.14260 0.26583-0.34934 0.83399-0.93653
   7   1  -2 1732.53 192.133   5 0.56541-0.08157 0.22722-0.14353 0.88217-0.98471
   7  -1  -2 1495.66 184.375   8 0.57528-0.09119-0.18030 0.09657 0.88891-0.99127
   7   1  -2 1515.67 180.715   8 0.62407-0.13997-0.20186 0.28533 0.85547-0.95787
   7  -1  -2 1746.98 140.422   4-0.13135 0.61573-0.17004 0.08636-0.98425 0.88179
  -7   1   2 1593.30 188.682   7-0.59043 0.10685 0.09633-0.01290-0.89506 0.99710
  -7  -1   2 1578.55 180.450   7-0.61648 0.13292 0.10182-0.18555-0.87956 0.98160
  -6   1   2 183.574 62.5974   7-0.60890 0.19954 0.10021-0.01681-0.88422 0.99969
  -6  -1   2 137.011 56.6034   7-0.63922 0.22987 0.10665-0.19037-0.86483 0.98031
   6   1  -2 113.228 20.4413   6-0.21330 0.62292 0.06196 0.02195-0.99754 0.88190
   6  -1  -2 121.939 40.2224   4-0.19884 0.60912 0.01955-0.10339-0.99965 0.88369
   6   1  -2 102.012 16.5623   4-0.21361 0.62382 0.06425 0.01920-0.99738 0.88143
   6   1  -2 157.623 55.1264   2 0.52904-0.11937 0.40026-0.31655 0.83166-0.94703
  -6   1   2 158.625 24.3310   9 0.20001-0.61000-0.01498 0.09839 0.99971-0.88380
  -6  -1   2 122.126 36.6656   9 0.20373-0.61378-0.00517-0.07862 0.99972-0.88375
  -6  -1   2 103.665 43.5421   3-0.55633 0.14642-0.31516 0.23171-0.85689 0.97228
   6  -1  -2 98.3410 49.1916   5 0.64975-0.24001 0.28082-0.36432 0.81235-0.92835
   6   1  -2 141.682 51.1961   5 0.57922-0.16953 0.23585-0.15212 0.87229-0.98829
   6  -1  -2 150.040 64.8816   8 0.59093-0.18107-0.18718 0.10343 0.87883-0.99465
   6   1  -2 105.982 53.8551   8 0.64748-0.23761-0.21232 0.29579 0.83716-0.95302
  -6   1   2 142.285 32.5099   1 0.19607-0.60582-0.03305 0.11680 0.99934-0.88375
  -5   1   2 389.508 85.5495   7-0.64297 0.30784 0.10745-0.02406-0.86229 0.99117
   5   1  -2 597.455 100.220   2 0.54426-0.20875 0.42306-0.33939 0.81097-0.93977
  -5  -1   2 426.438 79.6255   7-0.67923 0.34409 0.11521-0.19893-0.83593 0.96482
  -5   1   2 492.078 69.5273   1 0.22807-0.56361-0.29161 0.37533 0.95495-0.82587
  -5  -1   2 541.032 78.2410   9 0.26800-0.60385 0.17513-0.25898 0.98022-0.85074
   5  -1  -2 41.9033 24.1851   5 0.68892-0.35338 0.30660-0.39009 0.77069-0.90015
   5   1  -2 489.659 92.5992   5 0.60583-0.27033 0.25262-0.16887 0.85165-0.98111
   5  -1  -2 429.039 91.3091   8 0.62062-0.28498-0.20032 0.11656 0.85804-0.98733
   5   1  -2 420.185 87.5939   8 0.68773-0.35213-0.23055 0.31402 0.80166-0.93097
   5  -1  -2 470.391 73.2511   4-0.25781 0.59390 0.20686-0.29080-0.97492 0.84540
   4   1  -2 29.4810 24.4945   2 0.56920-0.30786 0.46167-0.37803 0.77212-0.91437
  -4  -1   2 662.911 88.4708   9 0.32259-0.58419 0.35014-0.43399 0.92323-0.78024
  -4  -1   2 636.241 101.408   3-0.61191 0.35044-0.37093 0.28756-0.79778 0.94004
   4   1  -2 638.645 96.3770   5 0.64920-0.38788 0.28045-0.19667 0.81289-0.95582
   4  -1  -2 667.767 102.821   8 0.66906-0.40765-0.22206 0.13830 0.81880-0.96155
  -4   1   2 612.982 95.1445   7-0.69831 0.43737 0.11933-0.03595-0.82065 0.96294
  -4  -1   2 541.994 87.2801   7-0.74223 0.48126 0.12891-0.21262-0.78127 0.92357
 -12  -2   2 191.452 128.151   7-0.65554-0.19915 0.11013-0.27746-0.85353 0.88826
 -12  -2   2 164.746 92.6275   3-0.57087-0.28435-0.32950 0.16227-0.84294 0.87770
  12   2  -2 134.000 108.772   5 0.59176 0.26279 0.24372-0.07663 0.86284-0.89826
  12  -2  -2 360.569 155.995   8 0.60312 0.25204-0.19255 0.02530 0.87057-0.90571
 -11   2   2 11.7877 68.2145   7-0.60572-0.17488 0.09954 0.06753-0.88614 0.93431
 -11  -2   2 54.1796 48.3871   7-0.64244-0.13801 0.10734-0.27466-0.86265 0.91086
 -11  -2   2 163.388 79.3643   3-0.55517-0.22585-0.31402 0.14683-0.85796 0.90615
  11   2  -2 12.3330 57.9052   5 0.57607 0.20433 0.23387-0.06675 0.87460-0.92343
  11  -2  -2 85.3029 111.714   8 0.58751 0.19343-0.18567 0.01841 0.88109-0.92966
  11   2  -2 31.6143 101.187   8 0.65733 0.12375-0.21675 0.38388 0.82896-0.87753
 -10   2   2 488.406 138.276   7-0.59427-0.11206 0.09714 0.06994-0.89286 0.95451
 -10  -2   2 428.046 131.882   7-0.63351-0.07270 0.10543-0.27275-0.86864 0.93032
  10   2  -2 616.035 143.157   2 0.51736 0.18887 0.38310-0.21576 0.84622-0.90790
 -10  -2   2 493.544 125.323   3-0.54221-0.16462-0.30138 0.13423-0.86953 0.93116
  10   2  -2 523.207 143.438   5 0.56346 0.14278 0.22601-0.05886 0.88352-0.94577
  10  -2  -2 547.768 139.557   8 0.57517 0.13154-0.18026 0.01298 0.88897-0.95098
  10   2  -2 562.739 144.232   8 0.64959 0.05724-0.21327 0.38039 0.83543-0.89746
  -9   2   2 138.379 64.6233   7-0.58746-0.04463 0.09570 0.07135-0.89674 0.97186
  -9  -2   2 158.426 81.9828   7-0.63005-0.00194 0.10470-0.27200-0.87091 0.94606
   9   2  -2 67.6475 59.1400   2 0.50746 0.12464 0.36876-0.20145 0.85776-0.93284
   9  -2  -2 176.229 70.0739   5 0.65680-0.02442 0.28541-0.45259 0.80536-0.88098
  -9  -2   2 121.463 66.3417   3-0.53270-0.09991-0.29219 0.12507-0.87758 0.95265
   9   2  -2 188.590 75.3905   5 0.55479 0.07731 0.22062-0.05344 0.88941-0.96508
   9  -2  -2 110.082 52.2766   8 0.56704 0.06547-0.17670 0.00941 0.89398-0.96943
   9   2  -2 225.097 92.4096   8 0.64761-0.01502-0.21238 0.37950 0.83706-0.91254
  -8   2   2 422.887 119.335   7-0.58670 0.02887 0.09554 0.07150-0.89717 0.98574
  -8  -2   2 502.277 116.009   7-0.63384 0.07608 0.10550-0.27280-0.86842 0.95701
  -8  -2   2 391.666 74.9169   9 0.08151-0.63991-0.30060 0.13345 0.94935-0.86022
   8   2  -2 449.615 105.663   2 0.50128 0.05669 0.35988-0.19260 0.86462-0.95312
   8  -2  -2 455.433 108.920   5 0.66347-0.10529 0.28976-0.45694 0.79855-0.88763
  -8  -2   2 356.288 109.117   3-0.52761-0.03078-0.28729 0.12020-0.88174 0.97025
   8   2  -2 516.095 118.712   5 0.55118 0.00677 0.21839-0.05117 0.89180-0.98090
   8  -2  -2 348.732 93.7993   8 0.56436-0.00607-0.17553 0.00823 0.89560-0.98450
   8   2  -2 564.183 114.165   8 0.65329-0.09495-0.21494 0.38206 0.83236-0.92130
  -7   2   2 598.907 118.631   7-0.59405 0.11046 0.09709 0.06993-0.89299 0.99501
  -7  -2   2 464.095 99.8472   7-0.64745 0.16392 0.10841-0.27568-0.85921 0.96124
   7  -2  -2 518.597 88.2995   4-0.13563 0.62009-0.15865-0.00867-0.98634 0.88386
  -7  -2   2 481.824 81.2233   9 0.13859-0.62284-0.16909 0.00181 0.98480-0.88226
   7   2  -2 594.013 118.082   2 0.49978-0.01595 0.35774-0.19048 0.86625-0.96817
   7  -2  -2 284.319 82.2903   5 0.68050-0.19652 0.30100-0.46817 0.78024-0.88278
  -7   2   2 613.284 83.1759   1 0.15149-0.63544 0.22196-0.05458 0.97468-0.87260
  -7  -2   2 360.715 90.2314   3-0.52817 0.04400-0.28783 0.12078-0.88129 0.98324
   7   2  -2 485.508 99.7574   5 0.55416-0.07037 0.22023-0.05298 0.88982-0.99237
   7  -2  -2 452.984 106.392   8 0.56887-0.08479-0.17749 0.01019 0.89287-0.99522
   7   2  -2 484.721 104.136   8 0.66929-0.18518-0.22216 0.38927 0.81860-0.92100
  -6   2   2 373.542 90.7327   7-0.61237 0.20303 0.10095 0.06604-0.88210 0.99755
  -6  -2   2 481.010 92.3184   7-0.67447 0.26513 0.11418-0.28145-0.83958 0.95505
   6  -2  -2 489.040 85.0329   4-0.18595 0.59625-0.01843-0.14905-0.99982 0.88385
  -6  -2   2 507.475 85.0892   9 0.19225-0.60232-0.03525-0.13212 0.99932-0.88332
   6   2  -2 493.013 103.643   2 0.50416-0.09448 0.36401-0.19677 0.86146-0.97682
  -6  -2   2 503.560 98.4485   3-0.53600 0.12607-0.29538 0.12837-0.87482 0.99022
   6   2  -2 514.170 101.344   5 0.56584-0.15620 0.22749-0.06020 0.88187-0.99786
   6  -2  -2 327.422 81.8365   8 0.58296-0.17310-0.18367 0.01635 0.88404-0.99984
   6   2  -2 567.501 118.196   8 0.69909-0.28924-0.23575 0.40287 0.79061-0.90646
  -6   2   2 573.260 82.5168   1 0.18742-0.59718 0.02274 0.14463 0.99972-0.88414
  -5   2   2 -5.1324 28.7305   7-0.64571 0.31059 0.10803 0.05894-0.86041 0.98928
  -5  -2   2 -18.241 18.5697   7-0.71960 0.38445 0.12396-0.29120-0.80235 0.93123
   5  -2  -2 22.4315 20.4175   4-0.23119 0.56728 0.11925-0.28686-0.99150 0.86202
  -5  -2   2 18.2943 16.4419   9 0.24164-0.57750 0.09851-0.26595 0.99314-0.86366
   5   2  -2 2.53690 20.2076   2 0.51581-0.18029 0.38084-0.21363 0.84808-0.97687
  -5   2   2 -18.528 27.5501   1 0.21284-0.54841-0.15487 0.32223 0.98736-0.85830
  -5   2   2 -14.377 17.3454   6-0.35616 0.02100 0.62191-0.45540-0.75052 0.87918
  -5  -2   2 -3.1457 23.3600   3-0.55318 0.21747-0.31206 0.14509-0.85979 0.98863
   5   2  -2 35.9311 44.8746   5 0.58902-0.25353 0.24200-0.07466 0.86495-0.99440
   5  -2  -2 7.58046 24.2394   8 0.60998-0.27432-0.19560 0.02826 0.86575-0.99502
  -4   2   2 51.6617 28.1349   7-0.69929 0.43837 0.11954 0.04740-0.81984 0.96211
   4  -2  -2 89.2005 36.6401   4-0.27056 0.53238 0.25105-0.41875-0.96308 0.82006
   4   2  -2 86.1514 40.3854   2 0.53617-0.27481 0.41088-0.24369 0.82222-0.96446
  -4  -2   2 76.5403 29.0146   9 0.28570-0.54732 0.22909-0.39654 0.96686-0.82390
   4  -2  -2 85.4620 40.3342   8 0.65416-0.39273-0.21533 0.04797 0.83163-0.97437
   3   2  -2 32.6612 25.3500   2 0.56611-0.37893 0.45679-0.28963 0.77731-0.93299
   3  -2  -2 -3.5525 8.10163   8 0.71980-0.53260-0.24533 0.07796 0.76912-0.92534
 -12  -3   2 155.604 95.7967   7-0.68264-0.17200 0.11594-0.36684-0.83328 0.86800
 -12  -3   2 137.030 123.536   3-0.56330-0.29201-0.32200 0.07121-0.85033 0.88506
 -11   3   2 86.4539 80.2269   7-0.61494-0.16566 0.10149 0.14920-0.88052 0.92866
 -11  -3   2 24.1086 59.4705   7-0.67168-0.10872 0.11359-0.36447-0.84169 0.88989
  11   3  -2 76.8224 72.0511   2 0.51893 0.26145 0.38538-0.13449 0.84433-0.89259
 -11  -3   2 43.3058 79.3816   3-0.54808-0.23300-0.30710 0.05633-0.86437 0.91255
  11   3  -2 124.620 102.719   5 0.57419 0.20614 0.23270 0.01796 0.87595-0.92482
  11  -3  -2 144.582 100.123   8 0.58936 0.19155-0.18648-0.06434 0.87987-0.92844
 -10   3   2 247.009 103.507   7-0.60453-0.10182 0.09930 0.15139-0.88685 0.94847
 -10  -3   2 174.909 93.6491   7-0.66533-0.04085 0.11223-0.36309-0.84643 0.90810
  10   3  -2 165.311 88.5332   2 0.50644 0.19980 0.36729-0.11642 0.85892-0.92057
 -10  -3   2 318.030 101.959   3-0.53550-0.17138-0.29489 0.04415-0.87525 0.93686
  10   3  -2 172.553 78.4464   5 0.56208 0.14411 0.22515 0.02553 0.88447-0.94675
  10  -3  -2 417.059 145.807   8 0.57764 0.12905-0.18134-0.06949 0.88742-0.94943
  -9   3   2 132.877 35.2328   7-0.59879-0.03329 0.09809 0.15258-0.89024 0.96532
  -9  -3   2 240.064 87.3535   7-0.66496 0.03301 0.11215-0.36300-0.84670 0.92183
   9   3  -2 249.595 87.4018   2 0.49671 0.13542 0.35336-0.10252 0.86954-0.94461
  -9  -3   2 240.251 90.1563   3-0.52619-0.10648-0.28593 0.03522-0.88288 0.95794
   9   3  -2 208.754 84.4249   5 0.55376 0.07827 0.21999 0.03073 0.89009-0.96579
   9  -3  -2 211.722 107.315   8 0.57006 0.06243-0.17802-0.07283 0.89214-0.96759
   9   3  -2 330.762 121.770   8 0.69582-0.06322-0.23426 0.48503 0.79383-0.86931
  -8   3   2 247.537 92.7626   7-0.59916 0.04133 0.09817 0.15248-0.89002 0.97856
  -8  -3   2 329.343 95.4109   7-0.67254 0.11480 0.11377-0.36461-0.84105 0.92962
   8  -3  -2 252.269 70.7951   4-0.08809 0.64673-0.28102 0.03024-0.95575 0.86668
  -8   3   2 116.296 69.8059   6-0.35155-0.20616 0.59440-0.34445-0.77510 0.86342
  -8  -3   2 254.788 71.5659   9 0.08915-0.64760-0.28360 0.03283 0.95518-0.86602
   8   3  -2 158.562 76.0919   2 0.49037 0.06762 0.34438-0.09357 0.87612-0.96461
  -8  -3   2 306.768 94.6289   3-0.52099-0.03744-0.28095 0.03027-0.88700 0.97552
   8   3  -2 397.802 108.589   5 0.55028 0.00762 0.21783 0.03292 0.89239-0.98151
   8  -3  -2 325.238 99.6511   8 0.56777-0.00949-0.17702-0.07384 0.89354-0.98243
   8   3  -2 251.731 112.552   8 0.70685-0.14850-0.23932 0.49009 0.78277-0.87170
  -7   3   2 789.253 144.047   7-0.60761 0.12403 0.09994 0.15067-0.88500 0.98699
  -7   3   2 780.138 138.974   6-0.34710-0.13644 0.56967-0.31972-0.79565 0.89744
  -7  -3   2 850.758 129.797   9 0.13534-0.61961-0.17685-0.07402 0.98330-0.88073
   7   3  -2 939.194 152.395   5 0.55300-0.06924 0.21951 0.03129 0.89060-0.99316
   7   3  -2 631.531 125.959   2 0.48826-0.00441 0.34140-0.09061 0.87826-0.98018
  -7  -3   2 631.733 126.372   3-0.52097 0.03677-0.28092 0.03028-0.88702 0.98899
   7  -3  -2 864.873 156.464   8 0.57239-0.08831-0.17904-0.07183 0.89070-0.99304
   7   3  -2 -19.951 35.7129   8 0.72927-0.24518-0.24973 0.50050 0.75869-0.86106
   7  -3  -2 834.797 128.805   4-0.13178 0.61627-0.16892-0.08203-0.98446 0.88197
  -7  -3   2 902.290 139.519   7-0.69075 0.20722 0.11770-0.36850-0.82683 0.92885
  -6   3   2 210.822 78.9781   7-0.62686 0.21752 0.10402 0.14656-0.87298 0.98840
  -6  -3   2 297.789 79.4436   7-0.72321 0.31387 0.12475-0.37553-0.79910 0.91455
  -6   3   2 188.347 60.3829   1 0.17923-0.58902 0.07219 0.17881 0.99738-0.88181
   6  -3  -2 193.899 63.6292   4-0.17201 0.58233-0.05847-0.19265-0.99824 0.88228
  -6   3   2 366.688 87.7828   6-0.34427-0.06509 0.55460-0.30465-0.80751 0.92276
  -6  -3   2 238.166 60.9933   9 0.17860-0.58868-0.07033-0.18062 0.99753-0.88152
   6   3  -2 220.761 83.8528   2 0.49134-0.08164 0.34576-0.09497 0.87512-0.99048
  -6  -3   2 191.684 69.9477   3-0.52748 0.11752-0.28717 0.03656-0.88184 0.99726
   6   3  -2 295.672 85.4120   5 0.56376-0.15414 0.22620 0.02466 0.88331-0.99933
   6  -3  -2 262.221 83.3638   8 0.58608-0.17621-0.18504-0.06583 0.88202-0.99781
  -5   3   2 62.5851 39.9396   7-0.66065 0.32554 0.11123 0.13932-0.84985 0.97869
   5   3  -2 85.4203 21.8221   6-0.14379 0.47941-0.13784 0.38901-0.98977 0.86043
   5  -3  -2 82.2889 45.8982   4-0.20853 0.54463 0.04876-0.30001-0.99842 0.86897
  -5   3   2 84.2676 41.9217   1 0.20014-0.53571-0.06065 0.31165 0.99798-0.86893
  -5   3   2 105.519 21.8008   2 0.30127-0.63685 0.09792 0.15275 0.98737-0.85862
  -5  -3   2 61.6196 31.4480   9 0.21854-0.55440 0.03452-0.28552 0.99867-0.86920
  -5   3   2 39.2037 20.5287   6-0.34342 0.00825 0.55020-0.30025-0.81087 0.93957
   5   3  -2 112.592 56.6796   2 0.50077-0.16523 0.35916-0.10840 0.86518-0.99397
  -5  -3   2 67.2673 36.6668   3-0.54224 0.20653-0.30142 0.05085-0.86950 0.99836
   5   3  -2 96.2125 55.0755   5 0.58496-0.24949 0.23945 0.01145 0.86802-0.99749
   5  -3  -2 67.5479 45.2854   8 0.61180-0.27613-0.19639-0.05451 0.86446-0.99371
  -4   3   2 383.792 82.9486   7-0.71366 0.45276 0.12266 0.12786-0.80759 0.94982
   4   3  -2 500.237 67.0203   6-0.07478 0.33620-0.31461 0.56587-0.94411 0.80118
   4  -3  -2 420.735 84.5460   4-0.24103 0.50285 0.15098-0.40234-0.98653 0.84356
  -4  -3   2 438.678 82.8724   9 0.25473-0.51637 0.13603-0.38704 0.98768-0.84475
   4   3  -2 385.652 89.0371   2 0.51777-0.25640 0.38370-0.13296 0.84573-0.98797
  -4   3   2 533.338 98.8287   6-0.34483 0.08384 0.55754-0.30758-0.80524 0.94737
   4   3  -2 353.932 79.2884   5 0.61960-0.35829 0.26139-0.01043 0.84008-0.98302
   4  -3  -2 408.331 96.1425   8 0.65326-0.39180-0.21492-0.03600 0.83239-0.97511
  -4   3   2 433.702 79.5993   1 0.21573-0.47708-0.17822 0.42923 0.98328-0.84075
   3  -3  -2 236.744 68.9749   4-0.26923 0.45674 0.24635-0.49777-0.96445 0.80796
  -3  -3   2 216.608 62.7855   9 0.28674-0.47414 0.23231-0.48332 0.96594-0.80956
  -3   3   2 226.531 67.5753   6-0.34854 0.16173 0.57753-0.32757-0.78928 0.94483
  -3  -3   2 249.035 66.5277   3-0.60442 0.41725-0.36326 0.11279-0.80672 0.96242
  -3   3   2 202.593 53.3231   1 0.22687-0.41399-0.27930 0.53031 0.95873-0.80273
   3  -3  -2 94.4482 50.4159   8 0.71430-0.52706-0.24277-0.00817 0.77501-0.93122
 -11   4   2 -10.283 71.0464   7-0.63069-0.14991 0.10484 0.22950-0.87049 0.91858
  11   4  -2 212.330 142.842   2 0.51388 0.26651 0.37804-0.04362 0.85036-0.89861
 -11  -4   2 194.452 141.549   3-0.54716-0.23400-0.30620-0.02817-0.86519 0.91335
  11   4  -2 62.7566 55.8417   5 0.57847 0.20181 0.23538 0.09880 0.87284-0.92175
  11  -4  -2 47.6884 76.7658   8 0.59747 0.18343-0.19005-0.14431 0.87445-0.92303
 -10   4   2 13.2505 87.4811   7-0.62179-0.08454 0.10295 0.23135-0.87622 0.93780
 -10  -4   2 -14.037 40.6128   7-0.70628 0.00014 0.12106-0.45546-0.81396 0.87561
  10   4  -2 16.8233 72.9978   2 0.50211 0.20416 0.36106-0.02667 0.86372-0.92538
 -10  -4   2 11.1074 50.7198   3-0.53534-0.17160-0.29473-0.03961-0.87538 0.93699
  10   4  -2 49.2236 50.5729   5 0.56726 0.13887 0.22838 0.10583 0.88088-0.94319
  10  -4  -2 -44.930 66.1840   8 0.58681 0.11987-0.18536-0.14902 0.88155-0.94355
  -9   4   2 684.716 149.698   7-0.61772-0.01436 0.10208 0.23220-0.87879 0.95383
  -9  -4   2 891.482 163.095   7-0.70989 0.07798 0.12185-0.45621-0.81086 0.88598
   9   4  -2 817.608 172.257   2 0.49293 0.13920 0.34801-0.01364 0.87348-0.94856
  -9  -4   2 642.872 153.754   3-0.52667-0.10605-0.28639-0.04793-0.88250 0.95756
   9   4  -2 757.656 161.639   5 0.55978 0.07221 0.22372 0.11053 0.88604-0.96177
   9  -4  -2 619.233 153.579   8 0.58028 0.05220-0.18249-0.15190 0.88575-0.96120
  -8   4   2 -39.299 67.7306   7-0.61986 0.06205 0.10254 0.23171-0.87744 0.96594
  -8  -4   2 50.4712 50.6202   7-0.72220 0.16449 0.12453-0.45887-0.80001 0.88857
   8  -4  -2 67.6528 47.4113   4-0.08732 0.64602-0.28292-0.05150-0.95513 0.86604
  -8  -4   2 96.0621 59.6055   9 0.08852-0.64700-0.28500-0.04937 0.95472-0.86552
  -8   4   2 134.010 90.2590   6-0.34385-0.21392 0.55245-0.21902-0.80916 0.89749
   8   4  -2 90.9180 71.6822   2 0.48694 0.07106 0.33956-0.00519 0.87957-0.96807
   8   4  -2 1.78876 42.2545   5 0.55699 0.00087 0.22199 0.11230 0.88793-0.97709
  -8  -4   2 30.7090 50.5936   3-0.52189-0.03659-0.28181-0.05248-0.88629 0.97481
   8  -4  -2 40.0177 74.1201   8 0.57898-0.02071-0.18193-0.15247 0.88658-0.97546
   7   4  -2 1101.99 175.266   2 0.48481-0.00095 0.33655-0.00221 0.88169-0.98362
  -7  -4   2 1022.98 150.616   9 0.12739-0.61167-0.19573-0.13873 0.97937-0.87676
  -7  -4   2 1079.35 167.753   3-0.52194 0.03770-0.28185-0.05241-0.88626 0.98823
  -7   4   2 929.206 153.638   6-0.33942-0.14416 0.52993-0.19649-0.82589 0.92770
   7   4  -2 1011.61 164.393   5 0.56012-0.07638 0.22393 0.11041 0.88581-0.98840
  -7   4   2 1132.20 152.031   1 0.14898-0.63301 0.23434 0.10028 0.97173-0.86964
   7  -4  -2 1106.24 176.836   8 0.58441-0.10033-0.18431-0.15011 0.88310-0.98544
   7  -4  -2 1123.70 163.818   4-0.12380 0.60833-0.18995-0.14466-0.98024 0.87773
  -7   4   2 1209.11 188.248   7-0.63013 0.14656 0.10472 0.22950-0.87086 0.97280
  -7  -4   2 926.182 144.552   7-0.74589 0.26237 0.12971-0.46403-0.77769 0.87969
  -6   4   2 -4.1811 25.2141   7-0.65111 0.24179 0.10919 0.22500-0.85666 0.97203
   6  -4  -2 16.7093 30.8611   4-0.15737 0.56768-0.09955-0.23521-0.99474 0.87879
  -6   4   2 -10.375 31.8248   6-0.33655-0.07284 0.51585-0.18239-0.83584 0.95112
   6   4  -2 94.7603 40.9837   2 0.48735-0.07764 0.34013-0.00580 0.87916-0.99453
   6   4  -2 171.894 76.0889   5 0.57078-0.16118 0.23057 0.10382 0.87840-0.99443
  -6  -4   2 7.17252 48.8161   3-0.52795 0.11798-0.28762-0.04660-0.88146 0.99689
   6  -4  -2 -40.024 48.2205   8 0.59853-0.18864-0.19052-0.14391 0.87373-0.98952
  -6  -4   2 91.8432 56.6720   9 0.16362-0.57370-0.10799-0.22652 0.99403-0.87799
  -6   4   2 24.3860 19.1451   1 0.17103-0.58085 0.11908 0.21554 0.99282-0.87726
  -5   4   2 49.3490 30.4355   7-0.68620 0.35112 0.11671 0.21742-0.83046 0.95924
   5   4  -2 86.6727 33.9146   6-0.20254 0.53815 0.02934 0.30533-0.99934 0.87004
   5  -4  -2 13.4145 24.5468   4-0.18788 0.52396-0.01280-0.32209-0.99989 0.87045
  -5  -4   2 151.362 66.1980   9 0.19702-0.53289-0.02281-0.31175 0.99961-0.87013
  -5   4   2 73.3347 50.5684   6-0.33555 0.00035 0.51099-0.17754-0.83918 0.96791
   5   4  -2 64.1245 59.0475   2 0.49550-0.15995 0.35165-0.01734 0.87081-0.99961
  -5  -4   2 108.417 62.2721   3-0.54137 0.20566-0.30057-0.03361-0.87026 0.99913
   5   4  -2 28.6229 42.0123   5 0.59105-0.25559 0.24328 0.09116 0.86339-0.99287
  -5   4   2 76.7784 45.6486   1 0.18881-0.52441 0.01403 0.32060 0.99987-0.87083
   5  -4  -2 66.5782 48.2218   8 0.62393-0.28824-0.20179-0.13266 0.85558-0.98483
  -4   4   2 224.035 64.1847   7-0.73943 0.47854 0.12830 0.20580-0.78397 0.92614
   4   4  -2 202.193 47.7910   6-0.14839 0.40981-0.12534 0.46016-0.99158 0.84873
   4  -4  -2 158.479 55.3723   4-0.21520 0.47701 0.06914-0.40414-0.99700 0.85407
  -4  -4   2 146.182 52.6847   9 0.22738-0.48903 0.05871-0.39329 0.99713-0.85421
  -4   4   2 223.097 69.9571   6-0.33662 0.07564 0.51623-0.18278-0.83558 0.97775
   4   4  -2 249.078 81.4598   2 0.51025-0.24887 0.37278-0.03847 0.85458-0.99684
  -4   4   2 209.769 60.4685   1 0.20285-0.46422-0.07971 0.41435 0.99657-0.85406
  -4  -4   2 197.003 69.3850   3-0.56381 0.30238-0.32252-0.01162-0.84983 0.99213
   4   4  -2 212.470 71.0348   5 0.62344-0.36213 0.26385 0.07066 0.83673-0.97969
   4  -4  -2 267.566 83.0872   8 0.66384-0.40235-0.21970-0.11479 0.82338-0.96611
   3   4  -2 504.703 85.0557   6-0.11215 0.29932-0.22124 0.55616-0.97300 0.81660
   3  -4  -2 432.099 98.7903   4-0.23923 0.42674 0.14511-0.48019-0.98754 0.83110
   3   4  -2 559.446 111.573   2 0.53247-0.34526 0.40536-0.07108 0.82717-0.98287
  -3  -4   2 456.781 92.3609   9 0.25451-0.44193 0.13538-0.46997 0.98779-0.83142
  -3   4   2 542.942 104.828   6-0.33991 0.15311 0.53235-0.19890-0.82414 0.97974
  -3  -4   2 462.472 96.7707   3-0.59691 0.40975-0.35560 0.02152-0.81537 0.97109
   3  -4  -2 36.7715 35.4827   8 0.72140-0.53411-0.24607-0.08845 0.76739-0.92362
   2   4  -2 -11.315 21.4260   6-0.08895 0.20185-0.27984 0.61481-0.95617 0.78626
  -2  -4   2 8.71375 16.4694   9 0.27821-0.39141 0.20598-0.54053 0.97302-0.80322
  -2   4   2 27.0533 19.0681   6-0.34528 0.23266 0.55995-0.22652-0.80335 0.97235
  -1   4   2 50.8708 32.5882   6-0.35238 0.31393 0.59921-0.26580-0.77094 0.95333
 -11   5   2 174.275 101.092   7-0.65250-0.12809 0.10948 0.30848-0.85568 0.90371
  11   5  -2 285.406 135.656   2 0.51379 0.26662 0.37790 0.04005 0.85047-0.89872
 -10   5   2 -165.37 108.313   7-0.64553-0.06079 0.10800 0.30994-0.86054 0.92205
  10   5  -2 61.0091 70.6261   2 0.50292 0.20336 0.36222 0.05570 0.86283-0.92450
 -10  -5   2 -39.029 67.1115   3-0.54052-0.16648-0.29975-0.11822-0.87099 0.93258
  10   5  -2 42.6560 59.8957   5 0.57806 0.12804 0.23512 0.18260 0.87314-0.93550
  10  -5  -2 57.1156 73.9437   8 0.60188 0.10479-0.19201-0.22590 0.87143-0.93345
  -9   5   2 297.020 96.4696   7-0.64357 0.01150 0.10758 0.31033-0.86188 0.93686
  -9   5   2 589.415 158.795   6-0.34490-0.28712 0.55793-0.14100-0.80493 0.87977
  -9  -5   2 397.684 126.572   9 0.04709-0.67977-0.37507-0.04280 0.91907-0.84322
   9   5  -2 418.845 126.976   2 0.49454 0.13761 0.35029 0.06762 0.87181-0.94689
  -9  -5   2 389.226 126.634   3-0.53277-0.10000-0.29225-0.12569-0.87752 0.95258
   9   5  -2 387.615 122.204   5 0.57175 0.06022 0.23117 0.18659 0.87770-0.95348
   9  -5  -2 502.392 140.728   8 0.59679 0.03568-0.18976-0.22816 0.87491-0.95036
  -8   5   2 -60.366 80.8999   7-0.64797 0.09018 0.10852 0.30934-0.85885 0.94729
   8  -5  -2 -31.160 50.0743   4-0.08199 0.64074-0.29607-0.12200-0.95070 0.86159
  -8   5   2 37.8369 32.2502   6-0.33958-0.21825 0.53071-0.11375-0.82533 0.91366
  -8  -5   2 -23.725 45.1034   9 0.08299-0.64147-0.29734-0.12062 0.95050-0.86127
   8   5  -2 -29.344 55.0668   2 0.48916 0.06886 0.34267 0.07523 0.87735-0.96585
  -8  -5   2 -37.587 33.7493   3-0.52874-0.02978-0.28838-0.12955-0.88082 0.96934
   8   5  -2 43.5503 53.8768   5 0.57003-0.01219 0.23010 0.18771 0.87893-0.96813
   8  -5  -2 -13.171 46.3899   8 0.59690-0.03863-0.18981-0.22812 0.87483-0.96373
  -7   5   2 941.618 170.066   7-0.66059 0.17705 0.11122 0.30661-0.84990 0.95177
  -7   5   2 927.309 166.432   6-0.33543-0.14820 0.51042-0.09344-0.83958 0.94140
   7  -5  -2 843.472 168.098   4-0.11335 0.59790-0.21712-0.20112-0.97400 0.87147
  -7  -5   2 843.158 146.544   9 0.11654-0.60083-0.22112-0.19691 0.97338-0.87074
   7   5  -2 735.592 150.783   2 0.48735-0.00348 0.34013 0.07776 0.87916-0.98111
  -7  -5   2 775.757 156.755   3-0.52924 0.04499-0.28886-0.12903-0.88042 0.98239
   7   5  -2 979.124 161.354   5 0.57399-0.09028 0.23257 0.18528 0.87610-0.97872
   7  -5  -2 867.731 169.267   8 0.60361-0.11952-0.19277-0.22518 0.87023-0.97257
  -6   5   2 26.0806 28.2094   7-0.68383 0.27454 0.11620 0.30157-0.83234 0.94764
  -6   5   2 32.1048 38.1554   6-0.33272-0.07670 0.49761-0.08064-0.84817 0.96345
   6  -5  -2 -0.1178 39.7068   4-0.14212 0.55244-0.14122-0.27717-0.98923 0.87327
  -6  -5   2 -42.635 52.0846   9 0.14767-0.55776-0.14716-0.27093 0.98862-0.87256
   6   5  -2 65.3648 58.0461   2 0.48979-0.08008 0.34358 0.07431 0.87670-0.99208
  -6  -5   2 74.1560 46.7285   3-0.53527 0.12529-0.29467-0.12320-0.87544 0.99087
   6   5  -2 1.46492 31.5306   5 0.58510-0.17552 0.23954 0.17839 0.86792-0.98399
  -6   5   2 67.1400 40.6876   1 0.16263-0.57247 0.16472 0.25353 0.98618-0.87062
   6  -5  -2 45.9598 49.1264   8 0.61870-0.20880-0.19947-0.21851 0.85946-0.97525
   5   5  -2 1841.23 219.756   2 0.49724-0.16168 0.35413 0.06374 0.86897-0.99779
   5   5  -2 1939.35 156.870   6-0.23590 0.57154 0.13292 0.28526-0.98948 0.86016
  -5   5   2 1724.80 209.381   6-0.33172-0.00348 0.49293-0.07593-0.85124 0.97998
  -5  -5   2 1629.22 196.467   9 0.17627-0.51215-0.07623-0.34189 0.99709-0.86760
  -5  -5   2 1506.68 195.305   3-0.54800 0.21230-0.30702-0.11080-0.86444 0.99332
   5   5  -2 1586.06 193.913   5 0.60512-0.26965 0.25217 0.16582 0.85223-0.98176
   5  -5  -2 1825.78 216.871   8 0.64446-0.30874-0.21096-0.20703 0.83962-0.96888
  -5   5   2 1497.05 188.343   1 0.17816-0.51379 0.07845 0.33982 0.99690-0.86787
   5  -5  -2 1784.39 211.717   4-0.16824 0.50430-0.06916-0.34936-0.99751 0.86808
  -5   5   2 1939.53 207.903   7-0.72072 0.38564 0.12420 0.29352-0.80135 0.93006
   4   5  -2 178.846 51.0859   6-0.19378 0.45522 0.00327 0.41507-0.99991 0.85707
   4  -5  -2 207.620 72.3672   4-0.19162 0.45342-0.00181-0.41682-0.99994 0.85703
  -4  -5   2 161.347 69.4005   9 0.20222-0.46387-0.00916-0.40898 0.99973-0.85681
  -4   5   2 140.710 56.0097   6-0.33259 0.07160 0.49701-0.08003-0.84857 0.99075
   4   5  -2 201.626 77.0150   2 0.51049-0.24910 0.37313 0.04473 0.85431-0.99657
  -4  -5   2 151.188 66.6751   3-0.56877 0.30736-0.32742-0.09035-0.84501 0.98732
   4   5  -2 178.417 64.6185   5 0.63612-0.37479 0.27199 0.14607 0.82531-0.96831
   4  -5  -2 263.247 84.9074   8 0.68356-0.42204-0.22865-0.18938 0.80560-0.94834
  -4   5   2 229.972 73.3985   1 0.19080-0.45220 0.00137 0.41690 0.99995-0.85745
  -3   5   2 2568.86 234.664   1 0.20087-0.38805-0.06585 0.48415 0.99763-0.84166
   3   5  -2 2992.36 261.815   2 0.53025-0.34303 0.40206 0.01579 0.83009-0.98580
   3   5  -2 2579.98 203.280   6-0.16278 0.34997-0.08566 0.50413-0.99615 0.83979
  -3   5   2 2711.50 249.182   6-0.33544 0.14866 0.51053-0.09356-0.83950 0.99511
  -3  -5   2 2470.43 230.249   9 0.22538-0.41282 0.05319-0.47133 0.99754-0.84119
  -3  -5   2 2635.63 243.578   3-0.59886 0.41173-0.35758-0.06012-0.81316 0.96888
   3   5  -2 1427.93 173.407   5 0.68011-0.49294 0.30074 0.11739 0.78068-0.93718
   3  -5  -2 2253.13 226.066   4-0.21222 0.39972 0.05998-0.47870-0.99770 0.84129
   2   5  -2 100.971 37.4910   6-0.14099 0.25391-0.14537 0.56393-0.98859 0.81872
   2  -5  -2 59.5154 40.2924   4-0.22996 0.34316 0.11531-0.53410-0.99204 0.82214
   2   5  -2 121.556 51.7259   2 0.55684-0.44382 0.44232-0.02449 0.79221-0.96137
  -2  -5   2 71.6878 38.6264   9 0.24565-0.35886 0.10989-0.52801 0.99166-0.82187
  -2   5   2 112.884 61.9611   6-0.34024 0.22765 0.53401-0.11707-0.82293 0.99195
  -2   5   2 126.919 51.8034   1 0.20871-0.32164-0.12274 0.54104 0.99202-0.82258
   1   5  -2 165.722 58.4441   6-0.12681 0.16545-0.18313 0.60173-0.98169 0.79832
   1  -5  -2 193.696 73.4482   4-0.24480 0.28368 0.16331-0.58213-0.98429 0.80090
  -1  -5   2 195.468 71.6369   9 0.26291-0.30191 0.15999-0.57809 0.98332-0.80012
  -1   5   2 165.353 74.5159   6-0.34676 0.30835 0.56776-0.15084-0.79718 0.97959
  -1   5   2 90.9872 48.6302   1 0.21459-0.25328-0.16888 0.58720 0.98498-0.80207
 -10   6   2 138.747 105.925   7-0.67513-0.03117 0.11433 0.38722-0.83908 0.90050
  10   6  -2 57.0401 74.5431   2 0.50776 0.19854 0.36919 0.13228 0.85743-0.91909
 -10  -6   2 106.063 96.9716   3-0.55005-0.15700-0.30902-0.19258-0.86261 0.92418
  10   6  -2 278.342 130.744   5 0.59364 0.11242 0.24491 0.25633 0.86138-0.92380
  10  -6  -2 96.8671 48.5250   8 0.62214 0.08453-0.20099-0.30045 0.85692-0.91896
   9  -6  -2 21.0286 72.4725   4-0.04385 0.67680-0.38714-0.11439-0.91362 0.83785
  -9   6   2 -50.997 72.4525   7-0.67561 0.04358 0.11443 0.38708-0.83871 0.91361
  -9   6   2 47.3434 68.6279   6-0.34286-0.28922 0.54731-0.04683-0.81307 0.88789
  -9  -6   2 36.2510 36.4832   9 0.04248-0.67517-0.38479-0.11667 0.91452-0.83863
   9   6  -2 67.9404 64.8465   2 0.50029 0.13188 0.35848 0.14298 0.86570-0.94079
  -9  -6   2 53.4873 62.9790   3-0.54337-0.08943-0.30251-0.19908-0.86853 0.94357
   9   6  -2 -65.667 75.6290   5 0.58871 0.04323 0.24180 0.25948 0.86519-0.94102
   9  -6  -2 26.3509 50.8588   8 0.61873 0.01374-0.19948-0.30197 0.85943-0.93491
  -8   6   2 358.043 109.225   7-0.68262 0.12485 0.11594 0.38552-0.83329 0.92164
   8  -6  -2 218.907 90.7731   4-0.07369 0.63246-0.31634-0.18537-0.94343 0.85428
  -8   6   2 446.280 143.856   6-0.33798-0.21989 0.52282-0.02231-0.83096 0.91928
  -8  -6   2 334.422 108.694   9 0.07420-0.63269-0.31672-0.18480 0.94345-0.85418
   8   6  -2 497.488 140.874   2 0.49566 0.06238 0.35187 0.14958 0.87064-0.95916
  -8  -6   2 277.099 115.309   3-0.54027-0.01827-0.29950-0.20207-0.87120 0.95971
   8   6  -2 310.975 100.017   5 0.58828-0.03046 0.24153 0.25980 0.86551-0.95476
   8  -6  -2 205.780 89.4160   8 0.62054-0.06225-0.20028-0.30118 0.85810-0.94701
  -7   6   2 87.4735 33.3699   7-0.69790 0.21439 0.11924 0.38217-0.82099 0.92278
   7  -6  -2 157.996 83.7224   4-0.10120 0.58575-0.24817-0.25370-0.96577 0.86321
  -7   6   2 181.847 79.7903   6-0.33421-0.14946 0.50461-0.00409-0.84351 0.94531
  -7  -6   2 144.854 56.8060   9 0.10371-0.58800-0.25069-0.25090 0.96540-0.86272
   7   6  -2 135.066 60.0819   2 0.49435-0.01046 0.35002 0.15143 0.87201-0.97397
  -7  -6   2 129.858 71.2544   3-0.54146 0.05719-0.30066-0.20089-0.87018 0.97215
   7   6  -2 174.862 95.9485   5 0.59336-0.10966 0.24473 0.25665 0.86160-0.96428
   7  -6  -2 0.15491 53.7284   8 0.62883-0.14472-0.20397-0.29751 0.85188-0.95424
  -6   6   2 508.215 103.717   7-0.72366 0.31438 0.12484 0.37652-0.79869 0.91390
   6  -6  -2 511.364 131.993   4-0.12635 0.53666-0.18326-0.31876-0.98164 0.86565
  -6   6   2 429.624 110.630   1 0.15394-0.56381 0.20962 0.29225 0.97746-0.86191
  -6   6   2 470.872 128.509   6-0.33177-0.07767 0.49314 0.00739-0.85110 0.96637
  -6  -6   2 521.062 133.446   9 0.13095-0.54104-0.18730-0.31435 0.98118-0.86509
   6   6  -2 376.162 113.721   2 0.49694-0.08720 0.35369 0.14775 0.86929-0.98469
  -6  -6   2 363.245 104.215   3-0.54779 0.13780-0.30681-0.19471-0.86463 0.98006
   6   6  -2 516.068 127.461   5 0.60522-0.19564 0.25223 0.24922 0.85215-0.96827
   6  -6  -2 400.844 118.692   8 0.64522-0.23529-0.21130-0.29020 0.83900-0.95482
  -5   6   2 22.2346 27.8640   7-0.76241 0.42736 0.13336 0.36794-0.76090 0.88952
   5  -6  -2 126.083 68.0690   4-0.14910 0.48515-0.12226-0.37988-0.99199 0.86255
  -5   6   2 190.579 71.8324   6-0.33085-0.00436 0.48890 0.01164-0.85384 0.98258
  -5  -6   2 42.4286 55.8000   9 0.15586-0.49173-0.12717-0.37451 0.99161-0.86210
   5   6  -2 113.796 71.1268   2 0.50403-0.16845 0.36382 0.13761 0.86161-0.99045
  -5  -6   2 121.274 74.3752   3-0.56024 0.22455-0.31900-0.18247-0.85323 0.98210
   5   6  -2 143.388 75.1931   5 0.62536-0.28991 0.26508 0.23644 0.83503-0.96461
   5  -6  -2 59.6948 42.8692   8 0.67167-0.33593-0.22325-0.27829 0.81648-0.94576
  -5   6   2 -15.173 35.6603   1 0.16780-0.50345 0.13687 0.36501 0.99049-0.86147
  -4   6   2 58.8472 26.8317   1 0.17927-0.44069 0.07199 0.42993 0.99739-0.85490
   4  -6  -2 20.1454 42.7083   4-0.16941 0.43119-0.06585-0.43641-0.99775 0.85484
   4   6  -2 105.607 66.0603   6-0.22574 0.48722 0.10061 0.40124-0.99386 0.85100
  -4  -6   2 -2.8980 31.5654   9 0.17834-0.44001-0.07098-0.43071 0.99749-0.85456
  -4   6   2 56.6923 49.3900   6-0.33161 0.07062 0.49240 0.00812-0.85158 0.99375
   4   6  -2 101.035 79.5315   2 0.51626-0.25485 0.38150 0.11993 0.84754-0.98983
  -4  -6   2 8.41960 41.7941   3-0.57988 0.31849-0.33846-0.16295-0.83380 0.97610
   4   6  -2 66.6442 55.6680   5 0.65549-0.39416 0.28455 0.21704 0.80667-0.94973
   4  -6  -2 -3.5893 29.1710   8 0.71037-0.44881-0.24095-0.26062 0.77913-0.92190
   3   6  -2 45.8624 34.5089   6-0.19946 0.38670 0.02014 0.48185-0.99963 0.84327
   3  -6  -2 83.1946 30.3066   4-0.18722 0.37471-0.01471-0.48763-0.99987 0.84349
   3   6  -2 57.3562 23.6330   2 0.53417-0.34695 0.40789 0.09352 0.82491-0.98064
  -3  -6   2 -3.4694 34.0924   9 0.19831-0.38576-0.01943-0.48226 0.99966-0.84331
  -3   6   2 52.2117 46.3896   6-0.33412 0.14734 0.50418-0.00367-0.84380 0.99940
  -3  -6   2 82.3302 56.4772   3-0.60770 0.42060-0.36660-0.13475-0.80286 0.95857
  -3   6   2 -31.807 47.7726   1 0.18858-0.37577 0.01546 0.48646 0.99985-0.84389
   2   6  -2 2042.25 239.042   2 0.55802-0.44499 0.44414 0.05726 0.79037-0.95955
   2   6  -2 2001.00 207.492   6-0.17988 0.29284-0.03722 0.53931-0.99930 0.82944
  -2   6   2 2262.17 249.753   6-0.33836 0.22580 0.52467-0.02419-0.82965 0.99867
  -2  -6   2 1655.44 205.919   9 0.21566-0.32889 0.02673-0.52840 0.99902-0.82924
   2  -6  -2 2230.39 245.090   4-0.20248 0.31565 0.03042-0.53284-0.99931 0.82944
  -2   6   2 1802.97 216.108   1 0.19595-0.30891-0.03226 0.53420 0.99937-0.82995
   1   6  -2 476.499 103.703   6-0.16617 0.20486-0.07614 0.57831-0.99698 0.81362
   1  -6  -2 454.429 113.856   4-0.21509 0.25396 0.06882-0.57127-0.99703 0.81368
  -1  -6   2 570.719 119.454   9 0.23029-0.26930 0.06671-0.56836 0.99648-0.81329
  -1   6   2 545.438 124.210   1 0.20159-0.24030-0.07081 0.57276 0.99728-0.81438
  -1   6   2 538.536 126.080   6-0.34418 0.30582 0.55415-0.05371-0.80785 0.99026
   1  -6  -2 3.86030 22.8629   9-0.06897 0.10777-0.60112 0.10024 0.77058-0.95322
   0   6   2 2164.50 245.734   1 0.20564-0.17009-0.09984 0.60181 0.99468-0.79832
   0   6  -2 2334.61 250.377   6-0.15760 0.12200-0.10005 0.60228-0.99470 0.79786
   0   6   2 1485.55 213.034   6-0.35125 0.38707 0.59264-0.09224-0.77661 0.97239
   0  -6   2 2035.63 224.659   9 0.24206-0.20686 0.09967-0.60128 0.99300-0.79639
   0  -6  -2 334.027 103.142   9-0.06463 0.02929-0.59335 0.09247 0.77744-0.97352
   0  -6  -2 2117.99 240.324   4-0.22501 0.18957 0.09966-0.60214-0.99399 0.79717
  -3  -6  -2 -16.881 48.6266   9-0.07740-0.18039-0.61602 0.11515 0.75701-0.99337
   3   6   2 -25.277 45.4797   1 0.20917 0.04914-0.12625 0.62823 0.99157-0.75481
   9  -7  -2 118.106 102.884   4-0.03660 0.66958-0.40386-0.18132-0.90553 0.82971
  -9   7   2 -0.1943 47.1525   7-0.71311 0.08111 0.12254 0.46258-0.80807 0.88287
  -9   7   2 -23.495 67.3479   6-0.34276-0.28937 0.54682 0.03722-0.81344 0.88822
  -9  -7   2 110.385 77.1989   9 0.03466-0.66736-0.40114-0.18390 0.90655-0.83061
   9   7  -2 107.210 49.1729   2 0.50925 0.12295 0.37133 0.21367 0.85573-0.93085
  -9  -7   2 -63.878 92.1445   3-0.55758-0.07525-0.31639-0.26886-0.85572 0.93074
   9   7  -2 97.6720 84.2839   5 0.60982 0.02211 0.25515 0.32964 0.84836-0.92427
   9  -7  -2 131.532 101.404   8 0.64534-0.01284-0.21136-0.37360 0.83890-0.91442
   8  -7  -2 76.1667 104.308   4-0.06327 0.62205-0.34143-0.24391-0.93366 0.84447
  -8   7   2 -14.873 64.2097   7-0.72290 0.16515 0.12468 0.46039-0.79938 0.88763
  -8   7   2 -9.6221 53.4423   6-0.33837-0.21954 0.52474 0.05932-0.82960 0.91789
  -8  -7   2 24.0630 80.8901   9 0.06306-0.62156-0.34096-0.24414 0.93391-0.84460
   8   7  -2 37.2777 43.2857   2 0.50540 0.05265 0.36579 0.21921 0.86008-0.94862
  -8  -7   2 87.3889 65.2275   3-0.55549-0.00307-0.31433-0.27090-0.85767 0.94615
   8   7  -2 -7.8564 40.1478   5 0.61080-0.05298 0.25577 0.32907 0.84755-0.93686
   8  -7  -2 -65.760 58.5131   8 0.64898-0.09067-0.21300-0.37199 0.83593-0.92488
   7   7  -2 1826.42 269.822   2 0.50467-0.02076 0.36474 0.22025 0.86090-0.96287
   7  -7  -2 1500.83 256.269   4-0.08776 0.57231-0.28182-0.30368-0.95549 0.85290
  -7   7   2 1965.63 287.677   6-0.33501-0.14868 0.50842 0.07567-0.84094 0.94271
  -7  -7   2 1781.26 257.049   9 0.08937-0.57366-0.28310-0.30206 0.95535-0.85264
  -7  -7   2 1536.25 249.707   3-0.55746 0.07319-0.31627-0.26894-0.85584 0.95778
   7   7  -2 1920.89 265.573   5 0.61713-0.13342 0.25981 0.32509 0.84220-0.94495
   7  -7  -2 1738.18 276.225   8 0.65900-0.17487-0.21751-0.36750 0.82754-0.92994
  -7   7   2 1846.41 250.972   7-0.74094 0.25745 0.12862 0.45638-0.78251 0.88419
   6  -7  -2 138.452 91.5744   4-0.11007 0.52037-0.22557-0.36008-0.97187 0.85586
  -6   7   2 85.0927 60.9488   6-0.33285-0.07660 0.49822 0.08588-0.84777 0.96302
  -6  -7   2 218.437 97.4864   9 0.11354-0.52362-0.22808-0.35712 0.97160-0.85549
   6   7  -2 110.676 84.4667   2 0.50752-0.09777 0.36884 0.21616 0.85770-0.97312
  -6  -7   2 481.198 161.978   3-0.56425 0.15426-0.32294-0.26223-0.84942 0.96482
   6   7  -2 173.590 92.2011   5 0.62988-0.22029 0.26798 0.31700 0.83100-0.94719
   6  -7  -2 249.443 115.668   8 0.67682-0.26687-0.22558-0.35945 0.81182-0.92768
   5  -7  -2 521.243 134.163   4-0.13016 0.46620-0.17319-0.41258-0.98365 0.85419
  -5   7   2 580.420 131.870   6-0.33206-0.00315 0.49452 0.08957-0.85020 0.97890
  -5  -7   2 626.671 148.183   9 0.13551-0.47139-0.17644-0.40879 0.98338-0.85386
   5   7  -2 582.591 136.345   2 0.51445-0.17886 0.37886 0.20614 0.84969-0.97856
  -5   7   2 654.850 140.314   1 0.15749-0.49316 0.19154 0.39397 0.98123-0.85222
  -5  -7   2 580.371 135.184   3-0.57664 0.24095-0.33522-0.24991-0.83714 0.96599
   5   7  -2 564.537 127.126   5 0.65035-0.31488 0.28121 0.30384 0.81176-0.94141
   5  -7  -2 536.695 162.918   8 0.70409-0.36831-0.23806-0.34701 0.78558-0.91491
   4  -7  -2 47.4194 47.5631   4-0.14800 0.40976-0.12527-0.46060-0.99158 0.84867
   4   7  -2 36.3671 59.7665   6-0.25049 0.51201 0.18076 0.40459-0.98077 0.83787
  -4  -7   2 6.14326 33.4602   9 0.15522-0.41688-0.12874-0.45650 0.99139-0.84845
  -4   7   2 31.9264 50.3601   6-0.33276 0.07177 0.49776 0.08632-0.84807 0.99022
   4   7  -2 73.3119 53.1948   2 0.52595-0.26454 0.39569 0.18930 0.83562-0.97793
  -4  -7   2 -1.7488 44.5140   3-0.59547 0.33410-0.35415-0.23093-0.81699 0.95926
   4   7  -2 22.1039 51.5291   5 0.67985-0.41850 0.30057 0.28456 0.78096-0.92409
  -4   7   2 22.1646 50.6885   1 0.16798-0.42942 0.13590 0.44963 0.99063-0.84815
   3   7  -2 2118.53 264.743   2 0.54242-0.35520 0.42028 0.16471 0.81358-0.96932
   3   7  -2 1915.71 211.961   6-0.22807 0.41535 0.10796 0.47754-0.99297 0.83658
  -3   7   2 2121.42 260.892   6-0.33499 0.14823 0.50834 0.07572-0.84100 0.99657
  -3  -7   2 2180.56 253.944   9 0.17258-0.36003-0.08558-0.49966 0.99631-0.83996
  -3  -7   2 2308.08 261.865   3-0.62148 0.43443-0.38085-0.20417-0.78582 0.94150
  -3   7   2 2030.92 252.462   1 0.17659-0.36380 0.08760 0.49795 0.99613-0.84019
   3  -7  -2 1855.72 246.037   4-0.16353 0.35099-0.08237-0.50358-0.99644 0.84006
   2   7  -2 -39.334 32.3168   6-0.21066 0.32367 0.05389 0.53172-0.99810 0.82822
   2  -7  -2 58.5902 36.0221   4-0.17669 0.28986-0.04513-0.54089-0.99896 0.82912
   2   7  -2 3.21855 47.4476   2 0.56404-0.45101 0.45353 0.13144 0.78073-0.94992
  -2  -7   2 14.0140 43.9186   9 0.18749-0.30073-0.04758-0.53763 0.99885-0.82908
  -2   7   2 46.2790 45.2896   6-0.33875 0.22622 0.52661 0.05742-0.82828 0.99727
  -2   7   2 -24.465 63.8825   1 0.18347-0.29643 0.04700 0.53857 0.99888-0.82947
   2  -7  -2 -35.473 44.2747   9-0.07384 0.18673-0.60975 0.02537 0.76279-0.93199
   1   7  -2 2044.79 237.360   6-0.19788 0.23661 0.01542 0.57029-0.99974 0.81638
  -1   7   2 2645.16 293.404   6-0.34392 0.30560 0.55282 0.03116-0.80888 0.99126
  -1  -7   2 2166.40 246.352   9 0.19982-0.23886-0.01546-0.56973 0.99970-0.81652
   1  -7  -2 267.444 99.1436   9-0.06515 0.10394-0.59431 0.00992 0.77660-0.95924
   1  -7  -2 2354.30 269.802   4-0.18741 0.22625-0.01418-0.57188-0.99988 0.81656
  -1   7   2 1899.41 242.344   1 0.18874-0.22747 0.01447 0.57112 0.99986-0.81699
   0   7  -2 -49.876 32.8389   6-0.18929 0.15374-0.00992 0.59569-0.99992 0.80307
   0  -7  -2 73.9106 51.7031   4-0.19555 0.16009 0.00976-0.59584-0.99985 0.80307
   0   7   2 -15.251 44.3252   6-0.35026 0.38613 0.58703-0.00310-0.78137 0.97714
   0  -7  -2 -25.012 42.7736   9-0.06150 0.02616-0.58774 0.00333 0.78230-0.97837
   0  -7   2 41.9855 62.3244   4 0.04952-0.01435-0.58843 0.00405-0.78461 0.98074
   0   7   2 60.2566 49.5096   1 0.19252-0.15700-0.00967 0.59527 0.99989-0.80354
  -1   7  -2 88.9810 40.5332   6-0.18445 0.07461-0.02400 0.60982-0.99970 0.78938
  -1  -7  -2 215.208 76.1883   4-0.20095 0.09120 0.02588-0.61197-0.99947 0.78922
   1  -7   2 261.486 87.9390   9 0.21617-0.10680 0.02810-0.61320 0.99896-0.78897
  -1  -7  -2 31.3490 40.0359   9-0.06207-0.04742-0.58876 0.00434 0.78142-0.99092
   1  -7   2 149.888 76.9221   4 0.05060 0.05879-0.59057 0.00622-0.78281 0.99238
   1   7   2 155.598 83.4872   1 0.19487-0.08509-0.02507 0.61067 0.99959-0.78978
  -9   8   2 200.686 142.334   6-0.34411-0.28806 0.55378 0.11383-0.80814 0.88287
   9  -8  -2 131.499 112.078   4-0.02711 0.66010-0.42547-0.24334-0.89444 0.81857
   8  -8  -2 190.573 114.793   4-0.05122 0.61000-0.36995-0.29902-0.92151 0.83227
  -8   8   2 242.838 151.546   6-0.34020-0.21774 0.53382 0.13382-0.82307 0.91131
  -8  -8   2 56.9403 60.1158   9 0.05012-0.60861-0.36867-0.30000 0.92198-0.83262
  -8  -8   2 -47.932 74.7570   3-0.57359 0.01502-0.33219-0.33671-0.84023 0.92868
   8   8  -2 -35.901 53.0061   5 0.63678-0.07897 0.27242 0.39593 0.82470-0.91411
   8  -8  -2 200.588 125.186   8 0.68139-0.12306-0.22766-0.44085 0.80762-0.89662
   7  -8  -2 -125.89 125.868   4-0.07328 0.55782-0.31732-0.35179-0.94306 0.84042
  -7   8   2 -12.944 54.4982   6-0.33723-0.14647 0.51917 0.14849-0.83353 0.93526
   7   8  -2 -161.24 92.4005   2 0.51745-0.03353 0.38324 0.28532 0.84611-0.94811
  -7  -8   2 14.5196 39.7586   9 0.07383-0.55812-0.31754-0.35118 0.94314-0.84039
  -7  -8   2 24.7754 63.0141   3-0.57638 0.09210-0.33497-0.33390-0.83740 0.93931
   7   8  -2 31.4651 66.6707   5 0.64437-0.16066 0.27732 0.39109 0.81756-0.92040
   7  -8  -2 75.1776 94.2676   8 0.69315-0.20899-0.23303-0.43550 0.79644-0.89889
   6  -8  -2 985.913 222.281   4-0.09329 0.50357-0.26806-0.40120-0.95986 0.84381
   6   8  -2 833.232 200.428   2 0.52061-0.11084 0.38785 0.28072 0.84228-0.95772
  -6   8   2 855.588 195.225   6-0.33537-0.07410 0.51013 0.15754-0.83977 0.95498
  -6  -8   2 955.689 188.937   9 0.09549-0.50557-0.26934-0.39940 0.95978-0.84364
  -6  -8   2 813.209 187.051   3-0.58366 0.17368-0.34224-0.32660-0.82985 0.94521
   6   8  -2 833.895 183.730   5 0.65805-0.24845 0.28622 0.38227 0.80410-0.92038
   6  -8  -2 348.568 153.454   8 0.71236-0.30238-0.24187-0.42668 0.77705-0.89296
   5  -8  -2 -53.451 73.1423   4-0.11122 0.44723-0.22260-0.44677-0.97263 0.84314
   5   8  -2 30.3779 62.5141   2 0.52747-0.19186 0.39794 0.27063 0.83368-0.96257
  -5   8   2 13.5535 37.8098   6-0.33471-0.00051 0.50702 0.16065-0.84189 0.97056
  -5  -8   2 105.338 77.2410   9 0.11507-0.45094-0.22455-0.44422 0.97251-0.84296
  -5  -8   2 14.1842 62.3731   3-0.59607 0.26041-0.35476-0.31405-0.81631 0.94512
   5   8  -2 -39.145 39.0688   5 0.67886-0.34337 0.29991 0.36866 0.78206-0.91181
   4   8  -2 2762.20 341.987   2 0.53840-0.27699 0.41423 0.25434 0.81917-0.96150
  -4   8   2 2703.85 327.077   6-0.33537 0.07439 0.51016 0.15749-0.83976 0.98187
  -4  -8   2 2576.76 309.283   3-0.61427 0.35294-0.37338-0.29537-0.79488 0.93711
  -4  -8   2 2478.99 295.220   9 0.13249-0.39414-0.18365-0.48513 0.98194-0.83898
  -4   8   2 2541.29 309.362   1 0.15676-0.41821 0.19530 0.47385 0.98048-0.83801
   4  -8  -2 2496.86 317.683   4-0.12703 0.38875-0.18145-0.48803-0.98201 0.83907
   3  -8  -2 10.3492 57.3681   4-0.14068 0.32810-0.14511-0.52445-0.98862 0.83223
   3   8  -2 13.6966 45.5393   6-0.25159 0.43891 0.18441 0.48459-0.97999 0.82356
   3   8  -2 35.0533 59.4840   2 0.55371-0.36647 0.43749 0.23108 0.79703-0.95280
  -3  -8   2 36.5982 34.8342   9 0.14767-0.33512-0.14716-0.52161 0.98862-0.83225
  -3   8   2 113.657 84.2095   6-0.33738 0.15064 0.51987 0.14775-0.83304 0.98858
  -3   8   2 -5.1385 66.8967   1 0.16474-0.35196 0.15348 0.51570 0.98802-0.83208
  -2   8   2 525.874 140.471   1 0.17113-0.28411 0.11854 0.55066 0.99289-0.82348
   2  -8  -2 494.204 136.323   4-0.15208 0.26520-0.11411-0.55550-0.99304 0.82320
   2   8  -2 552.233 129.868   6-0.23614 0.34919 0.13369 0.53543-0.98936 0.81945
  -2  -8   2 514.612 126.606   9 0.16053-0.27377-0.11566-0.55309 0.99311-0.82334
  -2   8   2 761.972 176.461   6-0.34073 0.22823 0.53646 0.13113-0.82114 0.99010
   2  -8  -2 -78.308 55.9826   9-0.07485 0.18774-0.61154-0.05635 0.76115-0.93034
  -1   8   2 369.787 111.240   1 0.17602-0.21477 0.09083 0.57839 0.99584-0.81297
   1  -8  -2 419.525 145.232   4-0.16114 0.19997-0.08904-0.58061-0.99582 0.81251
   1   8  -2 457.004 121.865   6-0.22439 0.26316 0.09633 0.57290-0.99435 0.81096
  -1  -8   2 262.479 89.4688   9 0.17092-0.20996-0.08974-0.57898 0.99593-0.81275
  -1   8   2 647.238 155.538   6-0.34532 0.30704 0.56011 0.10743-0.80323 0.98558
   1  -8  -2 50.7246 53.2418   9-0.06701 0.10580-0.59764-0.07028 0.77368-0.95630
   0   8  -2 2212.26 276.138   6-0.21609 0.18059 0.07054 0.59877-0.99687 0.80000
   0  -8   2 2570.35 287.656   9 0.17869-0.14353-0.07011-0.59858 0.99755-0.80096
  -1   8  -2 39.2899 43.1988   6-0.21098 0.10118 0.05486 0.61450-0.99803 0.78769
  -1  -8  -2 63.8349 57.0294   4-0.17171 0.06194-0.05933-0.61033-0.99818 0.78797
   1   8   2 67.0043 66.4113   1 0.18157-0.07182 0.05832 0.61091 0.99829-0.78849
   1  -8   2 208.108 91.2212   9 0.18362-0.07427-0.05752-0.61111 0.99835-0.78837
  -1  -8  -2 83.8102 69.9065   9-0.06405-0.04545-0.59231-0.07564 0.77834-0.98783
   1   8   2 -84.450 61.0594   2 0.26180-0.15218 0.05034 0.61823 0.99528-0.78604
  -2  -8  -2 -4.1083 45.0290   4-0.17278-0.01128-0.05629-0.61335-0.99837 0.77471
   2   8   2 191.400 115.304   1 0.18226 0.00176 0.05426 0.61499 0.99852-0.77526
  -2  -8  -2 3.25920 51.0178   9-0.06774-0.11591-0.59894-0.06904 0.77253-0.99545
   2   8   2 193.897 111.107   2 0.25249-0.06870 0.03927 0.62927 0.99654-0.77388
  -3  -8  -2 84.4726 84.7413   4-0.17059-0.08774-0.06250-0.60711-0.99798 0.76087
   3   8   2 2.19394 42.8146   1 0.18149 0.07680 0.05890 0.61034 0.99825-0.76153
  -3  -8  -2 5.61745 50.9191   9-0.07433-0.18351-0.61062-0.05736 0.76200-0.99834
   3   8   2 3.68666 63.3159   2 0.25012 0.00782 0.03646 0.63206 0.99683-0.76073
   7   9  -2 233.115 105.437   5 0.67427-0.19056 0.29688 0.45506 0.78710-0.89004
   6  -9  -2 55.7932 108.444   4-0.07601 0.48626-0.31070-0.44217-0.94550 0.82940
   6   9  -2 68.3619 112.190   2 0.53550-0.12573 0.40988 0.34225 0.82312-0.93858
  -6   9   2 -12.284 68.1647   6-0.33885-0.07063 0.52708 0.22416-0.82793 0.94307
  -6  -9   2 68.7944 78.9057   9 0.07682-0.48689-0.31096-0.44134 0.94560-0.82942
  -6  -9   2 95.8276 72.6336   3-0.60523 0.19528-0.36408-0.38844-0.80578 0.92109
   6   9  -2 75.5836 35.3435   5 0.68879-0.27917 0.30652 0.44550 0.77084-0.88723
   5  -9  -2 -132.63 131.840   4-0.09214 0.42811-0.27093-0.48205-0.95897 0.82944
   5   9  -2 8.02469 79.2956   2 0.54232-0.20671 0.42012 0.33201 0.81372-0.94263
  -5   9   2 -82.573 55.8613   6-0.33833 0.00311 0.52452 0.22672-0.82976 0.95836
  -5  -9   2 91.8060 81.1241   9 0.09439-0.43025-0.27182-0.48049 0.95900-0.82942
  -5  -9   2 58.2580 84.6265   3-0.61768 0.28205-0.37690-0.37559-0.79064 0.91939
   4  -9  -2 382.651 140.101   4-0.10626 0.36794-0.23532-0.51776-0.96932 0.82635
   4   9  -2 467.629 162.138   2 0.55278-0.29135 0.43606 0.31608 0.79844-0.94079
  -4  -9   2 364.327 118.977   9 0.10990-0.37155-0.23650-0.51581 0.96937-0.82638
  -4   9   2 426.158 157.524   6-0.33896 0.07801 0.52765 0.22357-0.82753 0.96958
   3  -9  -2 295.892 144.574   4-0.11830 0.30570-0.20431-0.54884-0.97705 0.82064
   3   9  -2 64.0843 73.2941   2 0.56707-0.37984 0.45830 0.29385 0.77571-0.93150
   3   9  -2 223.384 102.496   6-0.27164 0.45901 0.25334 0.49917-0.96235 0.80584
  -3   9   2 299.608 128.384   1 0.15289-0.34012 0.21495 0.53785 0.97628-0.82035
  -3  -9   2 189.957 103.203   9 0.12325-0.31069-0.20546-0.54684 0.97717-0.82078
  -3   9   2 433.490 162.424   6-0.34078 0.15407 0.53674 0.21446-0.82094 0.97642
   2  -9  -2 62.0135 62.1691   4-0.12820 0.24130-0.17837-0.57483-0.98263 0.81277
   2   9  -2 142.685 51.7721   6-0.25791 0.37101 0.20573 0.54692-0.97515 0.80518
  -2  -9   2 114.236 93.7748   9 0.13435-0.24759-0.17922-0.57306 0.98283-0.81305
  -2   9   2 124.768 98.5471   6-0.34377 0.23130 0.55201 0.19915-0.80950 0.97839
  -2   9   2 174.387 91.3376   1 0.15883-0.27183 0.18460 0.56821 0.98259-0.81319
   1  -9  -2 527.614 159.436   4-0.13587 0.17465-0.15803-0.59521-0.98645 0.80313
   1   9  -2 459.871 139.067   6-0.24717 0.28600 0.16972 0.58303-0.98302 0.79958
  -1  -9   2 541.643 148.053   9 0.14307-0.18211-0.15832-0.59393 0.98675-0.80356
  -1   9   2 385.955 135.746   6-0.34783 0.30959 0.57362 0.17749-0.79247 0.97476
   1  -9  -2 -49.891 73.1275   9-0.07295 0.11173-0.60820-0.14324 0.76421-0.94682
  -1   9   2 347.720 140.079   1 0.16336-0.20212 0.16081 0.59203 0.98683-0.80397
   0  -9  -2 13.8575 67.7031   4-0.14114 0.10563-0.14387-0.60938-0.98882 0.79205
   0   9  -2 38.6335 52.8568   6-0.23931 0.20387 0.14398 0.60885-0.98770 0.79079
   0  -9   2 13.7361 58.1575   9 0.14923-0.11409-0.14338-0.60882 0.98922-0.79264
   0   9   2 1.30413 47.9486   6-0.35279 0.38877 0.60162 0.14943-0.76883 0.96450
   0  -9  -2 46.9970 43.2403   9-0.06959 0.03424-0.60224-0.14922 0.76959-0.96563
   0   9   2 51.3566 70.3443   1 0.16652-0.13103 0.14385 0.60901 0.98949-0.79316
  -1  -9  -2 8.15189 40.0391   4-0.14384 0.03404-0.13657-0.61667-0.98995 0.77973
   1   9   2 -7.4271 64.4611   2 0.32039-0.21077 0.12137 0.63079 0.98196-0.77272
  -1  -9  -2 -84.009 61.5132   9-0.06972-0.03978-0.60245-0.14903 0.76939-0.97886
   1   9   2 0.21393 67.0620   1 0.16832-0.05858 0.13405 0.61881 0.99089-0.78110
  -2  -9  -2 -13.891 43.1135   4-0.14371-0.04038-0.13691-0.61630-0.98990 0.76623
   2   9   2 -20.279 40.2979   2 0.30770-0.12391 0.10578 0.64636 0.98567-0.76300
  -2  -9  -2 -31.638 45.1103   9-0.07289-0.11078-0.60808-0.14344 0.76432-0.98721
   2   9   2 22.9159 64.5271   1 0.16874 0.01527 0.13177 0.62110 0.99120-0.76794
   4  10  -2 -103.44 78.0914   2 0.56842-0.30699 0.46043 0.37528 0.77345-0.91581
   3 -10  -2 -17.553 49.4283   4-0.09616 0.28351-0.26088-0.57586-0.96205 0.80560
  -3 -10   2 -1.6023 68.2907   9 0.09904-0.28648-0.26132-0.57450 0.96225-0.80585
  -3  10   2 2.69435 92.2788   6-0.34483 0.15814 0.55755 0.27722-0.80522 0.96062
   2 -10  -2 585.413 183.373   4-0.10477 0.21782-0.23912-0.59767-0.96829 0.79839
   2  10  -2 378.984 148.358   6-0.27695 0.39010 0.27225 0.56389-0.95649 0.78643
  -2 -10   2 470.167 165.490   9 0.10862-0.22187-0.23943-0.59637 0.96857-0.79876
  -2  10   2 238.658 124.980   6-0.34749 0.23504 0.57176 0.26298-0.79397 0.96279
   1 -10  -2 8.33044 61.7658   4-0.11120 0.14995-0.22266-0.61414-0.97261 0.78927
   1  10  -2 16.2355 54.2695   6-0.26718 0.30605 0.23765 0.59861-0.96688 0.78336
  -1  10   2 144.460 60.1971   1 0.15064-0.18941 0.22612 0.61035 0.97371-0.79085
  -1 -10   2 44.7486 59.1174   9 0.11589-0.15494-0.22264-0.61312 0.97300-0.78980
  -1  10   2 -3.9819 54.6486   6-0.35108 0.31287 0.59169 0.24299-0.77742 0.95964
  -1 -10  -2 7.59547 81.4832   4-0.11692 0.00708-0.20790-0.62889-0.97621 0.76597
   1  10   2 -53.836 51.0235   1 0.15503-0.04529 0.20413 0.63236 0.97865-0.76886
  -1 -10  -2 -2.4920 78.3787   9-0.07826-0.03126-0.61753-0.21750 0.75560-0.96504
   2  10   2 -73.405 74.9829   1 0.15519 0.02881 0.20334 0.63315 0.97881-0.75556
 -12   0   3 87.3283 73.2578   7-0.70864-0.12814 0.12157-0.12182-0.81194 0.94475
  12   0  -3 3.59702 60.0148   8 0.70160 0.13590-0.23691 0.23672 0.78809-0.92151
 -11   0   3 73.7772 85.1235   7-0.70231-0.06022 0.12020-0.12045-0.81732 0.96360
  11   0  -3 52.0457 74.3778   5 0.68723 0.07568 0.30547-0.30533 0.77263-0.91977
  11   0  -3 76.2689 79.2616   8 0.69499 0.06828-0.23387 0.23367 0.79466-0.94152
 -10   0   3 38.5018 49.8391   7-0.70058 0.01228 0.11982-0.12007-0.81877 0.97850
  10   0  -3 8.63779 22.1646   5 0.68458 0.00416 0.30370-0.30353 0.77566-0.93624
  10   0  -3 49.9837 82.8033   8 0.69274-0.00370-0.23284 0.23263 0.79684-0.95716
  -9   0   3 -63.095 50.1085   7-0.70458 0.09052 0.12069-0.12094-0.81541 0.98858
   9   0  -3 14.4670 19.6991   5 0.68701-0.07244 0.30533-0.30513 0.77288-0.94691
   9   0  -3 140.386 93.7228   8 0.69591-0.08111-0.23430 0.23408 0.79375-0.96753
  -8   0   3 374.270 102.906   7-0.71575 0.17591 0.12312-0.12337-0.80576 0.99237
   8   0  -3 474.320 169.128   8 0.70578-0.16522-0.23883 0.23862 0.78386-0.97109
  -7   0   3 -1.0458 35.7896   7-0.73579 0.27016 0.12750-0.12775-0.78745 0.98748
   7   0  -3 1.41182 27.4156   4-0.26103 0.72796 0.21789-0.21825-0.97219 0.77116
  -7   0   3 12.6086 15.6605   9 0.26645-0.73307 0.17049-0.17083 0.98120-0.78024
   7   0  -3 -10.947 35.1989   8 0.72383-0.25751-0.24720 0.24696 0.76473-0.96542
  -6   0   3 -12.548 20.5728   7-0.76654 0.37510 0.13428-0.13453-0.75653 0.96998
 -12   1   3 391.777 166.829   7-0.70288-0.13393 0.12032-0.03697-0.81684 0.94965
 -12  -1   3 362.007 162.915   7-0.72073-0.11603 0.12420-0.20804-0.80134 0.93414
  12   1  -3 200.208 105.453   5 0.67652 0.16049 0.29836-0.21465 0.78464-0.91836
  12  -1  -3 448.908 163.315   8 0.68822 0.14925-0.23078 0.14698 0.80119-0.93460
  12   1  -3 -59.987 65.6373   8 0.72166 0.11587-0.24619 0.32961 0.76711-0.90052
 -11   1   3 9.43747 63.8529   7-0.69623-0.06634 0.11888-0.03554-0.82237 0.96864
 -11  -1   3 135.338 94.6031   7-0.71520-0.04730 0.12300-0.20682-0.80624 0.95252
  11   1  -3 -13.219 69.0239   5 0.66881 0.09403 0.29328-0.20954 0.79295-0.94009
  11  -1  -3 -22.516 74.7430   8 0.68086 0.08238-0.22742 0.14362 0.80811-0.95497
  11   1  -3 29.4785 86.7910   8 0.71632 0.04697-0.24372 0.32713 0.77286-0.91973
 -10   1   3 -67.120 36.9083   7-0.69407 0.00575 0.11841-0.03508-0.82414 0.98387
 -10  -1   3 48.1694 85.0465   7-0.71443 0.02616 0.12283-0.20666-0.80692 0.96665
  10   1  -3 -30.881 42.9928   5 0.66500 0.02369 0.29077-0.20700 0.79696-0.95754
  10   1  -3 74.9867 56.9218   8 0.71561-0.02656-0.24337 0.32679 0.77362-0.93395
  -9   1   3 40.4051 37.6939   7-0.69749 0.08342 0.11915-0.03582-0.82133 0.99451
  -9  -1   3 46.8643 45.2683   7-0.71959 0.10554 0.12396-0.20777-0.80236 0.97553
   9   1  -3 -1.9758 42.7203   5 0.66596-0.05144 0.29141-0.20760 0.79595-0.96998
   9  -1  -3 29.9313 42.9123   8 0.67962-0.06483-0.22686 0.14304 0.80925-0.98301
   9   1  -3 10.5840 30.4934   8 0.72061-0.10580-0.24570 0.32910 0.76825-0.94204
   8   1  -3 3007.18 298.888   5 0.67279-0.13244 0.29590-0.21207 0.78869-0.97617
   8  -1  -3 3934.01 373.506   8 0.68796-0.14740-0.23066 0.14683 0.80144-0.98866
  -8   1   3 3603.72 327.979   7-0.70790 0.16805 0.12141-0.03809-0.81258 0.99919
  -8  -1   3 3207.97 306.399   7-0.73212 0.19229 0.12669-0.21050-0.79090 0.97751
  -7   1   3 65.7700 53.8628   7-0.72695 0.26132 0.12556-0.04224-0.79569 0.99572
  -7  -1   3 141.759 68.1146   7-0.75372 0.28808 0.13144-0.21524-0.76987 0.96990
   7  -1  -3 131.811 59.9331   4-0.23947 0.70639 0.14587-0.22991-0.98741 0.78641
  -7  -1   3 102.733 38.6593   9 0.24701-0.71365 0.11379-0.19772 0.99112-0.79015
   7   1  -3 12.8226 23.6563   5 0.68674-0.22056 0.30514-0.22129 0.77320-0.97414
   7  -1  -3 89.9640 76.9202   8 0.70411-0.23778-0.23807 0.15423 0.78556-0.98623
 -12  -2   3 130.562 104.898   7-0.73923-0.09748 0.12826-0.29565-0.78416 0.91696
  12   2  -3 16.6375 64.7350   5 0.66553 0.17140 0.29113-0.12384 0.79640-0.93014
 -11   2   3 292.445 98.6346   7-0.69670-0.06587 0.11898 0.04796-0.82198 0.96823
 -11  -2   3 385.112 139.671   7-0.73501-0.02747 0.12733-0.29471-0.78818 0.93445
 -11  -2   3 429.443 146.708   3-0.62665-0.13660-0.38624 0.21922-0.77910 0.92529
  11   2  -3 428.925 144.248   5 0.65741 0.10537 0.28581-0.11850 0.80474-0.95190
  11  -2  -3 513.179 140.853   8 0.67353 0.08969-0.22409 0.05670 0.81481-0.96165
 -10   2   3 251.144 127.340   7-0.69462 0.00629 0.11853 0.04841-0.82369 0.98341
 -10  -2   3 277.473 102.920   7-0.73573 0.04748 0.12749-0.29486-0.78750 0.94721
 -10  -2   3 175.699 96.7079   3-0.62097-0.06809-0.38030 0.21333-0.78648 0.94610
  10   2  -3 141.095 83.8588   5 0.65299 0.03564 0.28292-0.11557 0.80917-0.96975
  10  -2  -3 154.588 104.428   8 0.66992 0.01908-0.22245 0.05506 0.81804-0.97833
  -9   2   3 1143.70 205.952   7-0.69802 0.08394 0.11927 0.04766-0.82089 0.99406
  -9  -2   3 1124.40 202.762   3-0.61907 0.00423-0.37834 0.21139-0.78889 0.96195
   9   2  -3 1117.41 194.723   5 0.65308-0.03862 0.28299-0.11561 0.80907-0.98309
   9  -2  -3 1059.25 205.859   8 0.67125-0.05647-0.22306 0.05565 0.81685-0.99059
  -9  -2   3 1090.63 197.352   7-0.74260 0.12857 0.12899-0.29636-0.78090 0.95406
  -8   2   3 409.270 109.579   7-0.70825 0.16840 0.12149 0.04542-0.81228 0.99888
  -8  -2   3 148.374 67.8264   7-0.75704 0.21721 0.13217-0.29953-0.76647 0.95306
  -8  -2   3 341.972 75.3581   9 0.17613-0.71700-0.07659-0.09085 0.99707-0.80958
  -8  -2   3 378.826 120.807   3-0.62176 0.08114-0.38113 0.21423-0.78547 0.97196
   8   2  -3 477.943 131.614   5 0.65872-0.11841 0.28666-0.11925 0.80342-0.99090
   8  -2  -3 441.081 132.957   8 0.67867-0.13811-0.22642 0.05900 0.81013-0.99733
  -7   2   3 1.12075 28.0380   7-0.72690 0.26128 0.12555 0.04134-0.79574 0.99575
   7  -2  -3 174.271 78.7355   4-0.22018 0.68713 0.08456-0.25225-0.99561 0.79463
  -7  -2   3 21.0157 37.7998   9 0.22850-0.69517 0.06180-0.22931 0.99689-0.79592
  -7  -2   3 19.7434 46.6757   3-0.62989 0.16348-0.38962 0.22276-0.77481 0.97475
   7   2  -3 30.8968 42.3341   5 0.67104-0.20490 0.29475-0.12730 0.79057-0.99151
  -7   2   3 83.0849 52.8313   1 0.20800-0.67418-0.11739 0.28480 0.99269-0.79239
   7  -2  -3 172.965 86.2846   8 0.69354-0.22720-0.23321 0.06579 0.79606-0.99672
  -6   2   3 -33.173 39.1147   7-0.75576 0.36433 0.13189 0.03498-0.76779 0.98122
   6  -2  -3 62.3722 54.7073   4-0.26165 0.65435 0.22000-0.38780-0.97165 0.75710
   6   2  -3 -24.746 29.2518   5 0.69132-0.29935 0.30821-0.14072 0.76789-0.98230
   6  -2  -3 50.9028 35.5487   8 0.71738-0.32526-0.24420 0.07676 0.77173-0.98585
 -12  -3   3 -139.93 84.5523   7-0.76413-0.07255 0.13374-0.38470-0.75909 0.89186
 -12  -3   3 -71.052 68.0348   3-0.62539-0.21214-0.38493 0.13432-0.78075 0.91349
 -11   3   3 532.386 158.437   7-0.70342-0.05916 0.12044 0.13013-0.81639 0.96261
 -11  -3   3 23.6143 45.0273   7-0.76167-0.00078 0.13320-0.38414-0.76167 0.90791
 -11  -3   3 458.656 165.919   3-0.61646-0.14687-0.37563 0.12505-0.79217 0.93835
  11   3  -3 622.156 186.897   5 0.65238 0.11034 0.28252-0.03166 0.80977-0.95695
  11  -3  -3 420.000 158.153   8 0.67249 0.09071-0.22362-0.02734 0.81574-0.96258
 -10   3   3 -4.1146 72.0023   7-0.70186 0.01353 0.12010 0.13045-0.81770 0.97739
 -10  -3   3 26.3695 22.2111   7-0.76438 0.07614 0.13380-0.38472-0.75882 0.91852
  10   3  -3 89.3733 68.3988   2 0.56876 0.11984 0.46097-0.21010 0.77286-0.93250
 -10  -3   3 46.9599 63.7182   3-0.61047-0.07862-0.36946 0.11892-0.79952 0.95914
  10   3  -3 152.545 102.209   5 0.64782 0.04076 0.27955-0.02866 0.81423-0.97484
  10  -3  -3 87.3234 68.1600   8 0.66893 0.02006-0.22200-0.02896 0.81892-0.97920
  -9   3   3 174.075 93.9009   7-0.70573 0.09165 0.12094 0.12959-0.81443 0.98757
   9   3  -3 140.988 71.4460   2 0.56481 0.04966 0.45474-0.20389 0.77946-0.95252
  -9  -3   3 285.406 111.384   3-0.60807-0.00682-0.36699 0.11648-0.80241 0.97548
   9   3  -3 191.079 95.7015   5 0.64757-0.03315 0.27940-0.02847 0.81447-0.98851
   9  -3  -3 157.876 76.8172   8 0.67014-0.05537-0.22255-0.02842 0.81784-0.99157
  -8   3   3 130.344 74.1847   7-0.71630 0.17646 0.12324 0.12726-0.80528 0.99184
   8  -3  -3 178.341 71.0142   4-0.16150 0.70267-0.08803-0.16316-0.99592 0.80846
   8   3  -3 123.561 81.2091   2 0.56417-0.02385 0.45374-0.20292 0.78051-0.96699
  -8  -3   3 64.3025 47.2159   9 0.16655-0.70743-0.10068-0.15034 0.99484-0.80733
  -8  -3   3 101.538 57.7641   3-0.60993 0.06928-0.36891 0.11844-0.80017 0.98668
   8   3  -3 44.8347 48.0186   5 0.65256-0.11229 0.28264-0.03167 0.80959-0.99707
   8  -3  -3 77.4895 74.4612   8 0.67719-0.13663-0.22575-0.02523 0.81148-0.99866
  -7   3   3 800.793 166.718   7-0.73508 0.26947 0.12734 0.12313-0.78812 0.98810
   7   3  -3 129.696 65.6063   2 0.56740-0.10122 0.45882-0.20802 0.77516-0.97508
   7  -3  -3 882.588 161.594   4-0.20194 0.66890 0.02885-0.28020-0.99936 0.79839
  -7  -3   3 765.821 130.416   9 0.21029-0.67695 0.01229-0.26338 0.99948-0.79851
  -7  -3   3 697.215 154.544   3-0.61686 0.15044-0.37606 0.12562-0.79166 0.99161
   7   3  -3 704.150 156.108   5 0.66385-0.19773 0.29002-0.03900 0.79814-0.99909
   7  -3  -3 958.407 188.357   8 0.69136-0.22502-0.23221-0.01878 0.79818-0.99882
  -6   3   3 -15.487 25.7880   7-0.76371 0.37230 0.13365 0.11680-0.75954 0.97293
   6  -3  -3 137.577 68.2195   4-0.23751 0.63022 0.13956-0.39103-0.98845 0.77394
  -6  -3   3 272.308 87.7921   9 0.24947-0.64191 0.12084-0.37196 0.99009-0.77565
  -6  -3   3 370.618 99.0926   3-0.62967 0.23748-0.38940 0.13900-0.77510 0.98849
   6   3  -3 176.390 79.6588   5 0.68261-0.29066 0.30240-0.05134 0.77788-0.99229
   6  -3  -3 98.1172 39.0530   8 0.71404-0.32191-0.24265-0.00836 0.77528-0.98939
 -11   4   3 941.673 212.325   7-0.71598-0.04660 0.12317 0.21102-0.80556 0.95173
  11   4  -3 172.819 106.491   2 0.56744 0.19530 0.45889-0.12445 0.77509-0.92131
 -11  -4   3 1346.52 264.297   3-0.61189-0.15149-0.37092 0.03675-0.79780 0.94397
  11   4  -3 1182.13 249.963   5 0.65302 0.10965 0.28294 0.05146 0.80914-0.95634
  11  -4  -3 1356.80 270.596   8 0.67717 0.08601-0.22574-0.10876 0.81151-0.95835
 -10   4   3 8.55511 51.0805   7-0.71533 0.02700 0.12303 0.21114-0.80613 0.96577
  10   4  -3 57.5403 82.6500   2 0.56072 0.12790 0.44835-0.11394 0.78609-0.94572
 -10  -4   3 24.9849 37.6740   3-0.60599-0.08317-0.36486 0.03073-0.80488 0.96450
  10   4  -3 36.7692 58.9550   5 0.64870 0.03983 0.28013 0.05431 0.81338-0.97400
  10  -4  -3 -10.050 72.8751   8 0.67404 0.01493-0.22432-0.11019 0.81435-0.97463
  -9   4   3 91.6397 94.5379   7-0.72008 0.10600 0.12406 0.21007-0.80192 0.97501
   9   4  -3 64.8421 78.1211   2 0.55664 0.05785 0.44201-0.10762 0.79253-0.96558
  -9  -4   3 7.36770 45.1059   3-0.60347-0.01146-0.36228 0.02819-0.80784 0.98091
   9   4  -3 184.908 114.425   5 0.64852-0.03413 0.28001 0.05446 0.81355-0.98761
   9  -4  -3 6.92499 53.4886   8 0.67555-0.06079-0.22501-0.10951 0.81298-0.98670
  -8   4   3 150.670 87.9460   7-0.73141 0.19158 0.12654 0.20756-0.79156 0.97808
   8  -4  -3 142.582 83.0754   4-0.14949 0.69067-0.12120-0.21364-0.99213 0.80465
   8   4  -3 179.129 95.1903   2 0.55565-0.01531 0.44048-0.10611 0.79406-0.98054
  -8  -4   3 105.201 54.0061   9 0.15449-0.69538-0.13052-0.20408 0.99114-0.80360
  -8  -4   3 75.8256 86.4441   3-0.60496 0.06427-0.36380 0.02974-0.80610 0.99262
   8   4  -3 191.545 111.498   5 0.65333-0.11309 0.28314 0.05138 0.80883-0.99633
   8  -4  -3 112.633 80.4037   8 0.68270-0.14213-0.22826-0.10628 0.80640-0.99357
  -7   4   3 307.228 106.630   7-0.75074 0.28513 0.13078 0.20328-0.77287 0.97281
   7  -4  -3 563.536 153.720   4-0.18416 0.65112-0.02360-0.31140-0.99971 0.79875
   7   4  -3 422.412 125.458   2 0.55825-0.09205 0.44451-0.11016 0.79000-0.98992
  -7  -4   3 375.609 101.560   9 0.19206-0.65873-0.03576-0.29890 0.99930-0.79832
  -7  -4   3 614.120 151.921   3-0.61116 0.14472-0.37016 0.03614-0.79869 0.99866
   7   4  -3 505.972 135.226   5 0.66408-0.19798 0.29016 0.04440 0.79792-0.99887
  -7   4   3 614.688 133.351   1 0.18665-0.65287 0.02754 0.30713 0.99960-0.79932
   7  -4  -3 496.645 178.451   8 0.69664-0.23027-0.23463-0.09992 0.79303-0.99367
   6   4  -3 41.9533 32.9948   2 0.56491-0.17287 0.45490-0.12057 0.77930-0.99266
   6  -4  -3 -65.224 87.3594   4-0.21511 0.60782 0.06887-0.40399-0.99702 0.78254
  -6  -4   3 159.320 78.6397   9 0.22607-0.61851 0.05509-0.38978 0.99741-0.78297
  -6  -4   3 54.5279 54.4876   3-0.62279 0.23060-0.38221 0.04822-0.78414 0.99754
   6   4  -3 4.92888 31.9052   5 0.68181-0.28987 0.30187 0.03275 0.77877-0.99320
  -6   4   3 -37.412 79.8095   1 0.20342-0.59543-0.08378 0.41846 0.99623-0.78246
   6  -4  -3 -43.447 61.2009   8 0.71863-0.32647-0.24478-0.08980 0.77039-0.98450
  11   5  -3 155.107 122.190   2 0.56392 0.19885 0.45334-0.03538 0.78093-0.92714
 -10   5   3 220.202 120.184   7-0.73450 0.04618 0.12722 0.29056-0.78867 0.94824
  10   5  -3 157.194 122.874   2 0.55747 0.13117 0.44330-0.02535 0.79123-0.95086
 -10  -5   3 112.698 127.492   3-0.60660-0.08261-0.36548-0.05226-0.80416 0.96378
  10   5  -3 154.969 98.5160   5 0.65486 0.03363 0.28414 0.13382 0.80730-0.96797
  10  -5  -3 230.010 130.719   8 0.68460 0.00437-0.22912-0.18892 0.80462-0.96491
  -9   5   3 -2.2221 54.7434   7-0.74043 0.12637 0.12851 0.28923-0.78300 0.95603
   9   5  -3 0.38892 83.4092   2 0.55352 0.06099 0.43719-0.01927 0.79732-0.97038
  -9  -5   3 36.6660 29.1628   9 0.10493-0.72001-0.24789-0.17020 0.96620-0.79205
  -9  -5   3 66.2384 84.7932   3-0.60426-0.01070-0.36309-0.05462-0.80691 0.97999
   9  -5  -3 -37.476 52.3806   8 0.68673-0.07196-0.23010-0.18796 0.80261-0.97633
  -8   5   3 177.837 99.9902   7-0.75285 0.21303 0.13124 0.28645-0.77074 0.95720
   8  -5  -3 276.458 107.668   4-0.13618 0.67736-0.15719-0.26129-0.98659 0.79910
   8   5  -3 210.134 99.2979   2 0.55246-0.01210 0.43557-0.01766 0.79892-0.98541
  -8  -5   3 241.652 90.1108   9 0.14075-0.68163-0.16391-0.25427 0.98575-0.79819
  -8  -5   3 185.426 90.7902   3-0.60570 0.06498-0.36456-0.05312-0.80523 0.99176
   8   5  -3 206.963 73.5740   5 0.66002-0.11980 0.28751 0.13054 0.80209-0.98962
   8  -5  -3 381.169 157.465   8 0.69431-0.15374-0.23357-0.18452 0.79531-0.98249
  -7   5   3 -91.529 117.543   1 0.17663-0.64289 0.08731 0.33099 0.99616-0.79588
   7  -5  -3 -110.42 106.809   4-0.16652 0.63347-0.07400-0.34463-0.99714 0.79617
   7   5  -3 -38.897 66.2117   2 0.55473-0.08851 0.43906-0.02116 0.79547-0.99540
  -7  -5   3 21.3899 50.7766   9 0.17364-0.64032-0.08289-0.33534 0.99655-0.79555
  -7  -5   3 -20.751 36.6651   3-0.61151 0.14506-0.37054-0.04711-0.79825 0.99823
   7   5  -3 25.4116 32.8606   5 0.67060-0.20452 0.29446 0.12365 0.79104-0.99203
   7  -5  -3 -72.419 82.7931   8 0.70838-0.24200-0.24003-0.17807 0.78119-0.98183
   6  -5  -3 432.167 144.825   4-0.19380 0.58649 0.00459-0.42336-0.99991 0.78544
   6   5  -3 71.3942 76.6207   2 0.56073-0.16868 0.44836-0.03048 0.78608-0.99945
  -6  -5   3 47.2395 54.2181   9 0.20358-0.59603-0.00556-0.41270 0.99973-0.78529
  -6  -5   3 95.4382 87.7782   3-0.62236 0.23018-0.38176-0.03584-0.78469 0.99810
   6   5  -3 -78.101 74.5309   5 0.68770-0.29577 0.30579 0.11237 0.77208-0.98654
   6  -5  -3 570.176 194.960   8 0.73003-0.33785-0.25009-0.16804 0.75783-0.97193
  -6   5   3 128.647 84.8954   1 0.19203-0.58406-0.00648 0.42479 0.99992-0.78616
   5  -5  -3 49.5121 84.7297   4-0.21803 0.53644 0.07787-0.49675-0.99625 0.76827
  -5   5   3 71.9475 99.9967   1 0.20425-0.52206-0.08974 0.50806 0.99569-0.76845
 -10   6   3 49.4300 73.6120   7-0.75877 0.07046 0.13255 0.36884-0.76469 0.92419
  10   6  -3 -7.9298 85.4152   2 0.55816 0.13049 0.44437 0.05711 0.79014-0.94978
  10  -6  -3 110.187 154.111   8 0.69993-0.01098-0.23615-0.26543 0.78976-0.95006
  -9   6   3 -164.52 86.3096   7-0.76610 0.15204 0.13418 0.36717-0.75700 0.92994
   9  -6  -3 410.798 146.920   4-0.09222 0.70761-0.27075-0.23118-0.95903 0.78494
   9   6  -3 893.922 225.690   2 0.55451 0.06001 0.43873 0.06274 0.79580-0.96887
  -9  -6   3 356.245 104.298   9 0.09390-0.70899-0.27293-0.22875 0.95865-0.78446
  -9  -6   3 540.753 162.291   3-0.60952-0.00547-0.36848-0.13286-0.80067 0.97374
   9   6  -3 704.850 173.490   5 0.66638-0.05205 0.29169 0.20984 0.79551-0.96965
   9  -6  -3 413.876 159.658   8 0.70292-0.08815-0.23752-0.26407 0.78676-0.96050
   8  -6  -3 155.565 96.3555   4-0.12186 0.66304-0.19503-0.30707-0.97914 0.79162
   8   6  -3 195.827 107.761   2 0.55357-0.01320 0.43728 0.06417 0.79724-0.98374
  -8  -6   3 140.009 81.5772   9 0.12572-0.66660-0.19966-0.30208 0.97849-0.79090
  -8  -6   3 221.853 108.370   3-0.61112 0.07039-0.37013-0.13119-0.79873 0.98526
   8   6  -3 126.502 81.4924   5 0.67173-0.13153 0.29521 0.20638 0.78983-0.97741
   8  -6  -3 -10.521 78.1760   8 0.71118-0.17059-0.24132-0.26028 0.77829-0.96548
   7  -6  -3 306.776 143.188   4-0.14881 0.61576-0.12305-0.37922-0.99188 0.79090
   7   6  -3 133.931 52.7008   2 0.55571-0.08949 0.44058 0.06087 0.79396-0.99389
  -7  -6   3 175.307 95.3435   9 0.15495-0.62162-0.12941-0.37239 0.99130-0.79028
  -7  -6   3 111.642 84.8149   3-0.61683 0.15036-0.37601-0.12528-0.79171 0.99169
  -7   6   3 -34.608 41.1622   6-0.35615-0.10962 0.62182-0.12161-0.75060 0.95033
   7   6  -3 73.6718 63.6957   5 0.68239-0.21632 0.30225 0.19938 0.77813-0.97916
  -7   6   3 169.615 92.4354   1 0.16669-0.63297 0.14296 0.35897 0.98962-0.78935
   7  -6  -3 -15.654 50.0742   8 0.72560-0.25921-0.24803-0.25361 0.76277-0.96343
   6  -6  -3 21.9777 90.1254   4-0.17312 0.56580-0.05532-0.44708-0.99843 0.78397
   6   6  -3 128.454 82.8215   2 0.56128-0.16922 0.44922 0.05221 0.78519-0.99857
  -6   6   3 60.6015 83.7420   1 0.18087-0.57294 0.06248 0.43945 0.99804-0.78429
  -6  -6   3 -52.757 99.3630   9 0.18159-0.57404-0.06271-0.43911 0.99804-0.78361
  -6  -6   3 131.318 105.862   3-0.62716 0.23498-0.38677-0.11448-0.77843 0.99186
  -6   6   3 -131.35 74.6989   6-0.35511-0.03645 0.61545-0.11525-0.75646 0.96965
   4  -6  -3 -2.8468 53.1789   4-0.21388 0.45798 0.06510-0.56768-0.99732 0.75588
  -4   6   3 42.8016 77.0757   1 0.20177-0.44538-0.07218 0.57415 0.99717-0.75647
  -4   6   3 -67.558 52.1564   6-0.35622 0.11308 0.62228-0.12209-0.75018 0.99024
   9  -7  -3 14.9626 106.504   4-0.08006 0.69546-0.30082-0.28475-0.94904 0.77490
  -9  -7   3 57.1566 72.9449   9 0.08102-0.69610-0.30169-0.28354 0.94896-0.77473
   9   7  -3 77.8968 68.7761   5 0.68171-0.06740 0.30180 0.28324 0.77889-0.95310
   9  -7  -3 -70.660 90.4229   8 0.72341-0.10862-0.24700-0.33812 0.76520-0.93897
   8  -7  -3 950.024 291.546   4-0.10670 0.64787-0.23419-0.35156-0.96962 0.78206
   8   7  -3 821.260 207.600   2 0.55811-0.01772 0.44429 0.14072 0.79022-0.97674
  -8  -7   3 918.328 211.840   9 0.10964-0.65052-0.23709-0.34821 0.96921-0.78158
  -8  -7   3 814.631 214.692   3-0.62036 0.07962-0.37968-0.20529-0.78725 0.97377
   8   7  -3 119.618 74.6625   5 0.68760-0.14740 0.30572 0.27937 0.77221-0.95985
   8  -7  -3 -173.04 110.371   8 0.73246-0.19186-0.25122-0.33391 0.75508-0.94230
   7  -7  -3 159.997 141.662   4-0.13093 0.59786-0.17115-0.41474-0.98404 0.78303
   7   7  -3 149.017 96.8349   2 0.56026-0.09402 0.44763 0.13737 0.78683-0.98678
  -7  -7   3 218.155 105.481   9 0.13591-0.60258-0.17549-0.40984 0.98357-0.78254
  -7  -7   3 182.384 113.972   3-0.62610 0.15964-0.38566-0.19928-0.77983 0.97981
  -7   7   3 320.923 180.700   1 0.15664-0.62293 0.19593 0.38961 0.98035-0.78008
  -7   7   3 -129.37 82.8687   6-0.35499-0.11080 0.61473-0.03099-0.75712 0.95685
   5  -7  -3 -25.266 53.2952   4-0.17230 0.49067-0.05767-0.52847-0.99829 0.77035
  -5   7   3 15.8541 48.3712   6-0.35401 0.03665 0.60879-0.02504-0.76248 0.98912
   8  -8  -3 -294.35 216.929   4-0.09080 0.63196-0.27429-0.39507-0.95791 0.77031
  -8  -8   3 57.2585 73.1161   9 0.09265-0.63352-0.27574-0.39311 0.95775-0.77009
   7  -8  -3 -4.5157 94.3584   4-0.11278 0.57969-0.21858-0.45092-0.97363 0.77260
   7   8  -3 -52.817 60.8402   2 0.56757-0.10132 0.45909 0.20947 0.77487-0.97485
  -7  -8   3 48.0209 51.5135   9 0.11647-0.58313-0.22128-0.44760 0.97334-0.77228
  -7   8   3 -159.81 98.2358   6-0.35514-0.11067 0.61561 0.05169-0.75631 0.95602
   6  -8  -3 169.529 158.678   4-0.13260 0.52523-0.16674-0.50289-0.98487 0.77038
  -6   8   3 -27.351 74.1305   6-0.35424-0.03734 0.61021 0.05710-0.76121 0.97438
  -6   8   3 -57.997 85.8446   1 0.15870-0.55080 0.18530 0.48388 0.98245-0.76871
   5  -8  -3 70.3514 132.456   4-0.15023 0.46858-0.11917-0.55057-0.99240 0.76446
  -5   8   3 -39.390 70.0770   6-0.35424 0.03689 0.61019 0.05711-0.76123 0.98785
  -5   8   3 88.8424 87.4919   1 0.16904-0.48691 0.13012 0.53909 0.99142-0.76421
  -4   8   3 -32.174 92.6471   1 0.17760-0.42124 0.08173 0.58750 0.99664-0.75595
   4  -8  -3 100.109 76.3076   4-0.16572 0.40976-0.07625-0.59358-0.99696 0.75555
  -4   8   3 -134.94 84.9400   6-0.35516 0.11204 0.61576 0.05152-0.75618 0.99623
   5  -9  -3 118.201 98.2703   4-0.12839 0.44671-0.17787-0.57548-0.98273 0.75476
  -5   9   3 184.812 120.840   1 0.15723-0.47511 0.19290 0.55993 0.98096-0.75375
  -5   9   3 -93.694 107.000   6-0.35550 0.03815 0.61783 0.13304-0.75429 0.98087
   0   0   0    0.00    0.00
   1   5   2 0.11138 26.6857   1 0.22146-0.11165-0.22787 0.64620 0.97264-0.76279
  -1  -5  -2 -2.0777 24.4474   4-0.26559 0.15584 0.23364-0.65248-0.96803 0.75768
  -1  -5  -2 -13.268 38.2678   9-0.07506-0.03440-0.61191 0.19455 0.76081-0.97033
   0   5   2 -11.830 32.9167   6-0.35448 0.39025 0.61160-0.19470-0.75996 0.95574
   0  -5  -2 1.58669 12.4037   9-0.07524 0.03992-0.61224 0.19486 0.76051-0.95659
   3   7   2 79.7519 74.7946   1 0.19531 0.06299-0.02795 0.61357 0.99951-0.76277
  -3  -7  -2 -58.389 58.2208   4-0.20257-0.05576 0.03072-0.61676-0.99929 0.76216
  -3  -7  -2 27.2585 31.9289   9-0.07350-0.18432-0.60916 0.02473 0.76333-0.99969
   4  -7  -3 73.3347 105.142   4-0.18947 0.43355-0.00814-0.57808-0.99993 0.75851
  -4   7   3 -41.005 43.9261   6-0.35502 0.11188 0.61486-0.03113-0.75700 0.99707
  -4   7   3 -62.256 82.8097   1 0.18972-0.43334 0.00829 0.57731 0.99993-0.75923
   5  -6  -3 207.891 113.956   4-0.19481 0.51320 0.00757-0.51008-0.99988 0.77193
  -5   6   3 -117.80 69.0405   6-0.35512 0.03777 0.61552-0.11531-0.75640 0.98304
  -1   4   0 132.726 61.1711   6-0.23297 0.15885 0.12356 0.21069-0.99087 0.97734
   1   4   0 143.200 63.6070   6-0.26624 0.34059 0.23439 0.09972-0.96778 0.98113
  -1   4   0 14.2916 27.6544   2 0.43814-0.51232 0.27256 0.06170 0.92175-0.93524
  -1  -4   0 23.2975 29.9126   4-0.14105 0.06676-0.14412-0.19033-0.98878 0.97536
   1  -4   0 71.3415 33.9300   8 0.37089-0.29659-0.09304-0.24117 0.97593-0.96245
  -1  -4   0 123.589 44.0589   3-0.32521 0.25098-0.10330-0.23131-0.98333 0.96991
   1   4   0 97.1612 51.7928   1 0.16755-0.09338 0.13829 0.19623 0.99029-0.97690
   1  -4   0 91.7740 34.6403   3-0.53464 0.60909-0.29406-0.04028-0.87597 0.88934
  -1  -4   0 114.164 61.0880   9 0.12434-0.19859-0.20290-0.13129 0.97776-0.99113
   1   4   0 121.677 57.5303   2 0.30861-0.23439 0.10690 0.22737 0.98542-0.97204
   1  -4   0 97.9427 52.9869   9 0.14977-0.07567-0.14206-0.19210 0.98943-0.97594
  -1   4   0 57.8076 28.4453   7-0.46936 0.39523 0.07115 0.26317-0.95063 0.93707
  -5   4   3 -25.013 62.2868   1 0.21614-0.53393-0.18160 0.51629 0.98264-0.75538
   5  -4  -3 -100.31 107.846   4-0.24233 0.56075 0.15523-0.49045-0.98578 0.75777
   2  -3  -2 -9.2723 19.3593   4-0.29295 0.40614 0.33298-0.58444-0.93458 0.76456
  -2   3   2 -0.7614 18.9687   6-0.35432 0.24167 0.61066-0.36070-0.76080 0.92977
   2   6   2 -6.0121 35.7122   1 0.20940-0.02535-0.12800 0.62998 0.99133-0.76804
  -2  -6  -2 -52.512 59.2103   4-0.23615 0.05210 0.13514-0.63761-0.98916 0.76542
  -2  -6  -2 -3.3413 21.8201   9-0.06953-0.11409-0.60213 0.10124 0.76969-0.99263
   6  -7  -3 69.6813 101.010   4-0.15280 0.54545-0.11215-0.47387-0.99329 0.77882
  -6   7   3 -22.359 52.8882   6-0.35401-0.03756 0.60882-0.02508-0.76245 0.97564
  -6   9   3 77.2459 32.5588   6-0.35549-0.03610 0.61776 0.13312-0.75435 0.96749
   2   7   2 47.5812 46.9147   1 0.19581-0.01178-0.03132 0.61694 0.99940-0.77613
  -2  -7  -2 -34.043 39.6524   4-0.20342 0.01936 0.03326-0.61934-0.99919 0.77550
  -2  -7  -2 8.62902 39.0020   9-0.06622-0.11742-0.59623 0.01181 0.77492-0.99785
   9   3   1 296.098 83.9617   2 0.24705 0.43791 0.03283 0.21790 0.99717-0.77845
  -9  -3  -1 59.0623 35.5099   7-0.27150-0.41454 0.03108-0.28173-0.99521 0.77592
   9   3   1 303.240 83.9387   8 0.28107 0.40480-0.05589 0.30685 0.99314-0.77381
  -9  -5  -1 -7.8966 41.8644   3-0.29594-0.39025-0.07806-0.34057-0.98986 0.77057
   9   5   1 26.2220 41.7657   2 0.29083 0.39420 0.08524 0.33258 0.98988-0.77116
   9   4   1 652.155 153.624   2 0.26769 0.41730 0.05738 0.27689 0.99437-0.77565
  -9  -4  -1 83.1014 81.1054   7-0.31742-0.36854 0.04027-0.37450-0.98927 0.77002
   0  -4   1 269.384 47.6283   8-0.10842 0.12611 0.09865-0.43262 0.95316-0.85503
   0   4  -1 309.801 70.2978   6-0.15395 0.13617-0.11011 0.44482-0.99355 0.89516
   0  -4  -1 473.729 117.972   9 0.01501-0.03269-0.44141 0.10743 0.88512-0.98317
   0   4  -1 304.064 74.6771   2 0.54220-0.55988 0.41994-0.08570 0.81389-0.91192
   0  -4   1 310.420 80.3025   4-0.01995 0.03756-0.44155 0.10760-0.88571 0.98383
   0  -4   1 277.039 69.5469   9 0.24559-0.22802 0.10972-0.44410 0.99168-0.89337
   6  -1  -3 -31.552 52.6321   8 0.72965-0.33755-0.24991 0.16606 0.75826-0.97240
  -6   1   3 1724.03 208.388   7-0.75650 0.36507 0.13205-0.04875-0.76703 0.98047
   8   7   1 332.188 121.219   2 0.32442 0.28656 0.12635 0.45857 0.98068-0.77539
  -8  -7  -1 27.8702 42.6746   3-0.33744-0.27460-0.11393-0.47203-0.98008 0.77416
  -5 -10  -1 -34.472 96.4217   3-0.44266 0.05351-0.20778-0.62923-0.93801 0.77233
   0 -10  -2 144.236 82.4490   4-0.11531 0.07976-0.21206-0.62475-0.97523 0.77843
   0  10   2 -188.84 106.271   6-0.35543 0.39145 0.61740 0.21722-0.75468 0.95028
   0 -10  -2 -245.15 114.063   9-0.07850 0.04313-0.61795-0.21704 0.75520-0.95122
  -1   6  -2 97.2204 53.2894   6-0.15345 0.04357-0.11147 0.61373-0.99338 0.78306
  -1  -6  -2 159.661 73.0553   4-0.23209 0.12234 0.12210-0.62459-0.99110 0.78082
  -1  -6  -2 54.0092 33.3140   9-0.06508-0.04440-0.59416 0.09328 0.77673-0.98624
   1   6   2 352.645 100.523   1 0.20822-0.09843-0.11904 0.62101 0.99249-0.78266
;
_shelx_hkl_checksum              67595
loop_
_space_group_symop_operation_xyz
'x, y, z'
'-x+1/2, y+1/2, -z'
'-x, -y, -z'
'x-1/2, -y-1/2, z'
loop_
_atom_site_label
_atom_site_type_symbol
_atom_site_fract_x
_atom_site_fract_y
_atom_site_fract_z
_atom_site_U_iso_or_equiv
_atom_site_adp_type
_atom_site_occupancy
_atom_site_site_symmetry_order
_atom_site_calc_flag
_atom_site_refinement_flags_posn
_atom_site_refinement_flags_adp
_atom_site_refinement_flags_occupancy
_atom_site_disorder_assembly
_atom_site_disorder_group
C1 C 0.6989(6) 0.3013(6) 0.788(2) 0.058(11) Uani 1 1 d . . . . .
H1D H 0.610882 0.249062 0.792695 0.070 Uiso 1 1 calc R U . . .
H1E H 0.733816 0.346099 0.909491 0.070 Uiso 1 1 calc R U . . .
C2 C 0.8035(6) 0.1832(6) 0.739(2) 0.021(10) Uani 1 1 d . . . . .
N1 N 0.6772(4) 0.4263(5) 0.6484(17) 0.030(8) Uani 1 1 d . . . . .
H1A H 0.640632 0.385312 0.538521 0.036 Uiso 1 1 calc R U . . .
H1B H 0.758734 0.471376 0.641806 0.036 Uiso 1 1 calc R U . . .
H1C H 0.619035 0.498043 0.679728 0.036 Uiso 1 1 calc R U . . .
O1 O 0.4843(6) 0.8643(6) 0.946(2) 0.092(12) Uani 1 1 d . . . . .
H1 H 0.519735 0.951019 0.971326 0.111 Uiso 0.5 1 calc D U P . .
O2 O 0.4665(4) 0.6437(4) 0.7157(15) 0.034(7) Uani 1 1 d . . . . .
O3 O 0.4370(4) 0.9255(5) 0.6060(18) 0.061(9) Uani 1 1 d . . . . .
H3 H 0.496274 0.972872 0.561042 0.073 Uiso 0.5 1 calc D U P . .
O4 O 0.8644(5) 0.1977(4) 0.6185(16) 0.031(7) Uani 1 1 d . . . . .
O5 O 0.8175(4) 0.0631(4) 0.8536(15) 0.032(7) Uani 1 1 d . . . . .
H5 H 0.877528 0.003255 0.828511 0.039 Uiso 1 1 calc . U . . .
P1 P 0.50967(16) 0.81285(17) 0.7588(7) 0.024(3) Uani 1 1 d . . . . .
H1P H 0.610494 0.819752 0.760778 0.029 Uiso 1 1 calc R U . . .
loop_
_atom_site_aniso_label
_atom_site_aniso_U_11
_atom_site_aniso_U_22
_atom_site_aniso_U_33
_atom_site_aniso_U_23
_atom_site_aniso_U_13
_atom_site_aniso_U_12
C1 0.023(3) 0.023(3) 0.13(4) 0.006(6) 0.011(8) 0.007(2)
C2 0.016(3) 0.017(3) 0.03(3) 0.000(5) -0.007(8) -0.003(2)
N1 0.023(3) 0.019(2) 0.05(3) -0.002(5) 0.003(6) 0.0014(17)
O1 0.087(4) 0.025(2) 0.18(4) -0.026(7) 0.074(10) -0.005(3)
O2 0.032(2) 0.0191(19) 0.05(2) -0.008(3) 0.011(5) -0.0046(15)
O3 0.034(3) 0.032(2) 0.12(3) 0.023(5) 0.021(7) 0.0104(17)
O4 0.032(3) 0.028(2) 0.03(2) 0.009(4) 0.013(6) 0.0039(17)
O5 0.036(2) 0.026(2) 0.04(2) 0.011(4) 0.011(6) 0.0116(16)
P1 0.0228(9) 0.0150(8) 0.033(10) 0.0041(15) 0.003(2) -0.0018(6)
loop_
_atom_type_symbol
_atom_type_description
_atom_type_scat_dispersion_real
_atom_type_scat_dispersion_imag
_atom_type_scat_source
C C 0.0033 0.0016 'International Tables Vol C Tables 4.2.6.8 and 6.1.1.4'
H H 0.0000 0.0000 'International Tables Vol C Tables 4.2.6.8 and 6.1.1.4'
N N 0.0061 0.0033 'International Tables Vol C Tables 4.2.6.8 and 6.1.1.4'
O O 0.0106 0.0060 'International Tables Vol C Tables 4.2.6.8 and 6.1.1.4'
P P 0.1023 0.0942 'International Tables Vol C Tables 4.2.6.8 and 6.1.1.4'
loop_
_geom_angle_atom_site_label_1
_geom_angle_atom_site_label_2
_geom_angle_atom_site_label_3
_geom_angle
_geom_angle_site_symmetry_1
_geom_angle_site_symmetry_3
_geom_angle_publ_flag
N1 C1 C2 109.3(11) . . ?
N1 C1 H1D 109.8 . . ?
C2 C1 H1D 109.8 . . ?
N1 C1 H1E 109.8 . . ?
C2 C1 H1E 109.8 . . ?
H1D C1 H1E 108.3 . . ?
O4 C2 O5 124.3(6) . . ?
O4 C2 C1 124.7(10) . . ?
O5 C2 C1 110.9(12) . . ?
C1 N1 H1A 109.5 . . ?
C1 N1 H1B 109.5 . . ?
H1A N1 H1B 109.5 . . ?
C1 N1 H1C 109.5 . . ?
H1A N1 H1C 109.5 . . ?
H1B N1 H1C 109.5 . . ?
P1 O1 H1 109.5 . . ?
P1 O3 H3 109.5 . . ?
C2 O5 H5 109.5 . . ?
O1 P1 O2 112.4(5) . . ?
O1 P1 O3 110.7(4) . . ?
O2 P1 O3 111.3(5) . . ?
O1 P1 H1P 107.4 . . ?
O2 P1 H1P 107.4 . . ?
O3 P1 H1P 107.4 . . ?
loop_
_geom_bond_atom_site_label_1
_geom_bond_atom_site_label_2
_geom_bond_distance
_geom_bond_site_symmetry_2
_geom_bond_publ_flag
C1 N1 1.465(14) . ?
C1 C2 1.518(10) . ?
C1 H1D 0.9700 . ?
C1 H1E 0.9700 . ?
C2 O4 1.157(15) . ?
C2 O5 1.313(13) . ?
N1 H1A 0.8900 . ?
N1 H1B 0.8900 . ?
N1 H1C 0.8900 . ?
O1 P1 1.505(17) . ?
O1 H1 0.8200 . ?
O2 P1 1.515(4) . ?
O3 P1 1.544(10) . ?
O3 H3 0.8200 . ?
O5 H5 0.8200 . ?
P1 H1P 0.9800 . ?
loop_
_geom_hbond_atom_site_label_D
_geom_hbond_atom_site_label_H
_geom_hbond_atom_site_label_A
_geom_hbond_distance_DH
_geom_hbond_distance_HA
_geom_hbond_distance_DA
_geom_hbond_angle_DHA
_geom_hbond_site_symmetry_A
_geom_hbond_publ_flag
N1 H1A O2 0.89 1.98 2.842(16) 163.1 3_666 yes
N1 H1B O3 0.89 2.00 2.890(6) 175.6 4_675 yes
N1 H1C O2 0.89 1.99 2.868(6) 170.6 . yes
O1 H1 O1 0.82 1.68 2.438(13) 151.8 3_677 yes
O3 H3 O3 0.82 1.72 2.493(17) 156.5 3_676 yes
O5 H5 O2 0.82 1.80 2.596(7) 162.3 4_665 yes
loop_
_geom_torsion_atom_site_label_1
_geom_torsion_atom_site_label_2
_geom_torsion_atom_site_label_3
_geom_torsion_atom_site_label_4
_geom_torsion
_geom_torsion_site_symmetry_1
_geom_torsion_site_symmetry_2
_geom_torsion_site_symmetry_3
_geom_torsion_site_symmetry_4
_geom_torsion_publ_flag
N1 C1 C2 O4 5.9(16) . . . . ?
N1 C1 C2 O5 -175.2(7) . . . . ?

_cod_database_fobs_code 2109029
