#------------------------------------------------------------------------------
#$Date: 2022-09-02 04:49:51 +0300 (Fri, 02 Sep 2022) $
#$Revision: 277573 $
#$URL: file:///home/coder/svn-repositories/cod/cif/2/10/90/2109030.cif $
#------------------------------------------------------------------------------
#
# This file is available in the Crystallography Open Database (COD),
# http://www.crystallography.net/. The original data for this entry
# were provided by IUCr Journals, http://journals.iucr.org/.
#
# The file may be used within the scientific community so long as
# proper attribution is given to the journal article from which the
# data were obtained.
#
data_2109030
loop_
_publ_author_name
'Bogdanov, Nikita E.'
'Korabel'nikov, Dmitry V.'
'Fedorov, Igor A.'
'Zakharov, Boris A.'
'Boldyreva, Elena V.'
_publ_section_title
;
 The effect of hydrostatic compression on the crystal structure of
 glycinium phosphite
;
_journal_issue                   5
_journal_name_full               'Acta Crystallographica Section B'
_journal_page_first
;
;
_journal_paper_doi               10.1107/S2052520622008289
_journal_volume                  78
_journal_year                    2022
_chemical_formula_moiety         'C2 H6 N O2, H2 O3 P'
_chemical_formula_sum            'C2 H8 N O5 P'
_chemical_formula_weight         157.06
_space_group_crystal_system      monoclinic
_space_group_IT_number           14
_space_group_name_Hall           '-P 2yab'
_space_group_name_H-M_alt        'P 1 21/a 1'
_atom_sites_solution_hydrogens   geom
_atom_sites_solution_primary     direct
_atom_sites_solution_secondary   difmap
_audit_creation_method           SHELXL-2018/3
_cell_angle_alpha                90
_cell_angle_beta                 100.43(3)
_cell_angle_gamma                90
_cell_formula_units_Z            4
_cell_length_a                   9.6758(8)
_cell_length_b                   8.4905(4)
_cell_length_c                   7.306(5)
_cell_measurement_pressure       510000
_cell_measurement_reflns_used    837
_cell_measurement_temperature    293(2)
_cell_measurement_theta_max      26.6010
_cell_measurement_theta_min      3.2070
_cell_volume                     590.3(4)
_computing_cell_refinement       'CrysAlisPro 1.171.40.53 (Rigaku OD, 2019)'
_computing_data_collection       'CrysAlisPro 1.171.40.53 (Rigaku OD, 2019)'
_computing_data_reduction        'CrysAlisPro 1.171.40.53 (Rigaku OD, 2019)'
_computing_structure_refinement  'SHELXL-2018/3 (Sheldrick, 2018)'
_diffrn_ambient_pressure         510000
_diffrn_ambient_temperature      293(2)
_diffrn_detector                 'CCD plate'
_diffrn_detector_area_resol_mean 10.3457
_diffrn_detector_type            Ruby
_diffrn_measured_fraction_theta_full 0.360
_diffrn_measured_fraction_theta_max 0.320
_diffrn_measurement_device       'four-circle diffractometer'
_diffrn_measurement_device_type  'Xcalibur, Ruby, Gemini ultra'
_diffrn_radiation_monochromator  graphite
_diffrn_radiation_probe          x-ray
_diffrn_radiation_type           'Mo K\a'
_diffrn_radiation_wavelength     0.71073
_diffrn_reflns_av_R_equivalents  0.1120
_diffrn_reflns_av_unetI/netI     0.0752
_diffrn_reflns_Laue_measured_fraction_full 0.360
_diffrn_reflns_Laue_measured_fraction_max 0.320
_diffrn_reflns_limit_h_max       12
_diffrn_reflns_limit_h_min       -12
_diffrn_reflns_limit_k_max       11
_diffrn_reflns_limit_k_min       -11
_diffrn_reflns_limit_l_max       3
_diffrn_reflns_limit_l_min       -3
_diffrn_reflns_number            3059
_diffrn_reflns_point_group_measured_fraction_full 0.360
_diffrn_reflns_point_group_measured_fraction_max 0.320
_diffrn_reflns_theta_full        25.242
_diffrn_reflns_theta_max         28.167
_diffrn_reflns_theta_min         3.216
_diffrn_source                   'fine-focus sealed X-ray tube'
_diffrn_source_type              'Enhance (Mo) X-ray Source'
_exptl_absorpt_coefficient_mu    0.420
_exptl_absorpt_correction_T_max  1.00000
_exptl_absorpt_correction_T_min  0.03364
_exptl_absorpt_correction_type   multi-scan
_exptl_absorpt_process_details
;
CrysAlisPro 1.171.40.53 (Rigaku Oxford Diffraction, 2019)
Empirical absorption correction using spherical harmonics,
 implemented in SCALE3 ABSPACK scaling algorithm.
;
_exptl_crystal_colour            white
_exptl_crystal_density_diffrn    1.767
_exptl_crystal_description       plates
_exptl_crystal_F_000             328
_exptl_crystal_size_max          0.21
_exptl_crystal_size_mid          0.10
_exptl_crystal_size_min          0.05
_refine_diff_density_max         0.351
_refine_diff_density_min         -0.335
_refine_diff_density_rms         0.087
_refine_ls_extinction_method     none
_refine_ls_goodness_of_fit_ref   1.078
_refine_ls_hydrogen_treatment    constr
_refine_ls_matrix_type           full
_refine_ls_number_parameters     83
_refine_ls_number_reflns         464
_refine_ls_number_restraints     2
_refine_ls_restrained_S_all      1.084
_refine_ls_R_factor_all          0.1044
_refine_ls_R_factor_gt           0.0600
_refine_ls_shift/su_max          0.000
_refine_ls_shift/su_mean         0.000
_refine_ls_structure_factor_coef Fsqd
_refine_ls_weighting_details
'w=1/[\s^2^(Fo^2^)+(0.0883P)^2^+0.4287P] where P=(Fo^2^+2Fc^2^)/3'
_refine_ls_weighting_scheme      calc
_refine_ls_wR_factor_gt          0.1358
_refine_ls_wR_factor_ref         0.1738
_reflns_Friedel_coverage         0.000
_reflns_number_gt                311
_reflns_number_total             464
_reflns_threshold_expression     'I > 2\s(I)'
_cod_data_source_file            xk5096sup1.cif
_cod_data_source_block           0.51
_cod_original_cell_volume        590.2(4)
_cod_original_sg_symbol_H-M      'P 21/a'
_cod_database_code               2109030
_shelx_shelxl_version_number     2018/3
_shelx_space_group_comment
;
The symmetry employed for this shelxl refinement is uniquely defined
by the following loop, which should always be used as a source of
symmetry information in preference to the above space-group names.
They are only intended as comments.
;
_oxdiff_exptl_absorpt_empirical_full_min 0.550
_oxdiff_exptl_absorpt_empirical_full_max 12.939
_oxdiff_exptl_absorpt_empirical_details
;
Empirical correction (ABSPACK) includes:
- Absorption correction using spherical harmonics
- Frame scaling
;
_shelx_res_file
;
TITL GPI_0 in P2(1)/c
    0.51.res
    created by SHELXL-2018/3 at 12:26:02 on 11-Aug-2022
REM  transformed to space group : P21/a:b3
REM P2(1)/c (#14 in standard setting)
CELL   0.71073  9.6758  8.4905  7.3055   90.000  100.434   90.000
ZERR   4        0.0008  0.0004  0.0054    0.000    0.026    0.000
LATT    1
SYMM   1/2-X,1/2+Y,-Z
SFAC C H N O P
UNIT 8 32 4 20 4
LIST 4 ! automatically inserted. Change 6 to 4 for CHECKCIF!!
PLAN 30
FMAP 2
L.S. 20
BOND
BOND $H
CONF
ACTA
EQIV $1 1-X, 1-Y,1-Z
EQIV $2 1/2+X, 3/2-Y,Z
EQIV $3 1-X, 2-Y, 2-Z
EQIV $4 1-X, 2-Y, 1-Z
EQIV $5 1/2+X, 1/2-Y, Z
HTAB N1 O2_$1
HTAB N1 O3_$2
HTAB N1 O2
HTAB O1 O1_$3
HTAB O3 O3_$4
HTAB O5 O2_$5
DFIX 1.66  H1 O1_$3
DFIX 1.70  H3 O3_$4
WGHT    0.088300    0.428700
FVAR       1.68386
C1    1    0.698138    0.301813    0.787887    11.00000    0.02983    0.02540 =
         0.06311    0.00248    0.01389    0.00589
AFIX  23
H1D   2    0.609175    0.250773    0.792679    11.00000   -1.20000
H1E   2    0.734465    0.345537    0.909775    11.00000   -1.20000
AFIX   0
C2    1    0.801347    0.182856    0.735522    11.00000    0.02251    0.01829 =
         0.10729   -0.00691    0.02145   -0.00113
N1    3    0.677599    0.426764    0.649375    11.00000    0.02878    0.01778 =
         0.02282    0.00834    0.00772    0.00267
AFIX 137
H1A   2    0.641480    0.386395    0.538600    11.00000   -1.20000
H1B   2    0.759816    0.471876    0.644114    11.00000   -1.20000
H1C   2    0.618936    0.498469    0.680669    11.00000   -1.20000
AFIX   0
O1    4    0.487366    0.862972    0.950788    11.00000    0.08827    0.02599 =
         0.16930   -0.01501    0.07223   -0.00558
AFIX  81
H1    2    0.487234    0.959410    0.956804    10.50000   -1.20000
AFIX   0
O2    4    0.466813    0.644262    0.717439    11.00000    0.04052    0.02108 =
         0.04114   -0.00868    0.02135   -0.00617
O3    4    0.437284    0.925048    0.603284    11.00000    0.03655    0.03231 =
         0.10980    0.01458    0.01946    0.00851
AFIX  81
H3    2    0.494120    0.990443    0.580290    10.50000   -1.20000
AFIX   0
O4    4    0.862712    0.197089    0.614242    11.00000    0.03321    0.02732 =
         0.04849   -0.00145    0.01314    0.00569
O5    4    0.816615    0.062638    0.852780    11.00000    0.04032    0.02653 =
         0.12327    0.01994    0.02983    0.01200
AFIX  81
H5    2    0.877564    0.003243    0.828267    11.00000   -1.20000
AFIX   0
P1    5    0.510407    0.812014    0.757399    11.00000    0.02818    0.01588 =
         0.07503    0.00101    0.01818   -0.00196
AFIX  13
H1P   2    0.611612    0.817923    0.757801    11.00000   -1.20000
AFIX   0
HKLF 4




REM  GPI_0 in P2(1)/c
REM wR2 = 0.1738, GooF = S = 1.078, Restrained GooF = 1.084 for all data
REM R1 = 0.0600 for 311 Fo > 4sig(Fo) and 0.1044 for all 464 data
REM 83 parameters refined using 2 restraints

END

WGHT      0.0883      0.4288

REM Highest difference peak  0.351,  deepest hole -0.335,  1-sigma level  0.087
Q1    1   0.5393  0.4540  0.8337  11.00000  0.05    0.35
Q2    1   0.8386  0.3061  0.4434  11.00000  0.05    0.29
Q3    1   0.8604  0.3107  0.4968  11.00000  0.05    0.28
Q4    1   0.6754  0.7964  0.6071  11.00000  0.05    0.28
Q5    1   0.6613  0.8004  0.8929  11.00000  0.05    0.28
Q6    1   0.6420  0.2086  0.6503  11.00000  0.05    0.26
Q7    1   0.6242  0.2088  0.5986  11.00000  0.05    0.26
Q8    1   0.7803  0.8340  0.8183  11.00000  0.05    0.25
Q9    1   0.3585  0.8202  0.9788  11.00000  0.05    0.24
Q10   1   0.3433  0.8196  0.9358  11.00000  0.05    0.24
Q11   1   0.6971  0.0694  0.7656  11.00000  0.05    0.24
Q12   1   0.7975  0.3311  0.7035  11.00000  0.05    0.24
Q13   1   0.7202  0.8426  0.6978  11.00000  0.05    0.24
Q14   1   0.3599  1.0866  0.5050  11.00000  0.05    0.24
Q15   1   0.7378  0.8399  0.7401  11.00000  0.05    0.24
Q16   1   0.8398  0.4039  0.4642  11.00000  0.05    0.24
Q17   1   0.5561  0.9243  0.9205  11.00000  0.05    0.24
Q18   1   0.4733  0.6962  0.5491  11.00000  0.05    0.23
Q19   1   0.3457  0.8999  0.9677  11.00000  0.05    0.23
Q20   1   0.4863  0.2724  0.7517  11.00000  0.05    0.22
Q21   1   0.6979  0.8753  0.6247  11.00000  0.05    0.22
Q22   1   0.8441  0.3403  0.8048  11.00000  0.05    0.22
Q23   1   0.3215  0.7997  0.5580  11.00000  0.05    0.21
Q24   1   0.8652  0.3727  0.8937  11.00000  0.05    0.21
Q25   1   0.9873  0.1521  0.7117  11.00000  0.05    0.21
Q26   1   0.4402  0.7220  0.5602  11.00000  0.05    0.21
Q27   1   0.7775  0.6767  0.8088  11.00000  0.05    0.20
Q28   1   0.5794  0.3136  0.9174  11.00000  0.05    0.20
Q29   1   0.5229  0.2538  0.7020  11.00000  0.05    0.20
Q30   1   0.3565  0.8439  0.6650  11.00000  0.05    0.20
;
_shelx_res_checksum              82357
_shelx_hkl_file
;
   1   0   0 6.96613 5.18952   8 0.03727 0.03727 0.04138-0.04139 0.98874-0.97527
  -1   0   0 6.36458 4.84988   7-0.03719-0.03737-0.01471 0.01473-0.98947 0.97599
  -2   0   0 6428.46 225.892   7-0.07446-0.07466-0.00756 0.00758-0.99424 0.96728
   2   0   0 7221.88 225.783   8 0.07454 0.07455 0.02677-0.02678 0.99391-0.96698
  -2   0   0 7313.26 152.937   6-0.07459-0.07454-0.31239 0.31250-0.94481 0.91785
  -2   0   0 7383.19 150.836   4-0.07451-0.07449-0.31031 0.31021-0.94547 0.91861
   2   0   0 7535.95 156.991   9 0.07448 0.07447-0.31660 0.31650 0.94363-0.91673
  -3   0   0 -1.8677 2.23024   7-0.11173-0.11195-0.00038 0.00040-0.99757 0.95713
  -3   0   0 8.74597 7.90645   6-0.11189-0.11178-0.21977 0.21995-0.97331 0.93289
  -3   0   0 4.30271 8.78711   4-0.11178-0.11175-0.21756 0.21740-0.97379 0.93346
   3   0   0 7.54670 5.63751   9 0.11173 0.11170-0.23218 0.23203 0.97060-0.93025
   3   0   0 -4.8710 5.42122   8 0.11182 0.11183 0.01206-0.01209 0.99750-0.95709
  -4   0   0 4979.76 179.545   6-0.14918-0.14900-0.12170 0.12195-0.99205 0.93819
  -4   0   0 5219.30 295.911   7-0.14900-0.14924 0.00684-0.00681-0.99946 0.94554
   4   0   0 4959.06 270.841   8 0.14909 0.14911-0.00273 0.00270 0.99948-0.94560
  -4   0   0 5267.83 182.977   4-0.14909-0.14903-0.11927 0.11911-0.99235 0.93853
   5   0   0 12.4751 18.5713   8 0.18636 0.18639-0.01762 0.01758 0.99983-0.93248
   5   0   0 -2.2102 2.38280   1 0.18631 0.18636 0.02590-0.02620 0.99964-0.93229
  -5   0   0 16.1211 17.7317   6-0.18648-0.18622-0.01748 0.01782-0.99982 0.93253
  -5   0   0 1.42000 25.7799   7-0.18626-0.18653 0.01409-0.01406-0.99989 0.93248
   6   0   0 9037.40 464.204   8 0.22363 0.22367-0.03260 0.03256 0.99851-0.91769
  -6   0   0 9342.81 282.299   6-0.22375-0.22343 0.09401-0.09359-0.99460 0.91390
  -6   0   0 10090.4 517.851   7-0.22366-0.22368 0.02141-0.02137-0.99881 0.91798
  -7   0   0 5.94572 18.1705   6-0.26100-0.26063 0.21472-0.21423-0.97291 0.87883
  -7   0   0 -2.9807 15.0788   7-0.26106-0.26087 0.02876-0.02872-0.99619 0.90194
   7   0   0 3.59119 22.5672   8 0.26090 0.26095-0.04768 0.04763 0.99548-0.90117
   7   0   0 -0.9113 13.9705   2 0.26078 0.26076 0.05045-0.05064 0.99531-0.90109
   8   0   0 -36.687 11.3670   8 0.29818 0.29823-0.06286 0.06280 0.99066-0.88288
  -8   0   0 38.2713 32.5098   7-0.29831-0.29817 0.03611-0.03608-0.99200 0.88427
   8   0   0 57.6570 37.3415   2 0.29803 0.29801 0.09555-0.09576 0.98794-0.88026
  -8   0   0 -23.292 27.4797   3-0.29829-0.29824-0.08078 0.08083-0.98926 0.88151
   9   0   0 -5.4989 7.50405   2 0.33529 0.33526 0.14166-0.14189 0.97659-0.85546
  -9   0   0 44.8765 52.5814   3-0.33558-0.33551-0.11317 0.11322-0.98038 0.85918
   9   0   0 52.5825 46.8994   8 0.33545 0.33552-0.07814 0.07808 0.98400-0.86273
  -9   0   0 52.2636 61.6712   7-0.33551-0.33553 0.04349-0.04347-0.98618 0.86493
  10   0   0 664.538 165.637   8 0.37272 0.37281-0.09353 0.09347 0.97541-0.84065
 -10   0   0 435.664 133.514   3-0.37285-0.37278-0.14606 0.14612-0.96854 0.83389
 -10   0   0 502.413 151.961   7-0.37239-0.37310 0.05084-0.05081-0.97874 0.84375
 -11   0   0 -26.266 25.8994   7-0.40974-0.41032 0.05834-0.05831-0.96941 0.82097
  11   0   0 -45.030 20.2649   5 0.40987 0.41020 0.13441-0.13428 0.96133-0.81308
  11   0   0 -85.781 75.6535   8 0.40999 0.41009-0.10904 0.10897 0.96477-0.81653
 -12   0   0 176.399 124.892   7-0.44697-0.44763 0.06585-0.06583-0.95823 0.79625
  12   0   0 13.4711 18.6646   5 0.44712 0.44751 0.15664-0.15652 0.94686-0.78512
  12   0   0 -141.84 125.216   8 0.44726 0.44737-0.12467 0.12459 0.95197-0.79024
   0   1   0 5.78471 5.24148   4-0.20561 0.20560 0.04180 0.04179-0.99881 0.99878
   0  -1   0 3.14304 2.85919   9 0.18913-0.18910-0.04176-0.04176 0.99910-0.99907
   0   1   0 3.79897 5.96554   6-0.20660 0.20654 0.04171 0.04185-0.99879 0.99876
   0  -1   0 -4.7256 4.88972   1 0.19695-0.19689-0.04179-0.04179 0.99900-0.99897
  -1  -1   0 333.635 42.3450   9 0.12947-0.20395-0.19042 0.10694 0.98057-0.99400
   1   1   0 351.138 33.1068   4-0.29450 0.36913 0.33787-0.25419-0.93257 0.94604
  -1  -1   0 342.710 31.2386   4-0.23584 0.16123 0.13530-0.21895-0.98915 0.97569
   1  -1   0 408.936 36.0905   9 0.26099-0.18644 0.15774-0.24130 0.98378-0.97030
  -1   1   0 395.589 46.3255   1 0.15259-0.22717 0.21115-0.12750 0.97708-0.99058
   1   1   0 346.703 35.7162   1 0.20666-0.13222-0.10933 0.19284 0.99366-0.98024
   1  -1   0 372.005 44.1198   1 0.17673-0.10215 0.08251-0.16617 0.99655-0.98305
   1   1   0 403.430 35.7206   7 0.13773-0.06316-0.04787 0.13143-0.94813 0.96158
   1  -1   0 341.806 40.8505   8 0.10197-0.02742 0.01595-0.09950 0.99671-0.98321
  -1   1   0 356.875 45.4392   4-0.16589 0.09135-0.07300 0.15649-0.99720 0.98371
  -1   1   0 387.402 44.7130   8-0.01494-0.05961 0.06171 0.02185 0.97884-0.99234
  -1  -1   0 386.944 33.7170   7-0.07595 0.00141-0.00728-0.07628-0.99440 0.98095
  -1   1   0 340.249 39.6738   7-0.08922 0.01466-0.00472 0.08830-0.99573 0.98222
  -1   1   0 409.121 38.4474   9 0.32517-0.39974 0.36505-0.28149 0.91659-0.93007
  -1   1   0 348.904 45.1898   6-0.16667 0.09205-0.07367 0.15731-0.99716 0.98365
   1  -1   0 394.008 42.6627   7 0.04935 0.02522-0.03120-0.05237-0.97294 0.98645
   1   1   0 378.267 34.7347   6-0.29569 0.37018 0.33868-0.25527-0.93210 0.94550
  -1  -1   0 368.951 37.5645   1 0.22682-0.30127-0.27720 0.19370 0.95938-0.97281
  -1  -1   0 371.922 33.6556   6-0.23727 0.16279 0.13660-0.22004-0.98889 0.97547
  -2  -1   0 149.347 33.1409   7-0.09600-0.05310-0.00341-0.08014-0.99634 0.96942
   2  -1   0 164.934 36.9771   8 0.10601 0.04309 0.01436-0.09792 0.99705-0.97009
  -2   1   0 132.718 31.0674   6-0.15593 0.00675-0.10333 0.18704-0.99432 0.96733
  -2  -1   0 144.805 31.2945   9 0.07678-0.22576-0.31153 0.22811 0.94552-0.97239
   2   1   0 160.531 29.5649   8 0.08532 0.06377 0.02252 0.06101 0.99511-0.96820
   2   1   0 154.187 22.2282   1 0.22045-0.07150-0.21861 0.30208 0.97485-0.94797
  -2   1   0 178.503 39.6629   7-0.09938-0.04973-0.00276 0.08636-0.99663 0.96964
   2  -1   0 186.549 37.7546   4-0.07516 0.22422-0.30876 0.22537-0.94604 0.97294
   2  -1   0 171.068 31.1087   1 0.16889-0.01975 0.12635-0.21008 0.99188-0.96490
   3  -1   0 16875.9 456.322   8 0.12934 0.09430 0.00512-0.08868 0.99864-0.95821
   3   1   0 17117.6 395.479   8 0.12483 0.09880 0.00690 0.07662 0.99838-0.95799
  -3  -1   0 17629.9 449.231   7-0.12842-0.09522 0.00285-0.08641-0.99860 0.95820
   3  -1   0 18673.7 431.272   4-0.02867 0.25222-0.41748 0.33420-0.89834 0.93862
  -3   1   0 17213.2 395.790   6-0.16096-0.06277-0.08950 0.17326-0.99577 0.95531
  -3  -1   0 17396.2 399.802   9 0.02812-0.25159-0.41584 0.33249 0.89925-0.93956
  -3   1   0 17639.5 484.712   7-0.12639-0.09729 0.00246 0.08115-0.99849 0.95802
  -4  -1   0 1212.83 138.127   7-0.16341-0.13479 0.00964-0.09320-0.99980 0.94592
  -4   1   0 1263.33 151.268   7-0.15826-0.13997 0.00864 0.07497-0.99971 0.94576
   4  -1   0 1146.49 137.589   8 0.15894 0.13926-0.00666-0.07692 0.99974-0.94584
  -4   1   0 1237.72 116.178   6-0.17500-0.12326-0.05025 0.13409-0.99870 0.94479
   4   1   0 1084.57 120.192   8 0.16311 0.13507-0.00833 0.09186 0.99981-0.94595
  -4  -1   0 1378.35 133.999   9-0.01809-0.27987-0.50849 0.42524 0.84358-0.89730
   4  -1   0 1278.39 126.814   4 0.01621 0.28181-0.51540 0.43220-0.83962 0.89325
  -5  -1   0 110.736 50.1812   9-0.06273-0.30972-0.59214 0.50896 0.77899-0.84610
   5  -1   0 536.360 43.2339   9 0.18231 0.19013-0.05944-0.02421 0.99825-0.93095
   5  -1   0 593.747 111.061   8 0.19133 0.18141-0.01962-0.06398 0.99976-0.93239
  -5   1   0 533.035 81.9057   6-0.19453-0.17824 0.00596 0.07793-0.99989 0.93253
  -5  -1   0 474.638 97.3110   7-0.19932-0.17342 0.01665-0.10019-0.99969 0.93230
  -5   1   0 521.700 106.614   7-0.19216-0.18063 0.01525 0.06838-0.99982 0.93237
   5   1   0 535.916 97.2792   8 0.20098 0.17176-0.02349 0.10701 0.99952-0.93218
   6   1   0 664.512 120.091   8 0.23865 0.20865-0.03867 0.12218 0.99750-0.91669
   6  -1   0 671.331 53.5198   9 0.26067 0.18634 0.15678-0.24037 0.98397-0.90323
  -6   1   0 558.644 127.644   7-0.22733-0.22004 0.02213 0.06150-0.99863 0.91776
  -6  -1   0 666.395 127.331   7-0.23608-0.21125 0.02384-0.10741-0.99812 0.91738
   6  -1   0 672.265 133.867   8 0.22523 0.22207-0.03325-0.05036 0.99842-0.91757
  -6   1   0 554.739 88.9058   6-0.21758-0.22970 0.07500 0.00896-0.99648 0.91570
  -7  -1   0 48.2002 48.7586   7-0.27270-0.24918 0.03104-0.11462-0.99506 0.90083
   7  -1   0 125.009 62.2861   8 0.26002 0.26182-0.04732-0.03628 0.99557-0.90125
   7  -1   0 40.5464 14.5080   2 0.27913 0.24245 0.07254-0.15629 0.99215-0.89790
   7   1   0 32.3463 14.7840   8 0.27621 0.24564-0.05390 0.13742 0.99372-0.89942
  -7   1   0 50.6343 23.1365   6-0.24295-0.27881 0.15489-0.07088-0.98579 0.89160
   7   1   0 93.1263 40.0170   2 0.25959 0.26191 0.04903 0.03435 0.99548-0.90129
  -7   1   0 80.5238 27.5342   7-0.26307-0.25888 0.02915 0.05449-0.99601 0.90172
  -8   1   0 80.5913 38.5007   3-0.31785-0.27868-0.09770 0.18131-0.98496 0.87721
   8   1   0 185.725 84.3268   8 0.31371 0.28270-0.06922 0.15273 0.98812-0.88034
  -8   1   0 165.110 88.1050   7-0.29910-0.29742 0.03626 0.04738-0.99190 0.88413
   8   1   0 143.464 49.0028   2 0.29157 0.30443 0.08766-0.00431 0.98949-0.88184
   8  -1   0 198.721 71.6220   8 0.29539 0.30101-0.06172-0.02189 0.99109-0.88329
  -8  -1   0 8.92178 64.6536   7-0.30951-0.28693 0.03832-0.12191-0.99042 0.88271
  -8  -1   0 95.8371 67.2396   3-0.29342-0.30314-0.07658-0.00695-0.99021 0.88247
   8  -1   0 161.502 71.4893   2 0.32135 0.27474 0.12428-0.20804 0.98133-0.87362
  -9   1   0 287.248 99.1809   3-0.35726-0.31382-0.13223 0.21584-0.97387 0.85267
   9   1   0 234.156 94.0064   2 0.32449 0.34602 0.12819-0.04486 0.98031-0.85921
  -9  -1   0 200.612 119.977   7-0.34599-0.32490 0.04558-0.12913-0.98424 0.86279
   9  -1   0 298.980 120.207   8 0.33115 0.33982-0.07637-0.00725 0.98487-0.86359
  -9  -1   0 216.233 70.2773   3-0.32756-0.34356-0.10615 0.02265-0.98253 0.86133
  -9   1   0 448.960 140.479   7-0.33532-0.33575 0.04345 0.04019-0.98622 0.86494
   9   1   0 168.425 85.2165   8 0.35118 0.31979-0.08462 0.16813 0.98062-0.85936
  10   1   0 389.437 136.769   8 0.38861 0.35690-0.10013 0.18364 0.97113-0.83638
 -10  -1   0 269.767 96.8530   3-0.36222-0.38344-0.13662 0.05312-0.97224 0.83758
 -10  -1   0 282.370 117.362   7-0.38301-0.36243 0.05297-0.13653-0.97627 0.84132
  10  -1   0 309.475 107.042   8 0.36718 0.37833-0.09124 0.00761 0.97681-0.84205
 -10   1   0 333.858 139.496   7-0.37142-0.37411 0.05065 0.03298-0.97895 0.84395
 -11   1   0 -64.035 62.4238   7-0.40809-0.41201 0.05801 0.02562-0.96986 0.82138
  11   1   0 -31.224 62.2356   8 0.42603 0.39405-0.11575 0.19926 0.95954-0.81129
 -11  -1   0 101.776 86.0310   3-0.39728-0.42292-0.16790 0.08440-0.95906 0.81096
  11  -1   0 87.9982 51.2099   8 0.40343 0.41664-0.10630 0.02266 0.96680-0.81856
 -11  -1   0 67.0266 20.5907   7-0.42013-0.39987 0.06043-0.14400-0.96648 0.81807
  11  -1   0 14.6079 34.9715   5 0.42894 0.39109 0.14576-0.22922 0.95425-0.80599
 -12  -1   0 11.7638 45.0994   7-0.45720-0.43733 0.06792-0.15150-0.95481 0.79286
  12   1   0 57.3082 67.5038   5 0.43699 0.45766 0.15057-0.06686 0.95106-0.78933
  12  -1   0 -7.7028 82.3162   8 0.43982 0.45481-0.12154 0.03790 0.95470-0.79297
  12   1   0 86.9948 83.9465   8 0.46343 0.43120-0.13149 0.21499 0.94570-0.78396
   0  -2   0 4655.21 163.255   3-0.30155 0.30163-0.08359-0.08360-0.98860 0.98865
   0   2   0 4617.70 177.325   2 0.28821-0.28825 0.08356 0.08356 0.99025-0.99032
   0  -2   0 4376.13 191.519   9 0.17290-0.17285-0.08353-0.08353 0.99651-0.99645
   0   2   0 4646.28 204.035   6-0.22034 0.22024 0.08348 0.08363-0.99569 0.99562
   0   2   0 4825.14 123.010   8-0.07154 0.07153 0.08354 0.08355 0.96463-0.96467
   0  -2   0 4825.35 126.983   8 0.34856-0.34850-0.08354-0.08353 0.98120-0.98114
  -1  -2   0 342.641 49.6382   4-0.18545 0.11084-0.01751-0.14970-0.99983 0.98641
   1   2   0 370.077 54.2475   1 0.18786-0.11346 0.01637 0.15071 0.99983-0.98643
  -1   2   0 375.758 39.1321   2 0.46038-0.53495 0.30545-0.13828 0.90282-0.91635
   1  -2   0 405.080 53.6111   9 0.20099-0.12643-0.01054-0.15655 0.99973-0.98621
  -1  -2   0 314.761 54.9668   9 0.14090-0.21536-0.16293-0.00408 0.98597-0.99936
  -1   2   0 301.236 40.4766   7-0.19073 0.11620 0.01497 0.15216-0.99984 0.98629
   1   2   0 352.691 51.4658   6-0.26160 0.33606 0.21674-0.04976-0.97240 0.98579
  -1   2   0 342.054 58.9239   6-0.19673 0.12206 0.01241 0.15479-0.99979 0.98625
   1  -2   0 380.627 47.0717   7 0.12364-0.04903-0.04521-0.12195-0.95263 0.96618
   1  -2   0 348.988 46.9226   8 0.18567-0.11110-0.01735-0.14974 0.99984-0.98632
  -2   2   0 1718.37 141.946   6-0.18681 0.03757-0.01653 0.18380-0.99984 0.97281
  -2  -2   0 1792.20 141.989   9 0.10631-0.25529-0.24472 0.07776 0.96718-0.99403
   2   2   0 2069.07 120.205   7 0.24406-0.09489-0.06765 0.23482-0.90737 0.93427
   2   2   0 1963.53 118.420   6-0.31989 0.46886 0.43523-0.26841-0.88571 0.91250
  -2  -2   0 1859.65 104.950   4-0.20153 0.05233 0.02963-0.19687-0.99934 0.97244
   2  -2   0 1691.50 129.099   8 0.16017-0.01107-0.00715-0.15994 0.99976-0.97277
   2   2   0 1763.08 80.8174   8 0.18916-0.04010-0.01875 0.18584 0.99979-0.97291
  -2  -2   0 1730.86 101.753   7-0.18331 0.03425 0.01352-0.18061-0.99991 0.97303
  -2  -2   0 1872.75 106.731   6-0.20302 0.05408 0.03105-0.19796-0.99927 0.97244
  -2   2   0 1710.36 127.581   7-0.15832 0.00923 0.00865 0.15851-0.99971 0.97269
   2  -2   0 1723.39 98.5683   9 0.22291-0.07383 0.04876-0.21586 0.99785-0.97088
   2  -2   0 1719.20 143.178   4-0.10243 0.25154-0.24134 0.07438-0.96756 0.99452
   2   2   0 1845.78 117.587   1 0.19412-0.04520-0.02318 0.19021 0.99965-0.97279
   3  -2   0 153.820 46.8624   4-0.06854 0.29216-0.32471 0.15786-0.94008 0.98045
   3  -2   0 187.322 28.7218   9 0.23415-0.01057 0.08012-0.24722 0.99522-0.95479
  -3  -2   0 172.943 42.1494   7-0.18445-0.03916 0.01374-0.18084-0.99990 0.95953
  -3   2   0 154.072 49.8299   7-0.16646-0.05720 0.01024 0.15695-0.99985 0.95935
  -3  -2   0 169.270 28.1473   6-0.20753-0.01592 0.04451-0.21135-0.99865 0.95838
   3   2   0 158.748 33.5555   1 0.19479 0.02864-0.02764 0.19462 0.99952-0.95920
  -3   2   0 160.719 44.5072   6-0.18678-0.03701-0.01660 0.18394-0.99984 0.95934
   3  -2   0 196.599 50.0786   8 0.16690 0.05675-0.00984-0.15727 0.99986-0.95940
   3   2   0 130.850 31.8017   8 0.18782 0.03580-0.01821 0.18531 0.99981-0.95945
  -3  -2   0 182.991 29.6836   4-0.20560-0.01818 0.04178-0.20902-0.99882 0.95843
  -3  -2   0 163.642 46.0091   9 0.06999-0.29346-0.32652 0.15962 0.93983-0.98013
   4  -2   0 1324.42 154.462   4-0.03289 0.33103-0.40793 0.24120-0.90322 0.95697
  -4  -2   0 1122.24 131.891   9 0.03241-0.33039-0.40692 0.24010 0.90385-0.95757
  -4   2   0 1118.95 134.351   6-0.19385-0.10448 0.00396 0.16343-0.99990 0.94594
   4  -2   0 1115.12 148.752   8 0.18610 0.11209-0.01752-0.14960 0.99984-0.94592
   4   2   0 1117.68 88.2077   1 0.18837 0.10960 0.01321 0.15372 0.99988-0.94609
  -4   2   0 1077.89 147.728   7-0.18770-0.11053 0.01437 0.15283-0.99988 0.94588
   4   2   0 1296.33 123.701   8 0.21139 0.08679-0.02767 0.19476 0.99913-0.94529
  -4  -2   0 1053.38 123.608   7-0.20580-0.09234 0.01791-0.18502-0.99952 0.94565
   4  -2   0 1175.78 61.3903   9 0.22228 0.07577 0.04707-0.21418 0.99796-0.94408
  -4  -2   0 1146.76 63.0516   6-0.18699-0.11100-0.01598-0.15081-0.99985 0.94613
  -4  -2   0 1091.78 61.2623   4-0.18420-0.11408-0.02108-0.14616-0.99976 0.94591
   5  -2   0 321.033 87.2175   8 0.21142 0.16133-0.02768-0.13944 0.99913-0.93174
  -5   2   0 376.301 79.0772   6-0.20604-0.16681 0.04005 0.12740-0.99887 0.93146
  -5  -2   0 312.509 76.9035   7-0.23457-0.13814 0.02355-0.19068-0.99821 0.93098
   5  -2   0 309.424 79.6008   4 0.00408 0.36855-0.48960 0.32298-0.85671 0.92379
   5   2   0 332.738 44.1586   1 0.17017 0.20238 0.11932 0.04756 0.99277-0.92550
  -5   2   0 318.492 89.1331   7-0.21500-0.15778 0.01971 0.14752-0.99920 0.93178
  -5  -2   0 383.885 87.1638   9-0.00607-0.36641-0.48499 0.31825 0.85915-0.92629
   5   2   0 327.134 72.9976   8 0.24167 0.13105-0.03989 0.20698 0.99726-0.92995
   6   2   0 868.703 145.173   2 0.24352 0.20343 0.02989 0.13706 0.99747-0.91677
   6  -2   0 1109.77 157.519   4 0.04208 0.40501-0.56871 0.40219-0.80018 0.88057
   6  -2   0 1310.82 112.581   2 0.28428 0.16282 0.07879-0.24608 0.99110-0.91028
  -6  -2   0 663.975 148.886   7-0.26610-0.18116 0.02975-0.19690-0.99572 0.91500
  -6   2   0 1049.48 141.526   6-0.22198-0.22540 0.08851 0.07899-0.99519 0.91434
   6  -2   0 1157.85 180.607   8 0.24018 0.20711-0.03929-0.12786 0.99738-0.91652
  -6   2   0 1167.70 194.740   7-0.24542-0.20196 0.02568 0.14157-0.99748 0.91664
   7   2   0 356.071 105.008   2 0.26840 0.25307 0.05960 0.10733 0.99411-0.89995
  -7   2   0 286.649 72.4337   6-0.24065-0.28122 0.14744 0.02012-0.98710 0.89283
   7   2   0 201.089 81.8115   8 0.30921 0.21264-0.06737 0.23446 0.98889-0.89460
  -7   2   0 280.132 75.0412   3-0.31956-0.20241-0.09918 0.26633-0.98455 0.89025
   7  -2   0 264.833 99.9810   8 0.27108 0.25076-0.05182-0.11534 0.99434-0.90001
  -7   2   0 311.468 112.319   7-0.27756-0.24439 0.03200 0.13525-0.99453 0.90022
  -7  -2   0 41.5548 85.3124   7-0.29940-0.22241 0.03632-0.20348-0.99185 0.89765
   8  -2   0 1223.49 217.025   8 0.30339 0.29301-0.06499-0.10217 0.98984-0.88203
   8   2   0 1297.00 208.630   2 0.29548 0.30049 0.09243 0.07447 0.98857-0.88095
  -8  -2   0 1196.65 199.573   3-0.29891-0.29766-0.08132-0.08578-0.98913 0.88140
   8   2   0 950.758 192.298   8 0.34450 0.25190-0.08187 0.24896 0.98210-0.87433
  -8  -2   0 1230.79 203.288   7-0.33411-0.26230 0.04321-0.21042-0.98643 0.87892
  -8   2   0 1195.06 233.393   7-0.31093-0.28559 0.03861 0.12866-0.99021 0.88243
   9   2   0 253.057 103.415   2 0.32420 0.34627 0.12782 0.03907 0.98041-0.85934
   9   2   0 211.584 93.5910   8 0.38031 0.29065-0.09668 0.26377 0.97341-0.85215
   9  -2   0 386.715 138.537   8 0.33668 0.33427-0.07865-0.08852 0.98375-0.86246
  -9   2   0 257.969 97.0876   7-0.34466-0.32633 0.04531 0.12193-0.98449 0.86295
  -9  -2   0 78.3397 106.278   7-0.36833-0.30248 0.05003-0.21715-0.97964 0.85820
  -9  -2   0 347.313 126.667   3-0.32952-0.34162-0.10786-0.05922-0.98202 0.86082
 -10  -2   0 29.0082 114.292   7-0.40401-0.34137 0.05719-0.22433-0.97096 0.83610
 -10  -2   0 311.067 119.870   3-0.36116-0.38452-0.13569-0.03140-0.97259 0.83793
  10   2   0 268.111 144.551   8 0.41647 0.32904-0.11175 0.27884 0.96270-0.82796
  10   2   0 273.134 76.0778   2 0.35414 0.39085 0.16539 0.00148 0.96921-0.83469
 -10   2   0 486.898 164.690   7-0.37943-0.36612 0.05225 0.11499-0.97712 0.84207
  10  -2   0 439.648 130.304   8 0.37069 0.37482-0.09269-0.07449 0.97593-0.84116
 -11  -2   0 228.330 102.820   7-0.43985-0.38007 0.06440-0.23157-0.96052 0.81213
  11  -2   0 263.506 131.367   8 0.40522 0.41485-0.10705-0.06014 0.96625-0.81800
 -11  -2   0 202.567 101.152   3-0.39360-0.42662-0.16460-0.00246-0.96058 0.81247
  11   2   0 14.8988 58.5980   8 0.45288 0.36720-0.12703 0.29412 0.94984-0.80159
 -11   2   0 340.556 143.870   7-0.41468-0.40544 0.05933 0.10791-0.96804 0.81953
 -12  -2   0 15.9764 91.6954   7-0.47593-0.41851 0.07172-0.23888-0.94815 0.78622
 -12  -2   0 0.17286 59.8376   3-0.42667-0.46810-0.19451 0.02745-0.94570 0.78414
  12   2   0 30.5505 76.3110   5 0.43488 0.45977 0.14931 0.01798 0.95191-0.79018
   0  -3   0 1.72879 6.02406   8 0.44880-0.44869-0.12531-0.12529 0.95139-0.95130
   0  -3   0 -0.6958 5.95330   3-0.34948 0.34960-0.12537-0.12540-0.97632 0.97641
   0   3   0 10.5314 12.7860   2 0.32220-0.32228 0.12535 0.12534 0.98105-0.98115
   0  -3   0 12.3949 17.9149   9 0.15626-0.15618-0.12528-0.12529 0.99189-0.99180
   0   3   0 1.75578 12.5595   6-0.23370 0.23356 0.12525 0.12541-0.99061 0.99050
   0  -3   0 10.8141 16.1077   4-0.14685 0.14683-0.12532-0.12539-0.99153 0.99161
   1  -3   0 928.607 91.4442   8 0.27671-0.20211-0.05411-0.19650 0.99366-0.98010
  -1   3   0 937.041 83.9360   2 0.43008-0.50466 0.26427-0.01354 0.92661-0.94018
  -1   3   0 863.244 112.198   6-0.21660 0.14188 0.07198 0.17878-0.99674 0.98315
   1   3   0 1001.71 112.471   6-0.26074 0.33516 0.21381 0.03672-0.97314 0.98649
   1  -3   0 975.922 75.1641   3-0.53394 0.60869-0.29525 0.04454-0.87556 0.88907
  -1  -3   0 941.170 115.966   9 0.13527-0.20970-0.17654-0.07400 0.98341-0.99678
  -1   3   0 1003.67 82.3377   7-0.32155 0.24708 0.04072 0.20993-0.98856 0.97497
  -1  -3   0 896.374 101.445   4-0.16021 0.08560-0.08881-0.16196-0.99582 0.98242
   1   3   0 884.403 105.396   1 0.17648-0.10213 0.08393 0.16673 0.99643-0.98307
   1   3   0 910.694 106.704   2 0.26641-0.19197 0.05721 0.19344 0.99444-0.98107
   1  -3   0 892.261 98.4586   9 0.17225-0.09767-0.08518-0.16542 0.99637-0.98282
  -2  -3   0 2324.91 154.648   4-0.16677 0.01758-0.07055-0.18024-0.99739 0.97051
  -2  -3   0 2278.00 107.981   7-0.36899 0.21999 0.05016-0.30071-0.97949 0.95259
   2  -3   0 2299.91 150.489   9 0.18141-0.03232-0.06178-0.18884 0.99811-0.97111
  -2   3   0 2399.41 197.085   6-0.20803 0.05873 0.04600 0.20484-0.99856 0.97150
   2  -3   0 2206.69 160.566   8 0.22768-0.07856-0.03424-0.21639 0.99827-0.97125
   2   3   0 2345.31 167.652   1 0.18021-0.03134 0.06243 0.18818 0.99803-0.97120
   2   3   0 2620.50 171.452   6-0.29776 0.44673 0.34655-0.09618-0.92882 0.95561
  -2   3   0 2223.19 152.312   7-0.24299 0.09395 0.02520 0.22552-0.99765 0.97064
  -2  -3   0 2446.28 197.192   9 0.11044-0.25940-0.23519-0.01532 0.96980-0.99662
   2  -3   0 2381.08 197.669   4-0.10590 0.25503-0.23255-0.01799-0.96995 0.99694
  -3   3   0 5515.45 310.193   6-0.20639-0.01745 0.04109 0.20982-0.99882 0.95828
   3  -3   0 5443.37 290.117   8 0.21820 0.00546-0.03041-0.22022 0.99881-0.95833
   3  -3   0 5845.00 221.526   9 0.18053 0.04304-0.06402-0.18660 0.99797-0.95751
   3  -3   0 5722.12 322.022   4-0.08021 0.30389-0.29646 0.04603-0.95040 0.99082
   3   3   0 7057.27 287.692   6-0.34051 0.56399 0.52858-0.27838-0.82656 0.86671
  -3   3   0 5814.19 289.488   7-0.22745 0.00383 0.02215 0.22861-0.99862 0.95811
  -3  -3   0 5680.58 229.569   4-0.16368-0.06007-0.07916-0.17163-0.99669 0.95634
  -3  -3   0 5963.13 235.848   7-0.29128 0.06775 0.03471-0.28534-0.99292 0.95263
  -3  -3   0 5704.39 316.323   9 0.08262-0.30609-0.29853 0.04809 0.95019-0.99046
   3   3   0 5653.19 176.168   8 0.34354-0.11997-0.08147 0.33216 0.98230-0.94195
   3   3   0 5840.97 262.346   1 0.17985 0.04354 0.06451 0.18606 0.99789-0.95760
   4  -3   0 1926.39 202.082   4-0.05190 0.35010-0.36412 0.11381-0.92386 0.97768
  -4   3   0 1977.31 75.2886   3-0.39080 0.09246-0.16208 0.41272-0.96172 0.90781
  -4  -3   0 1861.72 160.113   7-0.28222-0.01585 0.03292-0.28358-0.99401 0.94025
  -4   3   0 1881.84 195.918   6-0.21028-0.08812 0.05277 0.19819-0.99816 0.94416
   4   3   0 1839.31 146.734   1 0.17457 0.12336 0.09481 0.15571 0.99545-0.94169
  -4   3   0 1960.23 196.790   7-0.23477-0.06343 0.02359 0.22722-0.99820 0.94426
  -4  -3   0 1932.38 200.260   9 0.05241-0.35039-0.36463 0.11426 0.92396-0.97767
   4  -3   0 1917.46 119.162   9 0.16282 0.13521-0.10894-0.14170 0.99394-0.94003
  -4  -3   0 1892.71 122.940   4-0.14501-0.15325-0.13027-0.12050-0.99083 0.93701
   4   3   0 1871.39 133.114   8 0.31197-0.01383-0.06850 0.31918 0.98842-0.93459
   4  -3   0 1787.89 190.496   8 0.22618 0.07202-0.03363-0.21702 0.99836-0.94442
  -5   3   0 1157.09 84.3190   3-0.36327-0.00962-0.13755 0.38819-0.97188 0.90452
  -5   3   0 1207.81 168.603   6-0.21851-0.15442 0.07784 0.17316-0.99623 0.92876
   5   3   0 1016.22 155.607   2 0.24735 0.12508 0.03444 0.21610 0.99705-0.92984
   5  -3   0 1100.09 163.763   8 0.24337 0.12938-0.04058-0.21010 0.99712-0.92971
   5   3   0 1095.38 108.596   1 0.16250 0.20999 0.16052 0.08996 0.98684-0.91961
   5  -3   0 1111.21 166.210   4-0.02140 0.39411-0.43384 0.18365-0.88965 0.95683
   5   3   0 1070.91 117.945   8 0.31845 0.05426-0.07116 0.32183 0.98727-0.91997
  -5  -3   0 1072.07 139.404   7-0.29451-0.07811 0.03535-0.28603-0.99250 0.92528
  -5   3   0 1103.69 165.635   7-0.25259-0.12018 0.02709 0.22375-0.99692 0.92952
   5  -3   0 1037.86 71.2871   9 0.10697 0.26546-0.24320-0.00748 0.96760-0.90027
  -5  -3   0 1099.09 157.846   9 0.02026-0.39276-0.43202 0.18173 0.89059-0.95772
  -5  -3   0 1123.14 80.8117   4-0.09381-0.27885-0.26294 0.01222-0.96130 0.89407
   6   3   0 206.761 89.6443   2 0.26356 0.18337 0.05379 0.19672 0.99489-0.91422
   6  -3   0 233.628 92.6749   8 0.26600 0.18129-0.04975-0.20093 0.99492-0.91404
  -6   3   0 231.744 45.3688   3-0.37883-0.06860-0.15138 0.40202-0.96635 0.88553
  -6   3   0 204.099 68.1450   7-0.27623-0.17112 0.03174 0.21910-0.99468 0.91381
   6   3   0 172.992 61.9994   8 0.33826 0.10900-0.07930 0.32998 0.98342-0.90263
  -6  -3   0 106.821 80.3139   7-0.31616-0.13101 0.03964-0.29034-0.98942 0.90871
  -6   3   0 266.535 81.1178   6-0.23017-0.21728 0.11407 0.13698-0.99217 0.91126
   6  -3   0 209.390 79.2685   4 0.01094 0.43627-0.50426 0.25419-0.84715 0.92766
  -6  -3   0 122.268 89.6908   9-0.01350-0.43350-0.49956 0.24934 0.84963-0.93016
  -7  -3   0 1374.08 211.326   3-0.28706-0.23496-0.07110-0.17961-0.99139 0.89713
   7   3   0 1736.02 196.005   8 0.36432 0.15751-0.09005 0.34072 0.97752-0.88324
  -7   3   0 1672.45 212.872   6-0.24451-0.27745 0.15995 0.09116-0.98486 0.89052
   7  -3   0 1664.15 245.961   8 0.29212 0.22973-0.06039-0.19031 0.99157-0.89722
   7   3   0 1581.08 236.711   2 0.28351 0.23793 0.07786 0.17262 0.99126-0.89714
   7  -3   0 1764.05 228.119   4 0.04486 0.47683-0.57429 0.32434-0.79571 0.88951
  -7   3   0 1335.78 224.761   7-0.30345-0.21847 0.03712 0.21375-0.99130 0.89696
  -8  -3   0 308.132 111.452   3-0.31202-0.28456-0.09264-0.15804-0.98632 0.87860
  -8   3   0 460.069 154.234   7-0.33296-0.26353 0.04298 0.20791-0.98663 0.87883
   8   3   0 310.008 114.177   2 0.30624 0.28969 0.10562 0.14485 0.98579-0.87821
   8   3   0 298.934 101.749   8 0.39380 0.20258-0.10229 0.35296 0.96965-0.86188
  -8   3   0 452.464 109.357   6-0.26094-0.33552 0.21449 0.03666-0.97297 0.86520
   8  -3   0 384.604 131.264   8 0.32059 0.27580-0.07204-0.17867 0.98688-0.87906
  -8  -3   0 83.1559 131.515   7-0.37175-0.22445 0.05071-0.30137-0.97888 0.87097
  -9  -3   0 363.331 125.942   3-0.33899-0.33215-0.11616-0.13452-0.97942 0.85823
   9   3   0 352.414 121.197   8 0.42537 0.24558-0.11547 0.36614 0.95976-0.83850
   9  -3   0 480.720 160.006   8 0.35074 0.32020-0.08444-0.16627 0.98072-0.85942
  -9  -3   0 655.309 162.768   7-0.40333-0.26743 0.05705-0.30775-0.97114 0.84982
  -9   3   0 464.618 152.260   7-0.36372-0.30728 0.04911 0.20175-0.98064 0.85913
   9   3   0 300.585 109.495   2 0.33108 0.33937 0.13639 0.11406 0.97809-0.85705
  10  -3   0 -17.082 34.4018   8 0.38212 0.36337-0.09743-0.15329 0.97292-0.83815
  10   3   0 32.2966 17.0994   2 0.35754 0.38742 0.16970 0.08072 0.96776-0.83327
 -10   3   0 174.904 123.703   7-0.39589-0.34966 0.05555 0.19530-0.97309 0.83801
 -10  -3   0 0.94329 14.4122   7-0.43596-0.30933 0.06362-0.31433-0.96174 0.82690
 -10  -3   0 131.581 91.6447   3-0.36748-0.37822-0.14129-0.10937-0.97044 0.83579
  11   3   0 545.046 163.938   5 0.40756 0.41252 0.13304 0.11780 0.96214-0.81392
  11  -3   0 526.487 179.143   8 0.41443 0.40563-0.11089-0.13985 0.96336-0.81511
 -11  -3   0 453.259 153.210   3-0.39714-0.42310-0.16778-0.08286-0.95912 0.81100
 -11   3   0 261.162 21.5374   7-0.42902-0.39109 0.06222 0.18865-0.96386 0.81530
  11   3   0 511.016 166.443   2 0.38528 0.43418 0.20526 0.04514 0.95439-0.80644
 -11  -3   0 179.460 185.125   7-0.46950-0.35033 0.07041-0.32113-0.95050 0.80212
 -12  -3   0 -40.912 58.0702   3-0.42773-0.46706-0.19548-0.05514-0.94518 0.78360
 -12  -3   0 43.7207 68.3851   7-0.50369-0.39065 0.07738-0.32811-0.93729 0.77538
   0   4   0 2912.26 227.848   1 0.16122-0.16144 0.16717 0.16713 0.98572-0.98585
   0   4   0 3009.39 155.048   5 0.46435-0.46425 0.16701 0.16701 0.93926-0.93946
   0  -4   0 3081.21 135.501   8 0.54682-0.54665-0.16709-0.16705 0.90579-0.90570
   0  -4   0 2794.58 213.119   9 0.13921-0.13910-0.16704-0.16706 0.98522-0.98510
   0  -4   0 3278.20 203.122   3-0.39646 0.39664-0.16716-0.16722-0.95940 0.95950
   0   4   0 3056.65 231.698   6-0.24668 0.24648 0.16703 0.16720-0.98352 0.98337
   0   4   0 3210.55 210.844   2 0.35551-0.35560 0.16713 0.16712 0.96863-0.96876
   0  -4   0 2766.66 215.208   4-0.13121 0.13118-0.16708-0.16719-0.98474 0.98483
  -2  -4   0 2423.09 189.602   4-0.14259-0.00661-0.13680-0.19754-0.98987 0.96300
  -2   4   0 2407.48 223.446   6-0.22559 0.07626 0.09977 0.23463-0.99395 0.96684
  -2  -4   0 2549.09 208.976   3-0.28802 0.13896-0.07193-0.26247-0.99121 0.96436
   2  -4   0 2604.71 188.474   8 0.30341-0.15425-0.06500-0.26914 0.98984-0.96280
  -2  -4   0 2766.79 241.760   9 0.10526-0.25420-0.24714-0.08690 0.96649-0.99328
   2   4   0 2433.49 201.627   1 0.16915-0.02035 0.12486 0.20932 0.99208-0.96529
   2   4   0 2605.59 203.563   6-0.29369 0.44264 0.33116 0.00279-0.93515 0.96191
   2  -4   0 2542.44 188.352   9 0.15362-0.00452-0.13181-0.20232 0.99098-0.96395
  -2  -4   0 66.5656 14.5068   7-0.72699 0.57808 0.12412-0.45807-0.79566 0.76889
  -2   4   0 2414.00 169.626   2 0.55924-0.70836 0.44973-0.11539 0.78572-0.81280
  -2   4   0 2341.05 167.760   7-0.34644 0.19745 0.04567 0.28856-0.98415 0.95703
   3   4   0 512.150 91.4336   1 0.16837 0.05497 0.12916 0.20499 0.99152-0.95126
  -3  -4   0 527.658 106.821   9 0.08316-0.30661-0.29731-0.03668 0.95062-0.99086
   3  -4   0 378.279 82.0631   8 0.27918-0.05550-0.05511-0.27905 0.99334-0.95283
  -3  -4   0 513.290 83.6669   4-0.13771-0.08605-0.14984-0.18449-0.98779 0.94745
   3  -4   0 544.140 108.542   4-0.08055 0.30425-0.29564-0.03839-0.95069 0.99114
  -3  -4   0 592.870 69.8274   7-0.46518 0.24173 0.06954-0.40358-0.95204 0.91175
  -3   4   0 539.495 88.7092   7-0.30564 0.08210 0.03756 0.29677-0.99099 0.95049
   3  -4   0 504.647 82.2173   9 0.14955 0.07403-0.14183-0.19231 0.98950-0.94901
  -3   4   0 604.121 117.317   6-0.22330-0.00061 0.09262 0.24184-0.99475 0.95417
   3   4   0 592.591 98.2261   6-0.32552 0.54900 0.45944-0.12567-0.87182 0.91198
   4  -4   0 913.624 139.832   8 0.27605 0.02216-0.05384-0.28034 0.99374-0.93977
   4   4   0 917.100 124.147   1 0.16377 0.13410 0.15384 0.18028 0.98793-0.93421
   4   4   0 -25.058 19.4799   6-0.35721 0.65519 0.61843-0.28483-0.75328 0.80676
  -4   4   0 873.328 149.287   6-0.22541-0.07304 0.09920 0.23532-0.99401 0.93996
   4   4   0 981.128 87.7930   8 0.50203-0.20396-0.14787 0.48215 0.92887-0.87503
  -4  -4   0 894.728 106.693   4-0.12192-0.17634-0.19139-0.14290-0.97985 0.92604
   4  -4   0 981.446 163.838   4-0.05744 0.35569-0.35109 0.01718-0.92947 0.98332
  -4  -4   0 880.557 105.460   7-0.39915 0.10116 0.05621-0.39031-0.97224 0.91846
   4  -4   0 936.839 105.769   9 0.13338 0.16466-0.18106-0.15309 0.98251-0.92858
   4   4   0 753.920 138.305   2 0.26886 0.02905 0.06016 0.27395 0.99403-0.94031
  -4   4   0 789.666 127.020   7-0.29653-0.00159 0.03575 0.29862-0.99224 0.93829
  -4  -4   0 1003.66 156.550   9 0.05837-0.35633-0.35183 0.01790 0.92952-0.98320
   5   4   0 2945.26 218.757   1 0.15430 0.21812 0.20259 0.13147 0.97892-0.91173
   5  -4   0 2636.24 135.486   5 0.51118-0.13876 0.19551-0.52964 0.91542-0.84791
   5  -4   0 2611.84 269.199   8 0.28475 0.08799-0.05738-0.27681 0.99261-0.92517
   5   4   0 2599.20 275.383   2 0.27523 0.09717 0.06784 0.26625 0.99290-0.92572
  -5   4   0 2591.46 267.481   6-0.23121-0.14179 0.11735 0.21721-0.99173 0.92421
  -5  -4   0 2533.60 210.538   7-0.38338 0.01086 0.05304-0.38716-0.97618 0.90885
  -5  -4   0 2414.04 260.888   3-0.27885-0.09402-0.06407-0.27029-0.99278 0.92549
   5  -4   0 2639.96 162.177   9 0.09654 0.27592-0.26714-0.06703 0.96056-0.89320
  -5  -4   0 2706.43 274.042   9 0.03125-0.40374-0.40931 0.07546 0.90263-0.96973
   5  -4   0 2648.15 280.537   4-0.03192 0.40471-0.41014 0.07637-0.90210 0.96934
  -5   4   0 2461.11 252.946   7-0.30316-0.06954 0.03707 0.29735-0.99134 0.92392
  -5  -4   0 2601.24 167.359   4-0.08841-0.28431-0.27633-0.05790-0.95712 0.88988
   5   4   0 2729.63 178.247   8 0.44829-0.07563-0.12510 0.45937 0.95158-0.88427
   6   4   0 166.714 54.7199   8 0.43897 0.00825-0.12118 0.45545 0.95501-0.87421
  -6  -4   0 46.0702 74.1467   9 0.00216-0.44916-0.46865 0.13487 0.86937-0.94990
  -6  -4   0 41.6963 54.8856   7-0.38852-0.05853 0.05407-0.38821-0.97493 0.89410
  -6   4   0 145.198 78.4352   7-0.31868-0.12860 0.04015 0.29431-0.98902 0.90813
   6  -4   0 129.718 84.1616   8 0.30075 0.14654-0.06391-0.27030 0.99026-0.90936
   6   4   0 83.1712 54.7738   2 0.28699 0.15991 0.08208 0.25197 0.99052-0.90989
  -6   4   0 86.7624 53.6748   6-0.24004-0.20748 0.14549 0.18912-0.98743 0.90646
  -6  -4   0 158.560 79.5313   3-0.29218-0.15526-0.07551-0.25883-0.99045 0.90968
   6  -4   0 156.821 63.5081   4-0.00427 0.45158-0.47157 0.13793-0.86794 0.94852
  -7  -4   0 676.621 157.869   3-0.30988-0.21213-0.09079-0.24352-0.98680 0.89256
   7   4   0 674.147 156.179   2 0.30279 0.21862 0.10138 0.23265 0.98672-0.89262
   7  -4   0 732.839 170.448   8 0.32156 0.20028-0.07243-0.26179 0.98671-0.89234
  -7   4   0 770.406 161.677   6-0.25136-0.27068 0.18242 0.15223-0.98039 0.88598
  -7  -4   0 468.348 180.383   9-0.02869-0.49282-0.52888 0.19518 0.82922-0.92314
  -7  -4   0 550.933 153.095   7-0.40434-0.11725 0.05725-0.39144-0.97087 0.87659
  -7   4   0 601.567 144.334   7-0.33966-0.18221 0.04432 0.29016-0.98543 0.89103
   7  -4   0 782.868 162.700   4 0.02527 0.49654-0.53433 0.20081-0.82628 0.92018
  -8  -4   0 7.05768 44.5555   7-0.42608-0.17005 0.06163-0.39583-0.96474 0.85696
  -8   4   0 -50.271 63.7292   6-0.26471-0.33184 0.22732 0.10737-0.96965 0.86181
   8  -4   0 -86.694 76.0506   8 0.34569 0.25070-0.08236-0.25188 0.98184-0.87400
  -8  -4   0 -28.438 30.4781   3-0.33084-0.26575-0.10902-0.22527-0.98167 0.87395
  -8   4   0 -32.888 36.8615   7-0.36410-0.23231 0.04918 0.28527-0.98056 0.87254
  -8  -4   0 -29.279 37.6725   9-0.06110-0.53493-0.58918 0.25556 0.78155-0.88886
   8   4   0 37.0341 21.0406   2 0.32170 0.27421 0.12472 0.20930 0.98121-0.87367
  -9  -4   0 -8.0286 66.2256   7-0.45165-0.21900 0.06679-0.40102-0.95668 0.83538
  -9   4   0 -22.825 80.1066   7-0.39121-0.27975 0.05461 0.27984-0.97427 0.85268
  -9  -4   0 -1.3427 35.0168   3-0.35426-0.31689-0.12958-0.20469-0.97483 0.85365
   9   4   0 24.3365 71.7503   2 0.34303 0.32738 0.15137 0.18263 0.97370-0.85270
   9  -4   0 46.2285 65.1110   8 0.37222 0.29872-0.09333-0.24093 0.97553-0.85422
  10   4   0 -71.150 105.727   2 0.36628 0.37863 0.18084 0.15314 0.96384-0.82938
 -10   4   0 166.869 114.647   7-0.42028-0.32524 0.06046 0.27402-0.96644 0.83136
 -10  -4   0 16.7789 111.237   7-0.47980-0.26537 0.07250-0.40675-0.94671 0.81189
  10  -4   0 -84.983 97.6297   8 0.40055 0.34495-0.10510-0.22917 0.96767-0.83288
 -10  -4   0 7.17125 45.3908   3-0.37959-0.36612-0.15205-0.18220-0.96607 0.83141
  11   4   0 29.4908 50.1620   2 0.39107 0.42836 0.21279 0.12117 0.95125-0.80333
  11   4   0 121.319 78.2959   5 0.42065 0.39943 0.14081 0.19357 0.95741-0.80920
  11  -4   0 27.1329 30.3209   8 0.43023 0.38982-0.11751-0.21678 0.95810-0.80983
 -11   4   0 172.914 88.3232   7-0.45068-0.36941 0.06660 0.26789-0.95701 0.80839
 -11  -4   0 102.970 72.5082   3-0.40643-0.41383-0.17615-0.15808-0.95514 0.80702
   0   5   0 -6.7744 10.6369   5 0.53265-0.53254 0.20875 0.20876 0.90281-0.90309
   0  -5   0 -15.590 6.82843   3-0.44243 0.44268-0.20894-0.20903-0.93761 0.93771
   0  -5   0 -0.1672 5.81804   8 0.64222-0.64199-0.20886-0.20880 0.84154-0.84145
   0   5   0 3.02481 12.0014   2 0.38810-0.38821 0.20892 0.20890 0.95288-0.95305
   0  -5   0 28.2447 26.5597   9 0.12171-0.12158-0.20879-0.20882 0.97645-0.97629
   0   5   0 -36.717 33.8940   6-0.25925 0.25902 0.20879 0.20900-0.97438 0.97419
   0   5   0 -1.1741 25.4425   1 0.15303-0.15331 0.20897 0.20891 0.97755-0.97772
  -1   5   0 237.866 45.1094   7-0.62858 0.55419 0.10320 0.31435-0.87181 0.85802
   1  -5   0 223.775 72.0497   9 0.12858-0.05395-0.19254-0.22510 0.98012-0.96651
  -1  -5   0 223.048 60.1344   3-0.37566 0.30127-0.14856-0.26945-0.96752 0.95417
  -1  -5   0 200.758 60.5304   9 0.11046-0.18485-0.23511-0.18248 0.96981-0.98311
   1   5   0 295.462 82.3405   1 0.15728-0.08305 0.18751 0.23032 0.98198-0.96869
   1  -5   0 305.414 66.1448   8 0.46564-0.39095-0.13242-0.28522 0.94480-0.93120
   1   5   0 222.661 58.5291   5 0.42007-0.34544 0.14047 0.27710 0.95763-0.94438
   1   5   0 231.500 72.6642   6-0.27539 0.34974 0.26451 0.15315-0.95888 0.97216
  -1   5   0 265.354 64.5473   2 0.45389-0.52852 0.29654 0.12133 0.90830-0.92193
   1  -5   0 359.771 72.4784   3-0.55349 0.62838-0.31435-0.10355-0.85838 0.87189
  -1   5   0 272.794 76.9431   6-0.24797 0.17316 0.17125 0.24663-0.98269 0.96902
  -1   5   0 11.0652 11.1234   1 0.14635-0.22114 0.24178 0.17617 0.96980-0.98343
   1  -5   0 293.678 82.0384   4-0.10524 0.17978-0.23422-0.18357-0.96950 0.98307
   2   5   0 -2.7148 3.01713   6-0.29630 0.44522 0.34100 0.07652-0.93114 0.95786
   2  -5   0 7.24715 15.0508   9 0.13004 0.01908-0.18903-0.22861 0.98087-0.95380
   2   5   0 -31.250 19.9505   2 0.31919-0.17030 0.12160 0.29614 0.98201-0.95525
   2  -5   0 12.6062 12.1226   8 0.38428-0.23508-0.09833-0.31932 0.97233-0.94526
   2   5   0 26.0909 24.8139   1 0.15900-0.01025 0.17872 0.23905 0.98365-0.95690
  -2   5   0 17.5117 14.2134   2 0.54689-0.69603 0.43061-0.01269 0.80472-0.83183
   2  -5   0 19.5355 34.6592   4-0.09174 0.24087-0.26808-0.14963-0.95972 0.98675
  -2   5   0 -24.798 40.8716   6-0.24126 0.09187 0.14941 0.26854-0.98676 0.95961
  -2  -5   0 10.9917 15.3368   9 0.09554-0.24445-0.26939-0.14817 0.95986-0.98661
  -2  -5   0 32.9474 4.34110   3-0.33770 0.18868-0.11503-0.30298-0.97979 0.95296
  -2   5   0 27.5951 12.1269   7-0.46484 0.31593 0.06947 0.34825-0.95216 0.92497
   3   5   0 2790.20 243.334   6-0.32108 0.54457 0.44031-0.02297-0.88287 0.92301
  -3   5   0 2738.78 215.911   7-0.39743 0.17396 0.05586 0.36195-0.97269 0.93205
   3  -5   0 2686.28 232.162   8 0.34708-0.12338-0.08293-0.33474 0.98153-0.94100
   3  -5   0 2578.29 271.361   4-0.07516 0.29886-0.30876-0.10885-0.94604 0.98651
   3   5   0 2418.82 249.251   2 0.30577-0.08238 0.10504 0.31266 0.98592-0.94570
  -3  -5   0 2655.65 253.076   3-0.31853 0.09489-0.09829-0.31971-0.98480 0.94449
   3   5   0 2666.68 244.483   1 0.15795 0.06532 0.18410 0.23363 0.98264-0.94242
   3  -5   0 2638.38 217.188   9 0.12459 0.09902-0.20200-0.21566 0.97802-0.93751
  -3  -5   0 2812.09 286.958   9 0.07748-0.30090-0.30996-0.10757 0.94609-0.98630
  -3  -5   0 2068.68 197.041   4-0.11603-0.10775-0.20665-0.21120-0.97642 0.93608
  -3   5   0 2683.80 270.391   6-0.23867 0.01470 0.14107 0.27695-0.98816 0.94753
  -4  -5   0 26.0110 13.6983   9 0.05670-0.35464-0.35542-0.06206 0.92799-0.98163
  -4   5   0 51.9472 20.5623   7-0.37085 0.07281 0.05053 0.36736-0.97908 0.92500
  -4   5   0 -18.224 16.2375   6-0.23969-0.05882 0.14437 0.27370-0.98762 0.93351
  -4  -5   0 -17.472 9.96340   7-0.56841 0.27051 0.09068-0.50820-0.90703 0.85328
   4   5   0 -6.5651 9.34171   6-0.34728 0.64528 0.56278-0.14562-0.80078 0.85427
   4  -5   0 9.46827 20.8075   4-0.05584 0.35412-0.35486-0.06264-0.92787 0.98175
   4   5   0 -11.686 23.4510   2 0.30162-0.00374 0.09995 0.31772 0.98702-0.93334
  -4  -5   0 57.6170 43.0449   3-0.31203 0.01379-0.09265-0.32533-0.98632 0.93253
   4  -5   0 12.1243 23.5714   9 0.10968 0.18837-0.23693-0.18071 0.96932-0.91537
   4  -5   0 22.1775 36.0794   8 0.33342-0.03519-0.07731-0.34038 0.98441-0.93042
   4   5   0 -1.7525 12.6406   1 0.15374 0.14406 0.20540 0.21229 0.97833-0.92464
  -4  -5   0 -29.583 33.4937   4-0.10195-0.19635-0.24254-0.17527-0.96723 0.91343
   5  -5   0 1441.18 150.015   9 0.08054 0.29194-0.30315-0.11451 0.94856-0.88117
   5   5   0 1244.62 202.500   2 0.30444 0.06794 0.10341 0.31424 0.98628-0.91913
  -5   5   0 1524.15 225.156   6-0.24385-0.12921 0.15782 0.26030-0.98526 0.91769
   5  -5   0 1287.75 219.407   4-0.03410 0.40693-0.40518-0.01218-0.90460 0.97187
  -5  -5   0 1136.97 195.551   9 0.03352-0.40599-0.40460-0.01281 0.90502-0.97210
  -5  -5   0 1357.26 146.035   4-0.07561-0.29716-0.30766-0.11008-0.94644 0.87918
   5  -5   0 1457.01 214.479   8 0.33371 0.03905-0.07743-0.34028 0.98435-0.91690
  -5   5   0 1371.20 190.977   7-0.36508-0.00754 0.04938 0.36858-0.98035 0.91280
  -5  -5   0 1322.94 217.884   3-0.31442-0.05842-0.09472-0.32325-0.98577 0.91849
  -6  -5   0 39.9268 47.0962   7-0.48760 0.04065 0.07409-0.49172-0.94374 0.86299
   6  -5   0 24.3116 28.9802   8 0.34290 0.10440-0.08121-0.33652 0.98244-0.90152
   6  -5   0 38.5652 49.1451   4-0.01017 0.45754-0.45869 0.04145-0.87562 0.95625
   6   5   0 34.1739 43.8641   2 0.31259 0.13428 0.11346 0.30417 0.98400-0.90340
  -6  -5   0 -17.098 8.00174   3-0.32322-0.12421-0.10237-0.31558-0.98364 0.90289
  -6  -5   0 18.9673 26.7667   9 0.00821-0.45519-0.45651 0.03917 0.87666-0.95715
  -6   5   0 38.5502 22.5648   6-0.25069-0.19690 0.18021 0.23796-0.98086 0.89983
  -6   5   0 45.0314 50.1033   7-0.37130-0.07590 0.05062 0.36736-0.97898 0.89791
   7   5   0 1188.98 232.445   2 0.32490 0.19648 0.12870 0.28891 0.98018-0.88612
  -7  -5   0 1392.07 247.803   3-0.33679-0.18522-0.11423-0.30370-0.98004 0.88581
  -7   5   0 1402.94 235.157   6-0.25980-0.26233 0.21063 0.20757-0.97393 0.87945
   7  -5   0 1330.48 238.625   8 0.35811 0.16373-0.08749-0.33026 0.97901-0.88463
  -7   5   0 1242.81 219.320   7-0.38514-0.13663 0.05339 0.36461-0.97576 0.88115
  -7  -5   0 714.318 226.434   9-0.01902-0.50248-0.51029 0.09303 0.84235-0.93625
   7  -5   0 1303.96 239.671   4 0.01576 0.50614-0.51445 0.09734-0.84027 0.93423
  -8   5   0 73.4166 52.8830   6-0.27080-0.32583 0.24838 0.16985-0.96376 0.85584
  -8  -5   0 74.2091 111.167   9-0.04799-0.54803-0.56516 0.14797 0.80151-0.90881
   8  -5   0 -78.333 40.1401   8 0.37759 0.21880-0.09555-0.32221 0.97414-0.86628
   8  -5   0 118.427 87.0041   4 0.04352 0.55287-0.57162 0.15463-0.79786 0.90512
  -8   5   0 97.1101 61.8349   7-0.40419-0.19216 0.05722 0.36082-0.97091 0.86281
  -8  -5   0 9.40816 29.8111   3-0.35400-0.24259-0.12936-0.28854-0.97491 0.86721
   8   5   0 109.209 92.6080   2 0.34048 0.25540 0.14816 0.26942 0.97468-0.86716
   9  -5   0 123.645 14.9930   8 0.40019 0.27074-0.10495-0.31283 0.96777-0.84645
   9   5   0 150.686 76.0499   2 0.35868 0.31170 0.17115 0.24640 0.96726-0.84629
  -9  -5   0 258.745 142.081   3-0.37403-0.29712-0.14711-0.27077-0.96812 0.84694
  -9   5   0 123.582 66.3557   6-0.28336-0.38778 0.29301 0.12526-0.94944 0.82809
  -9   5   0 138.598 74.8632   7-0.42680-0.24411 0.06177 0.35629-0.96453 0.84291
  10   5   0 -29.371 61.6189   2 0.37900 0.36589 0.19715 0.22037 0.95766-0.82323
 -10   5   0 195.358 131.571   7-0.45203-0.29345 0.06687 0.35122-0.95656 0.82141
  10   5   0 47.0804 53.9996   5 0.41327 0.33224 0.13642 0.28147 0.96012-0.82542
  10  -5   0 93.7166 80.4476   8 0.42515 0.32034-0.11538-0.30242 0.95983-0.82504
 -10  -5   0 159.760 93.7890   3-0.39629-0.34941-0.16702-0.25084-0.95947 0.82482
  11   5   0 342.996 147.251   2 0.40105 0.41834 0.22581 0.19170 0.94553-0.79766
   0  -6   0 1217.19 156.502   3-0.48735 0.48766-0.25072-0.25085-0.91060 0.91069
   0   6   0 1106.24 180.963   6-0.27142 0.27114 0.25054 0.25080-0.96313 0.96289
   0   6   0 1129.73 123.129   5 0.59915-0.59904 0.25049 0.25050 0.85603-0.85639
   0  -6   0 1084.73 168.420   9 0.10378-0.10363-0.25055-0.25059 0.96552-0.96533
   0  -6   0 979.192 165.499   4-0.09875 0.09867-0.25058-0.25082-0.96496 0.96505
   1   6   0 222.796 69.6305   2 0.38090-0.30653 0.19961 0.30173 0.95668-0.94342
   1  -6   0 159.800 62.8854   4-0.09112 0.16562-0.26963-0.23173-0.95924 0.97281
  -1   6   0 271.129 70.6888   2 0.47591-0.55055 0.32699 0.17443 0.88883-0.90251
  -1  -6   0 235.246 72.2718   4-0.10260 0.02792-0.24089-0.26052-0.96769 0.95431
   1   6   0 195.182 62.6824   1 0.14789-0.07373 0.23427 0.26713 0.97168-0.95843
  -1  -6   0 269.367 100.379   9 0.09519-0.16954-0.27020-0.23091 0.95961-0.97287
   1  -6   0 311.299 73.2321   8 0.56020-0.48545-0.17287-0.32830 0.89809-0.88449
   1  -6   0 176.853 57.1497   9 0.10835-0.03370-0.24000-0.26114 0.96849-0.95484
   1   6   0 197.854 59.1228   5 0.49083-0.41619 0.18307 0.31799 0.92637-0.91319
   1   6   0 238.540 70.3948   6-0.28483 0.35915 0.29838 0.20284-0.94755 0.96078
  -1  -6   0 191.978 55.5534   3-0.42507 0.35074-0.19305-0.30856-0.94649 0.93313
  -1   6   0 243.434 87.5678   6-0.26175 0.18689 0.21723 0.28421-0.97227 0.95856
   1  -6   0 401.305 94.5005   3-0.58209 0.65704-0.34281-0.15869-0.83016 0.84365
  -2  -6   0 1722.16 228.694   9 0.08314-0.23202-0.29735-0.20375 0.95061-0.97732
   2   6   0 1720.12 215.923   2 0.35551-0.20665 0.16713 0.33418 0.96863-0.94191
   2   6   0 1629.57 209.607   6-0.30187 0.45077 0.36235 0.13872-0.92199 0.94866
   2  -6   0 1514.59 188.662   9 0.10809 0.04105-0.24061-0.26054 0.96832-0.94123
  -2   6   0 1566.67 220.376   6-0.25569 0.10625 0.19680 0.30472-0.97721 0.95002
   2   6   0 1531.65 203.020   1 0.14909-0.00040 0.22850 0.27287 0.97308-0.94637
   2  -6   0 1905.11 196.334   8 0.46828-0.31905-0.13354-0.36763 0.94373-0.91664
  -2   6   0 1982.61 208.036   2 0.55080-0.69996 0.43661 0.06486 0.79888-0.82603
   2  -6   0 1617.57 220.693   4-0.08019 0.22930-0.29650-0.20479-0.95039 0.97742
  -2   6   0 1814.39 158.092   7-0.59399 0.44514 0.09598 0.40518-0.89296 0.86563
  -2  -6   0 1343.71 182.940   4-0.10198-0.04729-0.24247-0.25894-0.96725 0.94039
  -2  -6   0 1617.43 202.628   3-0.38627 0.23730-0.15802-0.34360-0.96351 0.93669
  -3   6   0 41.5839 30.3533   7-0.50105 0.27767 0.07684 0.42445-0.93838 0.89763
  -3   6   0 22.8713 29.4838   6-0.25297 0.02896 0.18777 0.31382-0.97924 0.93856
   3   6   0 -67.237 44.4534   2 0.34077-0.11740 0.14853 0.35274 0.97457-0.93438
   3   6   0 31.0164 35.7569   1 0.14785 0.07537 0.23453 0.26679 0.97162-0.93144
  -3  -6   0 127.549 64.4537   3-0.36403 0.14043-0.13822-0.36341-0.97163 0.93133
   3  -6   0 13.4228 25.2465   9 0.10183 0.12180-0.25504-0.24611 0.96421-0.92367
  -3  -6   0 37.7111 40.5872   4-0.09589-0.12792-0.25774-0.24364-0.96286 0.92252
   3  -6   0 49.8509 38.5031   4-0.06636 0.29007-0.32991-0.17130-0.93807 0.97853
   3   6   0 39.7083 18.7000   6-0.32190 0.54538 0.44382 0.05708-0.88089 0.92099
  -3  -6   0 3.05745 30.6418   9 0.06809-0.29149-0.33065-0.17041 0.93821-0.97838
   3  -6   0 38.4881 31.6442   8 0.41993-0.19619-0.11319-0.38799 0.96157-0.92102
   4   6   0 2321.18 258.216   6-0.34347 0.64149 0.54323-0.04251-0.81582 0.86928
  -4   6   0 1582.67 238.360   6-0.25329-0.04529 0.18882 0.31282-0.97901 0.92485
  -4  -6   0 1682.64 235.235   3-0.35366 0.05545-0.12906-0.37255-0.97502 0.92124
   4  -6   0 1740.37 219.882   8 0.39658-0.09832-0.10344-0.39776 0.96884-0.91483
   4  -6   0 1789.82 261.482   4-0.04992 0.34821-0.36872-0.13238-0.92183 0.97572
  -4   6   0 1777.32 200.069   7-0.45632 0.15836 0.06774 0.43366-0.95511 0.90091
  -4  -6   0 1774.18 264.576   9 0.05039-0.34830-0.36896-0.13206 0.92202-0.97563
   4  -6   0 2048.95 218.177   9 0.08774 0.21034-0.28705-0.21409 0.95414-0.90015
   4   6   0 1772.69 246.217   2 0.33433-0.03646 0.14045 0.36079 0.97694-0.92329
   5  -6   0 208.051 90.9697   4-0.03112 0.40398-0.41195-0.08903-0.90118 0.96847
  -5  -6   0 93.2571 47.9125   3-0.35200-0.02081-0.12760-0.37400-0.97554 0.90828
  -5   6   0 196.485 91.9525   6-0.25630-0.11683 0.19886 0.30282-0.97674 0.90911
  -5  -6   0 93.8987 63.1613   9 0.03030-0.40274-0.41130-0.08966 0.90160-0.96864
   5   6   0 84.9850 53.2759   2 0.33439 0.03798 0.14052 0.36069 0.97692-0.90981
  -5   6   0 46.4561 25.4423   7-0.43729 0.06477 0.06389 0.43758-0.96132 0.89364
   5  -6   0 120.999 44.1992   8 0.38874-0.01597-0.10019-0.40104 0.97109-0.90361
   6  -6   0 658.801 182.039   4-0.01015 0.45757-0.45873-0.04212-0.87559 0.95625
   6  -6   0 660.213 157.852   8 0.39117 0.05614-0.10119-0.40005 0.97041-0.88947
  -6   6   0 653.330 168.940   6-0.26167-0.18600 0.21698 0.28474-0.97234 0.89124
   6   6   0 487.093 149.020   2 0.33960 0.10727 0.14705 0.35413 0.97501-0.89444
  -6  -6   0 588.490 148.266   9 0.00806-0.45503-0.45681-0.04408 0.87648-0.95694
  -6   6   0 570.404 134.617   7-0.43356-0.01355 0.06313 0.43840-0.96248 0.88132
  -6  -6   0 609.780 164.783   3-0.35687-0.09054-0.13189-0.36968-0.97400 0.89326
   7  -6   0 87.6228 78.4434   4 0.01283 0.50913-0.50826 0.00754-0.84447 0.93847
   7  -6   0 32.1095 60.9664   8 0.40070 0.12114-0.10516-0.39611 0.96762-0.87322
  -7  -6   0 -32.306 87.3238   9-0.01615-0.50534-0.50474 0.00391 0.84614-0.94001
  -7   6   0 105.318 97.1460   6-0.26909-0.25311 0.24246 0.25930-0.96547 0.87092
  -7  -6   0 17.2052 21.1509   3-0.36674-0.15527-0.14062-0.36092-0.97070 0.87648
   7   6   0 6.80120 63.9933   2 0.34894 0.17242 0.15881 0.34234 0.97137-0.87734
  -7   6   0 63.4020 89.0229   7-0.43962-0.08206 0.06436 0.43722-0.96059 0.86592
   8   6   0 1080.58 235.943   2 0.36162 0.23423 0.17490 0.32623 0.96596-0.85848
   8  -6   0 770.273 204.069   8 0.41536 0.18103-0.11128-0.39000 0.96306-0.85519
  -8   6   0 748.997 198.607   6-0.27827-0.31845 0.27472 0.22707-0.95562 0.84762
   8  -6   0 836.856 211.610   4 0.03768 0.55882-0.55980 0.05921-0.80719 0.91449
  -8  -6   0 894.193 226.366   9-0.04219-0.55382-0.55437 0.05362 0.81005-0.91732
  -8  -6   0 924.356 235.270   3-0.38050-0.21609-0.15286-0.34865-0.96573 0.85802
  -8   6   0 681.206 167.742   7-0.45235-0.14391 0.06693 0.43468-0.95645 0.84828
   9   6   0 -3.3433 9.83057   2 0.37704 0.29331 0.19463 0.30647 0.95865-0.83772
  -9   6   0 -5.4417 67.9892   6-0.28892-0.38232 0.31336 0.18846-0.94206 0.82062
   9  -6   0 -29.466 10.5309   8 0.43384 0.23710-0.11902-0.38228 0.95684-0.83550
  -9   6   0 53.5363 57.0686   7-0.46979-0.20104 0.07048 0.43118-0.95039 0.82870
   9   6   0 28.6704 66.3735   5 0.41844 0.25251 0.13950 0.36189 0.95823-0.83705
  -9  -6   0 31.0886 33.3542   3-0.39735-0.27380-0.16797-0.33353-0.95903 0.83785
  10  -6   0 204.542 80.3959   8 0.45522 0.29026-0.12802-0.37330 0.94894-0.81413
 -10   6   0 211.720 129.088   7-0.49072-0.25469 0.07473 0.42695-0.94252 0.80730
  10   6   0 222.188 121.045   2 0.39471 0.35015 0.21752 0.28356 0.94921-0.81482
   0  -7   0 26.4061 20.8263   4-0.08191 0.08178-0.29231-0.29263-0.95183 0.95191
   0   7   0 -35.530 45.4610   6-0.28316 0.28285 0.29231 0.29260-0.94969 0.94940
   0  -7   0 24.8611 2.49108   9 0.08540-0.08522-0.29229-0.29235 0.95236-0.95213
   0  -7   0 5.33984 9.61096   3-0.53110 0.53148-0.29250-0.29268-0.87793 0.87800
   0   7   0 -42.926 44.7474   2 0.45094-0.45110 0.29249 0.29246 0.91072-0.91097
   1  -7   0 30.3634 50.0388   4-0.07600 0.15048-0.30671-0.27821-0.94678 0.96033
  -1  -7   0 74.0875 50.9738   9 0.07879-0.15311-0.30705-0.27759 0.94715-0.96038
   1  -7   0 100.533 60.5553   9 0.08828-0.01360-0.28583-0.29883 0.95455-0.94087
   1   7   0 68.4124 16.1886   6-0.29459 0.36888 0.33453 0.25025-0.93379 0.94696
   1   7   0 74.9382 42.3052   2 0.41511-0.34076 0.24433 0.34057 0.93681-0.92359
  -1  -7   0 75.1519 37.9009   4-0.08434 0.00962-0.28635-0.29861-0.95385 0.94045
  -1  -7   0 58.4073 47.5182   3-0.47272 0.39845-0.23700-0.34822-0.92006 0.90671
  -1   7   0 115.882 37.3002   6-0.27471 0.19981 0.26210 0.32290-0.95963 0.94586
   2  -7   0 493.972 135.910   4-0.06703 0.21611-0.32831-0.25656-0.93869 0.96570
   2  -7   0 573.686 113.433   8 0.55400-0.40471-0.17019-0.41449 0.90171-0.87462
   2   7   0 573.941 110.148   5 0.49440-0.34522 0.18525 0.39935 0.92452-0.89789
  -2  -7   0 640.729 153.527   9 0.06894-0.21779-0.32879-0.25583 0.93894-0.96562
   2   7   0 486.905 118.179   2 0.39043-0.24158 0.21196 0.37291 0.95160-0.92492
  -2  -7   0 453.339 130.761   4-0.08274-0.06655-0.29027-0.29467-0.95253 0.92565
  -2   7   0 346.873 111.551   6-0.26920 0.11971 0.24281 0.34227-0.96537 0.93812
   2   7   0 708.010 162.599   6-0.30886 0.45774 0.38991 0.19474-0.90921 0.93583
   2  -7   0 612.037 137.422   9 0.08677 0.06240-0.28921-0.29544 0.95341-0.92628
  -2  -7   0 542.632 111.819   3-0.43372 0.28480-0.20094-0.38429-0.94217 0.91535
   3   7   0 2344.72 291.274   2 0.37488-0.15154 0.19186 0.39297 0.95972-0.91957
  -3   7   0 2649.78 309.024   6-0.26646 0.04240 0.23335 0.35179-0.96802 0.92728
   3  -7   0 3222.96 310.323   9 0.07993 0.14372-0.30453-0.28012 0.94806-0.90749
   3   7   0 2835.71 278.313   5 0.45469-0.23099 0.16119 0.42347 0.94360-0.90345
   3  -7   0 2556.17 321.613   4-0.05532 0.27901-0.35608-0.22872-0.92735 0.96781
  -3  -7   0 2911.00 349.637   9 0.05624-0.27959-0.35641-0.22818 0.92756-0.96768
  -3  -7   0 2804.81 311.274   3-0.40932 0.18578-0.17875-0.40649-0.95386 0.91356
  -3  -7   0 2621.89 277.107   4-0.07632-0.14754-0.30594-0.27896-0.94706 0.90669
   3   7   0 2852.09 297.326   6-0.32549 0.54895 0.45931 0.12517-0.87191 0.91194
   3  -7   0 3087.98 289.156   8 0.49626-0.27247-0.14541-0.43927 0.93156-0.89100
   4   7   0 3.77767 29.3041   2 0.36675-0.06891 0.18144 0.40335 0.96362-0.91001
  -4  -7   0 12.3360 27.9646   4-0.06390-0.23448-0.33579-0.24905-0.93574 0.88190
  -4   7   0 148.258 89.3033   6-0.26629-0.03234 0.23279 0.35240-0.96817 0.91396
   4  -7   0 19.8015 35.5092   8 0.46415-0.16586-0.13179-0.45291 0.94541-0.89138
   4  -7   0 -31.703 37.2594   9 0.06633 0.23176-0.33450-0.25014 0.93668-0.88267
   4   7   0 3.91098 35.2063   5 0.43244-0.13421 0.14785 0.43685 0.95288-0.89923
   4   7   0 8.55118 21.1967   6-0.34345 0.64148 0.54313 0.04116-0.81589 0.86930
  -4  -7   0 55.6775 60.7320   9 0.04097-0.33885-0.38897-0.19558 0.91272-0.96628
   4  -7   0 52.1503 36.9476   4-0.04113 0.33943-0.38908-0.19562-0.91245 0.96633
  -4  -7   0 -58.850 64.3617   3-0.39591 0.09775-0.16667-0.41856-0.95963 0.90586
   5   7   0 111.502 68.3927   5 0.42243-0.04966 0.14187 0.44288 0.95675-0.88958
  -5   7   0 214.700 104.129   6-0.26847-0.10473 0.24028 0.34496-0.96609 0.89840
   5  -7   0 -23.257 61.0418   4-0.02467 0.39754-0.42650-0.15809-0.89360 0.96089
   5   7   0 126.971 68.4914   2 0.36464 0.00769 0.17875 0.40601 0.96459-0.89752
  -5  -7   0 75.1923 44.5394   3-0.39090 0.01813-0.16217-0.42304-0.96168 0.89442
   5  -7   0 124.615 87.2563   8 0.44867-0.07587-0.12526-0.45946 0.95144-0.88395
  -5  -7   0 248.980 126.134   9 0.02336-0.39578-0.42564-0.15886 0.89405-0.96105
   6   7   0 36.3792 20.8010   2 0.36745 0.07939 0.18233 0.40240 0.96329-0.88277
   6  -7   0 231.752 129.427   4-0.00609 0.45355-0.46760-0.11686-0.87034 0.95100
  -6   7   0 231.561 107.001   6-0.27273-0.17501 0.25512 0.33017-0.96176 0.88060
  -6  -7   0 134.118 85.9070   9 0.00364-0.45058-0.46570-0.11875 0.87117-0.95159
   6   7   0 186.009 97.3115   5 0.42127 0.02604 0.14118 0.44361 0.95718-0.87652
  -6  -7   0 162.001 137.048   3-0.39237-0.05501-0.16349-0.42171-0.96108 0.88034
   6  -7   0 49.4260 40.3614   8 0.44452 0.00281-0.12351-0.46124 0.95298-0.87203
   7   7   0 -62.618 64.3544   5 0.42668 0.09515 0.14441 0.44041 0.95513-0.86097
   7   7   0 93.8172 84.9021   2 0.37429 0.14704 0.19109 0.39361 0.96001-0.86603
  -7   7   0 34.0531 88.3308   6-0.27883-0.24344 0.27673 0.30858-0.95496 0.86034
  -7  -7   0 -126.90 94.0661   3-0.39893-0.12304-0.16939-0.41578-0.95837 0.86415
   7  -7   0 -91.732 74.6654   8 0.44841 0.07345-0.12515-0.45962 0.95153-0.85712
  -7  -7   0 77.8960 76.8683   9-0.01806-0.50341-0.50845-0.07594 0.84362-0.93745
   7  -7   0 -121.35 95.8109   4 0.01445 0.50756-0.51169-0.07263-0.84215 0.93616
  -7   7   0 -11.475 25.8457   7-0.50200-0.01959 0.07703 0.50809-0.93799 0.84323
   8   7   0 251.566 130.433   2 0.38447 0.21137 0.20421 0.38047 0.95482-0.84739
   8   7   0 308.134 134.506   5 0.43712 0.15926 0.15064 0.43422 0.95101-0.84335
  -8   7   0 64.3468 32.8110   7-0.50790-0.08826 0.07824 0.50694-0.93554 0.82727
  -8  -7   0 180.355 115.578   3-0.40956-0.18700-0.17898-0.40616-0.95375 0.84604
  -8  -7   0 161.439 118.051   9-0.04161-0.55440-0.55328-0.03104 0.81090-0.91813
   8  -7   0 205.331 108.043   8 0.45821 0.13819-0.12928-0.45552 0.94777-0.83989
   8  -7   0 140.364 106.692   4 0.03686 0.55969-0.55815-0.02605-0.80847 0.91579
  -8   7   0 100.386 97.8959   6-0.28654-0.31026 0.30463 0.28071-0.94530 0.83722
  -9  -7   0 73.1443 85.0231   9-0.06689-0.60364-0.59961 0.01537 0.77244-0.89306
  -9   7   0 6.90723 49.6862   6-0.29564-0.37567 0.33848 0.24689-0.93218 0.81065
   9   7   0 41.1579 54.0650   5 0.45145 0.21948 0.15924 0.42565 0.94501-0.82385
  -9   7   0 -40.367 52.6691   7-0.51972-0.15102 0.08066 0.50456-0.93047 0.80868
   9  -7   0 5.09872 60.7850   8 0.47245 0.19848-0.13530-0.44952 0.94200-0.82065
   9   7   0 56.8071 88.4333   2 0.39741 0.27292 0.22105 0.36361 0.94766-0.82677
   0   8   0 5125.29 464.260   6-0.29446 0.29412 0.33406 0.33441-0.93398 0.93362
   0  -8   0 4731.57 427.623   9 0.06655-0.06633-0.33405-0.33412 0.93686-0.93660
   0   8   0 5034.49 398.715   2 0.48110-0.48128 0.33428 0.33424 0.88384-0.88414
   0  -8   0 4430.47 421.787   4-0.06463 0.06446-0.33404-0.33446-0.93644 0.93648
   1  -8   0 -8.7673 47.3678   4-0.06007 0.13452-0.34486-0.32362-0.93206 0.94558
  -1  -8   0 -75.874 68.0909   4-0.06596-0.00880-0.33087-0.33763-0.93769 0.92426
  -1   8   0 -46.066 39.6765   6-0.28699 0.21205 0.30627 0.36229-0.94470 0.93086
  -1   8   0 42.5471 22.6933   2 0.52453-0.59922 0.39692 0.27164 0.83536-0.84912
   1  -8   0 27.1875 45.5941   9 0.06810 0.00661-0.33063-0.33753 0.93822-0.92451
  -1  -8   0 -21.520 28.5761   9 0.06151-0.13579-0.34502-0.32313 0.93239-0.94557
   1   8   0 3.77004 49.0295   6-0.30436 0.37862 0.37209 0.29626-0.91759 0.93070
  -1  -8   0 55.2223 45.5644   3-0.51874 0.44455-0.28059-0.38824-0.88786 0.87447
   1   8   0 25.4598 26.5782   2 0.44799-0.37366 0.28848 0.38000 0.91309-0.89992
  -2  -8   0 -82.364 41.7188   3-0.48002 0.33118-0.24384-0.42501-0.91542 0.88859
   2  -8   0 7.39426 36.7503   9 0.06562 0.08358-0.33607-0.33208 0.93605-0.90889
   2  -8   0 50.0580 47.3005   4-0.05266 0.20171-0.36233-0.30612-0.92465 0.95163
  -2  -8   0 -91.801 58.6789   9 0.05341-0.20221-0.36250-0.30564 0.92490-0.95153
  -2   8   0 -1.4661 23.7482   6-0.28195 0.13241 0.28792 0.38072-0.95121 0.92389
  -2  -8   0 40.5237 60.9465   4-0.06358-0.08576-0.33653-0.33193-0.93544 0.90853
   2   8   0 8.73089 3.65468   2 0.42411-0.27529 0.25629 0.41214 0.93080-0.90415
   2   8   0 -25.350 56.4274   6-0.31652 0.46538 0.42115 0.24705-0.89335 0.91990
   3  -8   0 295.233 107.947   4-0.04265 0.26632-0.38558-0.28280-0.91411 0.95453
  -3  -8   0 198.360 85.0427   4-0.05685-0.16705-0.35248-0.31594-0.92888 0.88848
   3   8   0 136.633 58.8663   5 0.51633-0.29264 0.19868 0.46945 0.91250-0.87242
  -3  -8   0 267.772 101.156   9 0.04258-0.26590-0.38556-0.28255 0.91434-0.95442
   3  -8   0 259.706 94.0103   9 0.05829 0.16538-0.35199-0.31615 0.92946-0.88886
   3   8   0 354.940 129.037   2 0.40812-0.18480 0.23510 0.43329 0.94125-0.90114
  -3   8   0 299.504 117.107   6-0.27924 0.05513 0.27821 0.39048-0.95447 0.91367
   3   8   0 335.730 121.233   6-0.33056 0.55401 0.48186 0.18618-0.85809 0.89806
  -3  -8   0 145.421 59.8702   3-0.45415 0.23067-0.21975-0.44911-0.93113 0.89083
   4  -8   0 288.559 124.331   4-0.03028 0.32855-0.41385-0.25445-0.90021 0.95407
   4   8   0 405.361 117.227   5 0.48942-0.19120 0.18222 0.48597 0.92709-0.87350
   4   8   0 179.236 104.200   2 0.39877-0.10095 0.22283 0.44553 0.94687-0.89331
  -4   8   0 218.413 103.719   6-0.27875-0.01994 0.27646 0.39230-0.95505 0.90077
  -4  -8   0 296.758 134.725   9 0.02928-0.32714-0.41341-0.25467 0.90051-0.95403
  -4  -8   0 151.249 73.0586   3-0.43839 0.14027-0.20523-0.46362-0.93975 0.88597
   5  -8   0 9.32413 37.6148   4-0.01572 0.38859-0.44644-0.22176-0.88266 0.94992
  -5   8   0 81.9432 83.7502   6-0.28029-0.09296 0.28197 0.38682-0.95322 0.88546
   5  -8   0 -13.826 22.9430   8 0.51249-0.13966-0.15234-0.51589 0.92384-0.85633
  -5  -8   0 319.727 166.881   9 0.01374-0.38612-0.44534-0.22271 0.88314-0.95009
  -5  -8   0 38.3691 29.6208   3-0.43060 0.05787-0.19810-0.47073-0.94374 0.87649
   5   8   0 11.7577 38.4620   5 0.47469-0.10193 0.17327 0.49496 0.93440-0.86730
   5   8   0 148.993 101.620   2 0.39496-0.02264 0.21785 0.45048 0.94907-0.88204
   6   8   0 1105.69 233.120   5 0.46904-0.02174 0.16985 0.49843 0.93709-0.85647
  -6  -8   0 1370.31 304.918   9-0.00391-0.44300-0.48070-0.18729 0.86188-0.94226
  -6   8   0 1068.98 252.813   6-0.28369-0.16412 0.29422 0.37461-0.94902 0.86779
   6  -8   0 1231.39 245.272   8 0.50207-0.05471-0.14789-0.52037 0.92885-0.84788
  -6  -8   0 1510.78 292.790   3-0.42915-0.01819-0.19677-0.47204-0.94447 0.86373
   6  -8   0 1196.47 269.376   4 0.00088 0.44659-0.48272-0.18536-0.86106 0.94170
   6   8   0 876.983 206.100   2 0.39579 0.05103 0.21893 0.44937 0.94860-0.86811
  -7  -8   0 41.3391 40.5545   9-0.02349-0.49795-0.51892-0.14903 0.83634-0.93013
  -7   8   0 82.8781 71.3728   6-0.28875-0.23360 0.31272 0.35614-0.94230 0.84760
  -7  -8   0 -134.38 110.357   3-0.43280-0.08914-0.20011-0.46867-0.94263 0.84841
   7   8   0 -52.933 72.7751   5 0.47028 0.05155 0.17060 0.49772 0.93650-0.84238
   7  -8   0 20.5000 26.3201   8 0.50046 0.02141-0.14720-0.52108 0.92961-0.83518
   7  -8   0 -25.038 37.3671   4 0.01940 0.50264-0.52210-0.14585-0.83498 0.92897
   7   8   0 -132.80 112.425   2 0.40050 0.12081 0.22509 0.44318 0.94586-0.85191
  -8   8   0 -2.6191 55.7186   6-0.29527-0.30160 0.33710 0.33179-0.93275 0.82459
  -8  -8   0 -16.210 26.8577   9-0.04490-0.55107-0.55943-0.10845 0.80608-0.91327
   8  -8   0 153.394 112.230   8 0.50542 0.09098-0.14932-0.51898 0.92726-0.81937
   8   8   0 61.3793 67.9462   5 0.47690 0.11947 0.17460 0.49375 0.93334-0.82571
   8  -8   0 134.313 91.5777   4 0.03977 0.55685-0.56403-0.10380-0.80389 0.91121
   0   9   0 -50.847 34.1476   6-0.30530 0.30493 0.37581 0.37622-0.91588 0.91545
   0  -9   0 55.8617 76.9904   9 0.04719-0.04693-0.37579-0.37587 0.91892-0.91861
   0  -9   0 11.3989 15.1680   4-0.04689 0.04667-0.37577-0.37629-0.91865 0.91865
  -1  -9   0 33.9916 40.7279   4-0.04731-0.02750-0.37480-0.37724-0.91909 0.90561
   1   9   0 56.5877 64.1373   2 0.47962-0.40532 0.33221 0.41983 0.88527-0.87214
  -1   9   0 135.133 103.235   6-0.29865 0.22367 0.34996 0.40217-0.92738 0.91347
  -1  -9   0 70.3760 77.2426   9 0.04343-0.11769-0.38375-0.36791 0.91520-0.92834
   1  -9   0 2.25073 43.7388   9 0.04766 0.02709-0.37478-0.37688 0.91938-0.90563
   1  -9   0 99.8134 83.3092   4-0.04345 0.11784-0.38374-0.36831-0.91497 0.92845
   1   9   0 88.5205 59.0974   6-0.31396 0.38819 0.41056 0.34135-0.89889 0.91192
  -2  -9   0 120.211 89.7201   4-0.04428-0.10511-0.38181-0.37018-0.91587 0.88891
  -2   9   0 0.62852 24.3250   6-0.29403 0.14445 0.33242 0.41979-0.93464 0.90726
   2   9   0 84.5734 68.4863   6-0.32445 0.47328 0.45478 0.29700-0.87457 0.90105
   2  -9   0 113.312 82.0208   4-0.03731 0.18632-0.39786-0.35415-0.90822 0.93515
   2   9   0 145.186 105.171   2 0.45664-0.30783 0.30030 0.45170 0.90601-0.87942
  -2  -9   0 223.835 110.495   9 0.03678-0.18554-0.39779-0.35388 0.90842-0.93501
   3  -9   0 319.089 129.701   4-0.02870 0.25233-0.41742-0.33454-0.89837 0.93875
  -3  -9   0 591.632 166.805   4-0.03725-0.18670-0.39799-0.35395-0.90815 0.86770
   3   9   0 392.700 139.256   2 0.44049-0.21718 0.27828 0.47368 0.91894-0.87888
   3  -9   0 662.556 162.881   9 0.03657 0.18713-0.39821-0.35344 0.90821-0.86758
   3   9   0 623.383 169.670   6-0.33642 0.55985 0.50891 0.24271-0.84033 0.88023
  -3  -9   0 532.132 159.886   3-0.49834 0.27491-0.26111-0.49136-0.90302 0.86270
  -3  -9   0 445.684 183.344   9 0.02751-0.25080-0.41710-0.33454 0.89859-0.93863
  -3   9   0 429.045 156.286   6-0.29141 0.06724 0.32257 0.42969-0.93853 0.89766
   4   9   0 103.688 95.4650   2 0.43026-0.13245 0.26451 0.48741 0.92649-0.87297
   4  -9   0 162.586 112.913   4-0.01783 0.31608-0.44176-0.31013-0.88528 0.93910
  -4   9   0 191.435 74.3801   6-0.29069-0.00806 0.31989 0.43242-0.93957 0.88521
  -4  -9   0 86.7178 76.3283   9 0.01587-0.31368-0.44100-0.31061 0.88560-0.93906
  -4  -9   0 34.0099 49.8801   3-0.48077 0.18271-0.24454-0.50794-0.91494 0.86114
  -5  -9   0 164.923 129.576   9 0.00203-0.37438-0.46890-0.28268 0.86922-0.93612
  -5   9   0 69.7832 59.4945   6-0.29175-0.08156 0.32386 0.42850-0.93803 0.87020
  -5  -9   0 67.8761 8.63281   3-0.47071 0.09803-0.23512-0.51733-0.92131 0.85404
   5   9   0 135.663 100.775   2 0.42511-0.05280 0.25762 0.49426 0.93011-0.86313
   5  -9   0 80.5854 118.252   4-0.00487 0.37772-0.47028-0.28152-0.86872 0.93594
  -6  -9   0 217.974 140.238   9-0.01384-0.43304-0.50023-0.25131 0.84918-0.92950
   6   9   0 -60.020 70.1007   2 0.42431 0.02249 0.25655 0.49530 0.93066-0.85022
   6  -9   0 75.6915 51.6467   4 0.01008 0.43739-0.50244-0.24927-0.84836 0.92896
  -6  -9   0 117.829 95.0189   3-0.46677 0.01947-0.23145-0.52099-0.92373 0.84297
  -6   9   0 100.321 99.4261   6-0.29446-0.15341 0.33403 0.41837-0.93399 0.85269
   6   9   0 47.7109 20.6121   5 0.51882-0.07153 0.20021 0.55155 0.91106-0.83050
   7   9   0 42.1380 52.5083   5 0.51623 0.00560 0.19862 0.55318 0.91255-0.81848
   0 -10   0 324.880 136.852   4-0.02867 0.02841-0.41749-0.41811-0.89833 0.89827
   0 -10   0 367.684 153.218   9 0.02729-0.02701-0.41753-0.41764 0.89836-0.89802
   0  10   0 358.693 169.534   6-0.31566 0.31524 0.41756 0.41804-0.89525 0.89473
   1 -10   0 -13.492 59.3861   4-0.02618 0.10052-0.42311-0.41249-0.89540 0.90880
  -1 -10   0 -69.767 46.6815   4-0.02830-0.04656-0.41831-0.41726-0.89791 0.88436
   1  10   0 -92.505 81.3715   6-0.32326 0.39746 0.44966 0.38582-0.87755 0.89049
  -1 -10   0 -16.825 107.409   9 0.02463-0.09885-0.42302-0.41215 0.89546-0.90855
  -1  10   0 1.47523 35.3396   6-0.30970 0.23469 0.39331 0.44237-0.90755 0.89356
   1 -10   0 -80.866 63.7854   9 0.02683 0.04794-0.41848-0.41668 0.89786-0.88408
   2  10   0 25.2489 37.2958   2 0.48803-0.33924 0.34405 0.49151 0.87695-0.85040
   2 -10   0 35.1350 53.1629   9 0.02280 0.12646-0.42680-0.40835 0.89343-0.86620
   2  10   0 113.233 131.076   6-0.33235 0.48116 0.49004 0.34532-0.85286 0.87925
   2 -10   0 131.403 94.2934   4-0.02111 0.17007-0.43448-0.40110-0.88930 0.91617
  -2 -10   0 -118.30 79.1901   9 0.01920-0.16793-0.43419-0.40098 0.88940-0.91594
  -2  10   0 25.3465 75.3875   6-0.30547 0.15586 0.37647 0.45930-0.91558 0.88811
  -2 -10   0 90.0880 102.674   4-0.02471-0.12475-0.42642-0.40910-0.89364 0.86661
  -3  10   0 29.3215 39.4713   6-0.30295 0.07873 0.36658 0.46925-0.92010 0.87914
  -3 -10   0 -10.095 20.1185   9 0.01126-0.23452-0.45035-0.38480 0.88026-0.92024
   3  10   0 20.8403 58.2948   2 0.47193-0.24864 0.32143 0.51409 0.89255-0.85253
   3 -10   0 -88.338 24.9101   4-0.01369 0.23728-0.45096-0.38460-0.88009 0.92041
  -4  10   0 14.5116 84.9109   6-0.30208 0.00328 0.36319 0.47269-0.92161 0.86717
   4  10   0 105.136 100.566   2 0.46110-0.16332 0.30644 0.52904 0.90220-0.84873
   4 -10   0 -43.915 84.2446   4-0.00409 0.30231-0.47197-0.36352-0.86770 0.92144
  -4 -10   0 73.3615 79.4539   9 0.00102-0.29879-0.47091-0.36422 0.86798-0.92140
  -5 -10   0 -20.473 82.1635   3-0.51090 0.13826-0.27306-0.56301-0.89387 0.82657
   0 -11   0 13.1641 72.0842   9 0.00684-0.00651-0.45927-0.45940 0.87502-0.87463
   0 -11   0 -20.039 48.5941   4-0.00993 0.00961-0.45920-0.45993-0.87532 0.87516
   0  11   0 -47.539 93.6519   6-0.32549 0.32504 0.45931 0.45986-0.87191 0.87129
   1 -11   0 497.647 207.827   9 0.00554 0.06927-0.46187-0.45679 0.87347-0.85964
   1  11   0 629.258 214.225   6-0.33218 0.40634 0.48921 0.42984-0.85340 0.86624
  -1 -11   0 411.378 183.098   4-0.00887-0.06606-0.46154-0.45757-0.87394 0.86031
  12   0  -1 192.517 121.987   8 0.53556 0.34116-0.16223 0.16214 0.91198-0.84906
  12   0  -1 55.6169 24.8384   5 0.53417 0.34238 0.20969-0.20956 0.90188-0.83893
 -12   0   1 283.394 163.755   7-0.53623-0.34017 0.08404-0.08415-0.92298 0.85973
 -11   0   1 28.6438 78.1874   7-0.51013-0.29170 0.07869-0.07881-0.93460 0.88488
  11   0  -1 -51.606 69.9234   8 0.50954 0.29262-0.15108 0.15099 0.92528-0.87585
  11   0  -1 -11.756 33.0560   5 0.50830 0.29370 0.19374-0.19361 0.91703-0.86758
  10   0  -1 -9.4661 34.8891   5 0.48436 0.24307 0.17913-0.17900 0.92966-0.89371
 -10   0   1 -59.390 13.9654   7-0.48603-0.24126 0.07377-0.07388-0.94434 0.90814
 -10   0   1 105.183 67.2858   3-0.48234-0.24551-0.24601 0.24612-0.91392 0.87780
  10   0  -1 188.991 102.335   8 0.48549 0.24211-0.14083 0.14074 0.93641-0.90047
   9   0  -1 38.6248 28.4805   8 0.46407 0.18898-0.13175 0.13167 0.94544-0.92298
   9   0  -1 4.21449 31.9122   5 0.46302 0.18985 0.16621-0.16607 0.93987-0.91740
  -9   0   1 60.7365 43.5194   3-0.46113-0.19216-0.22621 0.22632-0.92709 0.90443
  -9   0   1 -22.022 62.4819   7-0.46458-0.18816 0.06941-0.06951-0.95225 0.92957
   9   0  -1 14.6483 54.1678   2 0.45763 0.19518 0.30167-0.30183 0.90517-0.88248
   8   0  -1 -7.3761 40.3752   8 0.44625 0.13223-0.12424 0.12416 0.95234-0.94337
   8   0  -1 47.4504 33.6349   2 0.44020 0.13811 0.27790-0.27804 0.91916-0.90993
  -8   0   1 -11.487 61.6231   7-0.44675-0.13143 0.06580-0.06590-0.95830 0.94912
   8   0  -1 11.3482 26.6638   5 0.44525 0.13306 0.15552-0.15539 0.94765-0.93866
  -8   0   1 45.8148 57.0546   3-0.44342-0.13533-0.20985 0.20995-0.93707 0.92786
   7   0  -1 -5.5948 27.8746   5 0.43257 0.07119 0.14792-0.14778 0.95283-0.95732
   7   0  -1 -81.582 64.3874   8 0.43356 0.07038-0.11891 0.11883 0.95694-0.96143
   7   0  -1 -16.906 11.4265   2 0.42753 0.07626 0.26087-0.26098 0.92841-0.93264
  -7   0   1 -12.704 5.97116   3-0.43066-0.07353-0.19815 0.19826-0.94372 0.94797
  -7   0   1 -15.615 35.0535   7-0.43408-0.06954 0.06324-0.06334-0.96232 0.96663
   6   0  -1 817.470 116.093   2 0.42190 0.00740 0.25334-0.25342 0.93231-0.95000
   6   0  -1 747.334 128.943   8 0.42843 0.00094-0.11676 0.11669 0.95872-0.97669
   6   0  -1 712.795 122.624   5 0.42736 0.00183 0.14482-0.14469 0.95486-0.97282
  -6   0   1 776.613 82.8301   9-0.03631-0.39304-0.54333 0.54366 0.81852-0.80067
   6   0  -1 557.918 66.7725   4 0.03908 0.39030-0.56264 0.56289-0.80498 0.78682
  -6   0   1 796.950 141.265   7-0.42905-0.00001 0.06222-0.06232-0.96385 0.98165
   5   0  -1 6.62425 19.3668   5 0.43379-0.07914 0.14865-0.14854 0.95235-0.98376
   5   0  -1 -6.7444 10.2549   4-0.06677 0.42182-0.32893 0.32906-0.93845 0.90701
  -5   0   1 2.20579 4.23385   9 0.06593-0.42085-0.33538 0.33558 0.93633-0.90511
   5   0  -1 4.94446 7.76045   6-0.06693 0.42205-0.33078 0.33069-0.93783 0.90631
  -5   0   1 -14.598 14.2315   3-0.43102 0.07594-0.19848 0.19858-0.94353 0.97471
   5   0  -1 29.5321 34.4010   8 0.43509-0.08026-0.11955 0.11948 0.95640-0.98784
   5   0  -1 7.55317 16.8913   2 0.42695-0.07216 0.26007-0.26014 0.92883-0.95998
  -5   0   1 9.33244 11.6399   7-0.43595 0.08144 0.06362-0.06372-0.96174 0.99301
  -4   0   1 5674.54 180.149   9 0.18222-0.46269-0.05968 0.05974 0.99824-0.95357
   4   0  -1 5414.39 280.477   8 0.46121-0.18094-0.13055 0.13049 0.94658-0.99150
   4   0  -1 6283.17 191.441   6-0.18371 0.46414-0.02544 0.02535-0.99966 0.95467
   4   0  -1 5652.58 280.831   5 0.45930-0.17921 0.16397-0.16387 0.94155-0.98642
   4   0  -1 5903.19 256.596   2 0.44887-0.16859 0.28967-0.28971 0.91239-0.95700
   4   0  -1 5810.65 181.131   4-0.18302 0.46376-0.02449 0.02444-0.99969 0.95483
  -4   0   1 5817.29 280.398   3-0.45507 0.17455-0.22059 0.22068-0.93061 0.97527
  -4   0   1 5816.85 302.994   7-0.46271 0.18274 0.06904-0.06914-0.95291 0.99763
   3   0  -1 0.41517 5.70963   4-0.29504 0.50133 0.33991-0.34009-0.93173 0.87328
  -3   0   1 13.8545 21.4547   7-0.52508 0.31964 0.08176-0.08186-0.92809 0.98625
  -3   0   1 -8.1343 6.56868   9 0.30215-0.50812 0.28632-0.28636 0.94875-0.89057
   3   0  -1 -4.8088 6.58127   6-0.29599 0.50177 0.33983-0.33989-0.93163 0.87318
   3   0  -1 7.95234 13.6111   8 0.52183-0.31611-0.15634 0.15629 0.91916-0.97754
   3   0  -1 6.12410 8.15732   2 0.49751-0.29175 0.35757-0.35758 0.86703-0.92510
  -3   0   1 -0.1024 6.83727   3-0.50985 0.30389-0.27206 0.27214-0.89465 0.95278
   3   0  -1 12.2698 16.5602   5 0.51814-0.31259 0.19980-0.19971 0.91145-0.96977
   2   0  -1 4392.81 224.289   8 0.64539-0.51420-0.21027 0.21023 0.83900-0.91084
  -2   0   1 4118.95 203.756   3-0.61381 0.48243-0.37524 0.37532-0.79381 0.86539
   2   0  -1 4517.02 212.429   5 0.63552-0.50449 0.27388-0.27381 0.82464-0.89638
  -2   0   1 2946.62 176.522   7-0.65457 0.52361 0.10867-0.10877-0.85417 0.92574
  -2   0   1 4082.25 182.997   2 0.48924-0.62049 0.34578-0.34578 0.87571-0.80417
   5   0   1 4.77602 19.8166   8-0.04053 0.43121 0.07161-0.07162 0.97286-0.80669
  -5   0  -1 -6.8825 24.4055   7 0.04078-0.43180-0.02958 0.02974-0.97492 0.80863
   6   0   1 69.0742 42.7811   8 0.03414 0.43108 0.04261-0.04263 0.98823-0.80858
  -6   0  -1 56.5151 6.49990   7-0.03421-0.43137-0.01528 0.01545-0.98903 0.80926
   7   0   1 27.7288 42.8831   8 0.09947 0.44030 0.01694-0.01697 0.99649-0.80336
  -7   0  -1 -70.513 64.4132   7-0.09964-0.44048-0.00271 0.00287-0.99665 0.80340
  -8   0  -1 132.164 66.3966   7-0.15877-0.45589 0.00874-0.00858-0.99972 0.79298
   8   0   1 140.048 75.9417   8 0.15862 0.45570-0.00653 0.00650 0.99973-0.79313
   9   0   1 188.876 125.723   8 0.21348 0.47539-0.02852 0.02848 0.99904-0.77895
  -9   0  -1 224.979 108.492   7-0.21371-0.47554 0.01946-0.01930-0.99925 0.77909
  12   1  -1 392.047 169.888   8 0.55420 0.32252-0.17027 0.25375 0.90160-0.83867
  12  -1  -1 284.318 144.200   8 0.52533 0.35139-0.15784 0.07418 0.91737-0.85445
  12   1  -1 280.439 130.241   5 0.52025 0.35633 0.20109-0.11737 0.91023-0.84731
 -12  -1   1 358.191 168.203   7-0.54759-0.32874 0.08638-0.17008-0.91756 0.85432
 -12   1   1 738.979 249.454   7-0.53254-0.34390 0.08328 0.00020-0.92470 0.86142
  11  -1  -1 142.306 100.834   8 0.49944 0.30273-0.14677 0.06311 0.93009-0.88065
 -11  -1   1 177.917 95.0689   7-0.52204-0.27975 0.08113-0.16482-0.92944 0.87974
 -11  -1   1 129.581 94.2596   3-0.48650-0.31591-0.24992 0.16649-0.91117 0.86159
  11   1  -1 130.185 57.5657   8 0.52885 0.27332-0.15935 0.24283 0.91554-0.86611
  11  -1  -1 123.613 71.6254   5 0.53207 0.26987 0.20839-0.29185 0.90317-0.85369
  11   1  -1 189.200 120.519   5 0.49459 0.30744 0.18537-0.10164 0.92442-0.87499
 -11   1   1 63.7222 66.3916   7-0.50663-0.29526 0.07798 0.00551-0.93608 0.88633
  10  -1  -1 15.8647 26.8723   5 0.50903 0.21835 0.19420-0.27765 0.91662-0.88064
  10   1  -1 -44.644 83.2282   8 0.50568 0.22193-0.14943 0.23291 0.92714-0.89121
  10  -1  -1 73.5749 78.2115   8 0.47545 0.25215-0.13657 0.05292 0.94074-0.90479
 -10  -1   1 53.4575 75.8493   3-0.46305-0.26482-0.22798 0.14456-0.92596 0.88984
  10   1  -1 124.583 102.137   5 0.47080 0.25667 0.17090-0.08719 0.93626-0.90033
 -10   1   1 16.0683 51.6010   7-0.48269-0.24463 0.07309 0.01040-0.94562 0.90940
 -10  -1   1 -3.7167 45.0429   7-0.49861-0.22863 0.07634-0.16002-0.93937 0.90319
  -9  -1   1 113.275 73.4542   3-0.44194-0.21137-0.20849 0.12505-0.93787 0.91521
   9   1  -1 1.85483 37.7852   2 0.43240 0.22038 0.26738-0.18398 0.92495-0.90229
   9   1  -1 -79.038 69.2998   5 0.44946 0.20344 0.15804-0.07433 0.94587-0.92342
  -9   1   1 32.9948 48.5539   3-0.49528-0.15800-0.25821 0.34185-0.90517 0.88251
   9  -1  -1 16.2089 18.5676   8 0.45399 0.19906-0.12750 0.04386 0.94941-0.92694
   9   1  -1 -4.5759 39.3427   8 0.48546 0.16758-0.14082 0.22431 0.93642-0.91398
   9  -1  -1 -41.340 13.1360   5 0.48898 0.16383 0.18195-0.26539 0.92732-0.90482
  -9   1   1 38.5970 62.1107   7-0.46137-0.19140 0.06876 0.01472-0.95337 0.93067
  -9  -1   1 21.0761 9.83945   7-0.47804-0.17465 0.07215-0.15583-0.94737 0.92470
  -8   1   1 1562.76 235.886   7-0.44363-0.13457 0.06517 0.01831-0.95931 0.95011
   8  -1  -1 1505.18 199.436   5 0.47313 0.10513 0.17232-0.25576 0.93515-0.92614
  -8   1   1 1493.83 192.079   3-0.47987-0.09888-0.24369 0.32732-0.91552 0.90631
   8   1  -1 1541.55 210.994   2 0.41479 0.16348 0.24391-0.16048 0.93702-0.92781
  -8  -1   1 1490.64 222.905   3-0.42399-0.15477-0.19206 0.10863-0.94701 0.93781
   8  -1  -1 1350.29 214.957   8 0.43594 0.14256-0.11991 0.03626 0.95609-0.94710
   8   1  -1 1211.66 205.834   8 0.46936 0.10913-0.13399 0.21748 0.94329-0.93432
   8   1  -1 1572.51 224.959   5 0.43144 0.14690 0.14725-0.06355 0.95328-0.94431
   7  -1  -1 45.6955 46.0400   5 0.46337 0.04033 0.16642-0.24986 0.93971-0.94417
  -7   1   1 164.166 60.4766   6-0.33664-0.16713 0.50992-0.42613-0.83965 0.84436
   7  -1  -1 106.790 42.5563   2 0.47932 0.02451 0.33179-0.41547 0.88556-0.88977
  -7  -1   1 56.9120 46.6398   9-0.01823-0.48566-0.50877 0.42562 0.84339-0.83894
   7  -1  -1 87.4032 37.6080   8 0.42266 0.08128-0.11434 0.03070 0.96067-0.96515
   7   1  -1 61.5415 36.6248   8 0.45919 0.04474-0.12969 0.21318 0.94739-0.95190
   7   1  -1 64.2373 34.7292   5 0.41804 0.08574 0.13926-0.05558 0.95838-0.96289
  -7  -1   1 92.8076 65.9257   3-0.41039-0.09381-0.17972 0.09627-0.95337 0.95764
   7  -1  -1 124.852 45.0927   4 0.01765 0.48636-0.51843 0.43527-0.83753 0.83280
   7   1  -1 92.8645 54.3453   2 0.40121 0.10255 0.22602-0.14257 0.94544-0.94969
  -7   1   1 56.0860 49.4609   7-0.43092-0.07272 0.06260 0.02087-0.96329 0.96758
  -7  -1   1 36.9993 21.5251   7-0.45043-0.05315 0.06655-0.15021-0.95709 0.96141
   6  -1  -1 1591.05 143.889   2 0.48156-0.05223 0.33493-0.41859 0.88339-0.90105
   6   1  -1 1422.28 167.038   2 0.39327 0.03598 0.21565-0.13217 0.95002-0.96773
  -6   1   1 1607.67 149.935   6-0.32799-0.10129 0.47035-0.38662-0.86525 0.88337
   6   1  -1 1321.27 164.156   8 0.45795-0.02859-0.12917 0.21267 0.94787-0.96586
   6  -1  -1 1369.66 156.563   5 0.46285-0.03371 0.16611-0.24955 0.93995-0.95786
  -6  -1   1 1255.23 133.117   9 0.04806-0.47749-0.37393 0.29065 0.91977-0.90194
   6   1  -1 1527.95 188.000   5 0.41126 0.01796 0.13523-0.05156 0.96084-0.97882
   6  -1  -1 1454.31 139.746   4-0.04810 0.47772-0.37297 0.28966-0.91992 0.90190
   6  -1  -1 1418.82 185.560   8 0.41629 0.01310-0.11167 0.02804 0.96276-0.98071
  -6   1   1 1433.81 152.229   3-0.47147 0.04181-0.23582 0.31946-0.92085 0.93855
  -6   1   1 1364.96 190.209   7-0.42558-0.00350 0.06153 0.02195-0.96489 0.98266
  -6  -1   1 1402.75 179.574   7-0.44789 0.01885 0.06603-0.14969-0.95793 0.97574
  -5  -1   1 177.734 44.6765   9 0.11610-0.47105-0.22198 0.13859 0.97323-0.94199
   5  -1  -1 199.134 44.9468   4-0.11440 0.46963-0.21083 0.12736-0.97543 0.94404
  -5   1   1 238.882 56.0276   6-0.32317-0.03160 0.44928-0.36561-0.87777 0.90931
   5  -1  -1 235.049 58.4915   5 0.47720-0.12261 0.17478-0.25822 0.93319-0.96457
   5  -1  -1 250.560 51.4929   2 0.50031-0.14549 0.36159-0.44522 0.86398-0.89511
  -5  -1   1 208.517 56.3765   7-0.45865 0.10416 0.06821-0.15186-0.95431 0.98559
  -5  -1   1 171.978 61.1589   3-0.40455 0.04948-0.17445 0.09099-0.95596 0.98717
   5  -1  -1 137.375 51.2079   8 0.42038-0.06554-0.11338 0.02976 0.96143-0.99284
   5   1  -1 266.376 63.2684   8 0.47097-0.11616-0.13467 0.21818 0.94262-0.97409
  -5   1   1 197.509 50.1933   3-0.48793 0.13283-0.25128 0.33490-0.91020 0.94138
   5   1  -1 252.105 64.8594   5 0.41441-0.05973 0.13710-0.05345 0.95971-0.99115
  -5   1   1 177.597 67.0197   7-0.43159 0.07707 0.06274 0.02071-0.96308 0.99432
   5   1  -1 234.085 62.2539   2 0.39345-0.03870 0.21588-0.13238 0.94992-0.98109
   4  -1  -1 10938.9 318.728   2 0.54584-0.26553 0.42899-0.51261 0.80627-0.85086
   4  -1  -1 9008.84 311.598   4-0.18029 0.46106-0.03233-0.05133-0.99947 0.95463
   4   1  -1 8735.43 357.354   2 0.40562-0.12537 0.23180-0.14827 0.94279-0.98742
  -4   1   1 9342.10 318.547   6-0.32362 0.04335 0.45120-0.36760-0.87666 0.92163
  -4  -1   1 9045.32 306.935   9 0.18522-0.46566-0.05193-0.03157 0.99866-0.95396
  -4   1   1 9562.07 324.130   3-0.53136 0.25082-0.29274 0.37636-0.87772 0.92237
   4  -1  -1 8568.62 318.985   5 0.51697-0.23694 0.19908-0.28252 0.91213-0.95694
  -4   1   1 8804.44 256.243   1 0.18363-0.46379 0.04212 0.04157 0.99909-0.95422
  -4  -1   1 8770.56 376.584   3-0.42000 0.13950-0.18844 0.10497-0.94893 0.99361
   4   1  -1 8889.21 377.020   5 0.43316-0.15303 0.14828-0.06464 0.95259-0.99750
   4  -1  -1 9126.26 387.649   8 0.44124-0.16095-0.12213 0.03852 0.95419-0.99907
   4   1  -1 8783.23 340.689   8 0.50822-0.22797-0.15052 0.23402 0.92592-0.97085
  -4   1   1 8740.18 385.516   7-0.45617 0.17619 0.06771 0.01573-0.95516 0.99986
  -4  -1   1 8926.81 367.630   7-0.49184 0.21189 0.07496-0.15859-0.94208 0.98681
  -3   1   1 149.210 33.3822   1 0.21991-0.42553-0.21393 0.29750 0.97592-0.91760
  -3   1   1 161.425 39.7766   3-0.62019 0.41420-0.38190 0.46550-0.78574 0.84388
  -3   1   1 129.555 25.2583   2 0.35867-0.56445 0.17114-0.08756 0.96727-0.90923
   3  -1  -1 119.721 33.2208   4-0.24335 0.44961 0.15950-0.24330-0.98502 0.92666
  -3  -1   1 141.542 47.1463   3-0.45743 0.25152-0.22278 0.13931-0.92926 0.98740
  -3  -1   1 134.444 38.9004   7-0.56570 0.36027 0.09012-0.17373-0.90844 0.96661
  -3   1   1 125.934 34.5243   6-0.33061 0.12484 0.48208-0.39856-0.85795 0.91635
   3  -1  -1 168.308 40.1039   5 0.60239-0.39689 0.25255-0.33599 0.85342-0.91165
  -3  -1   1 142.884 38.3317   9 0.25330-0.45923 0.13508-0.21866 0.98786-0.92968
   3  -1  -1 112.560 37.5327   8 0.49064-0.28488-0.14302 0.05942 0.93412-0.99247
   3   1  -1 177.459 47.7369   2 0.43584-0.23009 0.27200-0.18845 0.92243-0.98054
   3   1  -1 164.515 40.3400   8 0.58939-0.38370-0.18557 0.26908 0.87990-0.93830
  -3   1   1 124.566 41.7900   7-0.51328 0.30784 0.07934 0.00408-0.93326 0.99139
   2   1  -1 32753.0 600.001   2 0.49248-0.36125 0.35039-0.26680 0.87236-0.94393
  -2   1   1 32275.1 550.900   6-0.34439 0.21314 0.54791-0.46446-0.81229 0.88411
   2  -1  -1 31415.5 583.844   8 0.59091-0.45968-0.18623 0.10264 0.87890-0.95072
  -2   1   1 32957.0 597.125   7-0.63062 0.49969 0.10363-0.02023-0.87048 0.94201
  -3   1  -1 16.0688 19.1296   7 0.21535-0.45726-0.06234 0.14611-0.91958 0.78019
   4  -1   1 4212.74 271.028   8-0.09610 0.41221 0.09295-0.17652 0.95733-0.80462
  -4  -1  -1 4595.89 284.628   7 0.13244-0.44886-0.04687-0.03660-0.94985 0.79707
  -4   1  -1 4512.68 301.011   7 0.10968-0.42616-0.04259 0.12637-0.95688 0.80403
   5  -1   1 63.8943 45.8992   8-0.01842 0.40908 0.06305-0.14662 0.97807-0.81189
   5   1   1 55.5914 39.5375   8-0.04736 0.43803 0.07424 0.00930 0.97114-0.80498
  -5   1  -1 102.853 56.2750   7 0.02623-0.41727-0.02682 0.11060-0.97810 0.81178
  -5  -1  -1 104.223 47.4333   7 0.03809-0.42908-0.02907-0.05438-0.97552 0.80927
  -6   1  -1 15.6604 18.0177   6-0.09615-0.36909-0.25949 0.34360-0.96242 0.78260
  -6   1  -1 81.7152 64.3505   7-0.04421-0.42140-0.01337 0.09715-0.99048 0.81067
   6   1   1 17.2189 30.8987   8 0.03397 0.43125 0.04267 0.04087 0.98820-0.80856
   6  -1   1 -14.455 10.8157   8 0.04837 0.41683 0.03704-0.12062 0.99044-0.81079
  -6  -1  -1 7.03398 12.8550   7-0.03916-0.42637-0.01434-0.06911-0.98976 0.81003
  -7   1  -1 720.270 154.420   7-0.10646-0.43369-0.00139 0.08517-0.99719 0.80390
   7   1   1 821.158 141.497   8 0.10364 0.43614 0.01529 0.06824 0.99685-0.80373
  -7   1  -1 812.213 121.745   6-0.13418-0.40557-0.16187 0.24607-0.98574 0.79253
   7  -1   1 823.766 148.085   8 0.10818 0.43158 0.01350-0.09708 0.99722-0.80409
  -7  -1  -1 972.810 172.123   7-0.10598-0.43410-0.00149-0.08196-0.99715 0.80394
   8  -1   1 1038.54 182.720   8 0.16329 0.45103-0.00840-0.07519 0.99981-0.79320
   8   1   1 1054.39 179.319   8 0.16576 0.44857-0.00938 0.09291 0.99984-0.79324
  -8   1  -1 974.823 194.579   7-0.16327-0.45142 0.00962 0.07416-0.99980 0.79302
  -8  -1  -1 380.574 164.286   7-0.16600-0.44861 0.01015-0.09360-0.99984 0.79314
  -9   1  -1 43.1414 27.6484   7-0.21645-0.47283 0.02000 0.06379-0.99914 0.77894
   9   1   1 255.996 113.958   8 0.22277 0.46612-0.03226 0.11579 0.99856-0.77847
   9  -1   1 248.272 102.038   8 0.21507 0.47379-0.02916-0.05444 0.99897-0.77888
  -9  -1  -1 37.3326 31.9152   7-0.22155-0.46764 0.02100-0.10446-0.99891 0.77880
 -12  -2   1 -13.492 72.9910   7-0.56702-0.30924 0.09039-0.25766-0.90775 0.84452
  12   2  -1 144.850 62.0510   5 0.51427 0.36233 0.19741-0.03012 0.91368-0.85076
  12  -2  -1 38.4737 30.0975   8 0.52267 0.35405-0.15670-0.01053 0.91874-0.85581
 -12  -2   1 -55.747 116.032   3-0.50069-0.37628-0.26334 0.09637-0.90135 0.83832
  11   2  -1 384.770 156.136   5 0.48945 0.31258 0.18224-0.01495 0.92708-0.87766
 -11  -2   1 227.602 105.919   7-0.54278-0.25893 0.08539-0.25265-0.91989 0.87019
  11  -2  -1 216.650 122.798   8 0.49754 0.30463-0.14596-0.02126 0.93097-0.88152
  11   2  -1 198.912 149.431   8 0.55846 0.24370-0.17212 0.33919 0.89912-0.84969
 -11  -2   1 274.553 132.104   3-0.47648-0.32594-0.24052 0.07353-0.91769 0.86812
 -11   2   1 558.336 187.302   7-0.51103-0.29086 0.07888 0.08822-0.93422 0.88444
  10   2  -1 -45.381 58.2371   5 0.46655 0.26093 0.16834-0.00106 0.93825-0.90233
  10   2  -1 -36.848 38.2400   8 0.53736 0.19023-0.16301 0.33008 0.91101-0.87507
  10  -2  -1 -72.786 85.7814   8 0.47437 0.25323-0.13611-0.03109 0.94120-0.90523
  10   2  -1 -26.530 78.0179   2 0.43941 0.28784 0.27683-0.10989 0.91976-0.88367
 -10  -2   1 -96.311 91.7663   3-0.45408-0.27380-0.21968 0.05268-0.93118 0.89506
 -10   2   1 15.8578 69.7988   7-0.48801-0.23932 0.07417 0.09291-0.94358 0.90732
 -10  -2   1 -14.022 49.2915   7-0.52097-0.20620 0.08091-0.24816-0.92992 0.89374
   9   2  -1 190.162 74.7170   5 0.44612 0.20681 0.15604 0.01123 0.94729-0.92486
   9  -2  -1 216.636 87.2374   5 0.53009 0.12265 0.20716-0.37419 0.90437-0.88183
  -9   2   1 123.780 95.0653   7-0.46774-0.18502 0.07006 0.09703-0.95113 0.92839
   9  -2  -1 210.926 109.996   8 0.45377 0.19928-0.12741-0.03979 0.94950-0.92701
   9   2  -1 160.441 97.6041   8 0.51985 0.13318-0.15549 0.32256 0.92017-0.89773
  -9  -2   1 328.729 117.406   3-0.43400-0.21932-0.20120 0.03420-0.94202 0.91937
   9   2  -1 165.517 74.4540   2 0.42005 0.23269 0.25088-0.08392 0.93355-0.91092
  -9  -2   1 33.0887 116.556   7-0.50245-0.15017 0.07712-0.24436-0.93781 0.91515
  -8  -2   1 182.156 90.9532   9-0.02701-0.55140-0.52567 0.35904 0.83153-0.84046
   8  -2  -1 122.745 89.7424   8 0.43660 0.14190-0.12018-0.04701 0.95586-0.94684
   8  -2  -1 225.371 74.0357   5 0.51857 0.05961 0.20006-0.36707 0.91120-0.90214
   8   2  -1 189.422 70.6743   5 0.42897 0.14940 0.14578 0.02149 0.95424-0.94529
   8   2  -1 216.778 74.5914   8 0.50739 0.07108-0.15016 0.31723 0.92632-0.91736
  -8  -2   1 236.502 98.4437   3-0.41697-0.16180-0.18569 0.01868-0.95036 0.94117
   8   2  -1 136.214 66.1375   2 0.40349 0.17474 0.22901-0.06202 0.94408-0.93490
  -8   2   1 179.013 68.0343   7-0.45120-0.12701 0.06670 0.10037-0.95683 0.94760
  -8  -2   1 9.63185 55.1582   7-0.48849-0.08959 0.07427-0.24150-0.94339 0.93423
  -7   2   1 -14.550 23.9915   6-0.31548-0.18841 0.41686-0.24955-0.89562 0.90024
   7   2  -1 128.017 63.4346   2 0.39063 0.11310 0.21221-0.04520 0.95149-0.95578
  -7   2   1 -33.897 52.6092   3-0.54006 0.03585-0.30120 0.46834-0.87036 0.87463
  -7  -2   1 -16.341 18.5702   9 0.02527-0.52920-0.42172 0.25497 0.89615-0.89171
   7  -2  -1 20.9086 51.0431   4-0.02586 0.53005-0.42384 0.25711-0.89501 0.89038
   7   2  -1 -89.786 45.4435   8 0.50233 0.00157-0.14800 0.31507 0.92873-0.93326
  -7  -2   1 -48.277 63.4182   3-0.40403-0.10017-0.17398 0.00696-0.95619 0.96047
   7  -2  -1 103.058 56.0477   8 0.42414 0.07980-0.11496-0.05222 0.96017-0.96463
   7  -2  -1 13.6949 5.39304   5 0.51508-0.01145 0.19791-0.36491 0.91321-0.91761
   7   2  -1 -0.7396 21.6389   5 0.41629 0.08752 0.13822 0.02902 0.95902-0.96355
  -7   2   1 -50.752 45.1732   7-0.43984-0.06380 0.06440 0.10266-0.96052 0.96478
  -7  -2   1 -0.3410 24.8074   7-0.48108-0.02245 0.07276-0.23997-0.94623 0.95056
   6   2  -1 1017.66 156.809   2 0.38274 0.04649 0.20198-0.03495 0.95573-0.97347
  -6   2   1 766.090 117.065   6-0.30696-0.12245 0.38233-0.21509-0.91283 0.93087
   6   2  -1 1168.81 147.415   8 0.50862-0.07928-0.15068 0.31776 0.92573-0.94373
  -6  -2   1 898.989 149.970   3-0.39670-0.03293-0.16738 0.00035-0.95930 0.97706
  -6   2   1 1221.01 132.088   3-0.55472 0.12507-0.31557 0.48271-0.85724 0.87497
   6  -2  -1 1037.56 162.344   8 0.41838 0.01102-0.11254-0.05463 0.96208-0.98001
   6  -2  -1 1161.77 136.718   5 0.52412-0.09505 0.20348-0.37046 0.90796-0.92582
   6   2  -1 1080.22 163.305   5 0.40987 0.01939 0.13440 0.03282 0.96133-0.97933
   6  -2  -1 1113.73 140.075   4-0.07572 0.50548-0.30740 0.14049-0.94653 0.92857
  -6   2   1 1141.44 173.522   7-0.43600 0.00691 0.06362 0.10341-0.96173 0.97946
   5  -2  -1 4520.47 312.027   8 0.42249-0.06764-0.11427-0.05290 0.96072-0.99211
   5   2  -1 4430.44 304.055   2 0.38167-0.02694 0.20059-0.03353 0.95629-0.98749
   5  -2  -1 4214.47 230.866   5 0.55387-0.19936 0.22193-0.38892 0.88922-0.92051
  -5  -2   1 4283.02 258.691   9 0.12746-0.48240-0.19521 0.02824 0.97954-0.94826
  -5   2   1 5048.36 242.865   3-0.59428 0.23916-0.35517 0.52230-0.81686 0.84807
  -5   2   1 4504.56 269.511   6-0.30168-0.05321 0.36162-0.19444-0.92231 0.95379
   5   2  -1 4306.70 258.198   8 0.53334-0.17857-0.16128 0.32836 0.91316-0.94464
  -5  -2   1 4426.05 283.748   7-0.50166 0.14722 0.07696-0.24412-0.93813 0.96941
   5  -2  -1 4403.71 272.159   4-0.12395 0.47926-0.18613 0.01904-0.98097 0.94961
  -5   2   1 4746.75 319.737   7-0.44352 0.08901 0.06515 0.10187-0.95935 0.99055
  -4  -2   1 66.0664 19.7070   1 0.21030-0.49029-0.13631-0.03070 0.99020-0.94525
   4   2  -1 14.9671 29.6021   2 0.39010-0.10988 0.21152-0.04443 0.95178-0.99645
  -4   2   1 91.4221 32.9096   1 0.17804-0.45824 0.07499 0.09227 0.99715-0.95231
  -4  -2   1 76.1052 29.1295   9 0.17662-0.45704-0.07406-0.09299 0.99727-0.95254
   4  -2  -1 103.734 35.9667   4-0.17004 0.45083-0.06140-0.10586-0.99804 0.95323
  -4   2   1 64.0931 34.1243   6-0.30059 0.02021 0.35744-0.19033-0.92415 0.96907
   4  -2  -1 48.9870 37.1663   8 0.44191-0.16160-0.12241-0.04474 0.95394-0.99880
   4  -2  -1 138.145 45.5364   5 0.61969-0.33972 0.26365-0.43061 0.83887-0.88359
  -4  -2   1 115.512 46.9889   7-0.54630 0.26637 0.08611-0.25325-0.91819 0.96293
   4   2  -1 126.357 47.0900   8 0.58989-0.30968-0.18579 0.35288 0.87957-0.92451
  -4  -2   1 45.7248 21.9662   3-0.40934 0.12886-0.17877 0.01173-0.95385 0.99855
  -4   2   1 129.100 54.5778   7-0.46926 0.18930 0.07037 0.09662-0.95058 0.99524
  -3   2   1 476.788 73.3678   1 0.20252-0.40819-0.07971 0.24687 0.99659-0.93828
   3   2  -1 546.214 56.4417   6-0.13223 0.33803-0.16702 0.33425-0.98480 0.92623
   3   2  -1 515.851 91.9220   2 0.41199-0.20628 0.24021-0.07308 0.93881-0.99694
  -3   2   1 481.421 81.7385   6-0.30467 0.09882 0.37332-0.20629-0.91703 0.97539
   3  -2  -1 544.110 91.9384   8 0.48629-0.28051-0.14117-0.02598 0.93606-0.99438
  -3   2   1 508.618 48.1839   9 0.14743-0.35336-0.14704 0.31416 0.98867-0.93064
  -3  -2   1 470.647 85.1840   9 0.22355-0.42944 0.05053-0.21766 0.99773-0.93953
   3   2  -1 827.659 123.317   8 0.70237-0.49671-0.23595 0.40305 0.78758-0.84596
   3  -2  -1 547.569 88.3752   4-0.21319 0.41943 0.06471-0.23212-0.99736 0.93906
   3   2  -1 523.834 54.8991   4-0.13110 0.33707-0.16739 0.33439-0.98468 0.92637
  -3   2   1 492.069 84.8146   7-0.52599 0.32057 0.08194 0.08500-0.92768 0.98576
  -3  -2   1 615.605 87.6549   7-0.63848 0.43305 0.10528-0.27238-0.86528 0.92346
  -2   2   1 232.358 50.4620   7-0.63782 0.50690 0.10514 0.06176-0.86572 0.93719
  -2  -2   1 289.283 45.9425   8 0.60887-0.73996-0.19411 0.02707 0.86662-0.79476
   2   2  -1 223.306 40.9013   6-0.06650 0.19771-0.33181 0.49915-0.93742 0.86530
  -2   2   1 221.772 52.2357   1 0.22024-0.35142-0.21676 0.38382 0.97528-0.90353
  -2  -2   1 223.537 58.6248   9 0.26711-0.39847 0.17608-0.34324 0.98004-0.90837
  -2   2   1 216.951 51.7278   6-0.31466 0.18334 0.41345-0.24649-0.89740 0.96920
   2  -2  -1 193.979 48.5256   4-0.25239 0.38402 0.18919-0.35672-0.97901 0.90717
   2  -2  -1 252.360 56.9347   8 0.57307-0.44181-0.17846 0.01132 0.89031-0.96210
   2   2  -1 201.460 47.7322   5 0.53949-0.40839 0.21299-0.04589 0.89856-0.97041
  -1   2   1 7511.90 304.418   6-0.33050 0.27369 0.48158-0.31471-0.85827 0.94349
  -1  -2   1 7292.01 292.197   3-0.58597 0.52927-0.34674 0.17971-0.82601 0.91108
   1   2  -1 9184.48 353.289   5 0.66598-0.60938 0.29386-0.12680 0.79450-0.87981
   1   2  -1 7683.58 298.707   6-0.03781 0.09442-0.39875 0.56614-0.90791 0.82228
  -1  -2   1 7597.06 317.960   9 0.30590-0.36271 0.29873-0.46591 0.94425-0.85911
   0   2  -1 40.5744 31.1341   6-0.02914 0.01117-0.41841 0.58584-0.89799 0.79886
   0   2   1 17.5033 16.3519   6-0.35025 0.36796 0.57864-0.41187-0.78798 0.88660
   0  -2  -1 25.4676 18.2601   9-0.05519 0.03758-0.57840 0.41148 0.79067-0.88898
  -1  -2  -1 9135.57 386.391   9-0.05514-0.03695-0.57832 0.41145 0.79074-0.90250
  -1   2  -1 9878.08 431.355   6-0.03256-0.05999-0.41067 0.57813-0.90197 0.78935
  -2   2  -1 587.501 105.081   6-0.04388-0.12326-0.38483 0.55233-0.91458 0.78849
  -2  -2  -1 68.9832 38.9957   9-0.06427-0.10230-0.59491 0.42810 0.77658-0.90177
  -3   2  -1 2917.99 231.919   6-0.06060-0.18108-0.34578 0.51333-0.93179 0.79224
   3  -2   1 2792.80 204.631   8-0.12647 0.36801 0.10454-0.27162 0.94734-0.80810
  -3   2  -1 2801.44 220.570   7 0.16169-0.40360-0.05235 0.21975-0.94001 0.80059
   4  -2   1 905.665 129.000   8-0.04940 0.36550 0.07503-0.24212 0.97062-0.81791
  -4   2  -1 761.454 118.216   6-0.08124-0.23501-0.29626 0.46386-0.95057 0.79757
  -4  -2  -1 1008.04 129.130   7 0.11039-0.42677-0.04273-0.12434-0.95667 0.80394
  -4   2  -1 955.533 138.604   7 0.07037-0.38684-0.03519 0.20259-0.96777 0.81489
  -5   2  -1 1837.95 188.089   6-0.10476-0.28602-0.23788 0.40554-0.96859 0.80215
   5  -2   1 1970.92 207.855   8 0.01596 0.37469 0.04970-0.21681 0.98507-0.81889
   5   2   1 2084.35 191.454   8-0.03454 0.42522 0.06929 0.09781 0.97433-0.80816
  -5   2  -1 1735.65 207.117   7-0.00376-0.38728-0.02111 0.18851-0.98399 0.81764
  -5  -2  -1 1921.48 200.327   7 0.01589-0.40682-0.02485-0.14221-0.98024 0.81404
  -6   2  -1 201.618 71.9992   6-0.13050-0.33481-0.17157 0.33929-0.98394 0.80408
   6  -2   1 170.573 66.6720   8 0.07416 0.39103 0.02692-0.19404 0.99387-0.81421
   6   2   1 201.466 66.1068   8 0.05136 0.41387 0.03587 0.13123 0.99088-0.81124
  -6  -2  -1 143.171 68.1586   7-0.06079-0.40469-0.01019-0.15685-0.99265 0.81298
  -6   2  -1 314.132 108.318   7-0.06777-0.39783-0.00885 0.17625-0.99348 0.81365
  -7   2  -1 684.983 158.431   7-0.12535-0.41480 0.00226 0.16514-0.99843 0.80511
  -7   2  -1 707.080 128.696   6-0.15796-0.38186-0.09777 0.26555-0.99493 0.80165
   7   2   1 594.754 125.745   8 0.12349 0.41629 0.00744 0.15966 0.99830-0.80518
   7  -2   1 536.259 123.240   8 0.12769 0.41206 0.00577-0.17290 0.99854-0.80541
  -7  -2  -1 649.544 140.418   7-0.12682-0.41320 0.00254-0.16958-0.99851 0.80535
   8  -2   1 -22.688 47.5233   8 0.17801 0.43630-0.01428-0.15286 0.99990-0.79328
  -8   2  -1 -6.8531 13.4338   6-0.18679-0.42753-0.01656 0.18440-0.99984 0.79317
  -8  -2  -1 -3.1027 24.2798   7-0.18605-0.42850 0.01405-0.18110-0.99989 0.79324
   8   2   1 -4.1433 30.5988   8 0.18701 0.42732-0.01788 0.18499 0.99983-0.79323
  -8   2  -1 -87.619 71.3826   7-0.17863-0.43607 0.01261 0.15479-0.99992 0.79311
   9  -2   1 88.1211 33.9144   8 0.22604 0.46282-0.03357-0.13357 0.99837-0.77828
   9   2   1 6.49615 56.1541   8 0.24483 0.44405-0.04117 0.20827 0.99700-0.77691
  -9  -2  -1 6.99333 30.8373   7-0.24101-0.44815 0.02481-0.19189-0.99779 0.77780
  -9   2  -1 69.7876 66.1194   7-0.22919-0.46014 0.02249 0.14493-0.99852 0.77837
 -12  -3   1 -62.685 63.4282   7-0.59488-0.28129 0.09617-0.34699-0.89244 0.82921
 -12  -3   1 260.958 123.128   3-0.49689-0.38009-0.25974 0.00920-0.90404 0.84101
 -11  -3   1 113.016 164.083   7-0.57281-0.22882 0.09159-0.34239-0.90469 0.85500
 -11   3   1 513.431 179.263   7-0.52289-0.27900 0.08131 0.16940-0.92906 0.87924
  11   3  -1 342.213 150.729   2 0.45437 0.34735 0.29719-0.04671 0.90790-0.85839
  11  -3  -1 241.434 95.5341   8 0.50295 0.29921-0.14826-0.10250 0.92844-0.87898
  11   3  -1 296.553 116.145   5 0.49164 0.31040 0.18357 0.06729 0.92595-0.87655
 -11  -3   1 321.859 132.087   3-0.47411-0.32833-0.23830-0.01226-0.91919 0.86962
  10   3  -1 530.257 162.236   2 0.43449 0.29272 0.27019-0.01969 0.92343-0.88737
 -10  -3   1 67.9907 148.544   7-0.55366-0.17344 0.08763-0.33842-0.91457 0.87839
  10  -3  -1 605.153 199.427   8 0.48118 0.24642-0.13900-0.11176 0.93830-0.90231
  10   3  -1 369.898 143.264   5 0.47016 0.25733 0.17052 0.08032 0.93656-0.90065
 -10  -3   1 288.356 132.408   3-0.45319-0.27469-0.21886-0.03171-0.93168 0.89557
 -10   3   1 348.128 123.846   7-0.50146-0.22587 0.07692 0.17377-0.93821 0.90191
  -9  -3   1 628.561 153.352   7-0.53847-0.11409 0.08450-0.33526-0.92193 0.89927
   9   3  -1 392.707 123.804   8 0.56910 0.08391-0.17673 0.42739 0.89276-0.87030
   9  -3  -1 395.959 125.065   8 0.46212 0.19092-0.13093-0.11982 0.94622-0.92371
   9   3  -1 576.116 158.236   5 0.45124 0.20169 0.15911 0.09171 0.94510-0.92268
  -9  -3   1 472.172 137.153   3-0.43466-0.21866-0.20181-0.04877-0.94168 0.91905
   9   3  -1 469.540 144.336   2 0.41675 0.23595 0.24651 0.00402 0.93574-0.91314
  -9   3   1 835.680 207.095   7-0.48302-0.16974 0.07316 0.17751-0.94549 0.92271
  -8   3   1 18.7697 50.6802   6-0.31521-0.26331 0.41569-0.16481-0.89623 0.88734
   8   3  -1 -21.907 24.4435   8 0.56275 0.01568-0.17398 0.42463 0.89658-0.88762
  -8  -3   1 24.1601 20.3967   7-0.52879-0.04922 0.08251-0.33326-0.92641 0.91725
  -8  -3   1 28.1672 10.2751   9 0.00065-0.57908-0.47166 0.22144 0.86753-0.87646
   8  -3  -1 57.7059 68.4108   8 0.44665 0.13184-0.12441-0.12632 0.95219-0.94316
   8   3  -1 -7.4873 9.23017   5 0.43570 0.14268 0.14980 0.10101 0.95158-0.94264
  -8  -3   1 -51.526 40.7052   3-0.41919-0.15958-0.18770-0.06290-0.94932 0.94015
   8   3  -1 -4.6112 38.8557   2 0.40177 0.17643 0.22676 0.02380 0.94510-0.93596
   8  -3  -1 17.7709 21.8467   4-0.00220 0.58096-0.47608 0.22592-0.86518 0.87391
  -8   3   1 -45.407 57.7907   7-0.46861-0.10958 0.07023 0.18043-0.95082 0.94153
  -7   3   1 122.627 66.0332   6-0.30544-0.19857 0.37636-0.12554-0.91563 0.92017
   7  -3  -1 31.8065 27.2996   5 0.59371-0.09019 0.24703-0.49758 0.86034-0.86465
   7  -3  -1 95.2321 47.2511   4-0.04415 0.54848-0.38212 0.13178-0.91573 0.91115
   7  -3  -1 156.203 83.7876   8 0.43602 0.06793-0.11994-0.13078 0.95607-0.96050
  -7   3   1 111.889 61.0606   7-0.45976-0.04386 0.06844 0.18220-0.95393 0.95814
  -6  -3   1 254.077 102.645   9 0.08608-0.51552-0.29077 0.04034 0.95288-0.93500
  -6  -3   1 444.789 120.491   7-0.53735 0.10842 0.08427-0.33497-0.92246 0.94027
   6  -3  -1 626.098 96.4118   5 0.61947-0.19050 0.26350-0.51403 0.83907-0.85681
   6   3  -1 476.510 110.724   2 0.38344 0.04576 0.20288 0.04772 0.95536-0.97314
   6  -3  -1 522.619 112.980   4-0.08416 0.51401-0.28681 0.03628-0.95369 0.93576
  -6   3   1 527.292 109.714   6-0.29787-0.13163 0.34698-0.09621-0.92864 0.94662
   6   3  -1 458.505 120.406   5 0.41972 0.00956 0.14026 0.11050 0.95776-0.97578
   6  -3  -1 423.465 105.700   8 0.43213-0.00272-0.11831-0.13241 0.95744-0.97533
   6   3  -1 467.578 89.8932   8 0.58471-0.15540-0.18353 0.43419 0.88295-0.90095
  -6  -3   1 467.397 115.015   3-0.40155-0.02808-0.17174-0.07888-0.95726 0.97504
  -6   3   1 421.867 104.152   7-0.45884 0.02979 0.06825 0.18236-0.95425 0.97193
  -5  -3   1 75.5240 38.2962   7-0.56671 0.21230 0.09033-0.34098-0.90792 0.93920
   5   3  -1 40.0457 39.7593   2 0.38259-0.02790 0.20178 0.04884 0.95581-0.98704
   5  -3  -1 71.7452 39.2552   4-0.12199 0.47735-0.19122-0.05948-0.97988 0.94854
  -5   3   1 33.7307 17.4917   1 0.14823-0.50301 0.23265 0.01831 0.97208-0.94076
  -5   3   1 48.6777 33.2972   6-0.29309-0.06190 0.32889-0.07818-0.93605 0.96748
   5  -3  -1 115.859 55.0634   5 0.67506-0.32063 0.29988-0.55037 0.78473-0.81590
   5  -3  -1 54.4120 43.3549   8 0.43794-0.08308-0.12075-0.12995 0.95538-0.98674
   5   3  -1 104.654 57.1790   5 0.42341-0.06868 0.14246 0.10827 0.95638-0.98787
   5   3  -1 77.2591 46.4650   8 0.62799-0.27325-0.20254 0.45321 0.85262-0.88408
  -5  -3   1 7.75538 23.8164   3-0.40262 0.04758-0.17271-0.07792-0.95680 0.98806
  -5  -3   1 41.4765 33.3194   9 0.12622-0.48114-0.19814-0.05239 0.97889-0.94758
  -5   3   1 42.8066 44.4526   7-0.46975 0.11526 0.07047 0.18011-0.95041 0.98156
   4   3  -1 523.792 109.260   2 0.38978-0.10959 0.21109 0.03956 0.95196-0.99666
   4   3  -1 455.837 106.098   8 0.71260-0.43243-0.24063 0.49130 0.77708-0.82200
  -4  -3   1 595.031 113.917   9 0.16424-0.44463-0.10539-0.14520 0.99434-0.94958
   4   3  -1 538.977 62.5219   6-0.26790 0.54821 0.23833 0.01217-0.96664 0.92153
  -4   3   1 574.600 104.993   6-0.29176 0.01129 0.32388-0.07325-0.93802 0.98290
   4  -3  -1 612.126 113.494   8 0.45829-0.17795-0.12932-0.12137 0.94774-0.99256
  -4   3   1 469.787 88.8650   1 0.17129-0.45154 0.11311 0.13772 0.99351-0.94870
   4  -3  -1 553.649 109.005   4-0.15735 0.43816-0.09666-0.15421-0.99502 0.95024
  -4  -3   1 641.969 100.088   7-0.62798 0.34807 0.10307-0.35369-0.87220 0.91694
  -4   3   1 522.874 102.620   7-0.49912 0.21919 0.07644 0.17409-0.93917 0.98376
  -3  -3   1 712.652 90.0385   4 0.04907-0.25494-0.58271 0.33237-0.78882 0.84697
   3   3  -1 676.443 81.3447   6-0.19548 0.40125 0.00874 0.24201-0.99985 0.94126
   3  -3  -1 213.101 51.6606   9-0.06166 0.26744-0.59019 0.33960 0.78068-0.83865
   3  -3  -1 592.337 105.362   4-0.18987 0.39610-0.00468-0.24632-0.99994 0.94167
  -3  -3   1 724.881 114.470   9 0.19973-0.40560-0.01389-0.23677 0.99972-0.94149
   3  -3  -1 751.242 113.173   8 0.50136-0.29556-0.14759-0.10309 0.92919-0.98747
  -3   3   1 592.233 98.6850   6-0.29450 0.08857 0.33420-0.08365-0.93392 0.99225
   3   3  -1 734.017 109.349   5 0.47465-0.26900 0.17324 0.07740 0.93442-0.99286
  -3  -3   1 751.126 100.460   7-0.74336 0.53792 0.12766-0.37823-0.78019 0.83839
  -3   3   1 794.172 111.535   7-0.55882 0.35342 0.08870 0.16178-0.91198 0.96999
  -3  -3   1 671.445 110.043   3-0.43914 0.23329-0.20592-0.04472-0.93935 0.99756
  -3   3   1 642.851 100.548   1 0.18986-0.39560 0.00393 0.24679 0.99995-0.94167
   2   3  -1 7741.80 307.851   6-0.14819 0.27937-0.12439 0.37528-0.99169 0.91958
  -2   3   1 7275.93 345.736   6-0.30190 0.17050 0.36247-0.11199-0.92193 0.99371
  -2  -3   1 8266.59 399.456   9 0.23222-0.36355 0.07470-0.32539 0.99576-0.92407
   2  -3  -1 6740.49 311.981   8 0.58102-0.44973-0.18192-0.06875 0.88532-0.95708
   2   3  -1 7097.66 303.674   5 0.53856-0.40743 0.21240 0.03820 0.89915-0.97105
  -2   3   1 7239.30 332.865   1 0.20430-0.33553-0.09228 0.34292 0.99546-0.92373
  -2  -3   1 8431.50 202.556   8 0.59744-0.72848-0.18909-0.06148 0.87453-0.80265
  -2  -3   1 7570.17 363.045   3-0.48494 0.35368-0.24846-0.00218-0.91220 0.98387
  -2  -3   1 8320.91 340.004   4 0.01767-0.14908-0.51847 0.26816-0.83750 0.90911
   2  -3  -1 7444.53 316.167   9-0.02456 0.15591-0.52098 0.27045 0.83488-0.90629
  -2   3   1 7963.31 317.242   7-0.66962 0.53870 0.11185 0.13856-0.84320 0.91460
   2  -3  -1 7014.48 350.330   4-0.21912 0.35073 0.08286-0.33398-0.99579 0.92402
   1  -3  -1 904.825 112.974   9-0.00826 0.06515-0.48929 0.23882 0.85638-0.94123
   1   3  -1 919.485 117.311   2 0.49074-0.43407 0.34791-0.09717 0.87417-0.95926
   1   3  -1 1149.51 120.718   5 0.64503-0.58841 0.28008-0.02952 0.81564-0.90102
  -1   3   1 875.093 117.731   6-0.31415 0.25729 0.41133-0.16094-0.89849 0.98371
  -1  -3   1 1040.24 135.750   9 0.26118-0.31797 0.15831-0.40903 0.98367-0.89852
  -1  -3   1 878.774 112.893   3-0.55883 0.50218-0.31961 0.06900-0.85341 0.93851
   1  -3  -1 497.558 112.024   8 0.71630-0.65950-0.24233-0.00834 0.77318-0.85843
   1   3  -1 761.132 99.5227   6-0.11979 0.17635-0.19948 0.45046-0.97812 0.89250
  -1  -3   1 966.657 118.010   4 0.00372-0.06064-0.48882 0.23855-0.85721 0.94226
   0   3  -1 9.74678 18.6810   6-0.10504 0.08702-0.23717 0.48821-0.96878 0.86965
   0  -3   1 4.75656 7.04740   9 0.28609-0.26834 0.23455-0.48528 0.96536-0.86675
   0   3  -1 18.5764 23.7623   2 0.56085-0.57870 0.45226-0.20148 0.78312-0.88170
   0  -3  -1 11.5070 10.6200   4-0.26615 0.24846 0.23575-0.48700-0.96746 0.86863
   0  -3  -1 1.19221 17.8868   9-0.00490-0.01269-0.48266 0.23223 0.86064-0.95893
   0   3   1 49.3480 33.7471   6-0.33076 0.34843 0.48273-0.23246-0.85754 0.95616
   0  -3   1 1.97156 13.8040   4 0.00113 0.01646-0.48326 0.23304-0.86072 0.95923
  -1   3  -1 6674.61 344.554   6-0.10026 0.00764-0.24923 0.50031-0.96542 0.85279
   1   3   1 6838.50 337.728   1 0.22750-0.13527-0.28380 0.53427 0.95739-0.84531
   1   3   1 6426.31 306.604   6-0.34983 0.44202 0.57637-0.32620-0.78984 0.90186
   1  -3   1 6324.89 301.505   9 0.30649-0.21421 0.30072-0.55145 0.94351-0.83146
  -1  -3  -1 7021.56 347.340   9-0.01026-0.08180-0.49322 0.24284 0.85382-0.96556
  -1  -3  -1 6804.26 318.757   4-0.28321 0.19085 0.29611-0.54735-0.94848 0.83613
  -2   3  -1 1270.14 158.573   6-0.10285-0.06434-0.24269 0.49381-0.96726 0.84116
  -2  -3  -1 1255.46 156.225   9-0.02184-0.14472-0.51574 0.26541 0.83857-0.96377
   2  -3   1 1264.91 136.260   8-0.12099 0.28797 0.10245-0.35305 0.94922-0.82345
   2  -3   1 1229.02 125.828   9 0.32205-0.15523 0.35398-0.60469 0.92164-0.79615
   2  -3   1 1334.45 165.453   4 0.01763 0.14898-0.51839 0.26830-0.83756 0.96291
  -2   3  -1 1246.05 130.300   7 0.18521-0.35251-0.05674 0.30774-0.93144 0.80548
  -2  -3  -1 1463.35 154.372   4-0.29563 0.12859 0.34216-0.59339-0.93080 0.80495
  -3  -3  -1 2534.43 241.667   9-0.03802-0.20304-0.54655 0.29628 0.81608-0.95471
  -3   3  -1 2363.11 222.765   6-0.11104-0.13071-0.22194 0.47311-0.97276 0.83319
   3  -3   1 2185.36 195.520   8-0.05157 0.29310 0.07586-0.32647 0.97006-0.83081
   3  -3   1 2224.65 224.274   4 0.03319 0.20794-0.55066 0.30063-0.81419 0.95293
  -3  -3  -1 1877.76 160.267   7 0.18246-0.42421-0.05622-0.19445-0.93247 0.79326
  -3   3  -1 2113.22 192.481   7 0.08933-0.33120-0.03876 0.28977-0.96272 0.82330
  -4   3  -1 4.41507 9.57686   6-0.12353-0.19277-0.18979 0.44099-0.98025 0.82722
   4  -3   1 2.10325 18.0735   4 0.05219 0.26345-0.58891 0.33895-0.78365 0.93576
   4   3   1 26.5215 29.0415   8-0.10954 0.42569 0.09809 0.15258 0.95304-0.80034
   4   3   1 8.68497 11.0296   1 0.22955 0.08620-0.30461 0.55500 0.95078-0.79832
   4  -3   1 31.2513 27.8330   8 0.00740 0.30869 0.05303-0.30366 0.98345-0.83073
  -4  -3  -1 26.7566 33.5199   9-0.05772-0.25784-0.58303 0.33282 0.78679-0.93885
  -4  -3  -1 -8.2346 11.8386   7 0.06043-0.37673-0.03330-0.21734-0.97027 0.81761
  -4   3  -1 2.52525 12.4551   7 0.01499-0.33144-0.02468 0.27569-0.98042 0.82752
   5  -3   1 741.384 135.358   8 0.06037 0.33026 0.03233-0.28297 0.99213-0.82594
  -5   3  -1 745.611 135.718   6-0.13939-0.25146-0.14804 0.39929-0.98813 0.82165
   5   3   1 633.601 86.9214   1 0.22575 0.16453-0.26684 0.51720 0.96240-0.79646
  -5  -3  -1 641.604 127.656   7-0.02898-0.36187-0.01628-0.23434-0.98823 0.82210
   5   3   1 761.124 115.572   8 0.00469 0.38599 0.05408 0.19659 0.98292-0.81677
  -5   3  -1 799.036 143.086   7-0.04781-0.34321-0.01268 0.26369-0.99097 0.82460
   6   3   1 1318.25 126.998   1 0.21829 0.24655-0.20005 0.45038 0.97896-0.79954
  -6   3  -1 1444.39 194.929   6-0.15792-0.30746-0.09789 0.34919-0.99491 0.81500
   6  -3   1 1347.37 195.680   8 0.10961 0.35558 0.01293-0.26359 0.99733-0.81767
   6   3   1 1360.90 167.612   8 0.09142 0.37381 0.02012 0.23056 0.99574-0.81610
  -6   3  -1 1271.81 202.195   7-0.10378-0.36179-0.00191 0.25293-0.99698 0.81712
   7   3   1 1211.02 176.145   8 0.16300 0.37678-0.00828 0.25896 0.99981-0.80669
  -7   3  -1 1170.78 185.343   6-0.17859-0.36130-0.04007 0.29141-0.99918 0.80585
   7  -3   1 1198.84 191.705   8 0.15636 0.38338-0.00563-0.24503 0.99968-0.80654
  -7   3  -1 1330.79 218.980   7-0.15541-0.38473 0.00809 0.24293-0.99964 0.80629
  -7  -3  -1 977.124 213.951   7-0.16383-0.37609 0.00973-0.26034-0.99981 0.80671
   8  -3   1 50.2345 35.1490   8 0.20140 0.41290-0.02365-0.22703 0.99950-0.79289
  -8   3  -1 122.459 59.2172   6-0.20101-0.41339 0.02504 0.22636-0.99948 0.79274
   8   3   1 14.4196 36.9189   8 0.22551 0.38881-0.03336 0.28405 0.99840-0.79180
  -8  -3  -1 34.9115 83.5100   7-0.22037-0.39412 0.02076-0.27140-0.99897 0.79245
  -8   3  -1 77.5610 35.9966   7-0.20411-0.41057 0.01758 0.23345-0.99957 0.79273
 -11   4   1 198.433 132.958   7-0.54175-0.26012 0.08518 0.24914-0.92038 0.87049
  11   4  -1 134.672 98.5336   5 0.50011 0.30194 0.18874 0.14567 0.92150-0.87210
  11   4  -1 158.114 94.2858   2 0.45407 0.34762 0.29677 0.03727 0.90815-0.85868
  11  -4  -1 206.374 127.472   8 0.51487 0.28728-0.15336-0.18095 0.92266-0.87319
 -11  -4   1 285.890 129.400   3-0.47789-0.32457-0.24183-0.09230-0.91680 0.86723
 -10  -4   1 34.9740 70.0034   7-0.59716-0.12984 0.09664-0.43094-0.89112 0.85494
 -10  -4   1 34.2717 49.7715   3-0.45872-0.26917-0.22398-0.11018-0.92851 0.89241
  10  -4  -1 2.03189 20.0887   8 0.49495 0.23265-0.14485-0.18945 0.93216-0.89616
  10   4  -1 149.714 98.4826   5 0.48039 0.24710 0.17672 0.15766 0.93163-0.89573
  10   4  -1 105.147 59.8284   2 0.43595 0.29123 0.27215 0.06191 0.92235-0.88633
 -10   4   1 95.8805 66.9870   7-0.52247-0.20483 0.08122 0.25308-0.92925 0.89289
   9   4  -1 1412.83 251.516   2 0.42000 0.23267 0.25082 0.08326 0.93358-0.91102
   9   4  -1 1468.51 264.849   5 0.46340 0.18953 0.16644 0.16792 0.93970-0.91728
  -9  -4   1 1642.62 281.384   3-0.44202-0.21132-0.20855-0.12562-0.93783 0.91521
   9  -4  -1 1979.28 322.234   8 0.47795 0.17510-0.13763-0.19665 0.93968-0.91716
  -9   4   1 1641.74 281.701   7-0.50652-0.14620 0.07795 0.25632-0.93612 0.91327
  -9  -4   1 1622.70 248.799   7-0.58669-0.06578 0.09446-0.42874-0.89710 0.87443
  -8  -4   1 251.714 120.961   7-0.58305 0.00511 0.09370-0.42795-0.89913 0.88996
  -8  -4   1 214.654 127.145   9 0.01368-0.59213-0.44545 0.11164 0.88307-0.89199
  -8   4   1 364.146 109.914   6-0.31044-0.26817 0.39629-0.06189-0.90609 0.89712
   8  -4  -1 372.039 118.000   8 0.46475 0.11375-0.13205-0.20223 0.94516-0.93610
   8   4  -1 286.053 110.698   5 0.44992 0.12846 0.15832 0.17602 0.94567-0.93674
  -8  -4   1 339.802 134.372   3-0.42840-0.15036-0.19609-0.13810-0.94484 0.93570
   8   4  -1 479.982 139.792   2 0.40678 0.17139 0.23333 0.10077 0.94208-0.93297
  -8   4   1 195.876 85.4701   7-0.49503-0.08313 0.07561 0.25864-0.94081 0.93147
   8  -4  -1 356.337 108.643   4-0.01499 0.59388-0.44807 0.11430-0.88174 0.89052
   7   4  -1 1632.86 251.449   2 0.39696 0.10670 0.22046 0.11367 0.94792-0.95227
  -7   4   1 1837.72 236.581   6-0.30195-0.20217 0.36268-0.02833-0.92184 0.92631
   7   4  -1 1751.36 246.209   5 0.44103 0.06280 0.15298 0.18132 0.94941-0.95397
   7  -4  -1 1701.52 244.535   8 0.45663 0.04733-0.12862-0.20564 0.94839-0.95279
  -7  -4   1 1741.37 256.696   3-0.41876-0.08543-0.18732-0.14689-0.94951 0.95384
   7  -4  -1 1661.22 227.999   4-0.05044 0.55485-0.36752 0.03356-0.92236 0.91782
  -7   4   1 1729.78 243.397   7-0.48961-0.01397 0.07450 0.25971-0.94295 0.94710
   6  -4  -1 732.226 151.004   4-0.08377 0.51369-0.28776-0.04638-0.95337 0.93546
   6   4  -1 1891.56 272.009   8 0.69021-0.26094-0.23041 0.56467 0.79952-0.81748
  -6   4   1 784.961 153.148   6-0.29544-0.13416 0.33773-0.00343-0.93249 0.95041
   6   4  -1 700.455 143.254   5 0.43827-0.00898 0.15133 0.18295 0.95054-0.96858
  -6  -4   1 443.716 137.789   9 0.08597-0.51540-0.29101-0.04298 0.95280-0.93488
   6  -4  -1 770.460 147.487   8 0.45544-0.02602-0.12811-0.20613 0.94885-0.96672
  -6  -4   1 682.479 149.415   3-0.41426-0.01535-0.18323-0.15099-0.95161 0.96942
  -6  -4   1 733.733 143.489   7-0.61034 0.18145 0.09939-0.43355-0.88328 0.90109
  -6   4   1 804.787 153.505   7-0.49275 0.06374 0.07514 0.25903-0.94172 0.95934
   6   4  -1 823.310 166.988   2 0.39145 0.03772 0.21328 0.12088 0.95104-0.96884
   5   4  -1 28.8831 34.0760   2 0.39141-0.03674 0.21322 0.12096 0.95106-0.98233
  -5  -4   1 54.0541 28.9124   7-0.65469 0.30031 0.10870-0.44281-0.85409 0.88537
  -5  -4   1 -25.237 17.9317   9 0.11912-0.47402-0.21490-0.11917 0.97499-0.94364
   5  -4  -1 36.2418 32.9518   4-0.11483 0.47020-0.20974-0.12456-0.97569 0.94436
  -5   4   1 64.1117 50.3982   6-0.29137-0.06371 0.32243 0.01181-0.93859 0.96996
   5   4  -1 15.1766 18.8338   6-0.33151 0.68631 0.48615-0.15238-0.85536 0.82356
   5   4  -1 20.5602 20.8252   5 0.44389-0.08914 0.15469 0.17955 0.94823-0.97974
   5  -4  -1 49.2962 27.1261   8 0.46397-0.10909-0.13172-0.20251 0.94548-0.97681
  -5  -4   1 62.0357 37.7078   3-0.41653 0.06151-0.18529-0.14895-0.95056 0.98185
  -5   4   1 59.0134 44.8781   7-0.50840 0.15395 0.07834 0.25579-0.93533 0.96641
   4   4  -1 1114.69 166.636   2 0.39839-0.11823 0.22233 0.11189 0.94710-0.99182
   4   4  -1 946.695 108.159   6-0.27378 0.55408 0.25884 0.07522-0.96063 0.91548
  -4   4   1 1018.87 154.613   6-0.29019 0.00965 0.31806 0.01613-0.94028 0.98511
  -4  -4   1 1068.95 167.938   9 0.14998-0.43035-0.14078-0.19336 0.98966-0.94486
  -4  -4   1 1026.71 154.881   3-0.42786 0.14743-0.19559-0.13864-0.94511 0.98988
   4  -4  -1 962.100 127.578   9-0.05693 0.33719-0.58160 0.24750 0.78799-0.83249
   4   4  -1 1021.61 149.580   5 0.46126-0.18106 0.16515 0.16905 0.94067-0.98566
  -4  -4   1 1228.47 135.320   4 0.04437-0.32477-0.57330 0.23946-0.79650 0.84120
   4  -4  -1 1288.97 175.603   8 0.48663-0.20627-0.14132-0.19289 0.93591-0.98070
   4  -4  -1 1141.56 173.456   4-0.14341 0.42422-0.13458-0.19988-0.99020 0.94543
  -4   4   1 973.728 144.782   7-0.54304 0.26314 0.08544 0.24862-0.91976 0.96427
  -4  -4   1 1108.80 131.605   7-0.73639 0.45649 0.12614-0.46022-0.78689 0.83164
  -3   4   1 226.006 63.9604   7-0.60770 0.40233 0.09884 0.23515-0.88488 0.94280
   3  -4  -1 140.517 56.3230   4-0.16930 0.37551-0.06347-0.27113-0.99790 0.93966
   3   4  -1 121.665 40.8090   6-0.22635 0.43208 0.10212 0.23217-0.99367 0.93505
  -3   4   1 195.705 60.9331   6-0.29235 0.08636 0.32612 0.00799-0.93715 0.99544
  -3  -4   1 239.258 83.5976   9 0.17829-0.38412-0.06978-0.26441 0.99759-0.93933
   3  -4  -1 174.759 55.0634   9-0.01605 0.22189-0.50454 0.17048 0.84628-0.90420
  -3  -4   1 162.843 24.4831   8-0.04701-0.15866 0.07410-0.40811 0.97123-0.91276
   3  -4  -1 247.385 72.0131   8 0.53047-0.32462-0.16004-0.17416 0.91469-0.97295
  -3  -4   1 117.079 41.8993   3-0.45150 0.24568-0.21729-0.11695-0.93264 0.99087
  -3   4   1 168.174 28.0401   2 0.41915-0.62501 0.24969 0.08459 0.93415-0.87622
  -3  -4   1 167.707 56.5573   4 0.00962-0.21558-0.50145 0.16762-0.84901 0.90718
   2   4  -1 658.454 100.050   5 0.55441-0.42326 0.22227 0.11183 0.88886-0.96081
   2   4  -1 843.702 120.313   6-0.19133 0.32246-0.00338 0.33782-0.99993 0.92781
  -2   4   1 864.010 133.019   6-0.29823 0.16678 0.34835-0.01433-0.92806 0.99980
  -2  -4   1 738.805 132.604   9 0.20375-0.33504-0.00320-0.33102 0.99972-0.92801
   2  -4  -1 837.602 120.137   9 0.00561 0.12578-0.46174 0.12772 0.87355-0.94492
   2  -4  -1 825.650 117.666   8 0.60657-0.47523-0.19310-0.14110 0.86824-0.93997
  -2  -4   1 760.094 125.548   3-0.49186 0.36065-0.25498-0.07925-0.90754 0.97923
  -2  -4   1 778.850 118.480   4-0.00921-0.12227-0.46079 0.12697-0.87438 0.94602
   2   4  -1 830.894 67.7400   7-0.25992 0.39094 0.02853 0.30568-0.99630 0.92438
  -2   4   1 1021.66 126.988   7-0.71963 0.58871 0.12253 0.21138-0.80232 0.87362
  -1  -4   1 6836.50 362.883   4-0.01725-0.03971-0.44305 0.10926-0.88457 0.96967
   1   4  -1 7687.53 354.539   5 0.64765-0.59102 0.28179 0.05226 0.81309-0.89853
  -1  -4   1 7335.48 398.451   9 0.22605-0.28281 0.05746-0.39171 0.99724-0.91207
  -1  -4   1 6629.60 344.359   3-0.55425 0.49765-0.31510-0.01910-0.85769 0.94282
   1   4  -1 6183.84 335.960   2 0.48360-0.42695 0.33779-0.00348 0.88139-0.96653
   1   4  -1 6602.47 343.728   6-0.16743 0.22395-0.07154 0.40608-0.99733 0.91169
  -1   4   1 6597.67 365.936   6-0.30802 0.25111 0.38655-0.05263-0.91082 0.99601
   1  -4  -1 6469.34 338.795   9 0.01482 0.04211-0.44313 0.10916 0.88439-0.96921
   0   4  -1 293.795 82.6203   2 0.54078-0.55865 0.42129-0.08695 0.81354-0.91215
   0   4  -1 343.249 92.9102   6-0.15276 0.13469-0.11199 0.44660-0.99330 0.89416
   0  -4   1 336.130 94.2731   9 0.24484-0.22706 0.11053-0.44480 0.99158-0.89296
   0  -4   1 294.968 61.2099   8-0.11373 0.13164 0.09969-0.43377 0.95166-0.85280
   0  -4   1 294.940 89.0494   4-0.01746 0.03503-0.44258 0.10882-0.88483 0.98339
  -1   4  -1 -24.050 33.8323   6-0.14561 0.05295-0.13135 0.46603-0.99071 0.87807
  -1  -4  -1 -33.022 45.7681   4-0.24063 0.14829 0.15067-0.48552-0.98661 0.87434
   1  -4   1 -0.8325 30.9954   9 0.25976-0.16745 0.15408-0.48834 0.98448-0.87242
  -1  -4  -1 -48.083 48.7523   9 0.00925-0.10130-0.45441 0.12050 0.87789-0.98962
   1   4   1 -58.936 35.0159   1 0.21149-0.11931-0.14549 0.47953 0.98885-0.87679
   1  -4   1 -16.575 20.7664   8-0.05951 0.15196 0.07892-0.41302 0.96795-0.85563
   1   4   1 23.5925 5.25445   6-0.33793 0.43012 0.51611-0.18241-0.83538 0.94740
  -1   4  -1 32.6970 10.5817   7 0.15215-0.24481-0.05056 0.38515-0.94332 0.83084
  -2   4  -1 -11.688 48.0051   6-0.14454-0.02271-0.13425 0.46897-0.99028 0.86415
   2   4   1 7.43790 23.2969   6-0.35527 0.52196 0.60687-0.27328-0.76376 0.88916
   2  -4   1 -10.848 17.4556   9 0.27035-0.10353 0.18589-0.52014 0.97787-0.85236
  -2  -4  -1 0.82556 17.3421   4-0.24887 0.08188 0.17756-0.51240-0.98149 0.85573
  -2  -4  -1 -23.781 10.2465   9-0.00176-0.16478-0.47645 0.14259 0.86455-0.98973
   2  -4   1 33.1368 28.7963   8-0.01283 0.17982 0.06089-0.39500 0.97930-0.85351
  -2  -4  -1 -0.1929 11.3861   7 0.25346-0.42057-0.06939-0.26488-0.90317 0.77750
  -2   4  -1 14.4415 13.5743   7 0.06503-0.23229-0.03417 0.36876-0.96913 0.84318
   2   4   1 -8.8320 20.4454   1 0.21386-0.04718-0.16396 0.49795 0.98586-0.86035
  -3  -4  -1 2476.03 258.257   9-0.01672-0.22433-0.50584 0.17203 0.84540-0.98402
   3   4   1 2099.78 197.688   1 0.21415 0.02704-0.16625 0.50022 0.98546-0.84649
  -3   4  -1 2249.55 243.707   6-0.14838-0.09343-0.12388 0.45864-0.99176 0.85216
   3  -4   1 2316.02 206.203   9 0.27604-0.03470 0.20325-0.53749 0.97374-0.83479
   3  -4   1 2330.08 215.185   8 0.03060 0.21094 0.04399-0.37812 0.98765-0.84838
   3  -4   1 2517.14 268.467   4 0.01293 0.22825-0.50846 0.17490-0.84434 0.98317
  -3  -4  -1 2436.93 172.569   7 0.07998-0.32166-0.03700-0.29721-0.96526 0.82614
  -3   4  -1 2268.06 206.013   7-0.00002-0.24182-0.02182 0.35642-0.98331 0.84388
  -3  -4  -1 2224.30 197.159   4-0.25236 0.01075 0.18910-0.52392-0.97903 0.83978
  -4   4  -1 66.4054 58.3179   6-0.15623-0.16013-0.10251 0.43732-0.99441 0.84134
  -4  -4  -1 78.5820 41.7732   4-0.25011-0.06611 0.18166-0.51642-0.98063 0.82792
   4   4   1 59.9933 41.7024   1 0.21220 0.10351-0.15092 0.48487 0.98801-0.83557
   4  -4   1 53.3966 38.0793   8 0.07234 0.24374 0.02763-0.36179 0.99365-0.84092
   4  -4   1 60.2720 35.2385   9 0.27580 0.04003 0.20253-0.53675 0.97392-0.82154
   4   4   1 93.8108 34.4743   8-0.02733 0.34345 0.06650 0.26775 0.97604-0.82337
  -4  -4  -1 64.4931 46.5611   9-0.03488-0.28069-0.54062 0.20687 0.82056-0.97261
  -4  -4  -1 86.9600 41.1718   7-0.02455-0.29168-0.01713-0.31704-0.98753 0.83495
  -4   4  -1 69.0956 44.7697   7-0.05505-0.26135-0.01129 0.34589-0.99193 0.83903
   4  -4   1 54.6999 36.3965   4 0.03025 0.28545-0.54461 0.21112-0.81874 0.97095
   5   4   1 4794.80 286.111   1 0.20755 0.18271-0.11579 0.44970 0.99290-0.82699
  -5  -4  -1 4773.33 424.145   9-0.05566-0.33441-0.57928 0.24560 0.78994-0.95542
  -5   4  -1 4894.81 381.374   6-0.16736-0.22355-0.07175 0.40658-0.99731 0.83080
   5  -4   1 5228.47 285.540   9 0.26775 0.12256 0.17800-0.51221 0.97962-0.81381
   5   4   1 5189.86 272.125   8 0.08214 0.30853 0.02378 0.31049 0.99477-0.82863
   5  -4   1 4706.14 360.150   8 0.11308 0.27755 0.01156-0.34572 0.99760-0.83139
   5  -4   1 4909.74 405.397   4 0.05017 0.34005-0.58492 0.25151-0.78700 0.95257
  -5   4  -1 4829.13 366.917   7-0.10476-0.28620-0.00172 0.33633-0.99706 0.83067
  -5  -4  -1 5400.48 292.223   4-0.24025-0.15052 0.14945-0.48416-0.98682 0.82066
   6   4   1 89.7760 40.6770   8 0.16242 0.30279-0.00805 0.34232 0.99980-0.82017
  -6   4  -1 84.3696 64.4562   6-0.18118-0.28427-0.03269 0.36758-0.99945 0.81949
   6  -4   1 128.855 67.3890   8 0.15321 0.31198-0.00438-0.32981 0.99960-0.81993
   6   4   1 37.6908 33.6997   1 0.19924 0.26556-0.05720 0.39108 0.99820-0.81880
  -6   4  -1 129.676 64.4343   7-0.15132-0.31421 0.00729 0.32732-0.99953 0.81965
  -6  -4  -1 57.3752 63.1974   7-0.16384-0.30145 0.00973-0.34389-0.99981 0.82026
  -7   4  -1 500.571 130.691   6-0.19723-0.34274 0.01388 0.32104-0.99977 0.80637
   7  -4   1 475.534 149.992   8 0.19291 0.34682-0.02025-0.31395 0.99972-0.80657
  -7   4  -1 597.791 153.835   7-0.19583-0.34425 0.01596 0.31866-0.99976 0.80637
  -7  -4  -1 514.156 175.440   7-0.21941-0.32043 0.02058-0.35476-0.99901 0.80604
   8  -4   1 29.9163 16.4232   8 0.23232 0.38196-0.03611-0.29811 0.99796-0.79134
  -8   4  -1 1.07903 31.1637   6-0.21512-0.39935 0.06748 0.26746-0.99711 0.79030
  -8   4  -1 -34.728 72.4140   7-0.23931-0.37539 0.02448 0.31021-0.99791 0.79117
  -8  -4  -1 -1.0556 32.7994   7-0.27042-0.34397 0.03060-0.36481-0.99529 0.78888
 -11   5   1 462.624 177.644   7-0.56715-0.23469 0.09042 0.32750-0.90769 0.85771
  11   5  -1 185.538 136.138   2 0.45854 0.34310 0.30292 0.11468 0.90440-0.85496
 -10   5   1 195.734 117.642   7-0.55050-0.17676 0.08698 0.33091-0.91614 0.87970
  10   5  -1 269.164 105.563   5 0.49624 0.23124 0.18637 0.23154 0.92355-0.88766
  10  -5  -1 144.932 118.684   8 0.51484 0.21275-0.15335-0.26448 0.92268-0.88666
  10   5  -1 108.030 93.8899   2 0.44221 0.28494 0.28062 0.13700 0.91762-0.88164
 -10  -5   1 195.366 101.026   3-0.46936-0.25854-0.23387-0.18388-0.92214 0.88605
  -9   5   1 289.124 117.378   6-0.31856-0.33466 0.42965-0.01166-0.88877 0.86630
  -9  -5   1 59.1572 123.023   9-0.01606-0.63687-0.50457 0.08729 0.84626-0.86852
  -9  -5   1 256.260 112.006   3-0.45460-0.19872-0.22017-0.19760-0.93088 0.90827
   9  -5  -1 387.681 173.549   8 0.50026 0.15279-0.14712-0.27070 0.92970-0.90715
   9   5  -1 229.498 119.635   5 0.48144 0.17150 0.17735 0.24053 0.93112-0.90872
   9   5  -1 339.654 147.548   2 0.42807 0.22457 0.26158 0.15606 0.92804-0.90551
  -9   5   1 310.318 105.975   7-0.53760-0.11508 0.08432 0.33353-0.92234 0.89941
   8  -5  -1 108.452 71.5934   8 0.48975 0.08875-0.14264-0.27516 0.93452-0.92543
  -8  -5   1 25.0690 18.5033   9 0.01805-0.59648-0.43654 0.01917 0.88809-0.89697
   8  -5  -1 43.6258 48.8667   4-0.01930 0.59829-0.43849 0.02110-0.88710 0.89590
  -8   5   1 -7.1182 35.4571   6-0.30976-0.26896 0.39353 0.02441-0.90744 0.89840
   8   5  -1 -20.780 45.2639   5 0.47028 0.10810 0.17060 0.24726 0.93650-0.92759
  -8  -5   1 64.1603 54.2705   3-0.44299-0.13576-0.20946-0.20833-0.93730 0.92817
   8   5  -1 -25.376 69.8722   2 0.41662 0.16152 0.24633 0.17133 0.93582-0.92675
  -8   5   1 -25.900 31.2522   7-0.52965-0.04846 0.08269 0.33513-0.92602 0.91659
   7  -5  -1 186.601 96.5514   4-0.04995 0.55442-0.36867-0.04890-0.92185 0.91732
  -7   5   1 198.609 86.1003   6-0.30243-0.20177 0.36455 0.05336-0.92101 0.92542
   7  -5  -1 158.234 66.2844   8 0.48458 0.01938-0.14045-0.27733 0.93681-0.94119
   7   5  -1 107.496 60.4891   5 0.46386 0.03997 0.16672 0.25112 0.93949-0.94406
  -7  -5   1 113.374 78.3236   3-0.43533-0.06885-0.20242-0.21538-0.94134 0.94569
  -7  -5   1 33.3727 51.9372   9 0.05030-0.55421-0.36917-0.04830 0.92193-0.91741
   7   5  -1 163.181 88.2066   2 0.40847 0.09516 0.23556 0.18213 0.94103-0.94541
  -7   5   1 108.336 28.4475   7-0.52838 0.02485 0.08244 0.33535-0.92660 0.93066
  -6  -5   1 521.261 117.888   7-0.70268 0.27383 0.11889-0.53651-0.81699 0.83479
   6  -5  -1 343.657 108.223   4-0.07846 0.50840-0.30073-0.11702-0.94891 0.93101
  -6   5   1 364.000 116.914   6-0.29690-0.13278 0.34327 0.07459-0.93020 0.94806
   6   5  -1 384.558 114.515   5 0.46359-0.03429 0.16655 0.25124 0.93961-0.95767
   6  -5  -1 414.138 122.562   8 0.48658-0.05714-0.14129-0.27647 0.93593-0.95377
  -6  -5   1 415.888 119.943   9 0.08055-0.50995-0.30314-0.11440 0.94856-0.93061
  -6  -5   1 460.999 120.954   3-0.43265 0.00306-0.19997-0.21785-0.94271 0.96053
   6   5  -1 407.584 129.275   2 0.40439 0.02475 0.23019 0.18753 0.94353-0.96137
  -6   5   1 359.846 103.912   7-0.53638 0.10742 0.08407 0.33365-0.92291 0.94044
  -5   5   1 411.846 100.627   7-0.55765 0.20326 0.08846 0.32921-0.91257 0.94355
  -5  -5   1 -31.961 24.2651   7-0.76447 0.41010 0.13226-0.54984-0.75878 0.79007
   5  -5  -1 353.180 101.604   4-0.10473 0.46012-0.23550-0.18241-0.96916 0.93784
  -5   5   1 395.422 114.882   6-0.29351-0.06164 0.33047 0.08733-0.93542 0.96675
   5   5  -1 590.806 117.693   6-0.32390 0.67872 0.45241-0.03505-0.87596 0.84414
   5  -5  -1 392.806 112.844   8 0.49841-0.14349-0.14633-0.27142 0.93057-0.96187
   5   5  -1 338.210 97.0176   5 0.47153-0.11678 0.17135 0.24640 0.93591-0.96746
  -5  -5   1 398.756 106.574   3-0.43639 0.08139-0.20339-0.21444-0.94079 0.97210
   5   5  -1 418.844 119.891   2 0.40534-0.05070 0.23144 0.18630 0.94296-0.97425
  -5  -5   1 346.288 108.810   9 0.10868-0.46355-0.23924-0.17837 0.96870-0.93731
   4   5  -1 1080.23 172.756   2 0.41254-0.13240 0.24093 0.17684 0.93846-0.98323
   4   5  -1 1018.35 129.591   6-0.28286 0.56314 0.29119 0.12642-0.95008 0.90487
  -4   5   1 1087.21 174.300   6-0.29260 0.01199 0.32706 0.09067-0.93678 0.98156
  -4  -5   1 1125.56 181.551   3-0.44843 0.16803-0.21445-0.20340-0.93435 0.97913
  -4  -5   1 1054.18 183.004   9 0.13453-0.41486-0.17830-0.23937 0.98306-0.93823
   4  -5  -1 1229.62 160.704   9-0.02943 0.30974-0.53030 0.11272 0.82818-0.87263
  -4   5   1 1061.80 175.335   1 0.15604-0.43640 0.19381 0.22415 0.98074-0.93600
  -4  -5   1 1312.21 169.662   4 0.02111-0.30160-0.52568 0.10833-0.83246 0.87716
   4   5  -1 979.964 152.737   5 0.49064-0.21043 0.18296 0.23475 0.92647-0.97150
   4  -5  -1 1076.92 170.124   8 0.52407-0.24368-0.15730-0.26043 0.91802-0.96279
   4  -5  -1 1032.35 174.156   4-0.12863 0.40943-0.17388-0.24418-0.98344 0.93868
  -4   5   1 1092.82 160.049   7-0.59851 0.31866 0.09692 0.32066-0.89033 0.93474
   3   5  -1 931.652 138.560   5 0.52518-0.31949 0.20413 0.21352 0.90733-0.96584
  -3   5   1 1081.93 98.1231   2 0.45876-0.66463 0.30322 0.11464 0.90421-0.84633
   3   5  -1 982.739 160.869   2 0.42751-0.22186 0.26082 0.15698 0.92844-0.98667
   3   5  -1 1128.62 143.131   6-0.24789 0.45358 0.17097 0.24685-0.98274 0.92408
  -3   5   1 895.869 150.207   6-0.29449 0.08842 0.33415 0.08351-0.93394 0.99219
  -3  -5   1 1167.76 185.902   9 0.15788-0.36367-0.12128-0.29644 0.99242-0.93414
   3  -5  -1 931.398 137.525   9-0.00119 0.20706-0.47531 0.05777 0.86526-0.92315
  -3  -5   1 961.906 157.115   3-0.47129 0.26552-0.23567-0.18217-0.92095 0.97920
   3  -5  -1 1189.26 171.578   8 0.56967-0.36379-0.17698-0.24074 0.89241-0.95064
  -3   5   1 989.933 159.050   1 0.16881-0.37465 0.12678 0.29109 0.99183-0.93362
  -3  -5   1 1055.99 158.943   4-0.00338-0.20265-0.47353 0.05617-0.86675 0.92493
   3  -5  -1 1008.09 168.968   4-0.14997 0.35616-0.11685-0.30134-0.99266 0.93443
  -3   5   1 1111.32 147.720   7-0.66890 0.46355 0.11171 0.30579-0.84374 0.90154
   2  -5  -1 18.8806 35.7630   4-0.16857 0.30015-0.06549-0.35280-0.99776 0.92605
   2   5  -1 -7.4738 27.0760   6-0.22048 0.35157 0.08389 0.33409-0.99565 0.92350
  -2   5   1 48.4493 36.4034   1 0.17910-0.31045 0.06888 0.34890 0.99760-0.92593
  -2   5   1 0.80927 11.7757   2 0.32118-0.45254 0.12408 0.29373 0.98138-0.91003
  -2   5   1 56.6830 51.0053   6-0.29942 0.16792 0.35294 0.06464-0.92610 0.99781
   2  -5  -1 18.1736 13.2275   9 0.01447 0.11696-0.44384 0.02633 0.88399-0.95532
   2   5  -1 53.2839 27.4849   5 0.58106-0.44990 0.23902 0.17860 0.87001-0.94201
  -2  -5   1 -5.1766 20.7111   3-0.50828 0.37711-0.27056-0.14727-0.89582 0.96754
   2   5  -1 49.1896 47.7673   2 0.45199-0.32086 0.29393 0.12391 0.90986-0.98156
   2  -5  -1 -22.501 25.9722   8 0.64402-0.51263-0.20966-0.20806 0.84010-0.91182
  -2  -5   1 -19.259 27.1651   9 0.17851-0.30977-0.06922-0.34853 0.99763-0.92589
   2  -5  -1 -2.2964 6.45924   3-0.37187 0.50354-0.14519-0.27293-0.96889 0.89736
   1   5  -1 50.9681 20.1781   6-0.20043 0.25692 0.02334 0.39476-0.99953 0.91387
   1  -5  -1 39.4816 38.9879   4-0.18423 0.24118-0.02099-0.39737-0.99977 0.91456
  -1  -5   1 51.6457 13.4009   8 0.20067-0.25720-0.02336-0.39419 0.99953-0.91409
  -1   5   1 11.2232 36.9616   6-0.30755 0.25059 0.38467 0.03281-0.91172 0.99688
   1  -5  -1 52.3180 31.4368   9 0.02113 0.03582-0.43022 0.01274 0.89157-0.97636
  -1  -5   1 23.8736 20.9683   3-0.56301 0.50647-0.32376-0.09405-0.84941 0.93456
   1   5  -1 73.7299 55.0100   5 0.66512-0.60847 0.29329 0.12426 0.79540-0.88090
  -1   5   1 52.2587 34.3544   2 0.24604-0.30289 0.03288 0.38488 0.99720-0.91239
  -1   5   1 57.2751 41.9437   1 0.18710-0.24397 0.02105 0.39666 0.99975-0.91462
  -1  -5   1 53.8771 5.38861   9 0.19617-0.25290-0.02331-0.39446 0.99961-0.91442
   0   5  -1 3660.86 275.197   2 0.53588-0.55376 0.41386 0.00405 0.82038-0.91902
   0   5  -1 3227.99 283.627   6-0.18701 0.16890-0.01592 0.43411-0.99985 0.90068
   0   5   1 3886.27 318.129   6-0.31876 0.33636 0.43048-0.01311-0.88832 0.98692
   0  -5   1 3788.32 302.993   9 0.21056-0.19276 0.01509-0.43288 0.99942-0.90077
   0  -5  -1 3951.20 307.438   9 0.02103-0.03855-0.43045 0.01299 0.89145-0.98970
   0  -5   1 3690.17 187.395   8 0.10371-0.08576 0.01526-0.43284 0.99686-0.89797
   0  -5   1 3512.72 294.643   4-0.02279 0.04033-0.43072 0.01342-0.89134 0.98994
   0   5  -1 3406.30 136.585   7-0.04404 0.02602-0.01340 0.43144-0.99045 0.89150
   0  -5  -1 3641.74 133.613   7-0.19459 0.17660 0.01572-0.43322-0.99978 0.90134
   0  -5  -1 3385.91 286.464   4-0.19670 0.17900 0.01534-0.43374-0.99975 0.90105
   0   5   1 3598.72 298.952   1 0.19298-0.17534-0.01584 0.43350 0.99980-0.90122
   1   5   1 968.360 155.504   1 0.19682-0.10470-0.04099 0.45860 0.99904-0.88700
  -1   5  -1 1035.52 165.897   6-0.17935 0.08664-0.03790 0.45615-0.99927 0.88660
   1   5   1 1114.00 168.055   6-0.33257 0.42474 0.49104-0.07379-0.85222 0.96423
   1  -5   1 1006.12 148.705   9 0.22133-0.12901 0.04444-0.46223 0.99813-0.88604
   1  -5   1 1103.33 125.546   8 0.08917 0.00331 0.02101-0.43861 0.99551-0.88316
  -1  -5  -1 996.892 157.401   9 0.01560-0.10762-0.44154 0.02412 0.88529-0.99700
   1  -5   1 1076.62 169.426   4-0.01765 0.10975-0.44215 0.02490-0.88506 0.99712
  -1   5  -1 1146.24 107.621   7-0.04900-0.04360-0.01245 0.43054-0.99113 0.87868
   2   5   1 2203.01 230.301   1 0.19870-0.03207-0.05354 0.47111 0.99841-0.87292
  -2   5  -1 2042.54 242.293   6-0.17662 0.00933-0.04566 0.46396-0.99893 0.87278
   2  -5   1 2207.21 226.318   9 0.22799-0.06115 0.06287-0.48065 0.99681-0.87128
   2   5   1 2181.31 236.313   6-0.34791 0.51461 0.56611-0.14899-0.79814 0.92354
  -2  -5  -1 2320.34 258.125   9 0.00587-0.17240-0.46121 0.04382 0.87387-0.99902
   2  -5   1 2328.32 211.497   8 0.09852 0.06849 0.01732-0.43493 0.99640-0.87059
   2   5   1 2229.18 92.1776   8 0.48767-0.32084-0.14176 0.55965 0.93545-0.80975
   2  -5   1 1979.20 241.502   4-0.00850 0.17514-0.46235 0.04516-0.87347 0.99895
  -2  -5  -1 2376.94 114.797   7 0.00274-0.16979-0.02235-0.39535-0.98279 0.85725
  -2   5  -1 2178.27 179.645   7-0.07393-0.09325-0.00766 0.42579-0.99418 0.86824
  -3   5  -1 169.779 87.7089   6-0.17809-0.06378-0.04150 0.45985-0.99912 0.85948
  -3  -5  -1 147.068 82.2880   9-0.00741-0.23362-0.48762 0.07027 0.85746-0.99606
   3   5   1 219.181 79.7441   1 0.19856 0.04258-0.05255 0.47010 0.99847-0.85951
   3   5   1 187.797 29.6434   8 0.00946 0.23208 0.05223 0.36562 0.98385-0.84467
   3  -5   1 247.242 76.1861   9 0.22983 0.01150 0.06802-0.48578 0.99637-0.85740
   3  -5   1 155.327 66.1790   8 0.11840 0.12314 0.00945-0.42710 0.99797-0.85869
  -3  -5  -1 281.120 55.8701   7-0.09532-0.14627-0.00354-0.41412-0.99628 0.85728
  -3   5  -1 207.701 62.2668   7-0.10493-0.13681-0.00169 0.41984-0.99707 0.85765
   3  -5   1 137.046 43.0201   4 0.00405 0.23715-0.48954 0.07243-0.85675 0.99565
   4  -5   1 385.401 100.031   9 0.22574 0.09008 0.05662-0.47438 0.99730-0.84489
  -4   5  -1 187.455 84.4287   6-0.18311-0.13332-0.02717 0.44555-0.99962 0.84651
   4   5   1 223.484 74.6479   1 0.19619 0.11947-0.03680 0.45431 0.99921-0.84679
  -4  -5  -1 222.127 66.5432   4-0.20598-0.11018 0.04292-0.46124-0.99876 0.84613
  -4  -5  -1 239.729 97.7137   9-0.02367-0.29187-0.51927 0.10198 0.83609-0.98813
  -4   5  -1 226.898 67.4754   7-0.13860-0.17772 0.00482 0.41335-0.99908 0.84617
   4  -5   1 246.042 80.8825   8 0.14389 0.17220-0.00067-0.41700 0.99931-0.84656
  -4  -5  -1 250.818 66.6579   7-0.15663-0.15949 0.00833-0.42598-0.99967 0.84718
   4  -5   1 227.342 99.8455   4 0.01948 0.29627-0.52227 0.10523-0.83486 0.98715
  -5   5  -1 -30.667 16.6666   6-0.19113-0.19984-0.00397 0.42239-0.99993 0.83337
  -5  -5  -1 68.6815 36.4120   4-0.19343-0.19727 0.00572-0.42398-0.99990 0.83383
  -5  -5  -1 -10.030 68.8247   9-0.04249-0.34757-0.55493 0.13769 0.80962-0.97508
   5  -5   1 82.2470 37.6640   8 0.17274 0.21789-0.01217-0.40551 0.99990-0.83368
   5  -5   1 83.2749 36.2030   9 0.21371 0.17657 0.02362-0.44137 0.99914-0.83331
   5   5   1 84.9827 48.2279   1 0.19121 0.19900-0.00456 0.42205 0.99993-0.83404
  -5   5  -1 -22.545 45.2115   7-0.17367-0.21721 0.01164 0.40655-0.99991 0.83350
  -5  -5  -1 57.2289 24.0621   7-0.20685-0.18379 0.01812-0.43576-0.99949 0.83349
   5  -5   1 83.3782 69.4889   4 0.03742 0.35288-0.55927 0.14232-0.80760 0.97326
  -6   5  -1 1228.21 210.446   6-0.20171-0.26379 0.02713 0.39132-0.99941 0.81940
  -6  -5  -1 340.393 136.197   9-0.06351-0.40107-0.59353 0.17636 0.77778-0.95666
   6  -5   1 1242.52 198.492   8 0.20376 0.26142-0.02460-0.39310 0.99943-0.81974
  -6   5  -1 1483.88 223.598   7-0.20963-0.25583 0.01866 0.39956-0.99940 0.81951
  -7   5  -1 147.921 118.286   6-0.21445-0.32558 0.06544 0.35304-0.99727 0.80382
   7  -5   1 278.796 98.5607   8 0.23627 0.30345-0.03771-0.38001 0.99768-0.80453
   7   5   1 98.9376 42.1233   2 0.24314 0.29598 0.02944 0.38808 0.99751-0.80503
  -7   5  -1 220.212 127.964   7-0.24632-0.29374 0.02586 0.39243-0.99741 0.80414
   8  -5   1 -11.030 45.8044   8 0.26986 0.34441-0.05132-0.36642 0.99448-0.78786
  -8   5  -1 35.2473 29.7369   6-0.22902-0.38552 0.11048 0.30803-0.99264 0.78576
   8   5   1 170.181 83.0003   2 0.26610 0.34753 0.05684 0.36065 0.99449-0.78855
  -8   5  -1 7.07586 11.7767   7-0.28322-0.33144 0.03312 0.38520-0.99389 0.78715
  -9  -5  -1 70.6369 85.4117   3-0.29622-0.39275-0.07899-0.33899-0.98967 0.76990
   9   5   1 69.5821 60.6998   2 0.29089 0.39724 0.08682 0.33064 0.98965-0.77026
 -10   6   1 42.0462 49.8807   7-0.58500-0.14219 0.09411 0.40735-0.89804 0.86150
  10   6  -1 -39.470 33.6501   5 0.51685 0.21062 0.19900 0.30243 0.91220-0.87632
  10   6  -1 -36.032 54.7335   2 0.45213 0.27498 0.29413 0.20705 0.90974-0.87380
  10  -6  -1 9.72605 107.724   8 0.54012 0.18748-0.16420-0.33716 0.90950-0.87347
  -9   6   1 416.592 156.229   7-0.57559-0.07703 0.09217 0.40927-0.90320 0.88017
  -9  -6   1 79.0898 95.9333   9-0.01357-0.63937-0.49969-0.00115 0.84954-0.87176
   9   6  -1 457.658 146.692   5 0.50436 0.14856 0.19133 0.31007 0.91920-0.89681
   9  -6  -1 349.082 128.222   8 0.52820 0.12485-0.15907-0.34226 0.91588-0.89331
  -9  -6   1 402.632 152.897   3-0.47133-0.18200-0.23570-0.26567-0.92093 0.89832
  -9   6   1 158.651 65.4699   6-0.31939-0.33393 0.43315 0.06838-0.88686 0.86430
   9   6  -1 395.511 157.803   2 0.43974 0.21288 0.27727 0.22392 0.91951-0.89701
   9  -6  -1 483.953 153.651   4 0.01074 0.64281-0.50384 0.00300-0.84743 0.86955
   8  -6  -1 96.1714 81.4720   4-0.01822 0.59727-0.44090-0.06010-0.88576 0.89457
  -8   6   1 20.0991 25.4141   7-0.57167-0.00637 0.09136 0.41004-0.90530 0.89577
  -8   6   1 -3.8627 10.9036   6-0.31172-0.26709 0.40144 0.10006-0.90353 0.89442
  -8  -6   1 -44.681 29.5158   9 0.01680-0.59521-0.43909-0.06184 0.88667-0.89550
   8   6  -1 56.6432 20.7522   5 0.49569 0.08270 0.18603 0.31534 0.92384-0.91495
   8  -6  -1 21.7343 68.3543   8 0.52063 0.05788-0.15582-0.34549 0.91977-0.91067
  -8  -6   1 167.391 124.423   3-0.46173-0.11702-0.22677-0.27463-0.92674 0.91762
   8   6  -1 76.6905 67.2848   2 0.42999 0.14812 0.26416 0.23706 0.92667-0.91763
  -7   6   1 245.200 114.076   7-0.57507 0.07160 0.09206 0.40927-0.90348 0.90743
   7  -6  -1 169.056 93.1900   4-0.04517 0.54969-0.37977-0.12142-0.91681 0.91228
  -7   6   1 241.093 101.954   6-0.30541-0.19888 0.37622 0.12523-0.91569 0.92004
   7   6  -1 219.757 95.2969   5 0.49183 0.01200 0.18368 0.31765 0.92586-0.93045
   7  -6  -1 115.405 74.4348   8 0.51867-0.01470-0.15499-0.34631 0.92076-0.92512
  -7  -6   1 220.531 90.6883   3-0.45604-0.04812-0.22149-0.27993-0.93006 0.93442
  -7  -6   1 205.583 89.2167   9 0.04526-0.54914-0.37989-0.12113 0.91701-0.91245
   7   6  -1 171.536 92.9963   2 0.42344 0.08017 0.25540 0.24585 0.93125-0.93567
  -6   6   1 117.220 56.5237   7-0.58845 0.15956 0.09483 0.40643-0.89611 0.91352
   6  -6  -1 33.1537 47.0256   4-0.07004 0.50000-0.32110-0.18026-0.94146 0.92355
  -6   6   1 71.6425 33.9618   6-0.30073-0.12903 0.35797 0.14344-0.92392 0.94172
  -6  -6   1 59.9534 73.5881   9 0.07172-0.50108-0.32270-0.17839 0.94131-0.92332
   6   6  -1 78.0249 62.1979   5 0.49418-0.06488 0.18511 0.31618 0.92464-0.94272
   6  -6  -1 21.3573 24.8928   8 0.52411-0.09466-0.15732-0.34396 0.91800-0.93581
  -6  -6   1 -43.725 54.7820   3-0.45520 0.02564-0.22072-0.28072-0.93054 0.94837
   6   6  -1 6.15215 83.8475   2 0.42073 0.00838 0.25179 0.24948 0.93309-0.95097
   5   6  -1 1991.11 267.663   2 0.42268-0.06807 0.25438 0.24692 0.93178-0.96311
  -5   6   1 2018.73 279.048   6-0.29796-0.05727 0.34728 0.15406-0.92851 0.95978
  -5  -6   1 2138.74 291.344   9 0.09607-0.45090-0.26819-0.23295 0.96023-0.92881
  -5  -6   1 2137.26 279.955   3-0.46045 0.10549-0.22558-0.27588-0.92750 0.95882
   5   6  -1 1944.09 242.892   5 0.50457-0.14981 0.19146 0.30978 0.91908-0.95066
   5  -6  -1 2474.12 285.367   8 0.53947-0.18454-0.16392-0.33734 0.90986-0.94114
   5  -6  -1 2190.83 293.897   4-0.09274 0.44813-0.26558-0.23593-0.96049 0.92916
  -5   6   1 2417.30 268.243   7-0.61583 0.26148 0.10054 0.40064-0.87990 0.91076
  -4   6   1 54.0046 55.5915   7-0.66316 0.38333 0.11049 0.39059-0.84798 0.89226
  -4  -6   1 96.5871 73.2378   9 0.11818-0.39848-0.21711-0.28410 0.97445-0.92958
   4  -6  -1 146.761 91.0216   4-0.11317 0.39396-0.21399-0.28766-0.97467 0.92990
  -4   6   1 -7.0548 21.1899   1 0.14773-0.42815 0.23504 0.26649 0.97149-0.92680
   4  -6  -1 51.7233 28.3752   9-0.02199 0.30234-0.51604 0.01499 0.83836-0.88277
   4   6  -1 28.3827 8.55649   6-0.29280 0.57307 0.32781 0.17337-0.93648 0.89122
  -4   6   1 61.0969 59.2060   6-0.29731 0.01664 0.34487 0.15642-0.92953 0.97426
  -4  -6   1 54.1552 44.6434   3-0.47335 0.19300-0.23759-0.26387-0.91967 0.96447
   4   6  -1 27.3397 22.5215   5 0.52562-0.24539 0.20440 0.29680 0.90707-0.95214
   4  -6  -1 58.3088 57.8278   8 0.56839-0.28797-0.17642-0.32483 0.89319-0.93794
   4   6  -1 -17.613 51.0888   2 0.43024-0.15013 0.26450 0.23684 0.92649-0.97129
  -3  -6   1 665.847 161.235   9 0.13789-0.34364-0.17023-0.33102 0.98462-0.92631
  -3   6   1 598.057 139.767   7-0.73891 0.53356 0.12669 0.37429-0.78448 0.84214
  -3   6   1 472.840 126.083   6-0.29906 0.09294 0.35154 0.14968-0.92670 0.98490
   3   6  -1 467.835 102.217   6-0.26535 0.47102 0.22953 0.27185-0.96906 0.91034
  -3   6   1 462.564 119.805   1 0.15885-0.36476 0.17949 0.32194 0.98351-0.92534
   3  -6  -1 479.248 120.575   9 0.00031 0.20560-0.47233-0.02870 0.86711-0.92496
   3   6  -1 343.727 85.2829   5 0.56081-0.35510 0.22627 0.27488 0.88452-0.94308
  -3  -6   1 434.384 114.925   3-0.49591 0.29018-0.25881-0.24264-0.90473 0.96299
   3   6  -1 451.908 111.154   2 0.44459-0.23898 0.28386 0.21751 0.91577-0.97404
   3  -6  -1 540.787 133.607   8 0.61606-0.41014-0.19728-0.30395 0.86147-0.91969
  -3  -6   1 374.341 108.390   4-0.00458-0.20151-0.47090-0.02997-0.86834 0.92652
  -2   6   1 415.762 83.1324   2 0.38425-0.51563 0.20393 0.29744 0.95494-0.88363
  -2  -6   1 217.521 86.0108   9 0.15498-0.28621-0.12845-0.37282 0.99146-0.91969
   2   6  -1 255.840 87.3626   2 0.46698-0.33587 0.31457 0.18684 0.89703-0.96876
   2  -6  -1 346.200 100.562   4-0.14665 0.27819-0.12587-0.37599-0.99145 0.91975
   2   6  -1 395.596 111.258   6-0.24302 0.37409 0.15514 0.34640-0.98574 0.91354
  -2   6   1 286.111 95.5610   6-0.30335 0.17180 0.36817 0.13297-0.91938 0.99104
   2  -6  -1 243.082 77.5428   9 0.01316 0.11830-0.44651-0.05451 0.88247-0.95378
  -2  -6   1 341.123 97.7171   3-0.53058 0.39947-0.29199-0.20945-0.87836 0.95008
   2  -6  -1 425.709 70.3014   3-0.47309 0.60483-0.23734-0.26434-0.91984 0.84827
   2  -6  -1 610.833 156.448   8 0.68931-0.55787-0.23001-0.27122 0.80038-0.87209
  -2   6   1 341.467 99.9799   1 0.16785-0.29926 0.13196 0.36940 0.99114-0.91951
  -2  -6   1 330.607 99.3284   4-0.01592-0.11565-0.44600-0.05489-0.88291 0.95457
   1  -6  -1 4945.37 272.879   3-0.34674 0.40382-0.12297-0.37881-0.97716 0.89216
   1   6  -1 4335.37 337.128   2 0.49864-0.44204 0.35919 0.14225 0.86580-0.95100
   1   6  -1 4406.37 353.927   6-0.22598 0.28243 0.10096 0.40069-0.99381 0.90811
  -1   6   1 4462.90 296.744   2 0.31554-0.37242 0.11710 0.38423 0.98312-0.89835
  -1   6   1 4498.62 382.129   6-0.31028 0.25329 0.39564 0.10540-0.90641 0.99153
  -1  -6   1 4865.67 369.755   3-0.57985 0.52337-0.34056-0.16084-0.83251 0.91766
   1  -6  -1 4408.06 352.924   9 0.01885 0.03813-0.43490-0.06610 0.88900-0.97377
  -1  -6   1 4492.03 364.379   4-0.02095-0.03609-0.43482-0.06606-0.88911 0.97425
  -1   6   1 4183.35 362.967   1 0.17486-0.23178 0.09316 0.40813 0.99560-0.91052
   1  -6  -1 4078.33 357.424   4-0.15934 0.21625-0.09119-0.41073-0.99558 0.91040
  -1  -6   1 4220.91 363.853   9 0.16925-0.22595-0.09277-0.40853 0.99566-0.91045
   0  -6   1 191.544 79.3907   4-0.02088 0.03840-0.43498-0.06588-0.88902 0.98764
   0  -6  -1 185.146 59.8972   3-0.28051 0.26292-0.06549-0.43632-0.99251 0.89404
   0  -6  -1 193.103 71.5957   4-0.16905 0.15132-0.06418-0.43776-0.99785 0.89918
   0   6  -1 172.293 71.1020   6-0.21391 0.19577 0.06382 0.43794-0.99740 0.89820
   0   6   1 207.274 88.3521   1 0.17998-0.16240 0.06377 0.43747 0.99794-0.89939
   0  -6  -1 174.209 75.9415   9 0.01891-0.03641-0.43477-0.06620 0.88907-0.98729
   0   6   1 227.690 89.9691   6-0.31978 0.33735 0.43479 0.06615-0.88596 0.98452
   0  -6   1 204.127 81.0479   9 0.18044-0.16261-0.06428-0.43702 0.99796-0.89929
   0  -6   1 203.734 43.6319   8 0.30403-0.28600-0.06525-0.43583 0.98974-0.89082
   1  -6   1 3440.65 229.936   8 0.23452-0.14200-0.03700-0.46410 0.99781-0.88543
  -1   6  -1 3365.18 329.022   6-0.20639 0.11364 0.04109 0.46072-0.99882 0.88613
   1   6   1 3541.98 337.783   6-0.33151 0.42365 0.48617 0.01464-0.85535 0.96734
   1   6   1 3111.68 284.916   2 0.24848-0.15636 0.03579 0.46545 0.99693-0.88523
   1  -6   1 3029.97 293.684   9 0.18816-0.09582-0.04430-0.45701 0.99900-0.88689
  -1  -6  -1 3164.05 321.150   9 0.01438-0.10637-0.44403-0.05693 0.88388-0.99556
   1  -6   1 2833.07 302.235   4-0.01658 0.10866-0.44454-0.05628-0.88373 0.99580
  -1   6  -1 3285.37 179.786   7-0.27625 0.18378 0.03174 0.46976-0.99468 0.88227
  -1  -6  -1 3219.39 304.681   4-0.17545 0.08310-0.04610-0.45586-0.99891 0.88674
   1   6   1 3015.99 303.734   1 0.18325-0.09117 0.04447 0.45672 0.99899-0.88699
   2  -6   1 24.5455 20.3574   9 0.19195-0.02510-0.03440-0.46690 0.99935-0.87380
  -2   6  -1 90.5906 54.2456   6-0.20290 0.03557 0.03068 0.47119-0.99928 0.87309
  -2  -6  -1 40.7492 40.1908   4-0.17815 0.01118-0.03844-0.46352-0.99924 0.87359
   2   6   1 135.304 65.1628   6-0.34477 0.51146 0.54983-0.04915-0.81083 0.93622
  -2  -6  -1 119.752 76.7017   9 0.00601-0.17250-0.46094-0.03998 0.87403-0.99915
   2   6   1 13.3754 23.4625   1 0.18465-0.01808 0.03597 0.46519 0.99933-0.87387
   2  -6   1 87.6898 37.9061   8 0.21192-0.04488-0.02789-0.47324 0.99911-0.87327
  -2   6  -1 73.3069 31.8177   7-0.23071 0.06365 0.02279 0.47883-0.99844 0.87254
   2  -6   1 79.5249 38.9444   4-0.00870 0.17534-0.46190-0.03887-0.87373 0.99924
  -3   6  -1 90.2253 72.0664   6-0.20298-0.03894 0.03090 0.47101-0.99927 0.85960
  -3  -6  -1 40.3231 7.36802   4-0.17651-0.06506-0.04308-0.45883-0.99905 0.85992
   3  -6   1 126.952 50.3477   9 0.19111 0.05024-0.03659-0.46469 0.99929-0.86030
  -3  -6  -1 1.83732 42.1250   9-0.00563-0.23538-0.48411-0.01677 0.85971-0.99829
   3   6   1 85.6923 58.5194   1 0.18414 0.05695 0.03907 0.46206 0.99922-0.86029
   3  -6   1 158.894 62.5936   8 0.21057 0.03099-0.02734-0.47381 0.99917-0.85987
  -3   6  -1 112.362 52.5064   7-0.22445-0.01719 0.02156 0.48011-0.99877 0.85936
   3  -6   1 94.7473 66.6529   4 0.00227 0.23895-0.48572-0.01498-0.85918 0.99812
  -4  -6  -1 516.509 111.434   4-0.16961-0.14653-0.06260-0.43925-0.99796 0.84537
  -4   6  -1 419.592 134.295   6-0.20616-0.11031 0.04042 0.46153-0.99886 0.84571
   4  -6   1 604.371 129.449   9 0.18456 0.13126-0.05362-0.44765 0.99857-0.84615
  -4  -6  -1 522.907 148.756   9-0.02007-0.29545-0.51233 0.01150 0.84094-0.99295
   4  -6   1 482.152 125.555   8 0.22085 0.09525-0.03148-0.46969 0.99867-0.84590
   4   6   1 364.400 101.901   1 0.18151 0.13411 0.05479 0.44631 0.99848-0.84609
  -4   6  -1 498.976 114.444   7-0.23496-0.08127 0.02362 0.47813-0.99819 0.84533
   4  -6   1 518.251 155.838   4 0.01594 0.29984-0.51483 0.01420-0.84001 0.99235
  -5   6  -1 1725.99 267.402   6-0.21207-0.17897 0.05818 0.44380-0.99780 0.83119
   5  -6   1 1711.12 245.732   8 0.23823 0.15242-0.03850-0.46270 0.99753-0.83130
  -5  -6  -1 1774.55 295.404   9-0.03699-0.35307-0.54460 0.04382 0.81756-0.98300
   5  -6   1 1654.28 276.912   4 0.03200 0.35833-0.54821 0.04769-0.81604 0.98175
   5   6   1 1448.24 194.495   1 0.17639 0.21378 0.08448 0.41659 0.99639-0.83052
  -5   6  -1 1756.09 238.564   7-0.25402-0.13679 0.02737 0.47443-0.99681 0.83047
  -6   6  -1 18.6226 109.514   6-0.22031-0.24525 0.08338 0.41863-0.99570 0.81563
  -6  -6  -1 -65.666 86.1516   9-0.05607-0.40851-0.58002 0.07929 0.78932-0.96818
   6   6   1 91.1942 69.2913   2 0.25927 0.20533 0.04865 0.45244 0.99553-0.81655
   6  -6   1 79.7933 64.7524   8 0.26027 0.20490-0.04743-0.45379 0.99554-0.81585
   6  -6   1 15.9777 26.1001   4 0.05021 0.41468-0.58499 0.08454-0.78694 0.96600
  -6   6  -1 1.72211 21.3396   7-0.27829-0.18711 0.03215 0.46971-0.99445 0.81466
  -7  -6  -1 140.437 104.479   3-0.27952-0.26031-0.06464-0.43701-0.99267 0.79984
  -7  -6  -1 -186.94 111.875   9-0.07709-0.46200-0.61779 0.11712 0.75590-0.94817
  -7   6  -1 162.363 67.1387   6-0.23059-0.30950 0.11541 0.38663-0.99199 0.79847
   7   6   1 69.1111 31.9811   2 0.27559 0.26351 0.06827 0.43280 0.99283-0.80040
   7  -6   1 182.157 83.5623   8 0.28557 0.25415-0.05771-0.44352 0.99249-0.79933
  -7   6  -1 344.836 131.209   7-0.30576-0.23421 0.03758 0.46431-0.99097 0.79768
  -8  -6  -1 201.889 164.841   3-0.30148-0.31291-0.08353-0.41809-0.98861 0.78230
   8  -6   1 160.470 86.5172   8 0.31321 0.30106-0.06901-0.43225 0.98820-0.78156
   8   6   1 3.78448 36.9066   2 0.29452 0.31909 0.09125 0.40978 0.98880-0.78290
   9   6   1 -99.414 91.5920   2 0.31559 0.37251 0.11715 0.38386 0.98311-0.76376
  -9  -6  -1 269.687 197.212   3-0.32558-0.36339-0.10443-0.39716-0.98304 0.76327
  -9   7   1 140.592 79.3449   7-0.61985-0.03270 0.10138 0.48362-0.87739 0.85423
  -9   7   1 -6.7202 55.6606   6-0.32209-0.33132 0.44466 0.14043-0.88042 0.85777
  -9  -7   1 -28.725 95.1427   9-0.01569-0.63721-0.50385-0.08057 0.84675-0.86893
   9   7  -1 6.10271 77.6429   5 0.53136 0.12156 0.20794 0.37696 0.90360-0.88123
  -9  -7   1 -36.100 84.2169   3-0.49132-0.16199-0.25448-0.33051-0.90790 0.88530
   9   7  -1 -90.209 84.1893   2 0.45412 0.19847 0.29684 0.28791 0.90811-0.88565
   9  -7  -1 192.433 145.241   8 0.56101 0.09206-0.17322-0.41163 0.89762-0.87503
   9  -7  -1 -29.085 88.4635   4 0.01257 0.64105-0.50771-0.07675-0.84484 0.86695
  -8   7   1 553.839 160.423   7-0.62029 0.04232 0.10147 0.48346-0.87711 0.86745
  -8   7   1 848.961 228.176   6-0.31541-0.26348 0.41657 0.16846-0.89577 0.88658
  -8  -7   1 601.323 197.725   9 0.01163-0.59001-0.44962-0.13488 0.88068-0.88947
   8   7  -1 490.179 130.798   5 0.52518 0.05319 0.20414 0.38074 0.90732-0.89845
  -8  -7   1 734.849 211.969   3-0.48367-0.09506-0.24727-0.33776-0.91304 0.90392
   8  -7  -1 699.510 210.617   8 0.55651 0.02203-0.17127-0.41355 0.90026-0.89114
   8   7  -1 606.613 195.446   2 0.44597 0.13213 0.28571 0.29906 0.91470-0.90569
   8  -7  -1 733.422 236.983   4-0.01342 0.59250-0.45155-0.13309-0.87975 0.88855
   7  -7  -1 176.966 101.509   4-0.03744 0.54197-0.39756-0.18724-0.90836 0.90381
  -7   7   1 84.3077 26.9962   7-0.62867 0.12527 0.10322 0.48164-0.87175 0.87556
  -7   7   1 128.739 41.5080   6-0.30999-0.19437 0.39447 0.19052-0.90698 0.91125
  -7  -7   1 247.898 108.048   9 0.03705-0.54090-0.39722-0.18735 0.90870-0.90409
   7   7  -1 153.183 80.7356   5 0.52393-0.02009 0.20336 0.38148 0.90807-0.91269
   7  -7  -1 268.876 119.966   8 0.55787-0.05387-0.17186-0.41294 0.89946-0.90380
  -7  -7   1 79.8797 23.2228   3-0.47988-0.02426-0.24371-0.34133-0.91551 0.91988
   7   7  -1 231.105 116.063   2 0.44088 0.06270 0.27882 0.30598 0.91864-0.92309
   6  -7  -1 613.077 165.245   4-0.05945 0.48941-0.34634-0.23863-0.93145 0.91351
  -6   7   1 663.890 171.955   6-0.30605-0.12379 0.37874 0.20622-0.91452 0.93225
  -6  -7   1 506.828 173.762   9 0.06050-0.48983-0.34720-0.23744 0.93148-0.91344
   6   7  -1 476.970 141.311   5 0.52885-0.09956 0.20640 0.37840 0.90513-0.92324
   6  -7  -1 685.356 178.100   8 0.56682-0.13733-0.17574-0.40904 0.89414-0.91194
  -6  -7   1 670.300 172.890   3-0.48080 0.05127-0.24457-0.34049-0.91492 0.93277
   6   7  -1 411.424 145.372   2 0.43944-0.01035 0.27686 0.30796 0.91974-0.93765
  -5  -7   1 59.2949 79.0828   9 0.08189-0.43668-0.30016-0.28452 0.94962-0.91815
   5  -7  -1 -18.973 27.8935   4-0.07938 0.43476-0.29848-0.28663-0.94970 0.91836
  -5   7   1 -64.708 83.6318   6-0.30378-0.05151 0.36984 0.21506-0.91862 0.94983
   5   7  -1 24.8479 38.1885   5 0.54165-0.18689 0.21433 0.37041 0.89719-0.92880
  -5  -7   1 -78.263 57.0148   3-0.48748 0.13256-0.25085-0.33422-0.91051 0.94183
   5  -7  -1 -8.7777 49.9800   8 0.58571-0.23074-0.18396-0.40081 0.88230-0.91357
   5   7  -1 7.60910 61.0943   2 0.44230-0.08771 0.28074 0.30412 0.91755-0.94892
   4  -7  -1 816.666 184.092   4-0.09714 0.37790-0.25462-0.33062-0.96378 0.91900
   4   7  -1 954.573 166.628   6-0.30292 0.58316 0.36643 0.21831-0.92016 0.87483
   4  -7  -1 1137.40 198.877   9-0.02432 0.30470-0.52052-0.06402 0.83521-0.87959
  -4   7   1 918.696 188.172   6-0.30340 0.02265 0.36833 0.21652-0.91931 0.96398
   4   7  -1 826.154 154.767   5 0.56456-0.28434 0.22863 0.35606 0.88191-0.92702
  -4  -7   1 975.539 206.681   9 0.10109-0.38135-0.25673-0.32801 0.96371-0.91881
   4   7  -1 780.628 172.602   2 0.45025-0.17016 0.29156 0.29334 0.91127-0.95611
  -4  -7   1 893.600 183.322   3-0.50124 0.22093-0.26386-0.32122-0.90096 0.94576
   4  -7  -1 1358.44 221.536   8 0.61780-0.33733-0.19804-0.38671 0.86021-0.90494
  -4  -7   1 841.614 157.192   4 0.01724-0.29788-0.51757-0.06681-0.83813 0.88278
   3  -7  -1 116.456 77.1785   4-0.11260 0.31874-0.21545-0.36989-0.97431 0.91607
   3   7  -1 173.628 73.8416   6-0.28053 0.48618 0.28281 0.30211-0.95294 0.89416
  -3   7   1 148.361 82.0346   1 0.14887-0.35485 0.22948 0.35554 0.97285-0.91472
  -3  -7   1 217.323 112.804   9 0.11798-0.32371-0.21758-0.36719 0.97433-0.91598
  -3  -7   1 200.530 82.8589   3-0.52367 0.31799-0.28532-0.29975-0.88397 0.94224
   3  -7  -1 356.556 121.829   9-0.00525 0.21119-0.48336-0.10117 0.86019-0.91802
  -3   7   1 138.299 57.4448   6-0.30505 0.09887 0.37482 0.20996-0.91634 0.97448
   3   7  -1 236.157 75.4144   5 0.60047-0.39476 0.25133 0.33332 0.85497-0.91358
   3   7  -1 142.693 81.8350   2 0.46417-0.25859 0.31068 0.27424 0.89953-0.95783
   3  -7  -1 214.876 93.1942   8 0.66740-0.46143-0.22012-0.36462 0.82044-0.87866
  -3  -7   1 242.140 97.7028   4 0.00052-0.20666-0.48194-0.10247-0.86155 0.91970
   2   7  -1 1605.07 227.795   2 0.48500-0.35391 0.33977 0.24518 0.88000-0.95177
   2   7  -1 1609.54 232.120   6-0.26186 0.39290 0.21763 0.36745-0.97217 0.89992
  -2   7   1 2002.29 276.124   6-0.30887 0.17726 0.38998 0.19473-0.90917 0.98079
  -2  -7   1 2109.89 293.796   9 0.13237-0.26356-0.18348-0.40131 0.98202-0.91022
  -2  -7   1 2104.02 270.225   3-0.55657 0.42553-0.31739-0.26767-0.85552 0.92724
   2  -7  -1 2064.51 264.383   9 0.00615 0.12534-0.46065-0.12387 0.87420-0.94548
   2   7  -1 2612.78 309.208   5 0.65275-0.52156 0.28513 0.29946 0.80807-0.88018
  -2   7   1 1561.81 247.385   1 0.15688-0.28836 0.18956 0.39538 0.98158-0.90999
  -2  -7   1 1891.87 256.222   4-0.00955-0.12207-0.46005-0.12438-0.87482 0.94647
   2  -7  -1 1608.01 248.579   4-0.12565 0.25715-0.18170-0.40372-0.98188 0.91017
  -1   7   1 308.191 87.6848   2 0.37265-0.42954 0.18899 0.39590 0.96082-0.87608
  -1  -7   1 201.959 86.1636   9 0.14406-0.20072-0.15526-0.42955 0.98731-0.90207
   1  -7  -1 290.461 106.912   4-0.13608 0.19295-0.15420-0.43127-0.98705 0.90187
   1   7  -1 295.346 99.0368   6-0.24716 0.30358 0.16859 0.41661-0.98321 0.89746
  -1   7   1 154.137 52.1643   6-0.31490 0.25787 0.41445 0.17015-0.89687 0.98195
   1   7  -1 241.528 88.9740   2 0.51353-0.45695 0.38074 0.20426 0.84889-0.93414
   1  -7  -1 340.354 105.278   9 0.01153 0.04549-0.44981-0.13469 0.88057-0.96530
  -1  -7   1 307.899 118.885   3-0.60162 0.54520-0.36268-0.22236-0.80846 0.89360
  -1   7   1 157.570 66.8519   1 0.16310-0.22007 0.15737 0.42751 0.98736-0.90231
  -1  -7   1 268.463 95.3202   4-0.01427-0.04282-0.44967-0.13477-0.88083 0.96596
   0  -7   1 184.579 95.7611   9 0.15279-0.13493-0.13387-0.45094 0.99069-0.89200
   0  -7  -1 83.1465 59.1305   4-0.14368 0.12593-0.13386-0.45165-0.99031 0.89164
   0   7   1 143.453 67.5074   2 0.33084-0.31324 0.13609 0.44876 0.97817-0.87997
   0   7  -1 233.903 149.970   6-0.23634 0.21816 0.13364 0.45167-0.98935 0.89011
   0   7  -1 117.724 71.7102   2 0.55006-0.56799 0.43547 0.14957 0.80000-0.89872
   0   7   1 126.451 50.9000   6-0.32307 0.34062 0.44886 0.13564-0.87801 0.97654
   0  -7  -1 129.544 50.1827   9 0.01200-0.02947-0.44886-0.13563 0.88112-0.97931
   0   7   1 62.8188 53.1615   1 0.16758-0.15006 0.13345 0.45136 0.99094-0.89243
   0  -7  -1 150.847 62.7031   3-0.36287 0.34536-0.13719-0.44822-0.97202 0.87355
   0  -7   1 279.031 122.270   4-0.01456 0.03204-0.44903-0.13541-0.88119 0.97981
   1   7   1 342.749 102.300   1 0.17033-0.07832 0.11840 0.46638 0.99288-0.88091
   1   7   1 443.917 132.279   2 0.30407-0.21197 0.10295 0.48185 0.98638-0.87472
  -1  -7  -1 388.506 133.105   4-0.14818 0.05580-0.12172-0.46378-0.99202 0.87987
  -1   7  -1 328.507 113.823   6-0.22918 0.13639 0.11096 0.47441-0.99257 0.87984
   1   7   1 487.985 147.135   6-0.33314 0.42525 0.49362 0.09075-0.85053 0.96248
   1  -7   1 406.955 117.460   9 0.15822-0.06585-0.12043-0.46438 0.99253-0.88040
  -1  -7  -1 474.553 137.732   9 0.00838-0.10034-0.45617-0.12830 0.87686-0.98850
   1  -7   1 403.862 128.865   4-0.01109 0.10314-0.45667-0.12774-0.87680 0.98887
  -1  -7  -1 532.143 126.433   3-0.32184 0.22968-0.10117-0.48424-0.98399 0.87204
  -2   7  -1 3181.40 354.966   6-0.22537 0.05799 0.09906 0.48638-0.99403 0.86780
   2   7   1 3220.85 340.039   2 0.28857-0.12198 0.08401 0.50076 0.99017-0.86506
   2   7   1 3259.31 338.576   6-0.34458 0.51126 0.54887 0.03538-0.81156 0.93692
   2  -7   1 3043.15 318.488   9 0.15989 0.00698-0.11627-0.46853 0.99306-0.86748
  -2  -7  -1 3345.10 371.624   9 0.00126-0.16773-0.47044-0.11401 0.86828-0.99337
   2  -7   1 3308.95 267.296   8 0.32659-0.15950-0.07450-0.51013 0.98576-0.85990
   2   7   1 3092.65 334.442   1 0.17135-0.00483 0.11279 0.47195 0.99354-0.86811
   2  -7   1 3087.35 360.324   4-0.00438 0.17101-0.47135-0.11300-0.86807 0.99360
  -2  -7  -1 3292.05 328.386   3-0.29923 0.13244-0.08158-0.50383-0.98907 0.86365
  -2  -7  -1 2914.01 317.105   4-0.14916-0.01784-0.11906-0.46642-0.99237 0.86674
  -3  -7  -1 444.361 126.790   3-0.28922 0.04781-0.07297-0.51244-0.99099 0.85208
   3   7   1 411.029 112.589   1 0.17052 0.07051 0.11733 0.46738 0.99301-0.85412
  -3  -7  -1 565.100 139.712   4-0.14606-0.09553-0.12745-0.45798-0.99123 0.85213
  -3   7  -1 492.574 146.460   6-0.22460-0.01736 0.09666 0.48882-0.99430 0.85458
   3   7   1 -18.317 38.0429   6-0.35649 0.59772 0.61411-0.03000-0.75724 0.89597
   3   7   1 413.860 120.234   2 0.28165-0.04055 0.07561 0.50913 0.99165-0.85307
  -3  -7  -1 601.059 185.126   9-0.00889-0.23210-0.49052-0.09389 0.85558-0.99412
   3  -7   1 513.382 127.945   9 0.15714 0.08422-0.12310-0.46168 0.99218-0.85317
   3  -7   1 474.604 113.423   8 0.30614-0.06454-0.06612-0.51853 0.98940-0.85008
  -4  -7  -1 666.889 161.101   3-0.28822-0.02780-0.07211-0.51327-0.99118 0.83878
   4  -7   1 610.750 135.900   9 0.14899 0.16684-0.14322-0.44156 0.98928-0.83683
  -4  -7  -1 800.728 221.714   9-0.02169-0.29381-0.51546-0.06891 0.83877-0.99074
  -4  -7  -1 644.056 151.569   4-0.13803-0.17811-0.14900-0.43636-0.98793 0.83537
  -4   7  -1 601.044 168.791   6-0.22655-0.08998 0.10275 0.48277-0.99360 0.84040
   4   7   1 568.276 147.977   2 0.28140 0.03419 0.07530 0.50939 0.99170-0.83967
   4  -7   1 661.737 151.547   8 0.30224 0.01389-0.06452-0.52015 0.99003-0.83725
   4   7   1 735.932 161.765   1 0.16769 0.14788 0.13285 0.45184 0.99102-0.83866
   4  -7   1 761.865 193.927   4 0.01731 0.29847-0.51772-0.06649-0.83802 0.99038
  -5  -7  -1 359.887 137.706   3-0.29388-0.09675-0.07697-0.50838-0.99012 0.82425
  -5   7  -1 221.187 109.752   6-0.23093-0.16016 0.11646 0.46908-0.99185 0.82518
   5   7   1 244.872 95.5543   2 0.28642 0.10367 0.08139 0.50328 0.99065-0.82516
  -5  -7  -1 367.507 149.917   9-0.03688-0.35315-0.54440-0.03993 0.81771-0.98312
   5  -7   1 375.137 119.710   8 0.30864 0.08201-0.06714-0.51756 0.98898-0.82274
   5   7   1 292.786 110.222   1 0.16251 0.22760 0.16045 0.42422 0.98686-0.82103
   5  -7   1 288.058 125.388   4 0.03171 0.35865-0.54763-0.03649-0.81648 0.98222
  -6  -7  -1 251.505 128.666   3-0.30459-0.16063-0.08622-0.49910-0.98796 0.80860
   6   7   1 196.828 99.5349   2 0.29565 0.16893 0.09264 0.49200 0.98852-0.80958
  -6   7  -1 108.682 74.5118   6-0.23744-0.22819 0.13716 0.44842-0.98880 0.80867
   6  -7   1 106.973 68.8986   8 0.32192 0.14326-0.07258-0.51215 0.98664-0.80693
  -6  -7  -1 253.469 147.404   9-0.05419-0.41036-0.57658-0.00770 0.79219-0.97102
   6  -7   1 150.246 118.338   4 0.04821 0.41674-0.58098-0.00305-0.79025 0.96936
  -7  -7  -1 -47.163 72.1155   3-0.31924-0.22056-0.09891-0.48636-0.98462 0.79179
  -7   7  -1 12.0779 83.4393   6-0.24584-0.29433 0.16429 0.42131-0.98405 0.79047
  -7  -7  -1 13.1687 66.6547   9-0.07343-0.46565-0.61131 0.02709 0.76190-0.95414
   7   7   1 67.2851 95.1629   2 0.30832 0.23077 0.10817 0.47644 0.98522-0.79282
   7  -7   1 30.6973 13.9460   8 0.34005 0.19968-0.08003-0.50472 0.98305-0.78987
  -7   7  -1 38.2477 40.4485   7-0.37361-0.16621 0.05109 0.53431-0.97846 0.78500
  -9  -8   1 -135.78 105.780   9-0.02126-0.63162-0.51463-0.15334 0.83935-0.86148
   9  -8  -1 30.7904 59.0935   8 0.59797 0.05510-0.18933-0.47903 0.87417-0.85157
  -9   8   1 23.7151 24.1038   6-0.32608-0.32743 0.46191 0.20672-0.87036 0.84762
   9  -8  -1 160.072 152.792   4 0.01767 0.63600-0.51846-0.14963-0.83751 0.85959
  -8   8   1 302.990 139.085   6-0.32027-0.25871 0.43687 0.23173-0.88480 0.87553
  -8  -8   1 322.150 143.276   9 0.00354-0.58189-0.46589-0.20216 0.87105-0.87979
   8   8  -1 199.868 119.314   5 0.55801 0.02036 0.22452 0.44384 0.88643-0.87758
  -8  -8   1 331.319 142.257   3-0.50809-0.07062-0.27038-0.39826-0.89596 0.88684
   8  -8  -1 305.673 157.432   8 0.59658-0.01804-0.18872-0.47961 0.87511-0.86597
   8  -8  -1 200.404 141.090   4-0.00588 0.58500-0.46807-0.20019-0.87005 0.87882
   7  -8  -1 23.8185 88.1575   4-0.02752 0.53207-0.42007-0.24835-0.89699 0.89240
  -7   8   1 56.6988 62.9503   6-0.31561-0.18885 0.41737 0.25118-0.89535 0.89954
  -7  -8   1 78.0800 59.5404   9 0.02647-0.53030-0.41923-0.24888 0.89747-0.89280
   7   8  -1 80.4223 78.5463   5 0.55927-0.05543 0.22531 0.44302 0.88557-0.89022
   7   8  -1 -60.282 79.7605   2 0.46008 0.04349 0.30503 0.36332 0.90308-0.90758
  -7  -8   1 -33.647 32.7414   3-0.50607 0.00196-0.26846-0.40020-0.89745 0.90182
   7  -8  -1 15.7842 79.9538   8 0.60126-0.09723-0.19077-0.47754 0.87192-0.87625
   6  -8  -1 295.836 129.912   4-0.04724 0.47719-0.37497-0.29360-0.91901 0.90104
  -6   8   1 379.154 171.957   6-0.31228-0.11763 0.40373 0.26479-0.90237 0.92004
  -6  -8   1 332.893 141.676   9 0.04748-0.47677-0.37517-0.29300 0.91920-0.90111
   6   8  -1 238.098 110.507   5 0.56666-0.13736 0.22994 0.43834 0.88045-0.89860
   6   8  -1 263.689 115.079   2 0.45976-0.03070 0.30459 0.36379 0.90336-0.92131
  -6  -8   1 262.186 115.856   3-0.50860 0.07910-0.27087-0.39781-0.89558 0.91343
   6  -8  -1 214.604 101.049   8 0.61363-0.18412-0.19620-0.47209 0.86322-0.88101
   4  -8  -1 222.755 100.364   4-0.08056 0.36129-0.29561-0.37322-0.95070 0.90589
  -4   8   1 195.528 115.123   6-0.31027 0.02948 0.39560 0.27280-0.90643 0.95104
  -4  -8   1 73.9648 61.8567   9 0.08334-0.36356-0.29691-0.37135 0.95076-0.90581
   4   8  -1 114.076 73.9029   5 0.60628-0.32604 0.25504 0.41314 0.85024-0.89540
  -4  -8   1 156.504 76.6579   3-0.53109 0.25084-0.29249-0.37620-0.87794 0.92273
   4   8  -1 136.663 59.0514   2 0.47172-0.19165 0.32115 0.34730 0.89273-0.93761
   3  -8  -1 95.3182 55.8888   4-0.09399 0.30010-0.26248-0.40644-0.96144 0.90318
   3   8  -1 53.3018 36.6375   6-0.29420 0.49983 0.33307 0.33541-0.93438 0.87553
  -3   8   1 22.0224 23.2736   6-0.31187 0.10563 0.40204 0.26631-0.90323 0.96131
   3  -8  -1 20.4840 26.8269   9-0.01509 0.22106-0.50265-0.16537 0.84755-0.90535
  -3  -8   1 116.940 66.8832   3-0.55340 0.34778-0.31427-0.35442-0.85846 0.91671
   3   8  -1 182.652 108.060   5 0.64272-0.43701 0.27857 0.38956 0.81786-0.87653
   3   8  -1 -14.176 49.2584   2 0.48531-0.27973 0.34020 0.32828 0.87969-0.93804
  -3  -8   1 22.8195 34.8908   9 0.09798-0.30367-0.26385-0.40443 0.96157-0.90318
  -3  -8   1 -17.889 57.8922   4 0.00947-0.21567-0.50113-0.16682-0.84922 0.90735
   2  -8  -1 30.3973 37.9101   4-0.10511 0.23659-0.23454-0.43444-0.96942 0.89769
   2   8  -1 -42.112 51.8478   6-0.27831 0.40931 0.27485 0.39378-0.95558 0.88326
  -2   8   1 47.8853 51.2719   6-0.31532 0.18365 0.41613 0.25214-0.89600 0.96756
  -2  -8   1 57.1686 51.8031   9 0.11021-0.24137-0.23571-0.43259 0.96965-0.89782
   2   8  -1 -1.1852 25.0032   2 0.50485-0.37378 0.36813 0.30040 0.85894-0.93075
   2  -8  -1 18.3269 26.2137   9-0.00446 0.13598-0.48180-0.18622 0.86119-0.93243
  -2  -8   1 48.6825 23.7378   3-0.58482 0.45383-0.34557-0.32309-0.82725 0.89894
  -2  -8   1 29.9194 63.0202   4 0.00011-0.13178-0.48107-0.18691-0.86210 0.93371
   1  -8  -1 392.167 131.941   4-0.11375 0.17058-0.21250-0.45652-0.97503 0.88983
   1   8  -1 279.861 117.902   6-0.26548 0.32188 0.22998 0.43877-0.96893 0.88313
  -1  -8   1 546.307 157.569   3-0.62637 0.57001-0.38838-0.28026-0.77768 0.86280
  -1   8   1 373.298 130.846   1 0.15152-0.20857 0.21647 0.45198 0.97589-0.89088
   1   8  -1 445.225 133.064   2 0.53087-0.47431 0.40636 0.26220 0.82711-0.91240
  -1   8   1 225.646 89.9019   6-0.32062 0.26355 0.43837 0.22981-0.88396 0.96898
  -1  -8   1 363.356 126.451   9 0.11984-0.17648-0.21320-0.45512 0.97540-0.89012
   1  -8  -1 431.342 132.390   9 0.00089 0.05616-0.47117-0.19684 0.86783-0.95252
  -1  -8   1 434.938 148.505   4-0.00457-0.05256-0.47094-0.19706-0.86832 0.95343
   0   8   1 138.378 72.5833   2 0.38171-0.36412 0.20064 0.46777 0.95627-0.85811
   0  -8  -1 161.598 73.3817   4-0.11971 0.10191-0.19715-0.47189-0.97859 0.87991
   0   8  -1 108.417 80.4587   2 0.56341-0.58137 0.45629 0.21231 0.77893-0.87769
   0   8  -1 251.377 119.878   6-0.25576 0.23754 0.19705 0.47180-0.97716 0.87786
   0   8   1 220.370 94.1866   6-0.32773 0.34524 0.46923 0.19884-0.86594 0.96440
   0   8   1 122.960 61.8306   1 0.15547-0.13801 0.19673 0.47167 0.98014-0.88167
   0  -8  -1 234.203 102.034   9 0.00186-0.01930-0.46924-0.19877 0.86901-0.96716
   0  -8   1 148.473 56.9762   9 0.12664-0.10876-0.19714-0.47118 0.97911-0.88039
   0  -8   1 330.527 121.809   4-0.00527 0.02272-0.46938-0.19861-0.86927 0.96786
   1  -8   1 253.283 109.324   9 0.13028-0.03788-0.18849-0.47982 0.98098-0.86882
  -1  -8  -1 167.986 82.5459   4-0.12270 0.03028-0.18937-0.47965-0.98028 0.86812
   1   8   1 117.150 67.4708   2 0.35413-0.26204 0.16537 0.50300 0.96922-0.85761
  -1   8  -1 130.716 80.2208   6-0.24904 0.15621 0.17476 0.49416-0.98198 0.86919
   1   8   1 165.173 100.935   6-0.33645 0.42853 0.50903 0.15892-0.84025 0.95215
  -1  -8  -1 118.483 98.5885   9-0.00090-0.09104-0.47473-0.19326 0.86562-0.97722
   1   8   1 227.415 107.720   1 0.15780-0.06585 0.18488 0.48348 0.98249-0.87056
  -1  -8  -1 186.961 76.1339   3-0.39121 0.29914-0.16245-0.50657-0.96155 0.84960
   1  -8   1 147.127 70.2009   4-0.00259 0.09461-0.47523-0.19274-0.86570 0.97776
  -2  -8  -1 78.0339 50.4326   4-0.12236-0.04466-0.19026-0.47873-0.98009 0.85446
   2   8   1 132.011 70.4382   2 0.33654-0.16995 0.14322 0.52512 0.97614-0.85106
  -2   8  -1 128.160 67.9172   6-0.24514 0.07772 0.16201 0.50698-0.98448 0.85819
  -2  -8  -1 169.221 71.1969   9-0.00689-0.15956-0.48658-0.18139 0.85813-0.98318
   2  -8   1 28.2887 64.3633   9 0.13030 0.03658-0.18841-0.47989 0.98100-0.85540
   2   8   1 217.591 98.6448   1 0.15847 0.00800 0.18145 0.48688 0.98314-0.85775
  -2  -8  -1 190.518 94.0983   3-0.36367 0.19695-0.13791-0.53111-0.97175 0.84632
   2  -8   1 233.494 104.936   4 0.00311 0.16351-0.48753-0.18042-0.85803 0.98355
   2   8   1 204.838 95.2444   6-0.34634 0.51300 0.55788 0.10993-0.80462 0.92994
  -3  -8  -1 84.7801 90.8346   4-0.11816-0.12345-0.20114-0.46779-0.97769 0.83858
  -3   8  -1 93.2452 58.1191   6-0.24385 0.00184 0.15782 0.51122-0.98526 0.84549
   3   8   1 89.0779 71.7571   2 0.32688-0.08580 0.13116 0.53714 0.97952-0.84099
   3   8   1 -92.080 55.1704   6-0.35672 0.59795 0.61549 0.05218-0.75598 0.89467
   3  -8   1 59.3073 28.5570   9 0.12612 0.11524-0.19836-0.46993 0.97884-0.83981
  -3  -8  -1 246.475 111.261   9-0.01571-0.22523-0.50389-0.16407 0.84672-0.98522
   3   8   1 90.9718 59.0772   1 0.15738 0.08360 0.18702 0.48128 0.98208-0.84323
   3  -8   1 106.040 50.6492   4 0.01146 0.22974-0.50537-0.16253-0.84641 0.98536
  -3  -8  -1 131.152 72.4580   3-0.34847 0.10712-0.12449-0.54453-0.97663 0.83772
  -4   8  -1 377.912 139.753   6-0.24494-0.07163 0.16137 0.50770-0.98460 0.83135
   4   8   1 257.236 94.6852   2 0.32358-0.00801 0.12705 0.54121 0.98061-0.82862
  -4  -8  -1 408.880 165.244   9-0.02708-0.28839-0.52581-0.14210 0.83144-0.98337
   4   8   1 117.910 49.5181   1 0.15436 0.16114 0.20230 0.46598 0.97898-0.82667
   4  -8   1 308.169 124.981   4 0.02222 0.29357-0.52799-0.13983-0.83083 0.98319
  -4  -8  -1 396.952 152.482   3-0.34240 0.02643-0.11915-0.54985-0.97844 0.82605
  -5   8  -1 23.3275 45.6343   6-0.24820-0.14294 0.17200 0.49710-0.98254 0.81581
   5   8   1 0.14536 44.1970   2 0.32545 0.06463 0.12937 0.53887 0.98000-0.81455
   5   8   1 45.5963 64.4709   1 0.14915 0.24091 0.22820 0.44006 0.97316-0.80737
  -5  -8  -1 -113.70 25.9380   9-0.04074-0.34927-0.55164-0.11623 0.81217-0.97754
   5  -8   1 60.3315 36.7343   8 0.38323 0.00745-0.09789-0.57031 0.97262-0.80637
   5  -8   1 16.4436 33.2228   4 0.03517 0.35521-0.55469-0.11305-0.81112 0.97688
  -5  -8  -1 -53.739 47.4026   3-0.34327-0.04731-0.11991-0.54905-0.97819 0.81232
   6   8   1 158.532 80.7714   2 0.33153 0.13303 0.13696 0.53125 0.97793-0.79902
  -6   8  -1 196.442 121.904   6-0.25339-0.21230 0.18914 0.47999-0.97894 0.79874
  -6  -8  -1 260.752 164.201   9-0.05646-0.40808-0.58073-0.08709 0.78872-0.96752
   6  -8   1 98.5313 82.1410   8 0.38801 0.07720-0.09988-0.56835 0.97130-0.79158
   6  -8   1 187.270 103.690   4 0.05013 0.41484-0.58482-0.08283-0.78707 0.96619
  -6  -8  -1 156.230 130.645   3-0.34954-0.11565-0.12543-0.54351-0.97631 0.79695
   7   8   1 104.444 102.571   2 0.34112 0.19794 0.14897 0.51921 0.97443-0.78207
  -7  -8  -1 9.43807 52.2887   9-0.07409-0.46497-0.61247-0.05531 0.76083-0.95304
  -7  -8  -1 3.61006 76.2590   3-0.36009-0.17970-0.13474-0.53417-0.97294 0.78011
   7   9  -1 -54.972 37.3713   5 0.59712-0.09329 0.24920 0.50262 0.85765-0.86234
   6  -9  -1 9.94030 47.9153   4-0.03372 0.46365-0.40605-0.34611-0.90417 0.88614
  -6   9   1 133.708 102.410   6-0.31907-0.11092 0.43178 0.32030-0.88761 0.90520
  -6  -9   1 147.438 48.7722   9 0.03301-0.46226-0.40566-0.34604 0.90448-0.88634
   6   9  -1 143.297 82.5961   5 0.60678-0.17748 0.25536 0.49641 0.84982-0.86802
  -6  -9   1 117.718 99.5619   3-0.53795 0.10850-0.29915-0.45315-0.87217 0.89000
   6   9  -1 178.761 126.358   2 0.48117-0.05212 0.33438 0.41756 0.88377-0.90177
   5  -9  -1 62.4573 69.8286   4-0.04959 0.40491-0.36950-0.38279-0.92148 0.89005
  -5  -9   1 21.8425 92.7048   9 0.05002-0.40473-0.36976-0.38198 0.92166-0.89010
  -5   9   1 -11.904 54.9076   6-0.31760-0.03783 0.42564 0.32639-0.89095 0.92201
  -5  -9   1 -76.057 66.1221   3-0.54706 0.19223-0.30804-0.44427-0.86421 0.89552
   5   9  -1 43.6796 84.5072   2 0.48553-0.13098 0.34051 0.41146 0.87947-0.91093
   4  -9  -1 687.391 203.377   4-0.06345 0.34414-0.33685-0.41556-0.93532 0.89046
  -4   9   1 787.978 205.681   6-0.31759 0.03672 0.42559 0.32639-0.89098 0.93551
  -4  -9   1 461.932 158.631   9 0.06497-0.34514-0.33750-0.41429 0.93547-0.89048
   4   9  -1 645.368 168.958   2 0.49407-0.21402 0.35266 0.39936 0.87069-0.91562
  -4  -9   1 545.618 170.129   3-0.56219 0.28198-0.32294-0.42937-0.85021 0.89498
   3  -9  -1 -12.893 88.5783   4-0.07523 0.28128-0.30859-0.44389-0.94610 0.88780
   3   9  -1 1.16229 27.2471   6-0.30673 0.51234 0.38144 0.37060-0.91325 0.85432
   3  -9  -1 36.8457 61.6218   9-0.02781 0.23382-0.52720-0.22431 0.83043-0.88819
  -3  -9   1 -46.467 65.9223   9 0.07774-0.28339-0.30939-0.44242 0.94630-0.88787
   3   9  -1 -37.054 70.2374   2 0.50732-0.30177 0.37171 0.38035 0.85613-0.91452
  -3  -9   1 67.0035 61.7285   3-0.58431 0.37874-0.34505-0.40726-0.82780 0.88602
  -3   9   1 -16.734 33.2742   6-0.31912 0.11283 0.43200 0.31991-0.88749 0.94550
  -3  -9   1 31.6703 46.0835   4 0.02104-0.22731-0.52553-0.22596-0.83257 0.89063
   2   9  -1 1305.32 246.551   2 0.52574-0.39470 0.39872 0.35337 0.83381-0.90566
   2  -9  -1 1069.87 236.750   4-0.08477 0.21619-0.28530-0.46723-0.95419 0.88243
   2   9  -1 1364.20 252.126   6-0.29303 0.42401 0.32866 0.42353-0.93614 0.86375
   2  -9  -1 1929.72 340.407   9-0.01758 0.14914-0.50750-0.24401 0.84426-0.91547
  -2  -9   1 1434.67 262.655   9 0.08820-0.21932-0.28602-0.46581 0.95448-0.88261
  -2   9   1 1513.20 293.000   6-0.32224 0.19054 0.44528 0.30655-0.88006 0.95155
  -2  -9   1 1165.92 239.687   4 0.01207-0.14380-0.50664-0.24488-0.84556 0.91713
   1  -9  -1 114.534 56.0102   4-0.09194 0.14873-0.26758-0.48498-0.95988 0.87465
   1  -9  -1 182.880 119.395   9-0.01210 0.06918-0.49681-0.25470 0.85145-0.93610
   1   9  -1 -5.4847 22.1987   6-0.28176 0.33812 0.28723 0.46509-0.95144 0.86557
   1   9  -1 299.001 107.369   2 0.54963-0.49310 0.43482 0.31731 0.80064-0.88597
  -1  -9   1 49.2496 57.9493   9 0.09615-0.15275-0.26801-0.48382 0.96029-0.87498
  -1   9   1 240.930 116.647   6-0.32696 0.26984 0.46579 0.28595-0.86802 0.95297
  -1  -9   1 121.778 74.7837   4 0.00730-0.06447-0.49651-0.25504-0.85225 0.93732
   0   9   1 75.1013 89.0378   6-0.33319 0.35067 0.49389 0.25775-0.85036 0.94876
   0  -9  -1 25.8823 39.7498   4-0.09655 0.07870-0.25610-0.49647-0.96335 0.86464
   0   9  -1 -20.714 14.8725   6-0.27300 0.25476 0.25611 0.49629-0.96146 0.86210
   0  -9   1 64.1450 60.6694   9 0.10137-0.08346-0.25610-0.49572 0.96390-0.86515
   0  -9  -1 4.05810 13.1234   9-0.01061-0.00680-0.49390-0.25761 0.85337-0.95148
   0  -9   1 -82.784 105.163   4 0.00614 0.01126-0.49402-0.25753-0.85387 0.95241
  -1  -9  -1 17.3652 14.9982   4-0.09832 0.00585-0.25166-0.50088-0.96464 0.85246
  -1   9  -1 -94.640 100.305   6-0.26675 0.17389 0.23436 0.51812-0.96774 0.85489
   1  -9   1 -50.315 61.3305   9 0.10354-0.01112-0.25112-0.50070 0.96536-0.85317
  -1  -9  -1 -54.002 34.6804   9-0.01257-0.07934-0.49774-0.25376 0.85084-0.96239
   1   9   1 17.9090 69.1436   6-0.34077 0.43283 0.52982 0.22170-0.82567 0.93751
   1   9   1 55.6517 80.6866   2 0.39997-0.30791 0.22440 0.52755 0.94617-0.83460
   1  -9   1 18.3453 48.9677   4 0.00812 0.08386-0.49827-0.25328-0.85110 0.96312
   2   9   1 1211.45 251.136   2 0.38115-0.21460 0.19994 0.55195 0.95655-0.83152
  -2  -9  -1 1031.05 241.801   4-0.09691-0.07016-0.25519-0.49731-0.96362 0.83795
  -2   9  -1 899.908 205.006   6-0.26289 0.09543 0.22113 0.53142-0.97127 0.84493
   2  -9   1 1011.56 221.158   9 0.10225 0.06465-0.25407-0.49773 0.96450-0.83887
   2   9   1 718.191 178.933   6-0.34934 0.51598 0.57367 0.17772-0.79205 0.91730
  -2  -9  -1 1184.09 260.637   9-0.01755-0.14886-0.50744-0.24405 0.84430-0.96931
   2  -9   1 874.000 214.966   4 0.01291 0.15368-0.50843-0.24310-0.84436 0.96984
   3   9   1 1.39143 55.9099   2 0.36958-0.12853 0.18506 0.56680 0.96229-0.82379
  -3  -9  -1 -6.4336 66.9573   4-0.09184-0.14980-0.26782-0.48460-0.95980 0.82067
  -3   9  -1 162.876 97.3495   6-0.26128 0.01923 0.21566 0.53693-0.97267 0.83284
   3  -9   1 -32.328 57.2632   9 0.09694 0.14446-0.26622-0.48556 0.96084-0.82179
  -3  -9  -1 -9.5854 104.563   9-0.02522-0.21571-0.52225-0.22923 0.83398-0.97244
  -3  -9  -1 -62.440 106.593   3-0.40557 0.16428-0.17537-0.57726-0.95551 0.81660
   3  -9   1 70.0662 82.7370   4 0.02020 0.22099-0.52377-0.22771-0.83381 0.97273
   4   9   1 295.539 140.070   2 0.36397-0.04842 0.17789 0.57394 0.96490-0.81294
  -4   9  -1 313.842 153.448   6-0.26177-0.05486 0.21730 0.53532-0.97226 0.81894
  -4  -9  -1 270.126 102.628   9-0.03532-0.28013-0.54146-0.20999 0.81993-0.97182
  -4  -9  -1 497.034 176.675   3-0.39544 0.07952-0.16624-0.58637-0.95983 0.80742
   4  -9   1 296.140 146.673   4 0.02978 0.28602-0.54364-0.20778-0.81946 0.97179
   5   9   1 67.2010 83.3072   2 0.36333 0.02673 0.17707 0.57472 0.96519-0.79978
  -5   9  -1 15.6497 89.2325   6-0.26418-0.12701 0.22552 0.52715-0.97013 0.80333
  -5  -9  -1 21.5798 93.4144   9-0.04761-0.34237-0.56446-0.18696 0.80207-0.96740
  -5  -9  -1 108.587 68.9340   3-0.39232 0.00178-0.16344-0.58914-0.96110 0.79522
   5  -9   1 38.6877 89.3953   4 0.04145 0.34894-0.56744-0.18391-0.80119 0.96693
   6   9   1 94.8820 85.3937   2 0.36683 0.09772 0.18154 0.57023 0.96358-0.78472
  -6   9  -1 56.3485 90.9358   6-0.26834-0.19741 0.23983 0.51285-0.96622 0.78595
  -6  -9  -1 -1.2008 87.6674   9-0.06193-0.40257-0.59068-0.16070 0.78025-0.95900
   6   9   1 -2.7282 41.9493   5 0.42869 0.03660 0.14561 0.60614 0.95435-0.77500
  -6  -9  -1 -72.487 76.0792   3-0.39477-0.07038-0.16564-0.58692-0.96010 0.78074
   7   9   1 25.0828 37.6717   5 0.43459 0.10523 0.14914 0.60264 0.95202-0.75916
   5  10  -1 999.747 251.012   2 0.50815-0.15362 0.37291 0.46263 0.85518-0.88669
  -5 -10   1 1240.22 304.276   3-0.57837 0.22358-0.33909-0.49685-0.83405 0.86533
   4 -10  -1 20.6455 33.1119   4-0.04581 0.32646-0.37827-0.45770-0.91750 0.87258
  -4  10   1 -78.126 125.149   6-0.32509 0.04416 0.45756 0.37799-0.87294 0.91740
   4  10  -1 73.5383 84.4250   2 0.51685-0.23683 0.38561 0.44996 0.84490-0.88987
  -4 -10   1 -5.0544 76.5637   9 0.04597-0.32611-0.37837-0.45693 0.91772-0.87267
   3 -10  -1 126.720 82.6003   4-0.05618 0.26219-0.35405-0.48198-0.92821 0.86984
   3  10  -1 108.410 90.2729   2 0.52975-0.32423 0.40468 0.43093 0.82860-0.88704
  -3  10   1 163.782 108.850   6-0.32654 0.12020 0.46397 0.37151-0.86912 0.92705
  -3 -10   1 176.244 85.3599   9 0.05719-0.26279-0.35437-0.48094 0.92844-0.86996
   2 -10  -1 58.7050 96.8257   4-0.06441 0.19577-0.33457-0.50151-0.93623 0.86440
  -2 -10   1 110.441 114.722   9 0.06615-0.19723-0.33492-0.50041 0.93651-0.86459
   2  10  -1 37.6975 30.8213   2 0.54713-0.41611 0.43097 0.40468 0.80437-0.87628
   2  10  -1 11.8436 74.8530   6-0.30641 0.43737 0.38016 0.45559-0.91385 0.84137
  -2  10   1 30.8110 31.5777   6-0.32939 0.19763 0.47659 0.35882-0.86140 0.93280
   2 -10  -1 82.2542 76.9546   9-0.03261 0.16419-0.53634-0.29868 0.82375-0.89492
  -2 -10   1 92.6327 101.593   4 0.02576-0.15755-0.53535-0.29972-0.82554 0.89705
   1 -10  -1 624.254 194.913   4-0.07035 0.12708-0.32034-0.51575-0.94175 0.85646
  -1  10   1 657.909 209.719   6-0.33359 0.27643 0.49571 0.33961-0.84916 0.93404
   1  10  -1 435.410 134.560   6-0.29646 0.35279 0.34159 0.49427-0.93090 0.84494
  -1 -10   1 528.730 163.088   9 0.07268-0.12924-0.32058-0.51475 0.94212-0.85677
   1 -10  -1 898.136 235.524   9-0.02689 0.08400-0.52544-0.30958 0.83170-0.91631
  -1 -10   1 716.111 197.980   4 0.02082-0.07805-0.52506-0.31005-0.83290 0.91790
   0 -10  -1 47.1399 68.4969   4-0.07382 0.05592-0.31199-0.52410-0.94486 0.84610
   0  10  -1 -44.004 56.1364   6-0.28857 0.27029 0.31209 0.52387-0.94254 0.84310
   0  10   1 79.4912 28.3312   6-0.33907 0.35651 0.52159 0.31363-0.83155 0.92987
   0 -10  -1 119.603 101.047   9-0.02488 0.00751-0.52160-0.31343 0.83444-0.93251
   0 -10   1 202.393 121.389   9 0.07656-0.05861-0.31201-0.52332 0.94534-0.84655
   0 -10   1 163.038 149.868   4 0.01922-0.00186-0.52171-0.31342-0.83525 0.93374
  -1 -10  -1 935.306 243.422   4-0.07457-0.01795-0.31018-0.52586-0.94552 0.83329
  -1  10  -1 992.202 241.118   6-0.28278 0.18988 0.29093 0.54511-0.95017 0.83724
   1  10   1 1204.59 264.848   6-0.34567 0.43770 0.55441 0.28068-0.80731 0.91907
  -1 -10  -1 945.269 222.133   9-0.02611-0.06576-0.52394-0.31108 0.83277-0.94428
   1 -10   1 900.411 218.988   9 0.07750 0.01495-0.30993-0.52539 0.94611-0.83388
   1 -10   1 1047.03 262.456   4 0.02056 0.07139-0.52451-0.31062-0.83329 0.94525
  -2 -10  -1 96.2225 101.014   4-0.07226-0.09486-0.31576-0.52024-0.94347 0.81776
  -2  10  -1 68.7231 49.0066   6-0.27903 0.11153 0.27746 0.55865-0.95472 0.82830
   2 -10   1 221.990 124.162   9 0.07510 0.09184-0.31525-0.52006 0.94414-0.81848
   2  10   1 -7.5152 48.3689   6-0.35307 0.51969 0.59424 0.24074-0.77483 0.90001
  -2 -10  -1 -5.1289 47.0453   9-0.03019-0.13619-0.53173-0.30328 0.82714-0.95210
   2  10   1 50.9238 73.2046   2 0.42300-0.25646 0.25481 0.58066 0.93156-0.80656
   2 -10   1 91.6293 98.4765   4 0.02452 0.14203-0.53279-0.30233-0.82739 0.95282
  -3  10  -1 -13.008 78.0770   6-0.27724 0.03515 0.27106 0.56508-0.95680 0.81689
   3  10   1 -51.157 107.643   2 0.41011-0.16907 0.23772 0.59771 0.94000-0.80155
   3 -10   1 -76.478 58.0926   4 0.03089 0.21028-0.54592-0.28917-0.81776 0.95663
   4  10   1 -160.38 99.2954   2 0.40276-0.08722 0.22805 0.60735 0.94451-0.79260
  -5 -10  -1 -127.61 101.225   3-0.44087 0.05039-0.20750-0.62871-0.93844 0.77254
   1  11  -1 -49.524 72.9309   6-0.30984 0.36615 0.39388 0.52553-0.90727 0.82122
   1 -11  -1 77.2923 127.756   9-0.04317 0.10032-0.55622-0.36230 0.80861-0.89318
  -1 -11   1 106.602 63.4685   4 0.03570-0.09298-0.55577-0.36289-0.81030 0.89521
   0 -11   1 -95.140 99.7962   9 0.05192-0.03394-0.36569-0.55314 0.92349-0.82466
   0 -11  -1 -126.04 132.576   9-0.04066 0.02332-0.55150-0.36703 0.81228-0.91030
  -1 -11  -1 127.854 107.599   4-0.05109-0.04148-0.36599-0.55358-0.92304 0.81073
   1 -11   1 173.147 107.463   9 0.05178 0.04070-0.36598-0.55283 0.92336-0.81110
   1  11   1 91.7767 100.939   6-0.35082 0.44282 0.58176 0.33693-0.78540 0.89706
 -12   0   2 158.446 91.7158   7-0.62552-0.23269 0.10256-0.10280-0.87378 0.90917
  12   0  -2 95.3741 102.568   5 0.61845 0.24001 0.26285-0.26271 0.83995-0.87575
  12   0  -2 20.5953 77.3498   8 0.62256 0.23626-0.20014 0.20002 0.85670-0.89259
 -11   0   2 74.7829 77.0964   7-0.61011-0.17353 0.09934-0.09957-0.88342 0.93233
  11   0  -2 117.764 65.0582   5 0.60314 0.18076 0.25303-0.25288 0.85281-0.90210
  11   0  -2 22.2894 105.940   8 0.60716 0.17710-0.19335 0.19324 0.86783-0.91720
 -10   0   2 2314.97 312.257   3-0.58257-0.12748-0.34330 0.34347-0.82965 0.89204
  10   0  -2 2094.62 290.170   5 0.59130 0.11804 0.24550-0.24535 0.86222-0.92500
  10   0  -2 2535.98 346.396   8 0.59533 0.11437-0.18817 0.18805 0.87595-0.93881
 -10   0   2 2356.50 344.580   7-0.59836-0.11073 0.09689-0.09712-0.89042 0.95283
  -9   0   2 -20.223 42.7836   7-0.59140-0.04313 0.09544-0.09566-0.89444 0.97035
  -9   0   2 -11.108 35.4773   3-0.57489-0.06063-0.33559 0.33575-0.83763 0.91348
   9   0  -2 -30.749 21.8447   5 0.58399 0.05079 0.24086-0.24071 0.86782-0.94407
   9   0  -2 2.75561 16.0873   8 0.58817 0.04697-0.18503 0.18493 0.88070-0.95704
  -8   0   2 60.4913 54.5994   7-0.59079 0.03081 0.09531-0.09554-0.89479 0.98417
   8   0  -2 98.8236 41.7963   2 0.55616 0.00440 0.44493-0.44500 0.79061-0.87986
  -8   0   2 5.56030 41.6826   3-0.57271 0.01175-0.33341 0.33357-0.83985 0.92916
   8   0  -2 47.1329 30.6249   5 0.58264-0.02243 0.24001-0.23986 0.86883-0.95856
   8   0  -2 30.5751 59.6105   8 0.58717-0.02659-0.18460 0.18449 0.88135-0.97117
  -7   0   2 21.9270 51.4703   7-0.59877 0.11334 0.09698-0.09720-0.89018 0.99303
   7   0  -2 58.0742 54.1693   2 0.55910-0.07305 0.44951-0.44957 0.78595-0.88866
  -7   0   2 7.75120 21.5834   9 0.10144-0.58781-0.25594 0.25612 0.96395-0.86111
  -7   0   2 15.8140 44.7897   3-0.57775 0.09134-0.33847 0.33862-0.83469 0.93746
   7   0  -2 -41.425 37.5271   5 0.58925-0.10359 0.24420-0.24406 0.86380-0.96698
   7   0  -2 -43.429 41.6388   8 0.59447-0.10845-0.18779 0.18769 0.87653-0.97981
  -6   0   2 2325.96 109.044   1 0.20740-0.61854-0.11467 0.11479 0.99304-0.87635
  -6   0   2 2098.79 137.305   9 0.20878-0.62070 0.01028-0.01026 0.99953-0.88322
   6   0  -2 2195.47 222.352   5 0.60661-0.19549 0.25525-0.25511 0.84996-0.96659
   6   0  -2 2231.05 245.335   8 0.61306-0.20159-0.19595 0.19586 0.86364-0.98039
  -6   0   2 2243.74 246.901   7-0.61857 0.20767 0.10111-0.10133-0.87819 0.99448
   6   0  -2 2485.82 160.548   4-0.20855 0.62094 0.05066-0.05084-0.99832 0.88155
  -5   0   2 46.1842 42.1981   7-0.65475 0.31836 0.10871-0.10892-0.85404 0.98376
   5   0  -2 8.91117 5.00125   4-0.29215 0.63007 0.32905-0.32935-0.93613 0.80570
  -5   0   2 3.61126 10.8905   9 0.29990-0.63730 0.27892-0.27900 0.95134-0.82148
  -5   0   2 22.7170 25.3047   3-0.61903 0.28173-0.38069 0.38083-0.78722 0.91693
   5   0  -2 2.74713 34.3293   5 0.63833-0.30175 0.27571-0.27557 0.82202-0.95208
   5   0  -2 1.34681 25.5050   8 0.64705-0.31012-0.21101 0.21092 0.83765-0.96787
   4   0  -2 17911.2 2191.50   5 0.68838-0.42631 0.30881-0.30866 0.76969-0.91317
  -4   0   2 19694.1 698.212   7-0.71317 0.45125 0.12114-0.12135-0.80802 0.95115
 -12   1   2 127.562 124.625   7-0.62062-0.23763 0.10154-0.01818-0.87691 0.91227
 -12  -1   2 78.1454 96.3371   7-0.63751-0.22065 0.10508-0.18889-0.86593 0.90131
  12   1  -2 198.091 124.857   5 0.60190 0.25661 0.25224-0.16851 0.85381-0.88966
  12  -1  -2 291.214 137.538   8 0.61026 0.24855-0.19472 0.11103 0.86563-0.90151
  12   1  -2 219.587 160.236   8 0.64255 0.21625-0.20901 0.29247 0.84128-0.87716
 -11   1   2 -62.742 67.8666   7-0.60506-0.17861 0.09829-0.01494-0.88646 0.93535
 -11  -1   2 39.9793 57.1198   7-0.62285-0.16074 0.10200-0.18580-0.87549 0.92440
 -11  -1   2 48.7172 26.0066   3-0.57089-0.21372-0.33160 0.24823-0.84168 0.89062
  11  -1  -2 9.48271 82.0915   5 0.62941 0.15443 0.26992-0.35336 0.83024-0.87949
  11   1  -2 135.701 96.8033   5 0.58602 0.19793 0.24214-0.15842 0.86628-0.91562
  11  -1  -2 72.3016 99.8541   8 0.59440 0.18986-0.18776 0.10408 0.87657-0.92593
  11   1  -2 43.2141 47.2364   8 0.62833 0.15592-0.20269 0.28615 0.85237-0.90175
 -10   1   2 180.217 121.910   7-0.59309-0.11602 0.09579-0.01245-0.89347 0.95587
 -10  -1   2 126.819 74.4344   7-0.61206-0.09698 0.09975-0.18354-0.88223 0.94464
 -10  -1   2 237.219 124.604   3-0.55799-0.15208-0.31878 0.23542-0.85420 0.91659
  10  -1  -2 286.595 112.053   5 0.61935 0.08992 0.26343-0.34685 0.83917-0.90190
  10   1  -2 142.272 64.4017   5 0.57335 0.13603 0.23415-0.15043 0.87567-0.93849
  10  -1  -2 159.865 77.0282   8 0.58193 0.12777-0.18231 0.09864 0.88474-0.94758
  10   1  -2 93.6644 46.4648   8 0.61799 0.09169-0.19812 0.28158 0.86006-0.92293
  -9   1   2 51.5232 82.1844   7-0.58577-0.04878 0.09427-0.01093-0.89762 0.97350
  -9  -1   2 -140.70 74.3359   7-0.60631-0.02817 0.09855-0.18233-0.88571 0.96162
   9   1  -2 131.348 79.6592   2 0.52781 0.10722 0.40179-0.31832 0.83114-0.90695
  -9   1   2 32.8608 50.7734   3-0.61394-0.02157-0.37539 0.45906-0.79363 0.86950
  -9  -1   2 65.9354 66.0137   3-0.54883-0.08668-0.30978 0.22641-0.86263 0.93848
   9  -1  -2 -57.689 41.3442   5 0.61437 0.02035 0.26022-0.34364 0.84345-0.91966
   9   1  -2 67.7800 60.3777   5 0.56483 0.06998 0.22880-0.14508 0.88172-0.95802
   9  -1  -2 52.4958 54.9376   8 0.57382 0.06133-0.17878 0.09510 0.88985-0.96617
   9   1  -2 53.8558 64.9874   8 0.61277 0.02236-0.19582 0.27929 0.86384-0.94019
  -8   1   2 229.429 84.4872   7-0.58459 0.02461 0.09403-0.01069-0.89827 0.98764
  -8  -1   2 66.9745 99.1721   7-0.60729 0.04734 0.09875-0.18252-0.88513 0.97451
   8   1  -2 119.024 68.1379   2 0.52245 0.03808 0.39383-0.31034 0.83800-0.92727
  -8   1   2 228.307 86.7969   3-0.61549 0.05452-0.37700 0.46067-0.79170 0.88102
  -8  -1   2 142.237 66.1182   3-0.54452-0.01645-0.30555 0.22217-0.86647 0.95579
   8  -1  -2 178.741 64.7187   5 0.61614-0.05598 0.26136-0.34477 0.84194-0.93160
   8   1  -2 203.407 76.4784   5 0.56174-0.00148 0.22685-0.14315 0.88388-0.97364
   8  -1  -2 336.387 115.754   8 0.57144-0.01085-0.17775 0.09408 0.89132-0.98111
   8   1  -2 195.697 104.453   8 0.61435-0.05379-0.19652 0.27999 0.86271-0.95253
   7   1  -2 1774.70 215.906   2 0.52237-0.03636 0.39373-0.31021 0.83809-0.94081
  -7  -1   2 1436.52 203.818   3-0.54651 0.06011-0.30751 0.22413-0.86470 0.96749
   7  -1  -2 1920.65 231.284   5 0.62697-0.14137 0.26834-0.35175 0.83244-0.93555
   7   1  -2 1219.64 178.291   5 0.56579-0.08008 0.22940-0.14570 0.88105-0.98428
   7  -1  -2 1537.32 214.662   8 0.57671-0.09068-0.18004 0.09638 0.88805-0.99131
   7   1  -2 1802.31 228.658   8 0.62512-0.13913-0.20128 0.28475 0.85478-0.95808
   7  -1  -2 1756.28 162.866   4-0.12992 0.61675-0.17049 0.08687-0.98410 0.88085
  -7   1   2 1627.03 225.835   7-0.59168 0.10625 0.09550-0.01217-0.89428 0.99710
  -7  -1   2 1557.01 217.160   7-0.61738 0.13197 0.10086-0.18461-0.87894 0.98179
  -6   1   2 143.548 65.1114   7-0.61009 0.19919 0.09934-0.01602-0.88343 0.99970
  -6  -1   2 156.281 64.8781   7-0.63998 0.22910 0.10560-0.18934-0.86427 0.98056
  -6   1   2 143.841 39.7858   1 0.19585-0.60705-0.03454 0.11822 0.99929-0.88263
   6  -1  -2 120.231 44.2471   4-0.19783 0.61026 0.01869-0.10251-0.99968 0.88293
   6   1  -2 99.5367 21.1197   4-0.21177 0.62410 0.06038 0.02305-0.99768 0.88090
   6   1  -2 89.3230 29.9850   2 0.52904-0.11753 0.40361-0.32007 0.82954-0.94573
  -6   1   2 117.968 23.9259   9 0.19716-0.60909-0.02069 0.10428 0.99965-0.88338
  -6  -1   2 112.061 39.2171   9 0.20236-0.61426-0.00690-0.07664 0.99973-0.88338
  -6  -1   2 88.2114 47.1942   3-0.55675 0.14491-0.31756 0.23419-0.85536 0.97161
   6  -1  -2 157.234 74.6109   5 0.64997-0.23891 0.28331-0.36671 0.81082-0.92736
   6   1  -2 140.568 64.0337   5 0.57941-0.16825 0.23797-0.15429 0.87124-0.98792
   6  -1  -2 120.476 66.9254   8 0.59231-0.18082-0.18685 0.10319 0.87797-0.99470
   6   1  -2 108.291 58.0929   8 0.64840-0.23695-0.21161 0.29508 0.83655-0.95332
  -5   1   2 402.335 101.062   7-0.64412 0.30774 0.10647-0.02316-0.86145 0.99115
  -5  -1   2 542.545 116.821   7-0.67984 0.34346 0.11402-0.19774-0.83542 0.96515
  -5   1   2 389.480 62.6307   1 0.22837-0.56503-0.29252 0.37608 0.95468-0.82460
  -5  -1   2 426.382 81.1513   9 0.26668-0.60405 0.17477-0.25840 0.98032-0.85047
   5   1  -2 481.484 112.079   2 0.54402-0.20703 0.42622-0.34265 0.80891-0.93856
   5  -1  -2 -46.468 288.135   5 0.68887-0.35233 0.30914-0.39252 0.76912-0.89908
   5   1  -2 436.666 99.7014   5 0.60581-0.26918 0.25473-0.17107 0.85063-0.98074
   5  -1  -2 441.860 110.709   8 0.62197-0.28501-0.19988 0.11623 0.85714-0.98733
   5   1  -2 569.947 139.998   8 0.68851-0.35161-0.22964 0.31313 0.80114-0.93137
   5  -1  -2 440.876 84.4382   4-0.25735 0.59526 0.20578-0.28974-0.97519 0.84487
  -4  -1   2 808.647 121.174   9 0.32113-0.58394 0.35079-0.43445 0.92306-0.77970
  -4  -1   2 800.673 144.688   3-0.61183 0.34913-0.37320 0.28981-0.79624 0.93942
   4   1  -2 859.827 155.656   5 0.64890-0.38680 0.28261-0.19896 0.81187-0.95542
   4  -1  -2 745.388 150.234   8 0.67041-0.40800-0.22147 0.13782 0.81779-0.96145
  -4   1   2 718.896 128.853   7-0.69942 0.43752 0.11820-0.03490-0.81971 0.96281
  -4  -1   2 729.319 138.277   7-0.74267 0.48074 0.12751-0.21121-0.78086 0.92400
 -12  -2   2 89.5822 39.6556   7-0.65684-0.20126 0.10915-0.27651-0.85255 0.88793
 -12  -2   2 34.5049 72.7654   3-0.57205-0.28712-0.33275 0.16585-0.84052 0.87600
  12   2  -2 194.180 114.173   5 0.59277 0.26577 0.24643-0.07913 0.86108-0.89694
  12  -2  -2 61.6660 73.3160   8 0.60504 0.25378-0.19242 0.02517 0.86931-0.90517
 -11   2   2 304.782 155.372   7-0.60736-0.17632 0.09877 0.06817-0.88508 0.93394
 -11  -2   2 9.02292 38.8426   7-0.64361-0.13993 0.10636-0.27371-0.86180 0.91070
 -11  -2   2 72.0876 100.999   3-0.55622-0.22840-0.31704 0.15014-0.85585 0.90480
  11   2  -2 15.8494 66.7577   5 0.57694 0.20702 0.23642-0.06912 0.87306-0.92241
  11  -2  -2 212.739 118.638   8 0.58932 0.19494-0.18554 0.01829 0.87995-0.92929
  11   2  -2 108.362 115.229   8 0.65861 0.12563-0.21617 0.38322 0.82804-0.87741
 -10   2   2 492.352 172.607   7-0.59583-0.11328 0.09636 0.07056-0.89190 0.95426
 -10  -2   2 108.304 158.262   7-0.63455-0.07444 0.10445-0.27179-0.86790 0.93030
  10   2  -2 688.649 190.957   2 0.51785 0.19165 0.38707-0.22005 0.84369-0.90606
 -10  -2   2 549.879 160.102   3-0.54312-0.16695-0.30419 0.13727-0.86770 0.93010
  10   2  -2 380.911 125.191   5 0.56420 0.14521 0.22840-0.06111 0.88217-0.94501
  10  -2  -2 410.895 128.909   8 0.57689 0.13281-0.18012 0.01288 0.88793-0.95076
  10   2  -2 246.718 175.095   8 0.65074 0.05894-0.21265 0.37970 0.83463-0.89749
  -9   2   2 104.419 32.2481   7-0.58892-0.04563 0.09493 0.07199-0.89584 0.97170
  -9  -2   2 94.6575 99.2678   7-0.63094-0.00351 0.10370-0.27101-0.87027 0.94617
   9   2  -2 190.852 82.0128   2 0.50783 0.12717 0.37244-0.20540 0.85555-0.93138
   9  -2  -2 307.373 130.109   5 0.65747-0.02283 0.28824-0.45522 0.80331-0.87942
  -9  -2   2 137.365 97.8134   3-0.53349-0.10204-0.29480 0.12788-0.87595 0.95182
   9   2  -2 131.889 61.3804   5 0.55537 0.07948 0.22287-0.05560 0.88821-0.96453
   9  -2  -2 303.851 127.049   8 0.56867 0.06649-0.17654 0.00931 0.89302-0.96931
   9   2  -2 138.763 110.799   8 0.64861-0.01350-0.21170 0.37876 0.83638-0.91272
  -8   2   2 389.285 141.752   7-0.58809 0.02810 0.09475 0.07215-0.89631 0.98564
  -8  -2   2 37.2897 101.015   7-0.63458 0.07467 0.10446-0.27175-0.86788 0.95726
  -8  -2   2 226.106 105.060   9 0.08004-0.64092-0.30428 0.13742 0.94815-0.85866
   8   2  -2 413.500 120.536   2 0.50150 0.05899 0.36330-0.19623 0.86267-0.95196
   8  -2  -2 479.456 147.057   5 0.66396-0.10388 0.29252-0.45948 0.79662-0.88619
  -8  -2   2 356.227 115.507   3-0.52824-0.03271-0.28973 0.12281-0.88028 0.96962
   8   2  -2 362.289 113.121   5 0.55160 0.00870 0.22052-0.05326 0.89073-0.98052
   8  -2  -2 458.748 132.146   8 0.56591-0.00531-0.17534 0.00812 0.89469-0.98446
   8   2  -2 397.336 131.441   8 0.65413-0.09359-0.21417 0.38122 0.83181-0.92163
  -7   2   2 545.322 129.555   7-0.59538 0.10994 0.09627 0.07061-0.89216 0.99495
  -7  -2   2 474.608 118.201   7-0.64803 0.16264 0.10729-0.27456-0.85876 0.96160
   7  -2  -2 403.080 90.9077   4-0.13425 0.62117-0.15904-0.00819-0.98621 0.88297
  -7  -2   2 356.762 99.1856   9 0.13735-0.62373-0.17152 0.00453 0.98438-0.88146
   7   2  -2 465.745 115.215   2 0.49985-0.01386 0.36092-0.19384 0.86449-0.96724
   7  -2  -2 892.093 270.914   5 0.68079-0.19524 0.30371-0.47065 0.77837-0.88138
  -7   2   2 470.751 76.8198   1 0.15065-0.63647 0.22079-0.05339 0.97490-0.87175
  -7  -2   2 437.582 116.356   3-0.52865 0.04225-0.29012 0.12319-0.87995 0.98276
   7   2  -2 517.983 118.168   5 0.55440-0.06866 0.22228-0.05503 0.88886-0.99212
   7  -2  -2 455.871 115.755   8 0.57035-0.08429-0.17727 0.01006 0.89199-0.99523
   7   2  -2 527.987 152.386   8 0.66995-0.18397-0.22126 0.38832 0.81820-0.92150
  -6   2   2 538.443 119.790   7-0.61366 0.20276 0.10008 0.06678-0.88125 0.99748
  -6  -2   2 398.679 125.055   7-0.67485 0.26397 0.11296-0.28021-0.83926 0.95555
   6  -2  -2 535.513 106.802   4-0.18498 0.59744-0.01882-0.14862-0.99981 0.88308
  -6  -2   2 251.204 82.2738   9 0.19113-0.60300-0.03654-0.13055 0.99929-0.88291
   6   2  -2 438.532 100.207   2 0.50405-0.09257 0.36698-0.19987 0.85984-0.97605
  -6  -2   2 431.968 106.799   3-0.53630 0.12449-0.29755 0.13062-0.87357 0.98985
   6   2  -2 390.786 99.5351   5 0.56589-0.15469 0.22946-0.06224 0.88098-0.99770
   6  -2  -2 483.990 115.094   8 0.58441-0.17290-0.18340 0.01619 0.88314-0.99984
   6   2  -2 1055.50 220.052   8 0.69954-0.28813-0.23466 0.40172 0.79041-0.90718
  -6   2   2 538.026 90.3707   1 0.18704-0.59830 0.02142 0.14582 0.99974-0.88311
  -5   2   2 26.4142 46.0035   7-0.64698 0.31060 0.10707 0.05977-0.85949 0.98914
  -5  -2   2 16.5278 19.8581   7-0.71976 0.38336 0.12256-0.28977-0.80220 0.93193
   5  -2  -2 -0.6608 8.20882   4-0.23069 0.56860 0.11896-0.28657-0.99156 0.86129
  -5  -2   2 13.9023 24.8399   9 0.24054-0.57787 0.09822-0.26539 0.99319-0.86332
   5   2  -2 -35.991 32.3193   2 0.51551-0.17855 0.38364-0.21650 0.84652-0.97620
  -5  -2   2 58.1925 48.0098   3-0.55328 0.21604-0.31415 0.14722-0.85857 0.98831
   5   2  -2 8.47738 21.5041   5 0.58884-0.25217 0.24393-0.07674 0.86413-0.99429
   5  -2  -2 47.5156 42.1711   8 0.61142-0.27445-0.19523 0.02803 0.86481-0.99497
  -5   2   2 5.21666 12.3259   1 0.21289-0.54962-0.15635 0.32347 0.98714-0.85706
  -4   2   2 52.3404 44.4647   7-0.70058 0.43868 0.11844 0.04837-0.81876 0.96181
   4  -2  -2 38.7459 29.2335   4-0.27053 0.53383 0.25097-0.41869-0.96311 0.81926
   4   2  -2 36.2681 24.2769   2 0.53565-0.27319 0.41352-0.24636 0.82069-0.96384
  -4  -2   2 81.8651 36.7146   9 0.28452-0.54730 0.22958-0.39681 0.96677-0.82342
   4  -2  -2 155.736 67.2014   8 0.65565-0.39321-0.21485 0.04766 0.83053-0.97417
   3   2  -2 27.2311 33.2771   2 0.56532-0.37737 0.45930-0.29211 0.77575-0.93237
   3  -2  -2 -10.680 30.9292   8 0.72138-0.53345-0.24467 0.07749 0.76773-0.92484
 -12  -3   2 96.7881 80.8549   7-0.68369-0.17434 0.11484-0.36575-0.83242 0.86778
 -12  -3   2 180.482 98.3550   3-0.56431-0.29487-0.32504 0.07458-0.84816 0.88365
 -11   3   2 259.397 128.313   7-0.61660-0.16709 0.10070 0.14984-0.87942 0.92823
 -11  -3   2 14.7336 80.6745   7-0.67258-0.11090 0.11248-0.36336-0.84098 0.88985
  11   3  -2 80.3179 57.2572   2 0.51936 0.26462 0.38929-0.13873 0.84183-0.89078
 -11  -3   2 103.535 111.730   3-0.54897-0.23566-0.30991 0.05944-0.86250 0.91146
  11   3  -2 48.1385 69.9786   5 0.57492 0.20908 0.23514 0.01573 0.87454-0.92391
  11  -3  -2 168.976 111.105   8 0.59117 0.19309-0.18635-0.06445 0.87873-0.92805
 -10   3   2 248.745 126.374   7-0.60608-0.10302 0.09850 0.15202-0.88585 0.94816
 -10  -3   2 9.45444 64.1850   7-0.66606-0.04288 0.11110-0.36196-0.84585 0.90824
  10   3  -2 108.382 93.5980   2 0.50676 0.20271 0.37089-0.12031 0.85678-0.91918
 -10  -3   2 321.278 140.512   3-0.53624-0.17383-0.29749 0.04701-0.87362 0.93605
  10   3  -2 267.757 87.7097   5 0.56265 0.14679 0.22742 0.02342 0.88325-0.94610
  10  -3  -2 251.887 113.931   8 0.57936 0.13035-0.18119-0.06959 0.88638-0.94918
  -9   3   2 173.076 53.6214   7-0.60027-0.03427 0.09729 0.15322-0.88930 0.96511
  -9  -3   2 -3.1863 85.1617   7-0.66552 0.03111 0.11099-0.36181-0.84625 0.92213
   9   3  -2 179.624 84.4530   2 0.49689 0.13807 0.35669-0.10608 0.86769-0.94355
  -9  -3   2 248.171 120.739   3-0.52680-0.10873-0.28833 0.03784-0.88146 0.95735
   9   3  -2 265.094 92.0272   5 0.55417 0.08071 0.22212 0.02870 0.88902-0.96535
   9  -3  -2 245.594 113.264   8 0.57168 0.06347-0.17785-0.07292 0.89117-0.96745
   9   3  -2 296.245 217.503   8 0.69638-0.06130-0.23322 0.48386 0.79353-0.86986
  -8   3   2 280.990 109.394   7-0.60057 0.04059 0.09735 0.15313-0.88913 0.97841
  -8  -3   2 29.6511 108.508   7-0.67290 0.11302 0.11254-0.36334-0.84074 0.93010
  -8  -3   2 128.793 95.2218   9 0.08799-0.64886-0.28648 0.03605 0.95433-0.86480
   8  -3  -2 297.025 104.861   4-0.08637 0.64781-0.28135 0.03072-0.95549 0.86568
  -8   3   2 81.5032 47.8641   6-0.35348-0.20712 0.59657-0.34592-0.77282 0.86271
   8   3  -2 184.471 71.7280   2 0.49042 0.07004 0.34745-0.09682 0.87450-0.96382
  -8  -3   2 332.525 129.530   3-0.52144-0.03951-0.28318 0.03269-0.88574 0.97510
   8   3  -2 156.167 62.1186   5 0.55051 0.00981 0.21984 0.03097 0.89145-0.98126
   8  -3  -2 283.560 113.605   8 0.56932-0.00871-0.17682-0.07394 0.89262-0.98236
   8   3  -2 285.445 140.972   8 0.70718-0.14666-0.23815 0.48880 0.78269-0.87250
  -7   3   2 663.956 156.439   7-0.60895 0.12353 0.09910 0.15135-0.88412 0.98686
  -7  -3   2 834.415 163.263   7-0.69089 0.20552 0.11637-0.36714-0.82669 0.92952
  -7   3   2 660.674 134.535   6-0.34898-0.13712 0.57175-0.32117-0.79361 0.89692
  -7  -3   2 416.879 123.269   9 0.13433-0.62070-0.17877-0.07178 0.98297-0.88001
   7   3  -2 569.982 135.027   2 0.48816-0.00220 0.34423-0.09359 0.87682-0.97959
   7   3  -2 549.088 132.165   5 0.55304-0.06727 0.22142 0.02936 0.88977-0.99305
  -7  -3   2 784.082 170.276   3-0.52126 0.03489-0.28301 0.03250-0.88588 0.98872
   7  -3  -2 704.392 163.038   8 0.57387-0.08780-0.17880-0.07195 0.88982-0.99303
   7   3  -2 -18.695 59.2387   8 0.72936-0.24341-0.24836 0.49900 0.75892-0.86221
   7  -3  -2 995.110 170.095   4-0.13042 0.61740-0.16916-0.08169-0.98435 0.88112
  -6   3   2 278.981 93.9738   7-0.62817 0.21728 0.10311 0.14729-0.87208 0.98825
  -6  -3   2 383.726 125.674   7-0.72309 0.31221 0.12328-0.37399-0.79921 0.91550
  -6   3   2 318.983 84.7300   1 0.17874-0.59003 0.07098 0.17983 0.99745-0.88085
   6  -3  -2 295.438 97.5669   4-0.17105 0.58351-0.05856-0.19249-0.99822 0.88152
  -6  -3   2 124.580 71.6240   9 0.17767-0.58951-0.07137-0.17928 0.99747-0.88106
  -6   3   2 322.559 92.9908   6-0.34609-0.06551 0.55659-0.30608-0.80562 0.92237
   6   3  -2 279.202 85.4188   2 0.49108-0.07963 0.34839-0.09771 0.87381-0.99005
   6   3  -2 209.323 74.0418   5 0.56359-0.15235 0.22801 0.02273 0.88260-0.99934
  -6  -3   2 330.901 99.5997   3-0.52762 0.11581-0.28913 0.03862-0.88079 0.99710
   6  -3  -2 377.421 113.672   8 0.58754-0.17600-0.18476-0.06599 0.88112-0.99779
  -5   3   2 108.862 60.6342   7-0.66196 0.32561 0.11024 0.14014-0.84886 0.97844
   5   3  -2 62.9330 25.6597   6-0.14170 0.47885-0.14187 0.39279-0.98912 0.85851
   5  -3  -2 30.7972 16.2052   4-0.20796 0.54585 0.04887-0.30010-0.99843 0.86821
  -5   3   2 91.3104 21.7237   2 0.30211-0.63919 0.10055 0.15015 0.98690-0.85741
  -5  -3   2 75.5571 56.2672   9 0.21762-0.55492 0.03426-0.28498 0.99868-0.86880
  -5   3   2 54.5078 28.8405   6-0.34522 0.00813 0.55213-0.30168-0.80907 0.93924
  -5   3   2 104.039 38.9579   1 0.19998-0.53676-0.06221 0.31289 0.99789-0.86783
   5   3  -2 80.3896 49.4347   2 0.50034-0.16340 0.36163-0.11092 0.86395-0.99365
  -5  -3   2 14.8526 33.2179   3-0.54221 0.20499-0.30330 0.05279-0.86849 0.99827
   5   3  -2 119.003 55.4866   5 0.58456-0.24786 0.24122 0.00950 0.86739-0.99759
   5  -3  -2 97.9007 68.0576   8 0.61326-0.27626-0.19604-0.05470 0.86349-0.99363
  -4   3   2 512.885 124.690   7-0.71502 0.45315 0.12154 0.12878-0.80640 0.94938
   4   3  -2 355.105 65.7833   6-0.07166 0.33419-0.31944 0.57052-0.94219 0.79799
  -4   3   2 310.270 74.0131   1 0.21587-0.47816-0.18009 0.43068 0.98295-0.83945
   4  -3  -2 298.119 80.2239   4-0.24084 0.50412 0.15136-0.40271-0.98649 0.84272
  -4  -3   2 459.191 108.715   9 0.25375-0.51651 0.13642-0.38719 0.98763-0.84428
   4   3  -2 320.851 89.4969   2 0.51715-0.25472 0.38604-0.13531 0.84454-0.98771
  -4   3   2 405.640 96.5634   6-0.34664 0.08405 0.55942-0.30904-0.80342 0.94703
   4   3  -2 343.417 90.3021   5 0.61893-0.35676 0.26316-0.01247 0.83953-0.98319
   4  -3  -2 498.797 130.527   8 0.65480-0.39232-0.21447-0.03626 0.83125-0.97485
   3  -3  -2 111.142 39.4051   4-0.26940 0.45803 0.24703-0.49846-0.96426 0.80694
  -3  -3   2 182.102 62.1121   9 0.28566-0.47386 0.23319-0.48398 0.96575-0.80892
  -3   3   2 153.062 53.6039   6-0.35040 0.16231 0.57941-0.32910-0.78735 0.94437
  -3   3   2 140.118 48.0173   1 0.22726-0.41507-0.28147 0.53199 0.95810-0.80116
  -3  -3   2 215.576 85.5449   3-0.60397 0.41593-0.36509 0.11457-0.80571 0.96240
   3  -3  -2 35.0550 53.9191   8 0.71596-0.52800-0.24218-0.00855 0.77354-0.93062
 -11   4   2 226.781 150.844   7-0.63233-0.15134 0.10399 0.23015-0.86936 0.91810
  11   4  -2 122.973 113.749   2 0.51413 0.26981 0.38161-0.04750 0.84818-0.89716
 -11  -4   2 149.007 97.4843   3-0.54785-0.23679-0.30882-0.02523-0.86350 0.91247
  11   4  -2 18.7496 50.3181   5 0.57899 0.20501 0.23771 0.09670 0.87155-0.92092
  11  -4  -2 215.518 139.316   8 0.59925 0.18501-0.18988-0.14446 0.87330-0.92261
 -10   4   2 -12.704 83.9340   7-0.62333-0.08576 0.10211 0.23201-0.87518 0.93743
 -10  -4   2 5.72939 41.6611   7-0.70663-0.00227 0.11974-0.45409-0.81365 0.87601
  10   4  -2 39.0890 51.4812   2 0.50223 0.20720 0.36435-0.03021 0.86187-0.92430
 -10  -4   2 37.3939 19.9635   3-0.53590-0.17420-0.29714-0.03691-0.87392 0.93636
  10   4  -2 97.9838 68.3300   5 0.56762 0.14182 0.23055 0.10384 0.87977-0.94263
  10  -4  -2 -29.375 20.0923   8 0.58849 0.12121-0.18518-0.14915 0.88049-0.94327
  -9   4   2 778.973 196.400   7-0.61917-0.01535 0.10124 0.23284-0.87782 0.95355
  -9  -4   2 311.290 197.305   7-0.71002 0.07565 0.12047-0.45479-0.81074 0.88660
   9   4  -2 754.653 193.308   2 0.49293 0.14200 0.35103-0.01686 0.87189-0.94778
   9   4  -2 764.347 182.653   5 0.55998 0.07492 0.22575 0.10861 0.88509-0.96144
  -9  -4   2 580.604 173.742   3-0.52708-0.10843-0.28860-0.04546-0.88123 0.95714
   9  -4  -2 772.410 194.889   8 0.58187 0.05329-0.18229-0.15203 0.88478-0.96103
  -8   4   2 78.6395 54.4846   7-0.62124 0.06129 0.10167 0.23237-0.87651 0.96572
  -8  -4   2 18.6842 71.8117   7-0.72208 0.16222 0.12306-0.45734-0.80012 0.88946
   8  -4  -2 -23.473 42.9215   4-0.08564 0.64715-0.28316-0.05110-0.95490 0.86508
  -8  -4   2 14.3840 26.6343   9 0.08759-0.64844-0.28739-0.04662 0.95402-0.86446
  -8   4   2 -11.364 49.4685   6-0.34571-0.21500 0.55466-0.22052-0.80712 0.89694
   8   4  -2 42.8817 20.5679   2 0.48680 0.07363 0.34231-0.00813 0.87819-0.96754
   8   4  -2 58.0387 63.0984   5 0.55699 0.00335 0.22388 0.11046 0.88712-0.97695
  -8  -4   2 79.3950 92.4261   3-0.52215-0.03879-0.28386-0.05022-0.88518 0.97457
   8  -4  -2 29.1793 50.6341   8 0.58049-0.01987-0.18169-0.15261 0.88566-0.97537
   7   4  -2 1180.43 206.533   2 0.48452 0.00140 0.33910-0.00489 0.88047-0.98328
  -7   4   2 1156.70 199.279   6-0.34122-0.14499 0.53203-0.19793-0.82407 0.92733
  -7  -4   2 513.891 159.002   9 0.12656-0.61291-0.19732-0.13679 0.97907-0.87607
  -7  -4   2 1021.30 202.275   3-0.52204 0.03567-0.28376-0.05033-0.88526 0.98813
   7   4  -2 1112.67 186.823   5 0.55991-0.07412 0.22571 0.10860 0.88513-0.98843
   7  -4  -2 1238.44 216.556   8 0.58585-0.09977-0.18402-0.15027 0.88221-0.98539
  -7   4   2 1175.32 177.187   1 0.14804-0.63392 0.23361 0.10091 0.97184-0.86876
   7  -4  -2 1382.11 221.165   4-0.12245 0.60947-0.19002-0.14445-0.98014 0.87691
  -7   4   2 1211.00 214.173   7-0.63146 0.14606 0.10380 0.23019-0.86994 0.97260
  -7  -4   2 1069.86 229.558   7-0.74548 0.26013 0.12812-0.46235-0.77811 0.88092
  -6   4   2 54.4182 53.4299   1 0.17041-0.58176 0.11796 0.21641 0.99293-0.87637
  -6   4   2 56.4256 67.2077   7-0.65241 0.24155 0.10822 0.22573-0.85570 0.97179
   6  -4  -2 -4.3834 39.7046   4-0.15635 0.56882-0.09943-0.23525-0.99473 0.87804
  -6  -4   2 40.6903 33.3975   9 0.16286-0.57466-0.10885-0.22534 0.99395-0.87750
  -6   4   2 -24.736 35.5774   6-0.33830-0.07340 0.51783-0.18381-0.83418 0.95087
   6   4  -2 29.7844 54.1846   2 0.48692-0.07550 0.34248-0.00824 0.87807-0.99434
   6   4  -2 105.260 53.4032   5 0.57035-0.15910 0.23226 0.10201 0.87783-0.99460
  -6  -4   2 28.1732 21.3866   3-0.52790 0.11612-0.28940-0.04469-0.88056 0.99690
   6  -4  -2 45.3574 49.0425   8 0.59994-0.18839-0.19019-0.14408 0.87282-0.98946
  -5   4   2 75.3786 42.9864   7-0.68754 0.35118 0.11566 0.21824-0.82938 0.95889
   5   4  -2 77.2182 23.9618   6-0.20191 0.53903 0.02775 0.30668-0.99939 0.86878
   5  -4  -2 61.0725 35.9399   4-0.18719 0.52508-0.01245-0.32239-0.99990 0.86971
  -5  -4   2 67.4258 53.0252   9 0.19627-0.53354-0.02303-0.31123 0.99962-0.86971
  -5   4   2 48.4988 30.9182   6-0.33727 0.00008 0.51290-0.17894-0.83760 0.96773
   5   4  -2 79.2218 44.5880   2 0.49491-0.15799 0.35384-0.01958 0.86981-0.99954
  -5  -4   2 30.6912 45.2634   3-0.54115 0.20396-0.30227-0.03183-0.86941 0.99922
   5   4  -2 86.0588 63.3033   5 0.59037-0.25366 0.24491 0.08932 0.86294-0.99317
  -5   4   2 79.7129 48.7578   1 0.18849-0.52532 0.01252 0.32173 0.99989-0.86986
   5  -4  -2 133.233 72.5061   8 0.62537-0.28835-0.20139-0.13288 0.85459-0.98470
  -4   4   2 251.050 95.5253   7-0.74083 0.47895 0.12711 0.20674-0.78264 0.92554
   4   4  -2 183.518 60.7498   6-0.14667 0.40917-0.12850 0.46312-0.99112 0.84696
   4  -4  -2 142.058 60.4479   4-0.21484 0.47811 0.06975-0.40472-0.99697 0.85326
  -4  -4   2 218.104 81.0075   9 0.22661-0.48933 0.05902-0.39334 0.99712-0.85375
  -4   4   2 256.934 86.3961   6-0.33834 0.07569 0.51809-0.18420-0.83400 0.97758
   4   4  -2 155.062 65.4641   2 0.50949-0.24708 0.37485-0.04055 0.85364-0.99684
  -4  -4   2 261.792 92.8298   3-0.56342 0.30082-0.32417-0.00993-0.84902 0.99229
   4   4  -2 136.360 60.0033   5 0.62249-0.36030 0.26545 0.06875 0.83643-0.98012
  -4   4   2 187.538 70.1120   1 0.20278-0.46513-0.08156 0.41572 0.99643-0.85295
   4  -4  -2 223.297 95.3975   8 0.66537-0.40285-0.21920-0.11505 0.82222-0.96579
   3   4  -2 319.654 74.2897   6-0.10995 0.29782-0.22473 0.55946-0.97205 0.81434
   3  -4  -2 283.689 75.7193   4-0.23917 0.42779 0.14600-0.48107-0.98741 0.83017
   3   4  -2 491.320 126.963   2 0.53153-0.34364 0.40735-0.07302 0.82624-0.98290
  -3  -4   2 494.451 115.510   9 0.25365-0.44183 0.13612-0.47046 0.98768-0.83085
  -3   4   2 417.101 105.863   6-0.34166 0.15352 0.53421-0.20040-0.82248 0.97950
  -3  -4   2 472.646 112.895   3-0.59631 0.40832-0.35725 0.02315-0.81457 0.97129
   3  -4  -2 53.7058 61.4097   8 0.72308-0.53507-0.24546-0.08879 0.76587-0.92293
   2   4  -2 13.7492 10.1535   6-0.08658 0.19983-0.28318 0.61796-0.95498 0.78373
  -2  -4   2 -20.573 31.2716   9 0.27726-0.39088 0.20700-0.54135 0.97280-0.80252
  -2   4   2 -12.582 9.43593   6-0.34711 0.23349 0.56188-0.22815-0.80149 0.97193
  -1   4   2 59.0922 48.6601   6-0.35430 0.31520 0.60125-0.26761-0.76874 0.95259
 -11   5   2 86.8258 42.2299   7-0.65409-0.12955 0.10857 0.30916-0.85451 0.90316
  11   5  -2 226.102 116.607   2 0.51384 0.27006 0.38119 0.03648 0.84853-0.89753
 -10   5   2 35.9644 82.0575   7-0.64703-0.06203 0.10708 0.31061-0.85946 0.92161
  10   5  -2 16.4897 33.9097   2 0.50285 0.20655 0.36524 0.05246 0.86118-0.92364
 -10  -5   2 -15.124 17.5503   3-0.54087-0.16922-0.30199-0.11565-0.86966 0.93211
  10   5  -2 23.0460 42.8894   5 0.57818 0.13127 0.23719 0.18073 0.87215-0.93502
  10  -5  -2 -57.892 49.3516   8 0.60352 0.10620-0.19176-0.22610 0.87036-0.93312
  -9   5   2 498.202 161.674   7-0.64497 0.01048 0.10665 0.31101-0.86087 0.93651
  -9  -5   2 134.978 122.825   9 0.04623-0.68157-0.37784-0.03964 0.91797-0.84177
   9   5  -2 354.504 139.648   2 0.49434 0.14055 0.35304 0.06468 0.87040-0.94632
  -9  -5   2 363.151 135.389   3-0.53297-0.10254-0.29431-0.12335-0.87638 0.95231
   9   5  -2 400.309 145.139   5 0.57169 0.06321 0.23310 0.18479 0.87687-0.95323
   9  -5  -2 321.169 132.965   8 0.59833 0.03685-0.18948-0.22836 0.87393-0.95015
  -8   5   2 -103.37 75.9969   7-0.64931 0.08939 0.10756 0.31005-0.85787 0.94698
   8  -5  -2 -21.892 46.8991   4-0.08032 0.64188-0.29618-0.12169-0.95050 0.86067
  -8   5   2 -61.163 66.7374   6-0.34138-0.21943 0.53284-0.11516-0.82349 0.91324
  -8  -5   2 16.8503 14.7885   9 0.08224-0.64307-0.29937-0.11821 0.94990-0.86029
   8   5  -2 12.5198 50.5944   2 0.48883 0.07157 0.34519 0.07256 0.87613-0.96551
   8   5  -2 56.5219 68.5578   5 0.56976-0.00940 0.23189 0.18597 0.87825-0.96810
  -8  -5   2 80.1089 75.3181   3-0.52879-0.03214-0.29026-0.12741-0.87983 0.96924
   8  -5  -2 91.8319 85.1730   8 0.59836-0.03773-0.18950-0.22834 0.87390-0.96359
  -7   5   2 942.542 209.348   7-0.66188 0.17651 0.11022 0.30733-0.84892 0.95148
   7  -5  -2 1050.38 216.262   4-0.11198 0.59902-0.21706-0.20104-0.97391 0.87068
  -7   5   2 818.672 182.064   6-0.33716-0.14914 0.51241-0.09480-0.83794 0.94114
  -7  -5   2 472.292 168.395   9 0.11589-0.60219-0.22248-0.19518 0.97311-0.87007
   7   5  -2 707.795 168.380   2 0.48688-0.00099 0.34243 0.07534 0.87811-0.98095
   7   5  -2 737.614 155.517   5 0.57351-0.08770 0.23425 0.18358 0.87556-0.97888
  -7  -5   2 924.440 202.604   3-0.52915 0.04279-0.29060-0.12708-0.87954 0.98243
   7  -5  -2 807.546 188.439   8 0.60501-0.11890-0.19241-0.22540 0.86933-0.97248
  -6   5   2 86.9282 56.0891   7-0.68511 0.27427 0.11514 0.30234-0.83130 0.94730
   6  -5  -2 -14.441 32.2685   4-0.14104 0.55352-0.14094-0.27734-0.98923 0.87254
  -6   5   2 13.0549 23.8565   6-0.33441-0.07738 0.49949-0.08193-0.84667 0.96332
  -6  -5   2 4.46268 21.1230   9 0.14708-0.55884-0.14790-0.26983 0.98854-0.87206
   6   5  -2 52.0038 61.6892   2 0.48918-0.07779 0.34568 0.07211 0.87578-0.99207
  -6  -5   2 -9.1155 42.1864   3-0.53502 0.12325-0.29629-0.12139-0.87466 0.99102
   6   5  -2 -38.358 36.9705   5 0.58438-0.17310 0.24110 0.17668 0.86753-0.98432
  -6   5   2 95.7654 55.2525   1 0.16190-0.57330 0.16365 0.25429 0.98632-0.86979
   6  -5  -2 56.1746 48.6349   8 0.62007-0.20850-0.19905-0.21876 0.85854-0.97514
   5   5  -2 1336.20 211.743   2 0.49648-0.15960 0.35610 0.06174 0.86813-0.99789
   5   5  -2 1784.65 176.942   6-0.23594 0.57302 0.13238 0.28556-0.98954 0.85890
  -5   5   2 1742.37 243.499   6-0.33337-0.00389 0.49472-0.07722-0.84982 0.97992
  -5  -5   2 1742.31 253.933   9 0.17570-0.51292-0.07642-0.34138 0.99709-0.86716
  -5  -5   2 1533.93 233.949   3-0.54759 0.21043-0.30857-0.10913-0.86374 0.99357
   5   5  -2 1587.26 217.737   5 0.60413-0.26739 0.25366 0.16408 0.85200-0.98227
   5  -5  -2 2094.09 307.399   8 0.64587-0.30880-0.21048-0.20731 0.83861-0.96869
  -5   5   2 1380.13 207.166   1 0.17769-0.51459 0.07701 0.34081 0.99700-0.86700
   5  -5  -2 1511.40 222.664   4-0.16744 0.50531-0.06866-0.34978-0.99753 0.86737
  -5   5   2 2060.42 287.059   7-0.72202 0.38569 0.12305 0.29438-0.80017 0.92956
   4   5  -2 276.349 78.8302   6-0.19291 0.45538 0.00122 0.41692-0.99992 0.85575
   4  -5  -2 243.741 92.0175   4-0.19110 0.45435-0.00107-0.41751-0.99994 0.85628
  -4  -5   2 185.912 76.5437   9 0.20162-0.46430-0.00888-0.40896 0.99974-0.85635
  -4   5   2 168.513 77.0264   6-0.33425 0.07152 0.49876-0.08133-0.84715 0.99070
   4   5  -2 264.061 94.3182   2 0.50958-0.24720 0.37498 0.04288 0.85353-0.99676
  -4  -5   2 255.409 98.4284   3-0.56820 0.30563-0.32891-0.08879-0.84436 0.98766
   4   5  -2 181.990 81.9938   5 0.63484-0.37263 0.27345 0.14425 0.82527-0.96900
   4  -5  -2 526.892 179.868   8 0.68506-0.42251-0.22808-0.18969 0.80440-0.94795
  -4   5   2 156.817 55.7214   1 0.19055-0.45295-0.00040 0.41812 0.99995-0.85650
  -3   5   2 2214.56 253.687   1 0.20082-0.38873-0.06794 0.48557 0.99749-0.84059
   3   5  -2 2965.41 310.802   2 0.52918-0.34131 0.40383 0.01406 0.82935-0.98605
   3   5  -2 2671.12 242.135   6-0.16139 0.34923-0.08831 0.50660-0.99588 0.83818
  -3   5   2 2678.04 290.547   6-0.33713 0.14892 0.51228-0.09493-0.83803 0.99502
  -3  -5   2 2612.65 294.605   9 0.22474-0.41287 0.05382-0.47170 0.99750-0.84066
  -3  -5   2 2910.75 320.369   3-0.59810 0.41015-0.35906-0.05863-0.81254 0.96929
   3   5  -2 3115.79 463.524   5 0.67854-0.49082 0.30220 0.11545 0.78089-0.93810
   3  -5  -2 1877.01 228.128   4-0.21196 0.40055 0.06096-0.47965-0.99764 0.84046
  -2   5   2 83.6764 44.9255   1 0.20880-0.32224-0.12509 0.54266 0.99174-0.82138
   2   5  -2 69.1500 35.6589   6-0.13934 0.25256-0.14816 0.56652-0.98811 0.81687
   2   5  -2 162.918 74.4520   2 0.55561-0.44225 0.44407-0.02615 0.79148-0.96165
  -2  -5   2 75.4964 40.8376   9 0.24493-0.35852 0.11078-0.52867 0.99155-0.82126
  -2   5   2 65.7420 51.4079   6-0.34199 0.22832 0.53582-0.11857-0.82130 0.99173
  -1   5   2 165.503 63.9347   1 0.21480-0.25376-0.17146 0.58898 0.98454-0.80074
   1   5  -2 161.176 63.4185   6-0.12506 0.16366-0.18581 0.60423-0.98109 0.79633
   1  -5  -2 68.5662 47.7331   4-0.24497 0.28423 0.16476-0.58354-0.98403 0.79980
  -1  -5   2 157.899 58.6584   9 0.26210-0.30115 0.16104-0.57895 0.98314-0.79940
  -1   5   2 127.543 57.1060   6-0.34859 0.30945 0.56968-0.15252-0.79528 0.97913
 -10   6   2 -30.942 85.4008   7-0.67657-0.03246 0.11332 0.38795-0.83794 0.89998
  10   6  -2 160.151 113.666   2 0.50750 0.20186 0.37197 0.12928 0.85593-0.91842
  10  -6  -2 136.440 69.9397   8 0.62371 0.08601-0.20065-0.30073 0.85584-0.91857
   9  -6  -2 -11.494 26.8139   4-0.04189 0.67799-0.38733-0.11396-0.91328 0.83680
  -9   6   2 -82.917 93.8708   7-0.67697 0.04251 0.11341 0.38781-0.83764 0.91316
  -9   6   2 46.6295 92.3622   6-0.34470-0.29073 0.54947-0.04821-0.81110 0.88734
  -9  -6   2 14.3945 39.2755   9 0.04180-0.67712-0.38720-0.11383 0.91356-0.83732
   9   6  -2 89.5761 112.298   2 0.49990 0.13496 0.36101 0.14027 0.86443-0.94038
  -9  -6   2 108.630 98.9329   3-0.54336-0.09215-0.30442-0.19684-0.86749 0.94343
   9   6  -2 56.0148 83.0438   5 0.58836 0.04655 0.24363 0.25778 0.86449-0.94086
   9  -6  -2 89.1783 90.4314   8 0.62021 0.01497-0.19911-0.30226 0.85843-0.93463
  -8   6   2 310.745 126.901   7-0.68391 0.12402 0.11488 0.38627-0.83225 0.92124
   8  -6  -2 369.157 143.719   4-0.07202 0.63360-0.31635-0.18516-0.94325 0.85340
  -8   6   2 327.578 127.539   6-0.33974-0.22117 0.52481-0.02361-0.82926 0.91895
  -8  -6   2 330.000 122.987   9 0.07362-0.63442-0.31850-0.18262 0.94291-0.85326
   8   6  -2 227.675 102.652   2 0.49513 0.06524 0.35417 0.14713 0.86957-0.95897
  -8  -6   2 312.201 120.424   3-0.54011-0.02081-0.30125-0.20003-0.87031 0.95974
   8   6  -2 143.869 99.7524   5 0.58772-0.02735 0.24322 0.25815 0.86499-0.95484
   8  -6  -2 254.806 137.111   8 0.62194-0.06129-0.19987-0.30148 0.85716-0.94682
  -7   6   2 100.841 13.1852   7-0.69915 0.21381 0.11814 0.38295-0.81994 0.92238
   7  -6  -2 101.647 68.2800   4-0.09979 0.58682-0.24797-0.25373-0.96570 0.86245
  -7   6   2 249.355 102.247   6-0.33590-0.15050 0.50647-0.00531-0.84199 0.94514
  -7  -6   2 183.318 109.051   9 0.10321-0.58948-0.25188-0.24933 0.96514-0.86206
   7   6  -2 292.991 104.599   2 0.49369-0.00783 0.35211 0.14922 0.87109-0.97396
  -7  -6   2 163.908 104.187   3-0.54115 0.05482-0.30226-0.19903-0.86942 0.97232
   7   6  -2 129.809 49.3113   5 0.59257-0.10675 0.24630 0.25504 0.86123-0.96458
   7  -6  -2 236.938 150.241   8 0.63018-0.14405-0.20351-0.29782 0.85096-0.95408
  -6   6   2 661.455 180.789   7-0.72489 0.31407 0.12367 0.37735-0.79757 0.91343
   6  -6  -2 326.617 126.635   4-0.12519 0.53766-0.18286-0.31901-0.98164 0.86496
  -6   6   2 435.389 136.594   1 0.15310-0.56456 0.20861 0.29289 0.97763-0.86115
  -6   6   2 549.268 154.454   6-0.33341-0.07846 0.49487 0.00622-0.84971 0.96631
  -6  -6   2 398.008 139.656   9 0.13050-0.54223-0.18794-0.31334 0.98110-0.86458
   6   6  -2 242.848 78.0207   2 0.49614-0.08478 0.35560 0.14575 0.86850-0.98482
  -6  -6   2 401.918 130.377   3-0.54733 0.13560-0.30831-0.19300-0.86397 0.98036
   6   6  -2 355.522 121.775   5 0.60418-0.19289 0.25370 0.24760 0.85196-0.96878
   6  -6  -2 459.789 151.541   8 0.64655-0.23494-0.21078-0.29052 0.83806-0.95465
  -5   6   2 20.0359 47.4832   7-0.76369 0.42736 0.13209 0.36885-0.75961 0.88887
   5  -6  -2 45.6447 27.8933   4-0.14820 0.48605-0.12165-0.38039-0.99203 0.86187
  -5   6   2 52.6018 29.7745   6-0.33246-0.00487 0.49055 0.01049-0.85253 0.98259
  -5  -6   2 147.820 65.4721   9 0.15544-0.49263-0.12733-0.37400 0.99161-0.86165
   5   6  -2 139.687 80.6837   2 0.50309-0.16624 0.36560 0.13580 0.86091-0.99070
  -5  -6   2 81.3559 60.2468   3-0.55962 0.22250-0.32040-0.18090-0.85265 0.98251
   5   6  -2 74.2231 65.7794   5 0.62406-0.28730 0.26646 0.23479 0.83504-0.96534
   5  -6  -2 69.3144 57.2443   8 0.67304-0.33595-0.22265-0.27864 0.81543-0.94549
  -5   6   2 134.832 90.4735   1 0.16719-0.50414 0.13552 0.36587 0.99065-0.86070
   4  -6  -2 18.8155 21.4039   4-0.16874 0.43197-0.06503-0.43714-0.99779 0.85415
  -4   6   2 -37.292 33.1376   1 0.17885-0.44132 0.07031 0.43098 0.99750-0.85408
   4   6  -2 66.2472 54.0487   6-0.22543 0.48788 0.09927 0.40241-0.99401 0.84980
   4   6  -2 30.3021 16.0121   2 0.51518-0.25282 0.38316 0.11826 0.84692-0.99018
  -4  -6   2 -3.9334 5.48316   9 0.17792-0.44056-0.07074-0.43064 0.99752-0.85411
  -4   6   2 47.5892 45.8995   6-0.33322 0.07042 0.49400 0.00696-0.85028 0.99380
  -4  -6   2 -12.318 15.0564   3-0.57910 0.31659-0.33982-0.16149-0.83329 0.97660
   4   6  -2 -15.370 29.4062   5 0.65389-0.39165 0.28588 0.21531 0.80693-0.95071
   4  -6  -2 2.90241 95.2023   8 0.71184-0.44925-0.24029-0.26101 0.77788-0.92141
   3   6  -2 15.7275 23.9436   6-0.19868 0.38649 0.01813 0.48369-0.99967 0.84195
   3  -6  -2 67.2649 33.7290   4-0.18677 0.37534-0.01368-0.48859-0.99988 0.84274
   3   6  -2 17.9625 34.9363   2 0.53295-0.34511 0.40948 0.09197 0.82433-0.98107
  -3  -6   2 118.614 66.4454   9 0.19785-0.38595-0.01887-0.48253 0.99968-0.84282
  -3   6   2 45.6655 32.2255   6-0.33575 0.14749 0.50577-0.00489-0.84246 0.99942
  -3  -6   2 -14.001 52.4235   3-0.60675 0.41885-0.36795-0.13335-0.80241 0.95917
  -3   6   2 48.7712 57.2327   1 0.18833-0.37631 0.01350 0.48771 0.99987-0.84299
   2   6  -2 2311.89 318.574   2 0.55667-0.44333 0.44571 0.05577 0.78982-0.96002
   2   6  -2 1946.53 236.357   6-0.17879 0.29198-0.03950 0.54143-0.99920 0.82796
  -2   6   2 2027.68 272.089   6-0.34005 0.22634 0.52631-0.02552-0.82819 0.99859
  -2  -6   2 1397.95 214.163   9 0.21515-0.32871 0.02752-0.52894 0.99899-0.82869
   2  -6  -2 1765.67 246.866   4-0.20221 0.31612 0.03165-0.53399-0.99927 0.82862
  -2   6   2 2052.37 272.332   1 0.19584-0.30934-0.03446 0.53561 0.99930-0.82897
   1   6  -2 437.020 121.258   6-0.16494 0.20351-0.07847 0.58047-0.99677 0.81201
   1  -6  -2 500.231 137.211   4-0.21499 0.25424 0.07021-0.57259-0.99693 0.81277
  -1  -6   2 534.425 127.055   9 0.22970-0.26873 0.06765-0.56908 0.99640-0.81265
  -1   6   2 594.509 142.689   6-0.34596 0.30679 0.55591-0.05522-0.80615 0.98999
   1  -6  -2 10.5203 24.4651   9-0.06828 0.10759-0.60210 0.10121 0.77022-0.95334
  -1   6   2 489.809 137.419   1 0.20158-0.24059-0.07321 0.57429 0.99711-0.81332
   0   6   2 1988.38 272.514   1 0.20571-0.17023-0.10238 0.60344 0.99443-0.79719
   0   6  -2 2252.20 302.962   6-0.15632 0.12028-0.10227 0.60433-0.99444 0.79616
   0   6   2 880.004 167.023   6-0.35313 0.38850 0.59458-0.09397-0.77454 0.97179
   0  -6   2 1528.72 202.018   9 0.24139-0.20588 0.10066-0.60209 0.99288-0.79570
   0  -6  -2 233.651 102.850   9-0.06396 0.02880-0.59433 0.09348 0.77708-0.97365
   0  -6  -2 2160.98 284.452   4-0.22503 0.18961 0.10120-0.60358-0.99383 0.79617
   1   6   2 259.092 87.6986   1 0.20834-0.09838-0.12166 0.62268 0.99218-0.78148
  -1  -6  -2 134.926 61.8778   4-0.23220 0.12212 0.12371-0.62609-0.99089 0.77974
  -1  -6  -2 42.8941 4.85094   9-0.06444-0.04519-0.59522 0.09440 0.77631-0.98634
  -2  -6  -2 40.6693 42.0279   4-0.23629 0.05156 0.13675-0.63910-0.98892 0.76429
   2   6   2 17.1914 42.2096   1 0.20955-0.02507-0.13064 0.63163 0.99099-0.76683
  -2  -6  -2 82.5015 70.2940   9-0.06894-0.11518-0.60332 0.10253 0.76914-0.99262
  -3  -6  -2 -146.25 88.0334   9-0.07686-0.18176-0.61738 0.11665 0.75628-0.99321
   9  -7  -2 72.4928 155.558   4-0.03465 0.67078-0.40393-0.18098-0.90522 0.82871
  -9   7   2 -12.751 52.7027   7-0.71439 0.07998 0.12141 0.46337-0.80695 0.88233
  -9   7   2 1.51813 91.2570   6-0.34458-0.29096 0.54883 0.03597-0.81159 0.88775
   9   7  -2 61.5778 24.6902   2 0.50867 0.12617 0.37366 0.21117 0.85459-0.93058
  -9  -7   2 -24.565 27.1066   9 0.03415-0.66943-0.40328-0.18130 0.90568-0.82938
  -9  -7   2 2.68517 47.5123   3-0.55735-0.07813-0.31816-0.26671-0.85479 0.93075
   9   7  -2 46.7992 66.3121   5 0.60918 0.02573 0.25689 0.32803 0.84783-0.92422
   9  -7  -2 71.2000 85.7704   8 0.64675-0.01155-0.21088-0.37400 0.83789-0.91407
   8  -7  -2 -28.121 70.7807   4-0.06157 0.62317-0.34132-0.24380-0.93351 0.84363
  -8   7   2 93.0126 116.772   7-0.72412 0.16426 0.12350 0.46120-0.79827 0.88712
  -8   7   2 140.116 104.733   6-0.34011-0.22090 0.52659 0.05817-0.82799 0.91762
  -8  -7   2 47.6177 70.9191   9 0.06265-0.62341-0.34254-0.24214 0.93341-0.84371
   8   7  -2 -61.737 28.7676   2 0.50469 0.05565 0.36790 0.21695 0.85912-0.94856
  -8  -7   2 -43.442 73.7960   3-0.55511-0.00579-0.31595-0.26894-0.85688 0.94632
   8   7  -2 66.0977 43.9355   5 0.60993-0.04956 0.25737 0.32750 0.84721-0.93708
   8  -7  -2 65.9017 91.3282   8 0.65033-0.08965-0.21247-0.37239 0.83497-0.92461
   7   7  -2 1704.34 300.373   2 0.50383-0.01799 0.36666 0.21823 0.86008-0.96299
  -7   7   2 1891.62 320.274   6-0.33668-0.14981 0.51013 0.07458-0.83950 0.94259
  -7  -7   2 1805.41 318.466   3-0.55694 0.07064-0.31776-0.26715-0.85517 0.95809
  -7  -7   2 1446.44 271.068   9 0.08902-0.57526-0.28416-0.30059 0.95510-0.85198
   7   7  -2 1578.07 267.901   5 0.61601-0.13017 0.26128 0.32356 0.84205-0.94542
   7  -7  -2 2398.78 407.287   8 0.66030-0.17414-0.21693-0.36791 0.82660-0.92971
   7  -7  -2 1586.31 301.985   4-0.08630 0.57334-0.28152-0.30378-0.95544 0.85217
  -7   7   2 1945.22 334.483   7-0.74213 0.25681 0.12739 0.45722-0.78138 0.88367
   6  -7  -2 157.981 109.464   4-0.10884 0.52128-0.22507-0.36041-0.97190 0.85520
  -6   7   2 164.837 75.3778   6-0.33447-0.07748 0.49981 0.08484-0.84646 0.96301
  -6  -7   2 186.635 113.290   9 0.11324-0.52494-0.22866-0.35616 0.97152-0.85496
   6   7  -2 182.421 91.1347   2 0.50655-0.09521 0.37059 0.21434 0.85701-0.97338
  -6  -7   2 568.780 193.649   3-0.56357 0.15187-0.32431-0.26060-0.84887 0.96527
   6   7  -2 92.3095 60.4126   5 0.62851-0.21721 0.26933 0.31546 0.83106-0.94791
   6  -7  -2 443.682 188.107   8 0.67811-0.26647-0.22494-0.35988 0.81085-0.92742
   5  -7  -2 543.452 144.906   4-0.12916 0.46698-0.17250-0.41312-0.98371 0.85355
  -5   7   2 607.664 158.649   6-0.33366-0.00376 0.49603 0.08856-0.84895 0.97897
  -5  -7   2 622.984 167.909   9 0.13525-0.47239-0.17658-0.40828 0.98340-0.85341
   5   7  -2 692.147 177.884   2 0.51335-0.17651 0.38047 0.20448 0.84911-0.97894
  -5   7   2 546.474 147.516   1 0.15674-0.49376 0.19026 0.39471 0.98144-0.85153
  -5  -7   2 496.866 148.192   3-0.57581 0.23872-0.33651-0.24840-0.83669 0.96656
   5   7  -2 649.401 180.426   5 0.64870-0.31193 0.28248 0.30227 0.81207-0.94240
   5  -7  -2 1759.78 467.694   8 0.70542-0.36829-0.23735-0.34746 0.78449-0.91453
   4  -7  -2 109.215 81.3385   4-0.14720 0.41038-0.12438-0.46136-0.99166 0.84803
   4   7  -2 37.4249 28.8411   6-0.25059 0.51302 0.17990 0.40531-0.98092 0.83668
   4   7  -2 65.2120 69.5751   2 0.52472-0.26238 0.39720 0.18778 0.83512-0.97842
  -4  -7   2 34.5094 63.1848   9 0.15495-0.41756-0.12852-0.45638 0.99145-0.84801
  -4   7   2 -27.801 45.0195   6-0.33435 0.07148 0.49922 0.08529-0.84685 0.99032
  -4  -7   2 59.1661 50.9111   3-0.59449 0.33203-0.35539-0.22953-0.81662 0.95995
   4   7  -2 174.420 136.694   5 0.67791-0.41566 0.30178 0.28292 0.78159-0.92541
  -4   7   2 105.857 58.1659   1 0.16742-0.42993 0.13432 0.45054 0.99082-0.84744
   3   7  -2 2419.99 328.217   2 0.54107-0.35324 0.42172 0.16329 0.81313-0.96990
   3   7  -2 1845.98 243.506   6-0.22773 0.41552 0.10644 0.47893-0.99315 0.83539
  -3   7   2 2127.67 307.231   6-0.33661 0.14829 0.50979 0.07464-0.83973 0.99666
  -3  -7   2 1829.63 275.557   9 0.17229-0.36037-0.08507-0.49985 0.99637-0.83949
  -3  -7   2 2919.75 378.882   3-0.62035 0.43251-0.38207-0.20284-0.78553 0.94230
  -3   7   2 2025.42 285.625   1 0.17616-0.36421 0.08576 0.49903 0.99628-0.83943
   2   7  -2 53.6095 50.5705   6-0.21003 0.32319 0.05203 0.53345-0.99821 0.82694
   2  -7  -2 97.7197 56.8718   4-0.17622 0.29010-0.04392-0.54199-0.99901 0.82840
   2   7  -2 95.3249 78.9760   2 0.56256-0.44924 0.45495 0.13010 0.78033-0.95057
  -2  -7   2 118.181 69.9425   9 0.18717-0.30070-0.04687-0.53807 0.99889-0.82857
  -2   7   2 -38.268 30.0457   6-0.34042 0.22666 0.52811 0.05624-0.82690 0.99728
   2  -7  -2 -142.38 83.2249   9-0.07308 0.18689-0.61068 0.02627 0.76247-0.93211
  -2   7   2 16.5978 51.5566   1 0.18316-0.29671 0.04495 0.53977 0.99897-0.82867
   1   7  -2 2226.42 290.490   6-0.19708 0.23562 0.01342 0.57214-0.99978 0.81499
  -1   7   2 2393.63 317.669   6-0.34567 0.30646 0.55443 0.02983-0.80730 0.99112
  -1  -7   2 1851.79 254.837   9 0.19946-0.23845-0.01461-0.57034 0.99972-0.81595
   1  -7  -2 178.060 104.199   9-0.06442 0.10376-0.59518 0.01080 0.77634-0.95943
   1  -7  -2 2410.90 331.796   4-0.18706 0.22627-0.01285-0.57309-0.99989 0.81578
  -1   7   2 2112.45 308.783   1 0.18853-0.22760 0.01225 0.57242 0.99989-0.81613
   0   7  -2 -4.9980 56.8113   6-0.18840 0.15233-0.01189 0.59752-0.99989 0.80160
   0  -7  -2 -12.426 40.6976   4-0.19528 0.15985 0.01116-0.59712-0.99983 0.80223
   0   7   2 19.7402 15.5588   6-0.35210 0.38745 0.58880-0.00465-0.77948 0.97671
   0  -7  -2 37.7594 61.6905   9-0.06079 0.02566-0.58862 0.00426 0.78203-0.97857
   0  -7   2 87.8978 73.5864   4 0.05242-0.01732-0.58937 0.00534-0.78327 0.98025
   0   7   2 51.0070 55.5321   1 0.19238-0.15696-0.01200 0.59662 0.99986-0.80265
   1   7   2 141.035 64.8197   1 0.19477-0.08486-0.02745 0.61204 0.99953-0.78885
  -1   7  -2 302.693 144.098   6-0.18357 0.07288-0.02586 0.61153-0.99965 0.78786
  -1  -7  -2 280.334 118.190   4-0.20075 0.09066 0.02731-0.61326-0.99943 0.78834
   1  -7   2 287.454 99.2517   9 0.21567-0.10562 0.02894-0.61388 0.99893-0.78830
  -1  -7  -2 173.852 103.657   9-0.06139-0.04822-0.58970 0.00537 0.78109-0.99110
   2   7   2 49.6046 50.2423   1 0.19572-0.01131-0.03369 0.61826 0.99933-0.77519
  -2  -7  -2 23.2187 42.5313   4-0.20321 0.01848 0.03463-0.62054-0.99915 0.77458
  -2  -7  -2 -26.833 27.1487   9-0.06560-0.11851-0.59729 0.01299 0.77449-0.99794
   9  -8  -2 309.835 188.201   4-0.02515 0.66130-0.42544-0.24310-0.89416 0.81760
  -9   8   2 206.966 142.693   6-0.34591-0.28972 0.55565 0.11270-0.80635 0.88245
   8  -8  -2 55.2066 111.172   4-0.04949 0.61108-0.36973-0.29899-0.92138 0.83145
  -8   8   2 123.125 122.891   6-0.34193-0.21918 0.53552 0.13278-0.82152 0.91107
  -8  -8   2 142.898 127.677   9 0.04986-0.61058-0.37009-0.29812 0.92151-0.83176
  -8  -8   2 -68.257 45.9349   3-0.57301 0.01212-0.33371-0.33481-0.83955 0.92899
   8   8  -2 200.365 107.231   5 0.63559-0.07522 0.27393 0.39446 0.82458-0.91448
   8  -8  -2 220.298 93.1681   8 0.68268-0.12198-0.22700-0.44136 0.80663-0.89625
   7  -8  -2 140.758 122.259   4-0.07177 0.55879-0.31693-0.35198-0.94303 0.83972
   7   8  -2 309.419 162.263   2 0.51644-0.03063 0.38500 0.28344 0.84540-0.94835
  -7   8   2 147.939 146.735   6-0.33890-0.14768 0.52074 0.14752-0.83214 0.93516
  -7  -8   2 -58.219 55.3932   9 0.07363-0.55982-0.31848-0.34980 0.94292-0.83974
  -7  -8   2 -33.831 51.9078   3-0.57565 0.08938-0.33636-0.33218-0.83685 0.93978
   7   8  -2 90.6365 127.412   5 0.64292-0.15708 0.27870 0.38964 0.81767-0.92106
   7  -8  -2 3.97406 55.7348   8 0.69440-0.20822-0.23232-0.43602 0.79547-0.89856
   6  -8  -2 598.446 172.131   4-0.09198 0.50439-0.26748-0.40159-0.95991 0.84318
   6   8  -2 804.653 218.285   2 0.51947-0.10816 0.38945 0.27902 0.84170-0.95811
  -6   8   2 1012.45 252.932   6-0.33699-0.07506 0.51158 0.15662-0.83851 0.95499
  -6  -8   2 976.265 259.635   9 0.09534-0.50700-0.26985-0.39848 0.95972-0.84311
  -6  -8   2 634.473 193.721   3-0.58278 0.17111-0.34351-0.32502-0.82942 0.94582
   6   8  -2 1083.67 275.557   5 0.65633-0.24502 0.28749 0.38080 0.80447-0.92135
   6  -8  -2 685.251 375.762   8 0.71361-0.30193-0.24110-0.42723 0.77602-0.89258
   5  -8  -2 100.403 89.2950   4-0.11010 0.44789-0.22185-0.44736-0.97272 0.84254
   5   8  -2 -9.1996 32.8724   2 0.52621-0.18940 0.39941 0.26909 0.83321-0.96309
  -5   8   2 42.1486 52.2781   6-0.33631-0.00118 0.50838 0.15976-0.84069 0.97065
  -5  -8   2 4.71343 6.15963   9 0.11494-0.45206-0.22468-0.44371 0.97255-0.84251
  -5  -8   2 1.04176 47.7498   3-0.59504 0.25800-0.35595-0.31259-0.81600 0.94587
   5   8  -2 48.6346 110.167   5 0.67686-0.34008 0.30109 0.36715 0.78275-0.91312
   4   8  -2 2610.87 361.965   2 0.53703-0.27472 0.41560 0.25294 0.81879-0.96213
  -4   8   2 2644.72 374.215   6-0.33696 0.07403 0.51148 0.15660-0.83858 0.98200
  -4  -8   2 2734.87 393.551   3-0.61310 0.35068-0.37451-0.29403-0.79468 0.93800
  -4  -8   2 2470.93 352.836   9 0.13238-0.39495-0.18346-0.48496 0.98202-0.83855
  -4   8   2 2411.40 331.623   1 0.15604-0.41863 0.19383 0.47462 0.98073-0.83739
   4  -8  -2 2156.32 317.913   4-0.12609 0.38924-0.18054-0.48878-0.98212 0.83847
   3  -8  -2 46.1438 64.1463   4-0.13988 0.32838-0.14405-0.52535-0.98874 0.83162
   3   8  -2 8.10921 39.0777   6-0.25161 0.43938 0.18326 0.48565-0.98021 0.82240
   3   8  -2 17.0813 32.9254   2 0.55222-0.36441 0.43880 0.22977 0.79673-0.95354
  -3  -8   2 49.7535 43.5160   9 0.14756-0.33559-0.14671-0.52173 0.98873-0.83182
  -3   8   2 19.4596 56.5849   6-0.33899 0.15061 0.52120 0.14680-0.83182 0.98870
  -3   8   2 8.01425 31.2248   1 0.16415-0.35225 0.15177 0.51660 0.98825-0.83145
  -2   8   2 681.718 181.150   1 0.17065-0.28427 0.11665 0.55165 0.99309-0.82283
   2  -8  -2 480.593 157.038   4-0.15141 0.26525-0.11294-0.55653-0.99315 0.82255
   2   8  -2 460.300 131.106   6-0.23588 0.34901 0.13217 0.53686-0.98958 0.81826
  -2  -8   2 360.870 121.995   9 0.16039-0.27389-0.11501-0.55345 0.99322-0.82287
  -2   8   2 565.242 174.545   6-0.34239 0.22858 0.53782 0.13009-0.81983 0.99016
   2  -8  -2 -134.53 88.8876   9-0.07403 0.18787-0.61238-0.05554 0.76092-0.93053
  -1   8   2 609.620 185.561   1 0.17563-0.21476 0.08879 0.57947 0.99601-0.81228
   1  -8  -2 331.627 137.241   4-0.16057 0.19976-0.08778-0.58171-0.99591 0.81183
   1   8  -2 379.096 128.950   6-0.22395 0.26246 0.09463 0.57449-0.99453 0.80971
  -1  -8   2 456.502 134.008   9 0.17075-0.20972-0.08898-0.57949 0.99602-0.81224
  -1   8   2 589.059 193.724   6-0.34705 0.30781 0.56158 0.10625-0.80173 0.98551
   1  -8  -2 -27.770 49.1707   9-0.06622 0.10560-0.59841-0.06948 0.77350-0.95656
   0   8  -2 2216.20 343.084   6-0.21555 0.17944 0.06879 0.60039-0.99701 0.79868
   0  -8   2 2229.26 290.345   9 0.17848-0.14292-0.06929-0.59917 0.99762-0.80040
  -1   8  -2 3.14192 41.1375   6-0.21041 0.09969 0.05318 0.61606-0.99814 0.78631
  -1  -8  -2 52.8546 74.6942   4-0.17122 0.06111-0.05806-0.61142-0.99825 0.78720
   1  -8   2 90.7678 46.5852   9 0.18336-0.07329-0.05674-0.61172 0.99841-0.78775
   1   8   2 86.8131 68.6894   1 0.18127-0.07142 0.05616 0.61201 0.99840-0.78776
  -1  -8  -2 20.4967 39.0349   9-0.06330-0.04628-0.59315-0.07470 0.77811-0.98808
   1   8   2 17.6421 32.4485   2 0.25965-0.14981 0.04910 0.61917 0.99547-0.78544
  -2  -8  -2 122.219 92.2665   4-0.17226-0.01247-0.05513-0.61431-0.99842 0.77391
   2   8   2 -14.938 39.6245   1 0.18196 0.00241 0.05213 0.61602 0.99862-0.77451
  -2  -8  -2 -41.906 51.6365   9-0.06704-0.11704-0.59989-0.06794 0.77219-0.99562
   2   8   2 64.1562 46.7092   2 0.25054-0.06621 0.03823 0.63001 0.99668-0.77319
  -3  -8  -2 -4.9351 68.1260   4-0.16998-0.08935-0.06155-0.60783-0.99803 0.76004
   3   8   2 57.3292 49.7418   1 0.18115 0.07773 0.05690 0.61122 0.99836-0.76078
  -3  -8  -2 -169.21 110.870   9-0.07366-0.18491-0.61172-0.05608 0.76152-0.99840
   3   8   2 -162.81 74.7637   2 0.24837 0.01046 0.03565 0.63255 0.99694-0.75999
   7   9  -2 721.854 388.026   5 0.67248-0.18664 0.29817 0.45366 0.78754-0.89096
   6  -9  -2 53.0899 25.0874   4-0.07463 0.48699-0.31005-0.44260-0.94557 0.82879
   6   9  -2 -1.0248 95.5322   2 0.53421-0.12292 0.41135 0.34067 0.82265-0.93910
  -6   9   2 8.54332 91.4621   6-0.34048-0.07163 0.52841 0.22336-0.82669 0.94310
  -6  -9   2 76.5454 111.153   9 0.07682-0.48843-0.31143-0.44043 0.94555-0.82891
  -6  -9   2 -39.845 64.9745   3-0.60415 0.19253-0.36526-0.38690-0.80550 0.92189
   6   9  -2 19.6334 140.821   5 0.68673-0.27542 0.30770 0.44409 0.77160-0.88852
   5  -9  -2 81.4628 89.6994   4-0.09091 0.42866-0.27013-0.48265-0.95909 0.82887
   5   9  -2 -2.3743 45.5128   2 0.54091-0.20412 0.42147 0.33059 0.81337-0.94328
  -5   9   2 -45.730 55.3336   6-0.33994 0.00238 0.52576 0.22594-0.82858 0.95847
  -5  -9   2 -68.323 70.1291   9 0.09442-0.43149-0.27194-0.47996 0.95906-0.82898
  -5  -9   2 205.305 138.799   3-0.61645 0.27946-0.37800-0.37417-0.79049 0.92034
   4  -9  -2 485.125 166.769   4-0.10518 0.36828-0.23438-0.51850-0.96946 0.82579
   4   9  -2 626.257 198.982   2 0.55126-0.28897 0.43732 0.31477 0.79819-0.94157
  -4  -9   2 498.127 160.297   9 0.10994-0.37248-0.23633-0.51561 0.96949-0.82598
  -4   9   2 596.123 194.590   6-0.34057 0.07757 0.52885 0.22279-0.82637 0.96973
   3  -9  -2 263.102 104.655   4-0.11735 0.30580-0.20324-0.54971-0.97721 0.82007
   3   9  -2 44.6181 23.4318   2 0.56544-0.37767 0.45950 0.29263 0.77554-0.93240
   3   9  -2 311.035 120.482   6-0.27198 0.45972 0.25248 0.49997-0.96255 0.80467
  -3   9   2 108.651 61.3891   1 0.15215-0.34032 0.21336 0.53859 0.97658-0.81983
  -3  -9   2 124.162 52.0243   9 0.12330-0.31129-0.20505-0.54690 0.97732-0.82038
  -3   9   2 290.637 124.291   6-0.34241 0.15398 0.53793 0.21363-0.81975 0.97657
   2  -9  -2 194.262 115.145   4-0.12736 0.24115-0.17723-0.57579-0.98278 0.81218
   2   9  -2 37.8027 30.4397   6-0.25798 0.37108 0.20449 0.54809-0.97541 0.80404
  -2  -9   2 18.4133 24.8661   9 0.13440-0.24786-0.17863-0.57334 0.98300-0.81262
  -2   9   2 164.226 87.5800   6-0.34544 0.23158 0.55325 0.19825-0.80821 0.97849
  -2   9   2 163.459 116.998   1 0.15819-0.27187 0.18285 0.56904 0.98288-0.81266
   1  -9  -2 526.662 174.895   4-0.13509 0.17423-0.15683-0.59620-0.98660 0.80251
   1   9  -2 377.630 123.767   6-0.24706 0.28554 0.16828 0.58440-0.98328 0.79840
  -1  -9   2 304.789 111.082   9 0.14310-0.18202-0.15762-0.59436 0.98691-0.80310
  -1   9   2 564.205 183.940   6-0.34956 0.31028 0.57495 0.17645-0.79101 0.97474
   1  -9  -2 -22.832 55.7238   9-0.07207 0.11149-0.60889-0.14251 0.76411-0.94713
  -1   9   2 374.535 148.782   1 0.16280-0.20199 0.15893 0.59291 0.98711-0.80342
   0  -9  -2 74.1341 56.0313   4-0.14039 0.10490-0.14267-0.61036-0.98895 0.79139
   0   9  -2 -60.910 80.8165   6-0.23909 0.20295 0.14245 0.61030-0.98794 0.78956
   0  -9   2 76.6813 69.2677   9 0.14923-0.11364-0.14263-0.60934 0.98937-0.79213
   0   9   2 68.5291 73.3575   6-0.35462 0.38990 0.60309 0.14820-0.76712 0.96427
   0  -9  -2 48.6844 103.966   9-0.06873 0.03367-0.60294-0.14844 0.76948-0.96596
   0   9   2 58.4165 93.9332   1 0.16601-0.13071 0.14190 0.60990 0.98974-0.79260
  -1  -9  -2 142.992 89.2805   4-0.14309 0.03296-0.13543-0.61757-0.99007 0.77904
   1   9   2 14.7904 26.3582   2 0.31807-0.20825 0.12021 0.63164 0.98236-0.77236
  -1  -9  -2 -11.973 3.91177   9-0.06890-0.04066-0.60321-0.14815 0.76923-0.97917
   1   9   2 -13.065 10.1348   1 0.16783-0.05802 0.13209 0.61967 0.99112-0.78052
  -2  -9  -2 129.453 116.103   4-0.14291-0.04184-0.13592-0.61704-0.99000 0.76549
   2   9   2 28.7013 77.0555   2 0.30557-0.12126 0.10479 0.64702 0.98598-0.76252
  -2  -9  -2 14.5324 114.100   9-0.07210-0.11195-0.60894-0.14242 0.76406-0.98745
   2   9   2 79.6041 80.5877   1 0.16824 0.01607 0.12987 0.62187 0.99142-0.76735
   4  10  -2 -135.69 113.227   2 0.56676-0.30450 0.46159 0.37407 0.77332-0.91675
   3 -10  -2 -62.085 79.6850   4-0.09506 0.28346-0.25981-0.57669-0.96224 0.80506
  -3 -10   2 23.5423 10.9440   9 0.09925-0.28721-0.26095-0.57452 0.96245-0.80547
   2 -10  -2 656.272 222.951   4-0.10375 0.21750-0.23800-0.59855-0.96848 0.79784
   2  10  -2 354.142 132.446   6-0.27730 0.39038 0.27126 0.56486-0.95674 0.78529
  -2 -10   2 543.602 157.703   9 0.10884-0.22226-0.23889-0.59658 0.96879-0.79839
  -2  10   2 603.102 216.784   6-0.34918 0.23528 0.57289 0.26218-0.79269 0.96290
   1 -10  -2 31.4799 49.6682   4-0.11023 0.14933-0.22152-0.61504-0.97280 0.78869
   1  10  -2 12.7808 20.0175   6-0.26735 0.30580 0.23642 0.59979-0.96717 0.78223
  -1  10   2 -20.758 73.6484   1 0.14992-0.18917 0.22439 0.61104 0.97406-0.79043
  -1 -10   2 55.4191 30.2999   9 0.11609-0.15500-0.22200-0.61347 0.97323-0.78939
  -1  10   2 24.9802 58.6560   6-0.35283 0.31351 0.59290 0.24207-0.77598 0.95964
   0 -10  -2 129.341 167.738   4-0.11436 0.07881-0.21093-0.62560-0.97540 0.77782
   0  10   2 185.258 93.7247   1 0.15281-0.11758 0.21005 0.62533 0.97732-0.78022
   0  10   2 -20.587 55.9327   6-0.35726 0.39253 0.61874 0.21614-0.75300 0.95009
   0 -10  -2 -190.48 125.673   9-0.07754 0.04251-0.61858-0.21631 0.75516-0.95161
  -1 -10  -2 -53.843 105.851   4-0.11594 0.00576-0.20688-0.62963-0.97636 0.76532
   1  10   2 -38.916 39.3142   1 0.15435-0.04462 0.20236 0.63300 0.97897-0.76841
  -1 -10  -2 -214.91 134.554   9-0.07733-0.03219-0.61821-0.21668 0.75551-0.96540
   2  10   2 -61.854 40.6989   1 0.15449 0.02974 0.20164 0.63369 0.97912-0.75510
 -12   0   3 -52.245 69.0286   7-0.71022-0.12984 0.12051-0.12086-0.81058 0.94451
  12   0  -3 127.511 185.678   8 0.70335 0.13756-0.23640 0.23625 0.78659-0.92128
 -11   0   3 16.5132 56.1814   7-0.70380-0.06171 0.11913-0.11948-0.81605 0.96349
  11   0  -3 -155.08 124.868   5 0.68782 0.07802 0.30843-0.30825 0.77034-0.91832
  11   0  -3 56.2808 48.3611   8 0.69665 0.06971-0.23334 0.23320 0.79327-0.94143
 -10   0   3 109.069 95.6479   7-0.70197 0.01102 0.11874-0.11908-0.81759 0.97851
  10   0  -3 38.6406 121.829   5 0.68503 0.00624 0.30655-0.30637 0.77356-0.93501
  10   0  -3 98.8153 127.140   8 0.69431-0.00252-0.23228 0.23214 0.79555-0.95720
  -9   0   3 21.2159 8.13684   7-0.70588 0.08947 0.11958-0.11991-0.81429 0.98868
   9   0  -3 -52.173 160.002   5 0.68732-0.07059 0.30809-0.30791 0.77092-0.94583
   9   0  -3 173.150 146.988   8 0.69740-0.08017-0.23369 0.23355 0.79253-0.96765
  -8   0   3 710.130 178.313   7-0.71696 0.17508 0.12196-0.12229-0.80469 0.99253
   8   0  -3 1345.73 447.870   8 0.70719-0.16451-0.23815 0.23802 0.78269-0.97128
  -7   0   3 -3.6966 45.1881   7-0.73690 0.26953 0.12626-0.12658-0.78641 0.98767
   7   0  -3 -59.835 27.6665   4-0.25990 0.72937 0.21444-0.21483-0.97307 0.77075
  -7   0   3 15.8014 11.8403   9 0.26457-0.73338 0.16844-0.16851 0.98165-0.78015
   7   0  -3 -55.860 92.7520   8 0.72516-0.25704-0.24642 0.24630 0.76359-0.96565
 -12  -1   3 275.357 160.382   7-0.72216-0.11787 0.12308-0.20698-0.80005 0.93399
  12   1  -3 633.812 392.457   5 0.67721 0.16324 0.30132-0.21758 0.78236-0.91692
  12  -1  -3 648.397 285.817   8 0.69008 0.15084-0.23036 0.14664 0.79964-0.93431
  12   1  -3 -132.76 113.366   8 0.72324 0.11766-0.24553 0.32897 0.76570-0.90038
 -11   1   3 51.3992 33.4465   7-0.69782-0.06770 0.11785-0.03463-0.82104 0.96847
 -11  -1   3 -20.949 51.2416   7-0.71653-0.04895 0.12187-0.20576-0.80507 0.95250
  11   1  -3 130.799 157.361   5 0.66938 0.09650 0.29611-0.21236 0.79088-0.93892
  11  -1  -3 29.7696 111.734   8 0.68264 0.08373-0.22699 0.14328 0.80667-0.95482
  11   1  -3 205.846 105.884   8 0.71780 0.04853-0.24303 0.32646 0.77158-0.91975
 -10   1   3 21.1440 79.2397   7-0.69557 0.00461 0.11737-0.03416-0.82289 0.98380
 -10  -1   3 -17.935 26.5834   7-0.71565 0.02472 0.12168-0.20556-0.80584 0.96676
  10   1  -3 30.9838 100.899   5 0.66543 0.02590 0.29349-0.20975 0.79508-0.95659
  10  -1  -3 90.5836 148.122   8 0.67937 0.01243-0.22551 0.14180 0.80969-0.97132
  10   1  -3 -62.441 73.4552   8 0.71698-0.02521-0.24265 0.32609 0.77245-0.93411
  -9   1   3 118.895 102.911   7-0.69892 0.08251 0.11809-0.03487-0.82013 0.99451
  -9  -1   3 7.07193 75.1146   7-0.72070 0.10430 0.12276-0.20663-0.80136 0.97575
   9   1  -3 63.1421 19.8470   5 0.66624-0.04948 0.29403-0.21029 0.79422-0.96919
   9  -1  -3 179.791 75.0731   8 0.68125-0.06400-0.22636 0.14266 0.80795-0.98305
   9   1  -3 178.717 148.980   8 0.72188-0.10466-0.24490 0.32835 0.76718-0.94231
   8   1  -3 4861.87 616.561   5 0.67292-0.13069 0.29845-0.21472 0.78708-0.97550
   8  -1  -3 5104.73 568.450   8 0.68952-0.14683-0.23010 0.14641 0.80018-0.98875
  -8   1   3 3904.89 422.435   7-0.70925 0.16736 0.12030-0.03709-0.81142 0.99924
  -7   1   3 180.447 107.834   7-0.72823 0.26086 0.12438-0.04118-0.79452 0.99577
  -7  -1   3 27.0374 54.7732   7-0.75459 0.28721 0.13010-0.21393-0.76901 0.97029
   7  -1  -3 114.345 92.7869   4-0.23851 0.70799 0.14388-0.22793-0.98777 0.78550
  -7  -1   3 60.5054 67.1127   9 0.24541-0.71420 0.11219-0.19583 0.99135-0.78983
   7   1  -3 324.501 334.361   5 0.68667-0.21899 0.30766-0.22393 0.77167-0.97353
   7  -1  -3 338.319 176.746   8 0.70562-0.23747-0.23744 0.15374 0.78429-0.98633
   6  -1  -3 -121.19 220.704   8 0.73110-0.33749-0.24917 0.16548 0.75696-0.97247
  -6   1   3 1996.17 309.139   7-0.75771 0.36483 0.13078-0.04758-0.76583 0.98049
 -12  -2   3 -18.584 26.2121   7-0.74046-0.09953 0.12703-0.29449-0.78299 0.91691
  12   2  -3 15.2690 147.793   5 0.66615 0.17434 0.29397-0.12665 0.79432-0.92891
 -11   2   3 214.147 44.7395   7-0.69836-0.06718 0.11797 0.04883-0.82060 0.96800
 -11  -2   3 509.359 201.151   7-0.73612-0.02932 0.12609-0.29352-0.78715 0.93456
 -11  -2   3 425.623 188.612   3-0.62740-0.13942-0.38947 0.22263-0.77631 0.92376
  11   2  -3 566.202 216.685   5 0.65790 0.10803 0.28852-0.12121 0.80288-0.95094
  11  -2  -3 566.030 235.212   8 0.67538 0.09099-0.22371 0.05643 0.81333-0.96146
 -10   2   3 91.5233 26.1403   7-0.69619 0.00522 0.11751 0.04927-0.82238 0.98326
 -10  -2   3 42.3889 96.7305   7-0.73672 0.04582 0.12622-0.29363-0.78658 0.94748
 -10  -2   3 310.531 145.919   3-0.62158-0.07070-0.38336 0.21651-0.78395 0.94486
  10   2  -3 304.178 160.343   5 0.65333 0.03803 0.28552-0.11822 0.80748-0.96903
  10  -2  -3 118.229 33.2811   8 0.67170 0.02011-0.22205 0.05478 0.81664-0.97825
  -9   2   3 1140.91 235.072   7-0.69952 0.08310 0.11822 0.04855-0.81963 0.99398
  -9  -2   3 755.866 253.946   7-0.74346 0.12708 0.12768-0.29506-0.78009 0.95447
  -9  -2   3 1143.57 258.515   3-0.61955 0.00183-0.38123 0.21439-0.78656 0.96094
   9   2  -3 1428.57 294.327   5 0.65328-0.03648 0.28548-0.11820 0.80753-0.98254
   9  -2  -3 1490.25 306.786   8 0.67296-0.05569-0.22262 0.05535 0.81551-0.99059
  -8   2   3 562.575 163.004   7-0.70968 0.16780 0.12040 0.04636-0.81104 0.99883
  -8  -2   3 97.3584 103.542   7-0.75776 0.21589 0.13079-0.29814-0.76578 0.95360
  -8  -2   3 193.165 105.584   9 0.17464-0.71793-0.07910-0.08799 0.99688-0.80882
  -8  -2   3 481.719 154.734   3-0.62208 0.07892-0.38388 0.21703-0.78330 0.97115
   8   2  -3 641.554 200.646   5 0.65875-0.11649 0.28908-0.12180 0.80201-0.99048
   8  -2  -3 760.631 244.361   8 0.68032-0.13761-0.22594 0.05868 0.80881-0.99736
  -7   2   3 55.8341 40.0696   7-0.72828 0.26092 0.12439 0.04234-0.79447 0.99568
   7  -2  -3 144.927 67.6320   4-0.21929 0.68878 0.08340-0.25109-0.99574 0.79353
  -7  -2   3 1.32917 34.7870   9 0.22714-0.69590 0.06050-0.22769 0.99700-0.79546
  -7  -2   3 -66.398 85.3245   3-0.63004 0.16144-0.39225 0.22539-0.77276 0.97407
   7   2  -3 267.959 141.993   5 0.67089-0.20317 0.29711-0.12986 0.78927-0.99118
   7  -2  -3 114.227 92.1052   8 0.69515-0.22698-0.23266 0.06541 0.79473-0.99674
  -7   2   3 44.9270 36.4021   1 0.20790-0.67569-0.11837 0.28550 0.99259-0.79075
  -6   2   3 -6.4873 18.9366   7-0.75709 0.36422 0.13065 0.03607-0.76646 0.98109
   6  -2  -3 -16.614 35.6515   4-0.26125 0.65615 0.21898-0.38682-0.97192 0.75610
   6  -2  -3 71.1658 39.6062   8 0.71896-0.32532-0.24356 0.07632 0.77034-0.98582
 -12  -3   3 -175.43 123.306   7-0.76512-0.07484 0.13240-0.38337-0.75810 0.89198
 -12  -3   3 129.783 143.157   3-0.62615-0.21523-0.38815 0.13777-0.77797 0.91197
 -11   3   3 764.005 261.265   7-0.70510-0.06044 0.11941 0.13097-0.81495 0.96230
 -11  -3   3 -18.502 85.0984   7-0.76252-0.00290 0.13183-0.38278-0.76084 0.90822
 -11  -3   3 601.444 252.958   3-0.61709-0.14974-0.37867 0.12828-0.78968 0.93715
  11   3  -3 845.073 255.010   5 0.65273 0.11321 0.28512-0.03426 0.80808-0.95617
  11  -3  -3 737.743 223.324   8 0.67436 0.09201-0.22325-0.02758 0.81425-0.96236
 -10   3   3 330.647 154.078   7-0.70346 0.01249 0.11906 0.13130-0.81634 0.97717
 -10  -3   3 -192.57 112.805   7-0.76508 0.07419 0.13239-0.38330-0.75814 0.91902
 -10  -3   3 171.835 106.401   3-0.61100-0.08128-0.37232 0.12193-0.79727 0.95821
  10   3  -3 49.6215 101.411   5 0.64802 0.04336 0.28204-0.03119 0.81273-0.97430
  10  -3  -3 120.733 129.137   8 0.67073 0.02109-0.22161-0.02920 0.81750-0.97909
  -9   3   3 320.586 137.818   7-0.70726 0.09085 0.11988 0.13046-0.81312 0.98741
   9   3  -3 99.8985 84.2401   2 0.56466 0.05254 0.45827-0.20759 0.77684-0.95118
  -9  -3   3 348.749 134.939   3-0.60845-0.00927-0.36969 0.11930-0.80036 0.97477
   9   3  -3 520.605 177.917   5 0.64763-0.03079 0.28178-0.03095 0.81312-0.98816
   9  -3  -3 293.014 149.728   8 0.67188-0.05460-0.22213-0.02868 0.81648-0.99153
  -8   3   3 180.479 87.0653   7-0.71778 0.17590 0.12214 0.12818-0.80397 0.99170
   8  -3  -3 272.672 101.405   4-0.16019 0.70422-0.08884-0.16229-0.99581 0.80715
   8   3  -3 79.3211 75.6744   2 0.56390-0.02120 0.45705-0.20636 0.77812-0.96592
  -8  -3   3 31.1961 43.1131   9 0.16529-0.70855-0.10274-0.14791 0.99464-0.80654
  -8  -3   3 112.449 56.4355   3-0.61017 0.06702-0.37147 0.12107-0.79828 0.98615
   8   3  -3 263.153 116.701   5 0.65244-0.11015 0.28493-0.03412 0.80837-0.99687
   8  -3  -3 176.726 109.698   8 0.67888-0.13615-0.22529-0.02551 0.81013-0.99865
  -7   3   3 926.962 229.135   7-0.73652 0.26916 0.12617 0.12410-0.78677 0.98793
   7   3  -3 175.934 95.9991   2 0.56697-0.09878 0.46193-0.21121 0.77296-0.97421
   7  -3  -3 1039.41 222.254   4-0.20105 0.67055 0.02821-0.27954-0.99940 0.79721
  -7  -3   3 404.324 148.874   9 0.20912-0.67784 0.01120-0.26193 0.99951-0.79795
  -7  -3   3 692.276 187.393   3-0.61694 0.14836-0.37850 0.12809-0.78989 0.99123
   7   3  -3 1045.22 258.372   5 0.66355-0.19580 0.29225-0.04146 0.79705-0.99900
   7  -3  -3 1170.95 300.123   8 0.69302-0.22482-0.23169-0.01910 0.79681-0.99879
  -6   3   3 58.7577 60.5471   7-0.76511 0.37224 0.13240 0.11785-0.75811 0.97268
   6  -3  -3 55.7969 43.8506   4-0.23704 0.63194 0.13914-0.39062-0.98854 0.77279
  -6  -3   3 133.498 103.190   9 0.24831-0.64248 0.12055-0.37136 0.99015-0.77511
  -6  -3   3 252.069 91.8776   3-0.62956 0.23556-0.39175 0.14134-0.77341 0.98821
   6   3  -3 624.354 265.628   5 0.68211-0.28888 0.30459-0.05382 0.77689-0.99229
   6  -3  -3 499.500 253.427   8 0.71567-0.32201-0.24205-0.00874 0.77384-0.98929
 -11   4   3 1478.94 355.811   7-0.71765-0.04787 0.12211 0.21186-0.80407 0.95136
  11   4  -3 166.607 155.157   2 0.56741 0.19877 0.46262-0.12844 0.77222-0.91967
 -11  -4   3 1029.47 282.497   3-0.61239-0.15445-0.37378 0.03982-0.79555 0.94304
  11   4  -3 1457.82 353.545   5 0.65320 0.11276 0.28543 0.04898 0.80761-0.95572
  11  -4  -3 1645.62 409.723   8 0.67903 0.08734-0.22535-0.10901 0.81000-0.95809
 -10   4   3 30.2154 71.9797   7-0.71693 0.02597 0.12195 0.21199-0.80472 0.96548
  10   4  -3 79.9476 145.557   2 0.56058 0.13109 0.45184-0.11763 0.78356-0.94445
 -10  -4   3 33.5243 116.249   3-0.60637-0.08591-0.36755 0.03360-0.80286 0.96382
  10   4  -3 23.4588 76.3170   5 0.64873 0.04268 0.28250 0.05189 0.81204-0.97362
  10  -4  -3 208.292 144.614   8 0.67583 0.01600-0.22391-0.11045 0.81292-0.97448
  -9   4   3 28.2246 30.9053   7-0.72161 0.10520 0.12296 0.21094-0.80054 0.97477
   9   4  -3 6.41038 45.8078   2 0.55638 0.06079 0.44527-0.11104 0.79027-0.96462
  -9  -4   3 31.5326 94.4108   3-0.60371-0.01400-0.36482 0.03085-0.80601 0.98044
   9   4  -3 80.8133 81.3231   5 0.64840-0.03153 0.28227 0.05209 0.81237-0.98743
   9  -4  -3 88.2253 101.631   8 0.67728-0.06000-0.22457-0.10979 0.81160-0.98662
  -8   4   3 166.738 92.9706   7-0.73290 0.19104 0.12539 0.20847-0.79019 0.97784
   8  -4  -3 138.212 18.6856   4-0.14819 0.69224-0.12169-0.21306-0.99202 0.80337
   8   4  -3 68.9466 95.5394   2 0.55527-0.01261 0.44354-0.10928 0.79201-0.97982
  -8  -4   3 2.06955 35.8994   9 0.15344-0.69667-0.13226-0.20194 0.99092-0.80279
  -8  -4   3 -7.1038 44.2182   3-0.60506 0.06193-0.36620 0.03223-0.80442 0.99232
   8   4  -3 166.933 95.0604   5 0.65302-0.11070 0.28531 0.04903 0.80780-0.99632
   8  -4  -3 132.132 108.766   8 0.68438-0.14163-0.22778-0.10656 0.80504-0.99352
  -7   4   3 473.999 193.563   7-0.75218 0.28483 0.12958 0.20424-0.77145 0.97253
   7  -4  -3 418.465 126.146   4-0.18323 0.65274-0.02388-0.31108-0.99970 0.79754
   7   4  -3 469.742 158.129   2 0.55774-0.08958 0.44738-0.11310 0.78812-0.98940
  -7  -4   3 119.793 116.870   9 0.19107-0.65976-0.03670-0.29759 0.99928-0.79769
  -7  -4   3 440.087 129.942   3-0.61111 0.14254-0.37244 0.03847-0.79713 0.99850
   7   4  -3 582.997 209.360   5 0.66357-0.19580 0.29227 0.04205 0.79702-0.99901
  -7   4   3 412.449 113.828   1 0.18625-0.65416 0.02627 0.30799 0.99963-0.79783
   7  -4  -3 508.890 244.839   8 0.69829-0.23007-0.23409-0.10023 0.79165-0.99360
   6   4  -3 65.2655 52.0598   2 0.56425-0.17059 0.45761-0.12329 0.77754-0.99229
   6  -4  -3 63.4356 47.4418   4-0.21454 0.60944 0.06884-0.40395-0.99704 0.78134
  -6  -4   3 77.1779 112.587   9 0.22510-0.61924 0.05483-0.38918 0.99743-0.78238
  -6  -4   3 55.7490 41.4638   3-0.62258 0.22860-0.38440 0.05041-0.78266 0.99750
   6   4  -3 50.2529 71.8507   5 0.68111-0.28785 0.30392 0.03036 0.77802-0.99346
   6  -4  -3 50.1086 144.180   8 0.72027-0.32657-0.24416-0.09015 0.76892-0.98434
  -6   4   3 -8.3353 8.08576   1 0.20332-0.59672-0.08539 0.41954 0.99610-0.78086
  11   5  -3 225.593 117.928   2 0.56375 0.20240 0.45682-0.03907 0.77837-0.92584
 -10   5   3 1.80071 35.5183   7-0.73607 0.04512 0.12607 0.29143-0.78720 0.94786
  10   5  -3 -5.6210 53.3339   2 0.55720 0.13445 0.44654-0.02877 0.78898-0.94990
 -10  -5   3 -19.841 36.6722   3-0.60681-0.08546-0.36801-0.04953-0.80233 0.96331
  10   5  -3 218.632 179.104   5 0.65469 0.03675 0.28640 0.13152 0.80613-0.96773
  10  -5  -3 191.358 155.088   8 0.68635 0.00549-0.22867-0.18923 0.80318-0.96471
  -9   5   3 -51.737 73.8610   7-0.74194 0.12555 0.12735 0.29011-0.78157 0.95569
   9   5  -3 72.8627 79.7328   2 0.55313 0.06401 0.44022-0.02242 0.79532-0.96971
  -9  -5   3 33.7710 33.3272   9 0.10395-0.72166-0.25018-0.16748 0.96563-0.79090
  -9  -5   3 125.663 88.7993   3-0.60434-0.01336-0.36546-0.05209-0.80527 0.97972
   9   5  -3 -1.1039 86.4885   5 0.65472-0.03783 0.28643 0.13147 0.80609-0.98117
   9  -5  -3 -9.6241 124.546   8 0.68843-0.07112-0.22961-0.18827 0.80122-0.97621
  -8   5   3 63.7558 67.3977   7-0.75431 0.21245 0.13004 0.28737-0.76931 0.95687
   8  -5  -3 82.5728 109.859   4-0.13486 0.67891-0.15744-0.26093-0.98649 0.79783
   8   5  -3 116.857 64.5816   2 0.55195-0.00932 0.43840-0.02058 0.79713-0.98497
  -8  -5   3 74.4137 71.4174   9 0.13988-0.68307-0.16542-0.25233 0.98552-0.79735
  -8  -5   3 221.813 125.543   3-0.60564 0.06252-0.36680-0.05076-0.80373 0.99166
   8   5  -3 255.774 130.095   5 0.65949-0.11715 0.28957 0.12829 0.80124-0.98980
   8  -5  -3 427.153 253.043   8 0.69597-0.15319-0.23303-0.18483 0.79394-0.98239
  -7   5   3 -143.09 94.8527   1 0.17612-0.64408 0.08603 0.33180 0.99625-0.79449
   7  -5  -3 -55.072 53.6523   4-0.16553 0.63503-0.07402-0.34455-0.99712 0.79497
   7   5  -3 51.2303 105.666   2 0.55409-0.08596 0.44171-0.02386 0.79384-0.99514
  -7  -5   3 34.1306 8.60806   9 0.17282-0.64147-0.08372-0.33411 0.99649-0.79488
  -7  -5   3 97.2953 36.9670   3-0.61132 0.14278-0.37266-0.04490-0.79687 0.99828
   7   5  -3 -51.123 89.0845   5 0.66987-0.20206 0.29643 0.12139 0.79036-0.99238
   7  -5  -3 -93.611 133.547   8 0.71001-0.24176-0.23944-0.17840 0.77978-0.98171
   6  -5  -3 197.922 112.326   4-0.19313 0.58802 0.00482-0.42355-0.99991 0.78425
   6   5  -3 96.0265 101.391   2 0.55996-0.16633 0.45086-0.03298 0.78456-0.99934
  -6  -5   3 33.5022 53.6021   9 0.20277-0.59688-0.00579-0.41210 0.99973-0.78466
  -6  -5   3 246.207 135.248   3-0.62201 0.22806-0.38380-0.03377-0.78340 0.99826
   6   5  -3 414.009 315.934   5 0.68675-0.29347 0.30771 0.11009 0.77158-0.98705
  -6   5   3 9.61905 37.1493   1 0.19177-0.58523-0.00813 0.42584 0.99991-0.78469
 -10   6   3 22.7584 84.0366   7-0.76029 0.06935 0.13134 0.36973-0.76316 0.92371
  10   6  -3 30.2545 51.6002   2 0.55774 0.13387 0.44739 0.05394 0.78812-0.94907
  10  -6  -3 -42.139 93.6226   8 0.70165-0.00980-0.23562-0.26579 0.78830-0.94981
   9  -6  -3 644.494 365.138   4-0.09055 0.70916-0.27104-0.23072-0.95880 0.78355
   9   6  -3 1006.74 279.387   2 0.55398 0.06313 0.44154 0.05982 0.79401-0.96843
  -9  -6   3 266.347 174.276   9 0.09310-0.71078-0.27494-0.22627 0.95811-0.78333
  -9  -6   3 834.387 233.510   3-0.60943-0.00826-0.37071-0.13044-0.79918 0.97365
   9   6  -3 1445.16 398.342   5 0.66579-0.04889 0.29373 0.20769 0.79470-0.96979
   9  -6  -3 964.585 384.700   8 0.70458-0.08726-0.23696-0.26444 0.78535-0.96032
   8  -6  -3 219.820 154.176   4-0.12050 0.66456-0.19509-0.30689-0.97904 0.79036
   8   6  -3 148.182 111.895   2 0.55293-0.01032 0.43990 0.06148 0.79564-0.98351
  -8  -6   3 137.409 102.614   9 0.12501-0.66817-0.20100-0.30029 0.97825-0.79004
  -8  -6   3 152.861 122.700   3-0.61089 0.06780-0.37223-0.12893-0.79739 0.98534
   8   6  -3 278.009 204.723   5 0.67095-0.12859 0.29714 0.20424 0.78921-0.97777
   8  -6  -3 267.894 248.879   8 0.71278-0.16999-0.24072-0.26067 0.77689-0.96532
   7  -6  -3 56.4512 53.3828   4-0.14776 0.61724-0.12286-0.37931-0.99186 0.78972
   7   6  -3 212.044 115.500   2 0.55494-0.08684 0.44303 0.05838 0.79252-0.99385
  -7  -6   3 186.526 117.572   9 0.15430-0.62291-0.13014-0.37123 0.99122-0.78957
  -7  -6   3 276.848 160.312   3-0.61645 0.14794-0.37800-0.12317-0.79049 0.99192
   7   6  -3 220.186 186.925   5 0.68140-0.21357 0.30412 0.19723 0.77769-0.97973
  -7   6   3 156.581 64.3181   1 0.16605-0.63406 0.14169 0.35970 0.98977-0.78806
   7  -6  -3 -333.06 379.955   8 0.72719-0.25892-0.24736-0.25402 0.76134-0.96324
   6  -6  -3 93.4704 60.9338   4-0.17234 0.56721-0.05490-0.44743-0.99844 0.78280
   6   6  -3 218.324 136.171   2 0.56039-0.16679 0.45153 0.04991 0.78387-0.99868
  -6   6   3 64.7971 51.3702   1 0.18048-0.57399 0.06084 0.44044 0.99813-0.78294
  -6  -6   3 28.7633 58.7099   9 0.18096-0.57503-0.06292-0.43850 0.99804-0.78295
  -6  -6   3 -12.126 84.2745   3-0.62665 0.23273-0.38867-0.11251-0.77731 0.99221
  -6   6   3 -43.119 39.7086   6-0.35705-0.03696 0.61746-0.11662-0.75418 0.96951
   4  -6  -3 6.30856 25.2474   4-0.21362 0.45918 0.06601-0.56857-0.99726 0.75459
  -4   6   3 8.03210 22.0585   1 0.20176-0.44630-0.07444 0.57553 0.99701-0.75493
   9  -7  -3 32.9419 109.585   4-0.07837 0.69698-0.30094-0.28444-0.94884 0.77356
  -9  -7   3 79.9894 88.9240   9 0.08039-0.69803-0.30351-0.28125 0.94843-0.77360
   9   7  -3 110.036 87.2095   5 0.68085-0.06394 0.30375 0.28118 0.77831-0.95341
   9  -7  -3 -188.58 333.760   8 0.72500-0.10766-0.24634-0.33857 0.76377-0.93871
   8  -7  -3 268.130 127.660   4-0.10530 0.64934-0.23408-0.35151-0.96954 0.78084
   8   7  -3 662.085 215.260   2 0.55732-0.01474 0.44673 0.13821 0.78879-0.97670
  -8  -7   3 998.438 269.515   9 0.10909-0.65220-0.23829-0.34654 0.96895-0.78071
  -8  -7   3 1018.43 280.634   3-0.61995 0.07686-0.38165-0.20312-0.78605 0.97402
   8   7  -3 494.988 367.464   5 0.68653-0.14416 0.30757 0.27733 0.77183-0.96041
   7  -7  -3 75.1128 87.5604   4-0.12980 0.59926-0.17081-0.41496-0.98404 0.78188
   7   7  -3 30.3431 51.9963   2 0.55935-0.09127 0.44990 0.13506 0.78555-0.98692
  -7  -7   3 263.386 143.368   9 0.13542-0.60400-0.17616-0.40874 0.98348-0.78180
  -7  -7   3 153.518 132.087   3-0.62555 0.15706-0.38751-0.19726-0.77877 0.98021
  -7   7   3 -10.805 52.8542   6-0.35693-0.11169 0.61671-0.03227-0.75486 0.95670
  -7   7   3 97.8821 86.1008   1 0.15587-0.62394 0.19470 0.39027 0.98056-0.77888
  -6   7   3 316.227 107.532   1 0.16926-0.56284 0.12425 0.46060 0.99215-0.77701
   6  -7  -3 63.9770 64.3948   4-0.15190 0.54674-0.11159-0.47434-0.99332 0.77769
   6   7  -3 189.727 111.901   2 0.56452-0.17094 0.45804 0.12696 0.77708-0.99192
  -6  -7   3 529.235 188.842   9 0.15937-0.55340-0.11757-0.46739 0.99290-0.77778
  -6   7   3 18.0976 28.0029   6-0.35593-0.03817 0.61073-0.02636-0.76030 0.97559
   5  -7  -3 -9.9666 33.1768   4-0.17164 0.49184-0.05687-0.52918-0.99832 0.76920
  -5   7   3 28.4094 12.4715   1 0.18040-0.49949 0.06131 0.52345 0.99810-0.76949
  -5   7   3 -14.528 53.1581   6-0.35591 0.03635 0.61064-0.02634-0.76038 0.98913
   8  -8  -3 22.4513 86.9876   4-0.08933 0.63337-0.27404-0.39514-0.95785 0.76911
   7  -8  -3 16.6018 64.7303   4-0.11156 0.58099-0.21813-0.45124-0.97365 0.77147
   7   8  -3 -9.6884 41.1114   2 0.56651-0.09846 0.46120 0.20733 0.77374-0.97514
  -7  -8   3 24.7737 109.340   9 0.11613-0.58467-0.22190-0.44653 0.97325-0.77153
  -7   8   3 -10.065 74.7548   6-0.35705-0.11165 0.61748 0.05050-0.75416 0.95595
   6  -8  -3 -6.8843 55.1729   4-0.13160 0.52640-0.16607-0.50345-0.98493 0.76929
  -6   8   3 -1.7497 43.6543   6-0.35613-0.03804 0.61199 0.05592-0.75916 0.97440
  -6   8   3 -22.124 39.4261   1 0.15801-0.55165 0.18377 0.48466 0.98270-0.76760
  -4   8   3 -30.835 33.6081   1 0.17724-0.42191 0.07962 0.58863 0.99679-0.75476
   4  -8  -3 -8.9175 7.65386   4-0.16511 0.41061-0.07518-0.59456-0.99703 0.75442
  -4   8   3 -9.1733 48.8534   6-0.35705 0.11196 0.61748 0.05030-0.75416 0.99632
   5  -9  -3 -20.083 56.2290   4-0.12747 0.44759-0.17693-0.57628-0.98284 0.75371
  -5   9   3 -101.23 72.3098   6-0.35738 0.03767 0.61945 0.13196-0.75234 0.98100
  -5   9   3 -9.7459 27.0089   1 0.15657-0.47579 0.19115 0.56077 0.98127-0.75274
   0   0   0    0.00    0.00
   1   5   2 -5.5333 5.05882   1 0.22184-0.11181-0.23074 0.64819 0.97197-0.76126
  -1  -5  -2 12.7122 21.5768   4-0.26605 0.15597 0.23543-0.65421-0.96755 0.75630
  -1  -5  -2 -9.7685 39.2669   9-0.07444-0.03522-0.61309 0.19579 0.76026-0.97031
   3   7   2 8.29655 32.8373   1 0.19519 0.06373-0.03022 0.61477 0.99944-0.76184
  -3  -7  -2 53.1786 53.3656   4-0.20230-0.05703 0.03192-0.61778-0.99926 0.76123
  -3  -7  -2 -26.115 74.2052   9-0.07291-0.18570-0.61038 0.02611 0.76275-0.99966
   5  -6  -3 105.859 56.9883   4-0.19429 0.51452 0.00824-0.51071-0.99987 0.77072
  -5   6   3 -85.290 54.1903   6-0.35705 0.03756 0.61747-0.11670-0.75417 0.98295
   5  -4  -3 19.9231 32.8101   4-0.24211 0.56237 0.15548-0.49071-0.98575 0.75650
  -5   4   3 -12.603 15.9388   1 0.21629-0.53521-0.18351 0.51756 0.98229-0.75362
  -6   9   3 39.8026 54.7485   1 0.14662-0.54031 0.24049 0.51151 0.97013-0.75508
  -6   9   3 -5.2740 24.6175   6-0.35738-0.03687 0.61943 0.13205-0.75236 0.96756
   0  -5  -2 103.057 60.4118   4-0.25703 0.22162 0.20471-0.62350-0.97545 0.77771
   0   5   2 3.50625 16.8355   6-0.35642 0.39182 0.61369-0.19663-0.75762 0.95488
   0  -5  -2 7.69435 15.2037   9-0.07458 0.03940-0.61334 0.19600 0.76003-0.95662
   4  -7  -3 48.0956 37.9274   4-0.18903 0.43457-0.00713-0.57903-0.99994 0.75731
  -4   7   3 -0.8591 29.0485   6-0.35692 0.11190 0.61669-0.03247-0.75488 0.99707
  -4   7   3 104.918 60.6518   1 0.18952-0.43412 0.00610 0.57857 0.99994-0.75788
   2  -3  -2 -9.7597 10.7721   4-0.29346 0.40741 0.33400-0.58546-0.93415 0.76327
  -2   3   2 3.96890 7.65745   6-0.35624 0.24267 0.61257-0.36234-0.75863 0.92908
   1  -4   0 120.241 54.5793   9 0.14946-0.07486-0.14205-0.19207 0.98946-0.97588
   1   4   0 94.9378 52.3856   1 0.16669-0.09239 0.13826 0.19599 0.99027-0.97694
  -1   4   0 101.903 42.8540   7-0.46993 0.39551 0.07050 0.26361-0.95034 0.93668
  -1  -4   0 85.3411 49.3809   3-0.32414 0.24968-0.10317-0.23123-0.98341 0.97004
   1  -4   0 29.6142 34.8448   8 0.37073-0.29609-0.09271-0.24142 0.97592-0.96233
   1  -4   0 107.668 47.9935   3-0.53303 0.60784-0.29436-0.03995-0.87633 0.88985
  -1  -4   0 167.167 84.5092   9 0.12416-0.19857-0.20300-0.13107 0.97779-0.99113
  -1   4   0 56.0304 36.5202   2 0.43638-0.51098 0.27274 0.06156 0.92203-0.93563
  -1   4   0 74.7990 68.8477   6-0.23312 0.15835 0.12340 0.21092-0.99088 0.97725
  -1  -4   0 11.3111 23.7207   4-0.13981 0.06518-0.14425-0.19007-0.98870 0.97532
   1   4   0 134.105 72.7810   6-0.26688 0.34126 0.23480 0.09930-0.96762 0.98094
   1   4   0 74.3897 60.4951   2 0.30729-0.23288 0.10691 0.22730 0.98550-0.97217
   9   3   1 171.946 89.6156   2 0.24766 0.44053 0.03480 0.21557 0.99702-0.77756
   9   3   1 202.608 99.4808   8 0.28223 0.40665-0.05636 0.30704 0.99294-0.77285
  -9  -3  -1 -1.7495 55.2983   7-0.27279-0.41627 0.03106-0.28173-0.99505 0.77509
   5  -5  -3 -1.2138 15.7039   4-0.21766 0.53791 0.07838-0.49724-0.99622 0.76702
  -5   5   3 69.1589 45.4876   1 0.20421-0.52319-0.09171 0.50933 0.99551-0.76685
   9   4   1 394.842 148.705   2 0.26802 0.42014 0.05914 0.27477 0.99417-0.77475
  -9  -4  -1 -4.0979 117.650   7-0.31835-0.37056 0.04008-0.37431-0.98907 0.76915
   8   7   1 175.743 108.713   2 0.32381 0.28978 0.12733 0.45727 0.98054-0.77467
  -8  -7  -1 -0.6084 85.3640   3-0.33701-0.27738-0.11442-0.47082-0.97998 0.77367
   4   0   1 524.996 87.5469   8-0.13013 0.44624 0.10593-0.10594 0.94606-0.79336
  -4   0  -1 515.036 94.6158   7 0.13114-0.44760-0.04662 0.04678-0.95027 0.79744
   5  -8  -3 -85.658 54.1730   4-0.14944 0.46961-0.11829-0.55135-0.99247 0.76336
  -5   8   3 -40.406 63.2540   6-0.35613 0.03649 0.61192 0.05592-0.75922 0.98792
  -5   8   3 -78.931 68.5979   1 0.16853-0.48768 0.12828 0.54005 0.99163-0.76306
   5  -8  -1 -22.344 49.7242   4-0.06494 0.42029-0.33330-0.33540-0.93673 0.90535
  -5  -8   1 35.5170 81.4713   9 0.06648-0.42122-0.33421-0.33401 0.93680-0.90528
   5   8  -1 15.0671 42.4243   5 0.58169-0.22692 0.23941 0.42882 0.86954-0.90120
   5   8  -1 -23.796 33.0855   2 0.46344-0.10886 0.30965 0.35877 0.90018-0.93159
  -5  -8   1 -23.427 51.7043   3-0.51657 0.16170-0.27850-0.39019-0.88954 0.92086
   5  -8  -1 3.83547 18.3573   8 0.63587-0.28087-0.20604-0.46223 0.84656-0.87782
;
_shelx_hkl_checksum              58300
loop_
_space_group_symop_operation_xyz
'x, y, z'
'-x+1/2, y+1/2, -z'
'-x, -y, -z'
'x-1/2, -y-1/2, z'
loop_
_atom_site_label
_atom_site_type_symbol
_atom_site_fract_x
_atom_site_fract_y
_atom_site_fract_z
_atom_site_U_iso_or_equiv
_atom_site_adp_type
_atom_site_occupancy
_atom_site_site_symmetry_order
_atom_site_calc_flag
_atom_site_refinement_flags_posn
_atom_site_refinement_flags_adp
_atom_site_refinement_flags_occupancy
_atom_site_disorder_assembly
_atom_site_disorder_group
C1 C 0.6981(8) 0.3018(7) 0.788(3) 0.039(13) Uani 1 1 d . . . . .
H1D H 0.609175 0.250773 0.792679 0.047 Uiso 1 1 calc R U . . .
H1E H 0.734465 0.345537 0.909775 0.047 Uiso 1 1 calc R U . . .
C2 C 0.8013(8) 0.1829(7) 0.736(3) 0.048(13) Uani 1 1 d . . . . .
N1 N 0.6776(5) 0.4268(6) 0.649(2) 0.023(10) Uani 1 1 d . . . . .
H1A H 0.641480 0.386395 0.538600 0.027 Uiso 1 1 calc R U . . .
H1B H 0.759816 0.471876 0.644114 0.027 Uiso 1 1 calc R U . . .
H1C H 0.618936 0.498469 0.680669 0.027 Uiso 1 1 calc R U . . .
O1 O 0.4874(8) 0.8630(7) 0.951(3) 0.088(14) Uani 1 1 d . . . . .
H1 H 0.487234 0.959410 0.956804 0.106 Uiso 0.5 1 calc D U P . .
O2 O 0.4668(6) 0.6443(5) 0.7174(19) 0.033(9) Uani 1 1 d . . . . .
O3 O 0.4373(5) 0.9250(6) 0.6033(19) 0.059(10) Uani 1 1 d . . . . .
H3 H 0.494120 0.990443 0.580290 0.071 Uiso 0.5 1 calc D U P . .
O4 O 0.8627(6) 0.1971(5) 0.6142(19) 0.036(9) Uani 1 1 d . . . . .
O5 O 0.8166(5) 0.0626(5) 0.8528(19) 0.061(9) Uani 1 1 d . . . . .
H5 H 0.877564 0.003243 0.828267 0.074 Uiso 1 1 calc . U . . .
P1 P 0.5104(2) 0.8120(2) 0.7574(9) 0.039(4) Uani 1 1 d . . . . .
H1P H 0.611612 0.817923 0.757801 0.046 Uiso 1 1 calc R U . . .
loop_
_atom_site_aniso_label
_atom_site_aniso_U_11
_atom_site_aniso_U_22
_atom_site_aniso_U_33
_atom_site_aniso_U_23
_atom_site_aniso_U_13
_atom_site_aniso_U_12
C1 0.030(4) 0.025(3) 0.06(4) 0.002(7) 0.014(10) 0.006(3)
C2 0.023(4) 0.018(3) 0.11(4) -0.007(7) 0.021(10) -0.001(3)
N1 0.029(3) 0.018(3) 0.02(3) 0.008(5) 0.008(7) 0.003(2)
O1 0.088(5) 0.026(3) 0.17(4) -0.015(7) 0.072(12) -0.006(3)
O2 0.041(3) 0.021(2) 0.04(3) -0.009(4) 0.021(6) -0.0062(19)
O3 0.037(3) 0.032(3) 0.11(3) 0.015(6) 0.019(8) 0.009(2)
O4 0.033(3) 0.027(2) 0.05(3) -0.001(5) 0.013(8) 0.006(2)
O5 0.040(3) 0.027(3) 0.12(3) 0.020(5) 0.030(7) 0.012(2)
P1 0.0282(11) 0.0159(10) 0.075(14) 0.0010(17) 0.018(3) -0.0020(7)
loop_
_atom_type_symbol
_atom_type_description
_atom_type_scat_dispersion_real
_atom_type_scat_dispersion_imag
_atom_type_scat_source
C C 0.0033 0.0016 'International Tables Vol C Tables 4.2.6.8 and 6.1.1.4'
H H 0.0000 0.0000 'International Tables Vol C Tables 4.2.6.8 and 6.1.1.4'
N N 0.0061 0.0033 'International Tables Vol C Tables 4.2.6.8 and 6.1.1.4'
O O 0.0106 0.0060 'International Tables Vol C Tables 4.2.6.8 and 6.1.1.4'
P P 0.1023 0.0942 'International Tables Vol C Tables 4.2.6.8 and 6.1.1.4'
loop_
_geom_angle_atom_site_label_1
_geom_angle_atom_site_label_2
_geom_angle_atom_site_label_3
_geom_angle
_geom_angle_site_symmetry_1
_geom_angle_site_symmetry_3
_geom_angle_publ_flag
N1 C1 C2 108.9(14) . . ?
N1 C1 H1D 109.9 . . ?
C2 C1 H1D 109.9 . . ?
N1 C1 H1E 109.9 . . ?
C2 C1 H1E 109.9 . . ?
H1D C1 H1E 108.3 . . ?
O4 C2 O5 124.2(7) . . ?
O4 C2 C1 125.1(13) . . ?
O5 C2 C1 110.6(15) . . ?
C1 N1 H1A 109.5 . . ?
C1 N1 H1B 109.5 . . ?
H1A N1 H1B 109.5 . . ?
C1 N1 H1C 109.5 . . ?
H1A N1 H1C 109.5 . . ?
H1B N1 H1C 109.5 . . ?
P1 O1 H1 109.5 . . ?
P1 O3 H3 109.5 . . ?
C2 O5 H5 109.5 . . ?
O2 P1 O1 111.4(6) . . ?
O2 P1 O3 111.8(7) . . ?
O1 P1 O3 111.8(5) . . ?
O2 P1 H1P 107.2 . . ?
O1 P1 H1P 107.2 . . ?
O3 P1 H1P 107.2 . . ?
loop_
_geom_bond_atom_site_label_1
_geom_bond_atom_site_label_2
_geom_bond_distance
_geom_bond_site_symmetry_2
_geom_bond_publ_flag
C1 N1 1.455(17) . ?
C1 C2 1.517(13) . ?
C1 H1D 0.9700 . ?
C1 H1E 0.9700 . ?
C2 O4 1.159(19) . ?
C2 O5 1.324(17) . ?
N1 H1A 0.8900 . ?
N1 H1B 0.8900 . ?
N1 H1C 0.8900 . ?
O1 P1 1.532(19) . ?
O1 H1 0.8200 . ?
O2 P1 1.499(5) . ?
O3 P1 1.549(12) . ?
O3 H3 0.8200 . ?
O5 H5 0.8200 . ?
P1 H1P 0.9800 . ?
loop_
_geom_hbond_atom_site_label_D
_geom_hbond_atom_site_label_H
_geom_hbond_atom_site_label_A
_geom_hbond_distance_DH
_geom_hbond_distance_HA
_geom_hbond_distance_DA
_geom_hbond_angle_DHA
_geom_hbond_site_symmetry_A
_geom_hbond_publ_flag
N1 H1A O2 0.89 1.99 2.85(2) 163.5 3_666 yes
N1 H1B O3 0.89 2.00 2.884(7) 173.9 4_675 yes
N1 H1C O2 0.89 1.98 2.861(7) 171.0 . yes
O1 H1 O1 0.82 1.65 2.435(15) 158.7 3_677 yes
O3 H3 O3 0.82 1.75 2.456(18) 142.6 3_676 yes
O5 H5 O2 0.82 1.80 2.588(9) 162.0 4_665 yes
loop_
_geom_torsion_atom_site_label_1
_geom_torsion_atom_site_label_2
_geom_torsion_atom_site_label_3
_geom_torsion_atom_site_label_4
_geom_torsion
_geom_torsion_site_symmetry_1
_geom_torsion_site_symmetry_2
_geom_torsion_site_symmetry_3
_geom_torsion_site_symmetry_4
_geom_torsion_publ_flag
N1 C1 C2 O4 6(2) . . . . ?
N1 C1 C2 O5 -176.5(9) . . . . ?

_cod_database_fobs_code 2109030
