#------------------------------------------------------------------------------
#$Date: 2022-06-09 04:56:52 +0300 (Thu, 09 Jun 2022) $
#$Revision: 275937 $
#$URL: file:///home/coder/svn-repositories/cod/cif/2/10/90/2109004.cif $
#------------------------------------------------------------------------------
#
# This file is available in the Crystallography Open Database (COD),
# http://www.crystallography.net/. The original data for this entry
# were provided by IUCr Journals, http://journals.iucr.org/.
#
# The file may be used within the scientific community so long as
# proper attribution is given to the journal article from which the
# data were obtained.
#
data_2109004
loop_
_publ_author_name
'Hoser, Anna Agnieszka'
'Rekis, Toms'
'Madsen, Anders \/Ostergaard'
_publ_section_title
;
 Dynamics and disorder: on the stability of pyrazinamide polymorphs
;
_journal_issue                   '3 Part 1'
_journal_name_full               'Acta Crystallographica Section B'
_journal_page_first              416
_journal_page_last               424
_journal_paper_doi               10.1107/S2052520622004577
_journal_volume                  78
_journal_year                    2022
_chemical_formula_sum            'C5 H5 N3 O'
_chemical_formula_weight         123.1
_chemical_name_common            Pyrazinamide
_space_group_IT_number           7
_space_group_name_Hall           'P -2yc'
_space_group_name_H-M_alt        'P 1 c 1'
_symmetry_cell_setting           monoclinic
_symmetry_Int_Tables_number      7
_symmetry_space_group_name_Hall  'P -2yc'
_symmetry_space_group_name_H-M   'P 1 c 1'
_cell_angle_alpha                90
_cell_angle_beta                 106.487(17)
_cell_angle_gamma                90
_cell_formula_units_Z            2
_cell_length_a                   7.1730(17)
_cell_length_b                   3.6500(13)
_cell_length_c                   10.686(2)
_cell_measurement_reflns_used    17605
_cell_measurement_temperature    122
_cell_measurement_theta_max      54.47
_cell_measurement_theta_min      5.59
_cell_volume                     268.27(13)
_diffrn_ambient_temperature      122
_diffrn_measured_fraction_theta_full 0.98
_diffrn_measured_fraction_theta_max 0.97
_diffrn_measurement_device_type  'Nonius Kappa CCD'
_diffrn_radiation_probe          x-ray
_diffrn_radiation_source         'X-ray tube'
_diffrn_radiation_type           'Mo K\a'
_diffrn_radiation_wavelength     0.71073
_diffrn_reflns_av_R_equivalents  0.0418
_diffrn_reflns_av_unetI/netI     0.0622
_diffrn_reflns_limit_h_max       16
_diffrn_reflns_limit_h_min       -16
_diffrn_reflns_limit_k_max       8
_diffrn_reflns_limit_k_min       -7
_diffrn_reflns_limit_l_max       24
_diffrn_reflns_limit_l_min       -24
_diffrn_reflns_number            17605
_diffrn_reflns_theta_full        54.17
_diffrn_reflns_theta_max         54.47
_diffrn_reflns_theta_min         5.59
_exptl_absorpt_coefficient_mu    0.113
_exptl_crystal_colour            colorless
_exptl_crystal_density_diffrn    1.5241
_exptl_crystal_description       prism
_exptl_crystal_F_000             128
_refine_diff_density_max         0.54
_refine_diff_density_min         -0.30
_refine_ls_abs_structure_details
'  2369 of Friedel pairs used in the refinement'
_refine_ls_extinction_method     none
_refine_ls_goodness_of_fit_gt    2.24
_refine_ls_goodness_of_fit_ref   1.81
_refine_ls_hydrogen_treatment    constr
_refine_ls_number_constraints    2
_refine_ls_number_parameters     87
_refine_ls_number_reflns         5658
_refine_ls_number_restraints     0
_refine_ls_R_factor_all          0.0942
_refine_ls_R_factor_gt           0.0474
_refine_ls_shift/su_max          0.0483
_refine_ls_shift/su_mean         0.0027
_refine_ls_structure_factor_coef F
_refine_ls_weighting_details     w=1/(\s^2^(F)+0.0001F^2^)
_refine_ls_weighting_scheme      sigma
_refine_ls_wR_factor_gt          0.0524
_refine_ls_wR_factor_ref         0.0545
_reflns_number_gt                3415
_reflns_number_total             5658
_reflns_threshold_expression     I>3\s(I)
_cod_data_source_file            so5076sup1.cif
_cod_data_source_block           gamma122K
_cod_depositor_comments
;
The following automatic conversions were performed:

data item '_diffrn_radiation_probe' value 'X-ray' was changed to
'x-ray' in accordance with the
/home/data/users/saulius/crontab/automatic-downloads/rss-feeds/IUCr/lib/dictionaries/cif_core.dic
dictionary named 'cif_core.dic' version 2.4.2 last updated on
2011-04-26.

Automatic conversion script
Id: cif_fix_values 7556 2019-12-06 15:28:31Z antanas 
;
_cod_original_formula_sum        'C5 H5 N3 O1'
_cod_database_code               2109004
loop_
_space_group_symop_id
_space_group_symop_operation_xyz
1 x,y,z
2 x,-y,z+1/2
loop_
_atom_site_label
_atom_site_type_symbol
_atom_site_fract_x
_atom_site_fract_y
_atom_site_fract_z
_atom_site_adp_type
_atom_site_U_iso_or_equiv
_atom_site_site_symmetry_multiplicity
_atom_site_occupancy
_atom_site_calc_flag
_atom_site_refinement_flags
_atom_site_disorder_assembly
_atom_site_disorder_group
O1a O 0.619126 -0.13465(18) 0.530832 Uani 0.02294(15) 2 0.8102(6) d . . .
N1a N 0.04711(10) 0.22907(18) 0.40821(8) Uani 0.01715(14) 2 0.8102(6) d . . .
N2a N 0.27610(8) 0.28411(16) 0.66800(8) Uani 0.01484(13) 2 0.8102(6) d . . .
N3a N 0.64923(8) 0.0452(2) 0.73854(8) Uani 0.02208(15) 2 0.8102(6) d . . .
C4a C 0.09127(10) 0.3950(2) 0.63059(8) Uani 0.01717(15) 2 0.8102(6) d . . .
C3a C 0.55222(8) 0.00686(17) 0.61309(8) Uani 0.01585(14) 2 0.8102(6) d . . .
C2a C -0.02217(9) 0.36676(19) 0.50179(8) Uani 0.01671(16) 2 0.8102(6) d . . .
C1a C 0.34612(8) 0.14585(19) 0.57464(8) Uani 0.01220(12) 2 0.8102(6) d . . .
C5a C 0.23349(10) 0.11906(19) 0.44580(8) Uani 0.01509(14) 2 0.8102(6) d . . .
H1n3a H 0.587973 0.110127 0.794565 Uiso 0.0265 2 0.8102(6) d . . .
H2n3a H 0.773893 0.00544 0.764514 Uiso 0.0265 2 0.8102(6) d . . .
H1c4a H 0.035131 0.497168 0.694386 Uiso 0.0206 2 0.8102(6) d . . .
H1c2a H -0.15468 0.448935 0.479393 Uiso 0.0201 2 0.8102(6) d . . .
H1c5a H 0.29022 0.019378 0.381921 Uiso 0.0181 2 0.8102(6) d . . .
O1b O -0.00731(13) 0.3129(6) 0.38739(15) Uani 0.02294(17) 2 0.1898(6) d . . .
N1b N 0.5618(2) -0.0630(7) 0.51893(16) Uani 0.01715(16) 2 0.1898(6) d . . .
N2b N 0.36472(12) 0.2377(5) 0.68678(9) Uani 0.01484(15) 2 0.1898(6) d . . .
N3b N -0.00783(17) 0.4698(7) 0.59240(17) Uani 0.02208(18) 2 0.1898(6) d . . .
C4b C 0.54889(13) 0.1252(5) 0.73004(14) Uani 0.01717(18) 2 0.1898(6) d . . .
C3b C 0.07339(10) 0.3318(5) 0.50512(13) Uani 0.01585(16) 2 0.1898(6) d . . .
C2b C 0.64648(15) -0.0230(6) 0.64661(17) Uani 0.01671(18) 2 0.1898(6) d . . .
C1b C 0.27928(8) 0.1984(4) 0.55896(8) Uani 0.01220(15) 2 0.1898(6) d . . .
C5b C 0.37603(17) 0.0486(5) 0.47553(11) Uani 0.01509(16) 2 0.1898(6) d . . .
H1n3b H 0.063062 0.512883 0.671711 Uiso 0.0265 2 0.1898(6) d . . .
H2n3b H -0.1318 0.516917 0.570153 Uiso 0.0265 2 0.1898(6) d . . .
H1c4b H 0.615801 0.147307 0.821263 Uiso 0.0206 2 0.1898(6) d . . .
H1c2b H 0.779155 -0.099138 0.681976 Uiso 0.0201 2 0.1898(6) d . . .
H1c5b H 0.308519 0.024207 0.384481 Uiso 0.0181 2 0.1898(6) d . . .
loop_
_atom_site_aniso_label
_atom_site_aniso_type_symbol
_atom_site_aniso_U_11
_atom_site_aniso_U_22
_atom_site_aniso_U_33
_atom_site_aniso_U_12
_atom_site_aniso_U_13
_atom_site_aniso_U_23
O1a O 0.01475(18) 0.0279(3) 0.0265(3) 0.00582(17) 0.00646(17) -0.0019(2)
N1a N 0.01330(19) 0.0227(3) 0.0138(2) 0.00201(17) 0.00109(16) -0.00080(19)
N2a N 0.01402(18) 0.0187(2) 0.01162(19) 0.00105(17) 0.00335(14) -0.00043(18)
N3a N 0.01380(19) 0.0281(3) 0.0201(2) 0.00430(18) -0.00200(17) 0.0000(2)
C4a C 0.0153(2) 0.0208(3) 0.0164(2) 0.00226(19) 0.00621(19) -0.0019(2)
C3a C 0.01100(17) 0.0159(2) 0.0189(3) 0.00087(16) 0.00150(17) 0.00188(19)
C2a C 0.0120(2) 0.0197(3) 0.0182(3) 0.00339(19) 0.00399(18) 0.0001(2)
C1a C 0.01017(19) 0.0134(2) 0.0126(2) -0.00061(16) 0.00252(14) 0.00024(18)
C5a C 0.01245(19) 0.0206(3) 0.0116(2) 0.00148(18) 0.00244(16) -0.0018(2)
O1b O 0.01432(19) 0.0304(3) 0.0210(3) 0.00446(18) 0.0000(2) 0.0020(2)
N1b N 0.0138(2) 0.0217(3) 0.0166(3) 0.00330(18) 0.0053(2) -0.0018(2)
N2b N 0.01411(19) 0.0174(2) 0.0130(3) 0.00115(17) 0.00381(18) -0.00239(17)
N3b N 0.0150(2) 0.0277(3) 0.0250(3) 0.00734(19) 0.0078(2) 0.0004(2)
C4b C 0.0149(2) 0.0216(3) 0.0134(3) 0.0011(2) 0.0014(2) -0.0008(2)
C3b C 0.01138(18) 0.0156(3) 0.0209(3) 0.00191(17) 0.00498(19) 0.0016(2)
C2b C 0.0119(2) 0.0199(3) 0.0168(3) 0.0029(2) 0.0017(2) 0.0005(2)
C1b C 0.0103(2) 0.0129(2) 0.0136(3) -0.00024(16) 0.00377(18) -0.00041(17)
C5b C 0.0126(2) 0.0203(3) 0.0124(3) 0.00195(18) 0.0037(2) -0.0022(2)
loop_
_atom_type_symbol
_atom_type_scat_dispersion_real
_atom_type_scat_dispersion_imag
_atom_type_scat_source
C 0.0033 0.0016 'International Tables Vol C tables 4.2.6.8 and 6.1.1.1'
H 0.0000 0.0000 'International Tables Vol C tables 4.2.6.8 and 6.1.1.1'
N 0.0061 0.0033 'International Tables Vol C tables 4.2.6.8 and 6.1.1.1'
O 0.0106 0.0060 'International Tables Vol C tables 4.2.6.8 and 6.1.1.1'
loop_
_diffrn_standard_refln_index_h
_diffrn_standard_refln_index_k
_diffrn_standard_refln_index_l
? ? ?
loop_
_exptl_crystal_face_index_h
_exptl_crystal_face_index_k
_exptl_crystal_face_index_l
_exptl_crystal_face_perp_dist
? ? ? ?
loop_
_geom_angle_atom_site_label_1
_geom_angle_atom_site_label_2
_geom_angle_atom_site_label_3
_geom_angle_site_symmetry_1
_geom_angle_site_symmetry_2
_geom_angle_site_symmetry_3
_geom_angle
_geom_angle_publ_flag
C3a O1a N1b . . . 58.2(2) ?
C3a O1a C2b . . . 31.53(6) ?
N1b O1a C2b . . . 88.1(2) ?
C2a N1a C5a . . . 116.04(7) ?
C2a N1a O1b . . . 72.0(2) ?
C2a N1a C3b . . . 30.80(6) ?
C5a N1a O1b . . . 155.2(2) ?
C5a N1a C3b . . . 85.88(8) ?
O1b N1a C3b . . . 96.8(2) ?
C4a N2a C1a . . . 116.28(7) ?
C4a N2a N2b . . . 177.72(16) ?
C4a N2a C1b . . . 94.50(7) ?
C1a N2a N2b . . . 65.11(12) ?
C1a N2a C1b . . . 21.89(5) ?
N2b N2a C1b . . . 86.81(13) ?
C3a N3a H1n3a . . . 120 ?
C3a N3a H2n3a . . . 120 ?
C3a N3a C4b . . . 73.29(12) ?
C3a N3a C2b . . . 29.83(7) ?
H1n3a N3a H2n3a . . . 120 ?
H1n3a N3a C4b . . . 47.91 ?
H1n3a N3a C2b . . . 149.74 ?
H2n3a N3a C4b . . . 163.28 ?
H2n3a N3a C2b . . . 90.21 ?
C4b N3a C2b . . . 102.89(15) ?
N2a C4a C2a . . . 121.79(8) ?
N2a C4a H1c4a . . . 119.1 ?
N2a C4a N3b . . . 164.75(18) ?
N2a C4a C3b . . . 93.02(8) ?
N2a C4a H1n3b . . . 116.58 ?
C2a C4a H1c4a . . . 119.1 ?
C2a C4a N3b . . . 45.72(16) ?
C2a C4a C3b . . . 29.20(5) ?
C2a C4a H1n3b . . . 119.03 ?
H1c4a C4a N3b . . . 74.09 ?
H1c4a C4a C3b . . . 147.47 ?
H1c4a C4a H1n3b . . . 16.5 ?
N3b C4a C3b . . . 73.39(17) ?
N3b C4a H1n3b . . . 73.65 ?
C3b C4a H1n3b . . . 142.53 ?
O1a C3a N3a . . . 124.49(5) ?
O1a C3a C1a . . . 119.94(6) ?
O1a C3a N1b . . . 22.35(9) ?
O1a C3a C4b . . . 157.60(7) ?
O1a C3a C2b . . . 77.11(17) ?
N3a C3a C1a . . . 115.57(7) ?
N3a C3a N1b . . . 145.71(10) ?
N3a C3a C4b . . . 33.11(6) ?
N3a C3a C2b . . . 47.70(17) ?
C1a C3a N1b . . . 98.34(10) ?
C1a C3a C4b . . . 82.46(7) ?
C1a C3a C2b . . . 162.3(2) ?
N1b C3a C4b . . . 174.37(15) ?
N1b C3a C2b . . . 98.03(19) ?
C4b C3a C2b . . . 80.61(18) ?
N1a C2a C4a . . . 122.15(7) ?
N1a C2a H1c2a . . . 118.92 ?
N1a C2a O1b . . . 21.77(7) ?
N1a C2a N3b . . . 153.45(10) ?
N1a C2a C3b . . . 52.54(14) ?
C4a C2a H1c2a . . . 118.92 ?
C4a C2a O1b . . . 141.08(8) ?
C4a C2a N3b . . . 32.49(9) ?
C4a C2a C3b . . . 70.60(13) ?
H1c2a C2a O1b . . . 98.96 ?
H1c2a C2a N3b . . . 86.98 ?
H1c2a C2a C3b . . . 166.42 ?
O1b C2a N3b . . . 163.58(16) ?
O1b C2a C3b . . . 70.56(14) ?
N3b C2a C3b . . . 100.91(16) ?
N2a C1a C3a . . . 118.12(7) ?
N2a C1a C5a . . . 122.06(6) ?
N2a C1a N2b . . . 28.21(5) ?
N2a C1a C1b . . . 64.97(14) ?
N2a C1a C5b . . . 167.28(8) ?
C3a C1a C5a . . . 119.80(7) ?
C3a C1a N2b . . . 89.96(7) ?
C3a C1a C1b . . . 175.07(18) ?
C3a C1a C5b . . . 74.45(8) ?
C5a C1a N2b . . . 150.24(8) ?
C5a C1a C1b . . . 57.37(14) ?
C5a C1a C5b . . . 45.49(7) ?
N2b C1a C1b . . . 92.95(16) ?
N2b C1a C5b . . . 163.95(8) ?
C1b C1a C5b . . . 102.35(16) ?
N1a C5a C1a . . . 121.68(8) ?
N1a C5a H1c5a . . . 119.16 ?
N1a C5a C1b . . . 101.22(8) ?
N1a C5a C5b . . . 177.23(13) ?
N1a C5a H1c5b . . . 124.85 ?
C1a C5a H1c5a . . . 119.16 ?
C1a C5a C1b . . . 20.59(5) ?
C1a C5a C5b . . . 57.03(9) ?
C1a C5a H1c5b . . . 113.38 ?
H1c5a C5a C1b . . . 139.56 ?
H1c5a C5a C5b . . . 62.19 ?
H1c5a C5a H1c5b . . . 6.54 ?
C1b C5a C5b . . . 77.37(10) ?
C1b C5a H1c5b . . . 133.56 ?
C5b C5a H1c5b . . . 56.35 ?
N3a H1n3a C4b . . . 57.23 ?
N3a H1n3a H1c4b . . . 114.21 ?
C4b H1n3a H1c4b . . . 146.84 ?
C4a H1c4a H1n3b . . . 32.7 ?
C5a H1c5a C5b . . . 61.5 ?
C5a H1c5a H1c5b . . . 114.42 ?
C5b H1c5a H1c5b . . . 58.49 ?
N1a O1b C2a . . . 86.2(2) ?
N1a O1b C3b . . . 59.57(19) ?
C2a O1b C3b . . . 31.88(7) ?
O1a N1b C3a . . . 99.4(2) ?
O1a N1b C2b . . . 71.15(19) ?
O1a N1b C5b . . . 164.0(4) ?
C3a N1b C2b . . . 30.20(8) ?
C3a N1b C5b . . . 85.98(14) ?
C2b N1b C5b . . . 116.04(16) ?
N2a N2b C1a . . . 86.67(12) ?
N2a N2b C4b . . . 176.9(2) ?
N2a N2b C1b . . . 64.97(11) ?
C1a N2b C4b . . . 94.46(11) ?
C1a N2b C1b . . . 21.90(5) ?
C4b N2b C1b . . . 116.28(11) ?
C4a N3b C2a . . . 101.8(2) ?
C4a N3b C3b . . . 73.31(16) ?
C4a N3b H1n3b . . . 49.09 ?
C4a N3b H2n3b . . . 160.42 ?
C2a N3b C3b . . . 30.51(8) ?
C2a N3b H1n3b . . . 150.23 ?
C2a N3b H2n3b . . . 89.63 ?
C3b N3b H1n3b . . . 120 ?
C3b N3b H2n3b . . . 120 ?
H1n3b N3b H2n3b . . . 120 ?
N3a C4b C3a . . . 73.60(14) ?
N3a C4b H1n3a . . . 74.86 ?
N3a C4b N2b . . . 166.68(19) ?
N3a C4b C2b . . . 45.00(12) ?
N3a C4b H1c4b . . . 74.13 ?
C3a C4b H1n3a . . . 145.96 ?
C3a C4b N2b . . . 93.12(9) ?
C3a C4b C2b . . . 28.78(6) ?
C3a C4b H1c4b . . . 147.68 ?
H1n3a C4b N2b . . . 117.81 ?
H1n3a C4b C2b . . . 119.29 ?
H1n3a C4b H1c4b . . . 10.76 ?
N2b C4b C2b . . . 121.79(12) ?
N2b C4b H1c4b . . . 119.1 ?
C2b C4b H1c4b . . . 119.1 ?
N1a C3b C4a . . . 168.35(17) ?
N1a C3b C2a . . . 96.66(14) ?
N1a C3b O1b . . . 23.64(9) ?
N1a C3b N3b . . . 145.24(9) ?
N1a C3b C1b . . . 98.11(11) ?
C4a C3b C2a . . . 80.20(15) ?
C4a C3b O1b . . . 157.59(11) ?
C4a C3b N3b . . . 33.31(8) ?
C4a C3b C1b . . . 82.38(8) ?
C2a C3b O1b . . . 77.56(13) ?
C2a C3b N3b . . . 48.58(13) ?
C2a C3b C1b . . . 159.1(2) ?
O1b C3b N3b . . . 124.49(11) ?
O1b C3b C1b . . . 119.94(13) ?
N3b C3b C1b . . . 115.57(11) ?
O1a C2b N3a . . . 171.16(15) ?
O1a C2b C3a . . . 71.35(16) ?
O1a C2b N1b . . . 20.77(9) ?
O1a C2b C4b . . . 141.89(9) ?
O1a C2b H1c2b . . . 98.81 ?
N3a C2b C3a . . . 102.5(2) ?
N3a C2b N1b . . . 154.20(14) ?
N3a C2b C4b . . . 32.11(8) ?
N3a C2b H1c2b . . . 86.84 ?
C3a C2b N1b . . . 51.77(15) ?
C3a C2b C4b . . . 70.61(16) ?
C3a C2b H1c2b . . . 169.38 ?
N1b C2b C4b . . . 122.15(12) ?
N1b C2b H1c2b . . . 118.92 ?
C4b C2b H1c2b . . . 118.92 ?
N2a C1b C1a . . . 93.13(14) ?
N2a C1b C5a . . . 163.69(7) ?
N2a C1b N2b . . . 28.22(6) ?
N2a C1b C3b . . . 89.99(9) ?
N2a C1b C5b . . . 150.20(8) ?
C1a C1b C5a . . . 102.04(17) ?
C1a C1b N2b . . . 65.16(14) ?
C1a C1b C3b . . . 175.7(2) ?
C1a C1b C5b . . . 57.09(14) ?
C5a C1b N2b . . . 167.03(11) ?
C5a C1b C3b . . . 74.56(8) ?
C5a C1b C5b . . . 45.46(7) ?
N2b C1b C3b . . . 118.12(10) ?
N2b C1b C5b . . . 122.06(8) ?
C3b C1b C5b . . . 119.80(9) ?
C1a C5b C5a . . . 77.48(11) ?
C1a C5b H1c5a . . . 133.72 ?
C1a C5b N1b . . . 101.20(11) ?
C1a C5b C1b . . . 20.57(5) ?
C1a C5b H1c5b . . . 139.59 ?
C5a C5b H1c5a . . . 56.31 ?
C5a C5b N1b . . . 176.3(2) ?
C5a C5b C1b . . . 57.17(9) ?
C5a C5b H1c5b . . . 62.11 ?
H1c5a C5b N1b . . . 124.73 ?
H1c5a C5b C1b . . . 113.48 ?
H1c5a C5b H1c5b . . . 6.5 ?
N1b C5b C1b . . . 121.68(12) ?
N1b C5b H1c5b . . . 119.16 ?
C1b C5b H1c5b . . . 119.16 ?
C4a H1n3b H1c4a . . . 130.8 ?
C4a H1n3b N3b . . . 57.26 ?
H1c4a H1n3b N3b . . . 110.1 ?
H1n3a H1c4b C4b . . . 22.4 ?
C5a H1c5b H1c5a . . . 59.04 ?
C5a H1c5b C5b . . . 61.54 ?
H1c5a H1c5b C5b . . . 115.01 ?
loop_
_geom_bond_atom_site_label_1
_geom_bond_atom_site_label_2
_geom_bond_site_symmetry_1
_geom_bond_site_symmetry_2
_geom_bond_distance
_geom_bond_publ_flag
O1a C3a . . 1.2285(9) ?
O1a N1b . . 0.4736(18) ?
O1a C2b . . 1.2639(19) ?
N1a C2a . . 1.3348(13) ?
N1a C5a . . 1.3436(11) ?
N1a O1b . . 0.4961(16) ?
N1a C3b . . 1.0667(17) ?
N2a C4a . . 1.3344(11) ?
N2a C1a . . 1.3366(12) ?
N2a N2b . . 0.6330(11) ?
N2a C1b . . 1.2129(13) ?
N3a C3a . . 1.3309(12) ?
N3a H1n3a . . 0.87 ?
N3a H2n3a . . 0.87 ?
N3a C4b . . 0.7578(13) ?
N3a C2b . . 1.008(2) ?
C4a C2a . . 1.3898(13) ?
C4a H1c4a . . 0.96 ?
C4a N3b . . 0.7626(16) ?
C4a C3b . . 1.3303(18) ?
C4a H1n3b . . 0.6852 ?
C3a C1a . . 1.5057(11) ?
C3a N1b . . 1.059(2) ?
C3a C4b . . 1.3288(18) ?
C3a C2b . . 0.6781(12) ?
C2a H1c2a . . 0.96 ?
C2a O1b . . 1.2721(19) ?
C2a N3b . . 1.016(2) ?
C2a C3b . . 0.6881(12) ?
C1a C5a . . 1.3880(12) ?
C1a N2b . . 1.2145(14) ?
C1a C1b . . 0.4991(10) ?
C1a C5b . . 1.1928(17) ?
C5a H1c5a . . 0.96 ?
C5a C1b . . 1.1952(13) ?
C5a C5b . . 1.0139(15) ?
C5a H1c5b . . 1.0193 ?
H1n3a C4b . . 0.6689 ?
H1n3a H1c4b . . 0.3276 ?
H1c4a H1n3b . . 0.3601 ?
H1c5a C5b . . 1.0205 ?
H1c5a H1c5b . . 0.1275 ?
O1b C3b . . 1.229(2) ?
N1b C2b . . 1.335(2) ?
N1b C5b . . 1.344(2) ?
N2b C4b . . 1.3344(15) ?
N2b C1b . . 1.3366(14) ?
N3b C3b . . 1.331(2) ?
N3b H1n3b . . 0.87 ?
N3b H2n3b . . 0.87 ?
C4b C2b . . 1.390(2) ?
C4b H1c4b . . 0.96 ?
C3b C1b . . 1.5057(14) ?
C2b H1c2b . . 0.96 ?
C1b C5b . . 1.3880(18) ?
C5b H1c5b . . 0.96 ?
loop_
_geom_hbond_atom_site_label_D
_geom_hbond_atom_site_label_H
_geom_hbond_atom_site_label_A
_geom_hbond_site_symmetry_D
_geom_hbond_site_symmetry_H
_geom_hbond_site_symmetry_A
_geom_hbond_distance_DH
_geom_hbond_distance_HA
_geom_hbond_distance_DA
_geom_hbond_angle_DHA
_geom_hbond_publ_flag
N3a H1n3a O1a . . 2_555 0.87 2.47 3.2081(15) 142.72 ?
N3a H1n3a N1b . . 2_555 0.87 2.46 3.231(2) 147.53 ?
C4b H1n3a O1a . . 2_555 0.67 2.47 3.109(2) 160.02 ?
C4b H1n3a N1b . . 2_555 0.67 2.46 3.071(3) 152.09 ?
N3a H2n3a N1a . . 2_655 0.87 2.29 3.0819(17) 152.21 ?
N3a H2n3a O1b . . 2_655 0.87 2.09 2.8432(19) 144.48 ?
C2b H2n3a N1a . . 2_655 1.33 2.29 3.475(2) 146.34 ?
C2b H2n3a O1b . . 2_655 1.33 2.09 3.206(2) 137.83 ?
C4a H1c4a N1a . . 2_565 0.96 2.47 3.3640(17) 154.34 ?
C4a H1c4a O1b . . 2_565 0.96 2.28 3.204(2) 162.25 ?
N3b H1c4a N1a . . 2_565 1.05 2.47 3.464(2) 157.02 ?
N3b H1c4a O1b . . 2_565 1.05 2.28 3.249(3) 153.39 ?
C2a H1c2a O1a . . 1_465 0.96 2.40 3.2376(15) 145.82 ?
C5a H1c5a N2b . . 2_554 0.96 2.48 3.4237(18) 167.83 ?
C5b H1c5a N2b . . 2_554 1.02 2.48 3.237(2) 130.54 ?
C2a H2n3b O1a . . 1_465 1.33 2.14 3.2376(15) 136.67 ?
N3b H2n3b O1a . . 1_465 0.87 2.14 2.946(2) 154.79 ?
N3a H1c4b O1a . . 2_555 1.05 2.23 3.2081(15) 153.99 ?
N3a H1c4b N1b . . 2_555 1.05 2.27 3.231(2) 151.12 ?
C4b H1c4b O1a . . 2_555 0.96 2.23 3.109(2) 151.23 ?
C4b H1c4b N1b . . 2_555 0.96 2.27 3.071(3) 139.81 ?
C2b H1c2b O1b . . 2_655 0.96 2.42 3.206(2) 138.71 ?
C5a H1c5b N2b . . 2_554 1.02 2.45 3.4237(18) 158.65 ?
C5b H1c5b N2b . . 2_554 0.96 2.45 3.237(2) 138.57 ?
loop_
_geom_torsion_atom_site_label_1
_geom_torsion_atom_site_label_2
_geom_torsion_atom_site_label_3
_geom_torsion_atom_site_label_4
_geom_torsion_site_symmetry_1
_geom_torsion_site_symmetry_2
_geom_torsion_site_symmetry_3
_geom_torsion_site_symmetry_4
_geom_torsion
_geom_torsion_publ_flag
? ? ? ? ? ? ? ? ? ?
loop_
_refln_index_h
_refln_index_k
_refln_index_l
_refln_F_squared_calc
_refln_F_squared_meas
_refln_F_squared_sigma
_refln_observed_status
4 0 0 262.63 303.66 9.49 o
-4 0 0 262.83 315.32 13.97 o
5 0 0 70.61 74.98 2.36 o
-5 0 0 70.61 77.72 2.00 o
6 0 0 4.02 4.35 0.15 o
-6 0 0 4.05 4.58 0.15 o
7 0 0 32.66 25.78 0.85 o
-7 0 0 32.57 26.16 0.70 o
8 0 0 10.06 9.70 0.39 o
-8 0 0 10.11 9.49 0.29 o
9 0 0 11.39 10.28 0.59 o
-9 0 0 11.32 12.25 0.46 o
10 0 0 27.22 26.80 1.31 o
-10 0 0 27.19 29.59 1.01 o
11 0 0 24.24 23.23 1.19 o
-11 0 0 24.23 27.81 0.97 o
12 0 0 5.45 5.71 0.48 o
-12 0 0 5.43 6.22 0.35 o
13 0 0 0.40 -0.20 0.32 <
-13 0 0 0.40 -0.23 0.30 <
14 0 0 6.58 5.68 0.77 o
-14 0 0 6.57 6.23 0.58 o
15 0 0 1.61 2.18 1.20 <
-15 0 0 1.61 1.18 0.90 <
0 1 0 635.31 673.47 29.68 o
2 1 0 240.66 249.83 11.01 o
3 1 0 226.22 257.91 11.37 o
-3 1 0 226.32 262.72 11.60 o
4 1 0 68.96 74.44 1.66 o
-4 1 0 69.03 75.75 1.27 o
5 1 0 19.32 18.96 0.39 o
-5 1 0 19.37 19.44 0.32 o
6 1 0 9.25 6.19 0.14 o
-6 1 0 9.24 6.39 0.12 o
7 1 0 22.73 18.89 0.45 o
-7 1 0 22.70 19.66 0.33 o
8 1 0 11.37 10.72 0.29 o
-8 1 0 11.34 11.13 0.25 o
9 1 0 7.64 7.11 0.28 o
-9 1 0 7.63 8.07 0.22 o
10 1 0 45.53 46.06 1.53 o
-10 1 0 45.48 49.86 1.16 o
11 1 0 2.15 1.78 0.24 o
-11 1 0 2.14 2.27 0.17 o
12 1 0 5.85 5.24 0.32 o
-12 1 0 5.84 5.99 0.28 o
13 1 0 3.31 3.31 0.35 o
-13 1 0 3.30 2.94 0.21 o
14 1 0 0.64 0.70 0.37 <
-14 1 0 0.64 0.67 0.38 <
15 1 0 0.93 1.13 0.78 <
-15 1 0 0.93 0.23 0.63 <
0 2 0 0.07 0.59 0.08 o
-1 2 0 220.73 253.41 6.46 o
2 2 0 50.61 60.51 2.70 o
-2 2 0 50.63 59.64 1.33 o
3 2 0 26.64 34.43 1.10 o
-3 2 0 26.62 33.60 0.76 o
4 2 0 33.84 36.38 0.83 o
-4 2 0 33.87 36.73 0.63 o
5 2 0 13.24 13.10 0.28 o
-5 2 0 13.23 13.60 0.25 o
6 2 0 3.59 2.24 0.10 o
-6 2 0 3.58 2.28 0.07 o
7 2 0 12.36 12.29 0.31 o
-7 2 0 12.34 12.69 0.26 o
8 2 0 0.13 0.09 0.15 <
-8 2 0 0.13 0.14 0.11 <
9 2 0 36.11 37.08 1.01 o
-9 2 0 36.10 38.45 0.73 o
10 2 0 2.15 2.17 0.24 o
-10 2 0 2.15 2.83 0.17 o
11 2 0 8.10 6.99 0.35 o
-11 2 0 8.10 7.58 0.27 o
12 2 0 6.46 6.23 0.39 o
-12 2 0 6.47 6.59 0.28 o
13 2 0 7.20 7.97 0.87 o
-13 2 0 7.21 7.96 0.37 o
14 2 0 0.87 0.56 0.74 <
-14 2 0 0.87 1.03 0.43 <
15 2 0 0.46 -0.37 0.94 <
-15 2 0 0.46 0.16 0.98 <
0 3 0 3.44 3.84 0.10 o
1 3 0 7.86 9.11 0.23 o
-1 3 0 7.89 9.29 0.21 o
2 3 0 15.22 19.37 0.53 o
-2 3 0 15.20 19.83 0.42 o
3 3 0 1.07 1.40 0.08 o
-3 3 0 1.07 1.48 0.07 o
4 3 0 5.91 6.15 0.21 o
-4 3 0 5.90 5.92 0.15 o
5 3 0 4.53 3.98 0.17 o
-5 3 0 4.52 4.18 0.12 o
6 3 0 3.07 2.64 0.19 o
-6 3 0 3.08 2.70 0.10 o
7 3 0 29.53 27.95 0.94 o
-7 3 0 29.52 28.60 0.55 o
8 3 0 8.93 8.62 0.37 o
-8 3 0 8.93 9.28 0.24 o
9 3 0 14.68 14.35 0.55 o
-9 3 0 14.72 15.25 0.33 o
10 3 0 11.78 11.44 0.53 o
-10 3 0 11.77 11.02 0.28 o
11 3 0 8.38 8.03 0.57 o
-11 3 0 8.39 7.71 0.26 o
12 3 0 4.64 4.77 0.71 o
-12 3 0 4.66 4.20 0.27 o
13 3 0 0.11 0.69 0.60 <
-13 3 0 0.11 0.03 0.37 <
14 3 0 0.38 0.13 0.83 <
-14 3 0 0.38 -0.30 0.72 <
0 4 0 3.82 4.36 0.15 o
1 4 0 4.16 4.28 0.15 o
-1 4 0 4.15 4.37 0.13 o
2 4 0 0.47 0.72 0.11 o
-2 4 0 0.47 0.53 0.10 o
3 4 0 1.18 1.19 0.16 o
-3 4 0 1.17 1.13 0.09 o
4 4 0 6.14 6.64 0.33 o
-4 4 0 6.12 7.10 0.20 o
5 4 0 2.80 2.90 0.23 o
-5 4 0 2.80 2.72 0.12 o
6 4 0 3.69 2.87 0.22 o
-6 4 0 3.68 3.81 0.14 o
7 4 0 6.67 7.70 0.50 o
-7 4 0 6.65 7.98 0.22 o
8 4 0 36.25 33.76 1.14 o
-8 4 0 36.28 36.10 0.77 o
9 4 0 3.11 2.78 0.40 o
-9 4 0 3.10 3.16 0.15 o
10 4 0 2.94 2.52 0.59 o
-10 4 0 2.94 2.57 0.21 o
-11 4 0 7.24 7.20 0.35 o
-12 4 0 2.02 1.80 0.50 o
-13 4 0 0.91 0.49 0.59 <
0 5 0 0.85 0.75 0.15 o
1 5 0 2.25 2.48 0.19 o
-1 5 0 2.26 2.28 0.15 o
2 5 0 13.92 14.45 0.48 o
-2 5 0 13.91 14.65 0.39 o
3 5 0 3.64 3.16 0.26 o
-3 5 0 3.65 3.57 0.21 o
4 5 0 3.73 3.39 0.27 o
-4 5 0 3.73 3.11 0.15 o
5 5 0 2.34 1.65 0.39 o
-5 5 0 2.34 2.12 0.13 o
6 5 0 0.68 0.69 0.29 <
-6 5 0 0.68 0.86 0.15 o
7 5 0 0.15 0.46 0.41 <
-7 5 0 0.15 0.08 0.16 <
8 5 0 1.61 1.09 0.46 <
-8 5 0 1.61 1.99 0.22 o
9 5 0 1.05 -0.25 1.19 <
-9 5 0 1.05 0.51 0.19 <
10 5 0 0.30 0.66 0.78 <
-10 5 0 0.30 0.08 0.31 <
-11 5 0 0.38 0.21 0.50 <
-12 5 0 0.11 0.64 0.83 <
0 6 0 0.67 0.32 0.23 <
1 6 0 2.52 1.94 0.25 o
-1 6 0 2.53 2.20 0.24 o
2 6 0 0.56 0.65 0.25 <
-2 6 0 0.56 0.32 0.17 <
3 6 0 1.81 1.74 0.26 o
-3 6 0 1.81 1.57 0.25 o
4 6 0 0.39 0.31 0.22 <
-4 6 0 0.39 0.38 0.20 <
5 6 0 3.42 2.80 0.55 o
-5 6 0 3.42 2.91 0.18 o
6 6 0 0.48 0.55 0.67 <
-6 6 0 0.48 0.30 0.22 <
7 6 0 0.16 -1.06 0.45 <
-7 6 0 0.16 0.25 0.24 <
8 6 0 0.27 -0.37 0.53 <
-8 6 0 0.27 -0.10 0.30 <
9 6 0 0.41 0.83 1.12 <
-9 6 0 0.41 -0.21 0.42 <
-10 6 0 0.24 -0.21 0.84 <
0 7 0 1.47 1.32 0.32 o
1 7 0 3.79 3.17 0.53 o
-1 7 0 3.79 2.81 0.32 o
2 7 0 1.06 0.63 0.36 <
-2 7 0 1.06 1.07 0.27 o
3 7 0 1.43 1.41 0.38 o
-3 7 0 1.43 0.49 0.23 <
4 7 0 1.23 1.50 0.40 o
-4 7 0 1.23 1.60 0.24 o
5 7 0 0.49 0.64 0.68 <
-5 7 0 0.49 0.22 0.32 <
6 7 0 0.07 0.04 0.95 <
-6 7 0 0.08 0.00 0.39 <
7 7 0 0.00 1.01 1.27 <
-7 7 0 0.00 -0.40 0.58 <
8 7 0 0.07 0.40 1.24 <
-8 7 0 0.07 0.96 1.26 <
0 8 0 1.30 2.02 0.81 <
1 8 0 0.05 0.37 0.65 <
-1 8 0 0.05 -0.51 0.56 <
2 8 0 0.23 -0.79 0.68 <
-2 8 0 0.23 -0.20 0.77 <
-3 8 0 0.10 -0.68 1.03 <
-4 8 0 0.14 0.34 0.59 <
-15 1 1 1.07 1.17 0.52 <
15 1 -1 1.07 0.38 0.64 <
-14 1 1 2.76 3.30 0.29 o
14 1 -1 2.75 3.36 0.51 o
-13 1 1 2.14 2.18 0.21 o
13 1 -1 2.14 1.40 0.29 o
-12 1 1 6.25 6.29 0.24 o
12 1 -1 6.25 6.18 0.34 o
-11 1 1 18.38 20.68 0.53 o
11 1 -1 18.37 19.46 0.72 o
-10 1 1 26.89 29.33 0.71 o
10 1 -1 26.88 27.02 0.76 o
-9 1 1 0.38 0.38 0.09 o
9 1 -1 0.37 0.08 0.13 <
-8 1 1 4.14 3.67 0.11 o
8 1 -1 4.15 3.61 0.14 o
-7 1 1 29.05 25.39 0.45 o
7 1 -1 29.01 24.48 0.58 o
-6 1 1 21.50 17.27 0.33 o
6 1 -1 21.54 17.08 0.33 o
-5 1 1 52.34 55.32 1.01 o
5 1 -1 52.32 53.79 0.99 o
-4 1 1 200.99 228.97 4.54 o
4 1 -1 201.12 226.36 5.77 o
-3 1 1 30.40 39.21 1.75 o
3 1 -1 30.31 39.25 1.75 o
-2 1 1 4.41 5.33 0.26 o
2 1 -1 4.41 5.44 0.26 o
1 1 1 282.71 300.10 13.21 o
-1 1 -1 282.64 314.22 13.85 o
2 1 1 254.09 284.91 12.55 o
-2 1 -1 254.13 289.27 12.75 o
3 1 1 172.42 211.17 9.31 o
-3 1 -1 172.52 212.59 6.69 o
4 1 1 44.45 47.00 1.48 o
-4 1 -1 44.41 48.30 0.76 o
5 1 1 11.46 10.54 0.23 o
-5 1 -1 11.43 11.33 0.18 o
6 1 1 14.69 16.98 0.33 o
-6 1 -1 14.70 17.60 0.28 o
7 1 1 8.77 7.73 0.25 o
-7 1 -1 8.80 7.87 0.15 o
8 1 1 2.04 1.90 0.14 o
-8 1 -1 2.01 2.04 0.10 o
9 1 1 2.89 2.64 0.20 o
-9 1 -1 2.90 3.14 0.13 o
10 1 1 6.13 6.43 0.32 o
-10 1 -1 6.13 7.30 0.23 o
11 1 1 2.12 1.81 0.24 o
-11 1 -1 2.12 2.19 0.18 o
12 1 1 0.96 1.79 0.27 o
-12 1 -1 0.96 0.76 0.16 o
13 1 1 7.29 6.43 0.51 o
-13 1 -1 7.28 8.22 0.30 o
14 1 1 0.36 2.26 1.05 <
-14 1 -1 0.36 0.40 0.42 <
15 1 1 1.18 0.74 0.85 <
-15 1 -1 1.19 0.88 0.70 <
-15 2 1 0.18 0.15 0.73 <
15 2 -1 0.18 1.11 1.17 <
-14 2 1 0.23 -0.20 0.39 <
14 2 -1 0.23 1.28 0.92 <
-13 2 1 2.55 2.99 0.22 o
13 2 -1 2.54 2.62 0.46 o
-12 2 1 0.11 0.00 0.16 <
12 2 -1 0.12 -0.23 0.35 <
-11 2 1 3.89 4.34 0.22 o
11 2 -1 3.90 4.11 0.31 o
-10 2 1 24.54 25.93 0.57 o
10 2 -1 24.49 24.81 0.71 o
-9 2 1 18.71 19.64 0.40 o
9 2 -1 18.74 18.73 0.55 o
-8 2 1 2.01 2.11 0.12 o
8 2 -1 1.99 2.14 0.15 o
-7 2 1 3.60 3.28 0.10 o
7 2 -1 3.59 3.56 0.14 o
-6 2 1 13.01 11.10 0.23 o
6 2 -1 13.00 10.71 0.28 o
-5 2 1 28.68 30.50 0.53 o
5 2 -1 28.68 29.92 0.61 o
-4 2 1 3.17 3.11 0.09 o
4 2 -1 3.18 3.03 0.09 o
-3 2 1 18.07 20.51 0.47 o
3 2 -1 18.13 20.37 0.54 o
-2 2 1 227.62 272.52 6.02 o
2 2 -1 227.46 273.02 12.04 o
-1 2 1 304.94 343.49 10.78 o
1 2 -1 305.17 350.64 15.51 o
0 2 1 47.53 52.13 2.33 o
0 2 -1 47.52 51.84 1.64 o
-1 2 -1 21.08 21.94 0.50 o
2 2 1 111.63 129.21 5.72 o
-2 2 -1 111.74 128.71 2.55 o
3 2 1 19.61 19.89 0.65 o
-3 2 -1 19.63 19.02 0.36 o
4 2 1 16.37 17.95 0.59 o
-4 2 -1 16.39 17.57 0.31 o
5 2 1 0.95 0.17 0.08 <
-5 2 -1 0.95 0.33 0.06 o
6 2 1 113.87 103.95 2.08 o
-6 2 -1 113.86 109.55 1.85 o
7 2 1 8.82 7.83 0.26 o
-7 2 -1 8.86 8.46 0.17 o
8 2 1 3.72 3.41 0.18 o
-8 2 -1 3.72 3.36 0.12 o
9 2 1 41.57 40.38 1.34 o
-9 2 -1 41.52 43.60 0.83 o
10 2 1 10.61 10.88 0.47 o
-10 2 -1 10.64 10.51 0.27 o
11 2 1 5.90 6.86 0.35 o
-11 2 -1 5.89 6.55 0.26 o
12 2 1 1.36 1.55 0.30 o
-12 2 -1 1.36 1.37 0.23 o
13 2 1 1.00 1.02 0.59 <
-13 2 -1 1.00 0.73 0.25 <
14 2 1 2.13 0.79 0.67 <
-14 2 -1 2.14 2.43 0.70 o
15 2 1 0.38 0.28 1.05 <
-14 3 1 1.63 1.37 0.41 o
-13 3 1 1.58 1.29 0.37 o
13 3 -1 1.58 -0.38 0.90 <
-12 3 1 2.18 2.50 0.24 o
12 3 -1 2.18 2.18 0.73 <
-11 3 1 0.31 0.50 0.20 <
11 3 -1 0.30 0.14 0.44 <
-10 3 1 1.31 1.32 0.18 o
10 3 -1 1.31 1.16 0.35 o
-9 3 1 8.57 8.77 0.24 o
9 3 -1 8.56 8.55 0.34 o
-8 3 1 6.97 6.66 0.19 o
8 3 -1 6.98 6.91 0.25 o
-7 3 1 2.40 2.47 0.11 o
7 3 -1 2.39 2.24 0.14 o
-6 3 1 2.08 2.36 0.09 o
6 3 -1 2.08 2.30 0.13 o
-5 3 1 5.96 6.85 0.16 o
5 3 -1 5.97 6.62 0.22 o
-4 3 1 2.01 2.07 0.08 o
4 3 -1 2.02 1.74 0.10 o
-3 3 1 4.09 4.59 0.12 o
3 3 -1 4.08 4.42 0.13 o
-2 3 1 62.09 72.76 1.63 o
2 3 -1 62.13 72.52 1.87 o
-1 3 1 1.16 0.89 0.06 o
1 3 -1 1.15 0.95 0.07 o
0 3 1 5.38 5.21 0.15 o
0 3 -1 5.42 5.03 0.13 o
1 3 1 45.44 47.59 1.24 o
-1 3 -1 45.43 48.19 0.97 o
2 3 1 28.65 29.67 0.79 o
-2 3 -1 28.68 30.20 0.62 o
3 3 1 25.41 27.19 0.89 o
-3 3 -1 25.40 27.46 0.57 o
4 3 1 21.40 21.37 0.50 o
-4 3 -1 21.44 22.10 0.39 o
5 3 1 9.47 9.03 0.28 o
-5 3 -1 9.44 9.11 0.18 o
6 3 1 2.86 3.44 0.20 o
-6 3 -1 2.85 3.38 0.11 o
7 3 1 27.59 25.25 0.86 o
-7 3 -1 27.62 26.31 0.51 o
8 3 1 28.25 28.69 0.98 o
-8 3 -1 28.21 29.41 0.58 o
9 3 1 21.45 22.10 0.82 o
-9 3 -1 21.47 22.88 0.47 o
10 3 1 1.49 0.75 0.30 <
-10 3 -1 1.49 1.41 0.17 o
11 3 1 0.57 0.92 0.37 <
-11 3 -1 0.56 0.64 0.20 o
12 3 1 5.65 5.68 0.61 o
-12 3 -1 5.66 5.98 0.28 o
13 3 1 0.17 0.48 0.65 <
-13 3 -1 0.17 -0.55 0.56 <
14 3 1 0.63 1.08 0.82 <
-14 3 -1 0.63 0.12 0.95 <
-13 4 1 0.33 0.42 0.53 <
-12 4 1 0.28 0.53 0.40 <
-11 4 1 0.28 0.34 0.38 <
11 4 -1 0.29 -0.31 0.51 <
-10 4 1 0.23 0.09 0.24 <
10 4 -1 0.23 0.02 0.50 <
-9 4 1 1.25 0.93 0.19 o
9 4 -1 1.25 0.71 0.28 <
-8 4 1 7.26 6.50 0.22 o
8 4 -1 7.27 6.22 0.34 o
-7 4 1 1.24 1.38 0.16 o
7 4 -1 1.24 1.27 0.32 o
-6 4 1 2.91 3.33 0.13 o
6 4 -1 2.91 2.76 0.21 o
-5 4 1 9.73 9.44 0.27 o
5 4 -1 9.73 9.47 0.39 o
-4 4 1 3.32 3.25 0.13 o
4 4 -1 3.32 2.89 0.19 o
-3 4 1 9.49 9.70 0.24 o
3 4 -1 9.47 9.93 0.38 o
-2 4 1 2.21 2.58 0.12 o
2 4 -1 2.21 2.30 0.15 o
-1 4 1 1.70 1.47 0.12 o
1 4 -1 1.70 1.51 0.13 o
0 4 1 1.98 2.04 0.14 o
0 4 -1 1.98 2.02 0.09 o
1 4 1 2.53 2.60 0.14 o
-1 4 -1 2.53 2.58 0.12 o
2 4 1 3.62 3.55 0.17 o
-2 4 -1 3.63 3.58 0.13 o
3 4 1 1.72 1.68 0.20 o
-3 4 -1 1.73 1.92 0.11 o
4 4 1 1.05 1.63 0.23 o
-4 4 -1 1.05 1.11 0.10 o
5 4 1 1.76 2.25 0.21 o
-5 4 -1 1.76 1.72 0.10 o
6 4 1 0.65 0.89 0.24 o
-6 4 -1 0.65 0.47 0.10 o
7 4 1 0.45 -0.06 0.33 <
-7 4 -1 0.45 0.48 0.12 o
8 4 1 3.08 3.89 0.32 o
-8 4 -1 3.09 4.11 0.17 o
9 4 1 1.76 1.72 0.46 o
-9 4 -1 1.76 1.94 0.20 o
10 4 1 2.80 2.39 0.70 o
-10 4 -1 2.80 3.31 0.26 o
-11 4 -1 0.78 1.35 0.33 o
-12 4 -1 0.36 0.28 0.48 <
-13 4 -1 1.62 1.68 1.03 <
-12 5 1 1.60 1.97 0.63 o
-11 5 1 0.31 0.62 0.41 <
11 5 -1 0.32 0.55 1.33 <
-10 5 1 0.22 0.60 0.30 <
10 5 -1 0.22 -0.08 0.90 <
-9 5 1 4.90 4.04 0.22 o
9 5 -1 4.90 4.11 0.48 o
-8 5 1 1.82 1.85 0.17 o
8 5 -1 1.83 2.50 0.72 o
-7 5 1 0.86 0.82 0.18 o
7 5 -1 0.85 0.32 0.32 <
-6 5 1 4.95 5.11 0.20 o
6 5 -1 4.93 4.58 0.37 o
-5 5 1 4.09 3.79 0.22 o
5 5 -1 4.09 3.69 0.21 o
-4 5 1 3.51 3.12 0.20 o
4 5 -1 3.52 3.15 0.26 o
-3 5 1 4.47 4.32 0.20 o
3 5 -1 4.45 4.11 0.24 o
-2 5 1 8.69 8.47 0.29 o
2 5 -1 8.69 8.58 0.32 o
-1 5 1 1.94 1.66 0.17 o
1 5 -1 1.95 1.67 0.15 o
0 5 1 1.35 0.79 0.21 o
0 5 -1 1.33 1.55 0.15 o
1 5 1 4.86 4.36 0.26 o
-1 5 -1 4.86 4.46 0.18 o
2 5 1 0.60 1.05 0.23 o
-2 5 -1 0.60 0.72 0.21 o
3 5 1 1.03 1.11 0.40 <
-3 5 -1 1.02 1.25 0.15 o
4 5 1 0.44 0.64 0.34 <
-4 5 -1 0.44 0.63 0.11 o
5 5 1 4.64 4.09 0.37 o
-5 5 -1 4.62 4.20 0.16 o
6 5 1 0.04 0.27 0.26 <
-6 5 -1 0.04 0.16 0.21 <
7 5 1 4.00 3.97 0.45 o
-7 5 -1 4.01 4.85 0.25 o
8 5 1 7.77 6.05 0.79 o
-8 5 -1 7.76 7.76 0.29 o
9 5 1 2.24 2.49 0.79 o
-9 5 -1 2.24 2.36 0.31 o
-10 5 -1 0.96 1.27 0.30 o
-12 5 -1 0.72 0.64 0.89 <
-11 6 1 0.12 0.98 1.33 <
-10 6 1 0.71 0.19 0.58 <
10 6 -1 0.70 -0.22 1.53 <
-9 6 1 4.13 3.61 0.27 o
9 6 -1 4.13 3.64 1.12 o
-8 6 1 0.22 0.25 0.27 <
8 6 -1 0.22 0.63 0.79 <
-7 6 1 0.85 0.50 0.24 <
7 6 -1 0.85 0.35 0.71 <
-6 6 1 0.36 0.02 0.21 <
6 6 -1 0.36 0.49 0.38 <
-5 6 1 0.63 0.42 0.15 <
5 6 -1 0.63 0.67 0.44 <
-4 6 1 2.17 1.55 0.24 o
4 6 -1 2.17 2.49 0.31 o
-3 6 1 1.87 1.29 0.23 o
3 6 -1 1.87 1.88 0.26 o
-2 6 1 11.00 10.99 0.38 o
2 6 -1 10.98 9.81 0.35 o
-1 6 1 1.89 1.82 0.24 o
1 6 -1 1.90 1.54 0.21 o
0 6 1 0.26 0.63 0.23 <
0 6 -1 0.26 0.19 0.26 <
1 6 1 5.24 5.68 0.35 o
-1 6 -1 5.23 4.89 0.23 o
2 6 1 2.80 1.73 0.33 o
-2 6 -1 2.80 2.38 0.20 o
3 6 1 0.27 -0.09 0.52 <
-3 6 -1 0.27 0.26 0.17 <
4 6 1 0.56 0.43 0.49 <
-4 6 -1 0.56 0.54 0.19 <
5 6 1 0.22 0.35 0.38 <
-5 6 -1 0.22 -0.21 0.18 <
6 6 1 0.60 1.40 0.48 <
-6 6 -1 0.60 0.28 0.24 <
7 6 1 0.79 0.80 0.70 <
-7 6 -1 0.79 0.84 0.24 o
8 6 1 0.31 0.43 1.10 <
-8 6 -1 0.31 0.25 0.28 <
-9 6 -1 0.17 -0.48 0.56 <
-10 6 -1 0.15 1.25 0.81 <
-8 7 1 0.26 0.58 0.74 <
8 7 -1 0.26 -0.46 0.95 <
-7 7 1 0.23 0.30 0.43 <
7 7 -1 0.23 0.40 0.86 <
-6 7 1 0.35 0.01 0.33 <
6 7 -1 0.35 0.09 1.01 <
-5 7 1 0.45 0.51 0.30 <
5 7 -1 0.45 0.13 0.73 <
-4 7 1 0.28 0.49 0.29 <
4 7 -1 0.28 -0.12 0.47 <
-3 7 1 0.19 -0.02 0.25 <
3 7 -1 0.19 -0.23 0.43 <
-2 7 1 0.06 -0.43 0.34 <
2 7 -1 0.06 0.12 0.48 <
-1 7 1 0.81 0.60 0.39 <
1 7 -1 0.81 -0.17 0.35 <
0 7 1 0.20 -0.04 0.24 <
0 7 -1 0.20 0.01 0.28 <
1 7 1 0.56 1.10 0.40 <
-1 7 -1 0.56 0.51 0.33 <
2 7 1 0.29 -0.07 0.41 <
-2 7 -1 0.29 0.36 0.21 <
3 7 1 0.36 0.24 0.38 <
-3 7 -1 0.36 0.17 0.27 <
4 7 1 0.11 0.47 0.32 <
-4 7 -1 0.12 0.00 0.30 <
5 7 1 0.19 -0.30 1.06 <
-5 7 -1 0.19 0.47 0.32 <
6 7 1 0.11 1.33 1.51 <
-6 7 -1 0.11 -0.06 0.39 <
7 7 1 0.03 0.58 1.17 <
-7 7 -1 0.03 0.20 0.56 <
-8 7 -1 0.22 -0.09 1.24 <
-4 8 1 0.10 0.47 1.21 <
-3 8 1 0.04 -0.12 0.70 <
-2 8 1 0.13 0.17 0.40 <
2 8 -1 0.13 0.25 0.83 <
-1 8 1 0.17 -0.64 0.37 <
1 8 -1 0.17 0.05 0.52 <
0 8 1 0.61 0.84 0.68 <
0 8 -1 0.61 0.27 0.86 <
1 8 1 0.97 0.48 0.68 <
-1 8 -1 0.97 0.87 0.67 <
-2 8 -1 0.50 -0.66 0.63 <
-3 8 -1 0.13 -0.45 0.83 <
-4 8 -1 0.73 1.54 1.23 <
-15 0 2 2.99 1.86 0.44 o
15 0 -2 2.98 3.89 0.54 o
-14 0 2 13.43 14.17 0.63 o
14 0 -2 13.43 13.57 0.82 o
-13 0 2 10.78 11.03 0.48 o
13 0 -2 10.78 9.84 0.64 o
-12 0 2 3.91 4.85 0.32 o
12 0 -2 3.90 4.52 0.41 o
-11 0 2 115.32 126.12 4.02 o
11 0 -2 115.32 116.71 3.72 o
-10 0 2 6.72 6.34 0.29 o
10 0 -2 6.75 6.43 0.31 o
-9 0 2 10.45 11.56 0.43 o
9 0 -2 10.49 11.60 0.44 o
-8 0 2 54.42 51.55 1.66 o
8 0 -2 54.39 47.60 1.54 o
-7 0 2 19.40 13.56 0.38 o
7 0 -2 19.48 12.72 0.45 o
-6 0 2 42.39 41.02 1.08 o
6 0 -2 42.32 39.96 1.05 o
-5 0 2 16.44 15.56 0.52 o
5 0 -2 16.50 15.55 0.42 o
-4 0 2 243.81 291.19 12.88 o
4 0 -2 243.49 277.55 8.66 o
-3 0 2 108.16 119.60 5.30 o
3 0 -2 108.27 119.56 5.28 o
-2 0 2 238.78 257.33 11.33 o
2 0 -2 238.17 261.54 11.51 o
2 0 2 57.00 63.68 2.82 o
3 0 2 108.56 111.07 4.91 o
4 0 2 45.78 39.92 1.26 o
-4 0 -2 45.74 41.78 0.94 o
5 0 2 196.15 179.26 5.61 o
-5 0 -2 196.27 185.83 4.11 o
6 0 2 6.65 7.12 0.26 o
-6 0 -2 6.62 7.55 0.20 o
7 0 2 11.44 10.39 0.38 o
-7 0 -2 11.50 11.27 0.29 o
8 0 2 40.40 37.70 1.76 o
-8 0 -2 40.44 39.58 1.05 o
9 0 2 10.98 10.21 0.58 o
-9 0 -2 10.99 11.47 0.35 o
10 0 2 6.73 6.66 0.46 o
-10 0 -2 6.77 7.60 0.34 o
11 0 2 5.75 5.06 0.45 o
-11 0 -2 5.76 5.94 0.31 o
12 0 2 6.83 6.37 0.49 o
-12 0 -2 6.82 7.53 0.41 o
13 0 2 2.26 1.98 0.57 o
-13 0 -2 2.27 2.19 0.40 o
14 0 2 0.14 0.42 0.85 <
-14 0 -2 0.14 -0.27 0.56 <
15 0 2 8.79 7.64 1.19 o
-15 0 -2 8.78 7.77 1.24 o
-15 1 2 1.33 1.19 0.41 <
15 1 -2 1.32 1.35 0.62 <
-14 1 2 4.93 4.83 0.32 o
14 1 -2 4.92 4.60 0.40 o
-13 1 2 4.94 5.23 0.24 o
13 1 -2 4.95 5.12 0.40 o
-12 1 2 9.78 10.47 0.33 o
12 1 -2 9.77 10.61 0.47 o
-11 1 2 4.27 4.35 0.19 o
11 1 -2 4.27 4.88 0.29 o
-10 1 2 27.24 29.74 0.72 o
10 1 -2 27.28 28.00 0.69 o
-9 1 2 4.90 4.80 0.16 o
9 1 -2 4.87 4.86 0.17 o
-8 1 2 7.41 7.07 0.17 o
8 1 -2 7.44 6.77 0.20 o
-7 1 2 2.52 2.23 0.08 o
7 1 -2 2.53 1.92 0.10 o
-6 1 2 9.90 11.69 0.23 o
6 1 -2 9.89 11.15 0.23 o
-5 1 2 28.15 32.32 0.60 o
5 1 -2 28.09 32.02 0.59 o
-4 1 2 78.93 92.11 2.36 o
4 1 -2 78.87 91.42 1.82 o
-3 1 2 99.41 112.70 4.98 o
3 1 -2 99.30 111.52 4.94 o
-2 1 2 30.27 36.34 1.63 o
2 1 -2 30.26 37.12 1.66 o
1 1 -2 1202.59 1267.69 55.83 o
0 1 2 2.00 4.32 0.21 o
1 1 2 34.09 39.71 1.76 o
-1 1 -2 34.03 40.15 1.78 o
2 1 2 23.25 26.26 1.17 o
-2 1 -2 23.24 26.28 1.18 o
3 1 2 10.41 11.61 0.53 o
-3 1 -2 10.40 11.64 0.21 o
4 1 2 6.12 5.35 0.19 o
-4 1 -2 6.12 5.66 0.09 o
5 1 2 30.87 28.00 0.64 o
-5 1 -2 30.88 29.09 0.42 o
6 1 2 62.66 54.55 1.10 o
-6 1 -2 62.72 57.04 0.85 o
7 1 2 7.74 7.38 0.29 o
-7 1 -2 7.73 7.59 0.15 o
8 1 2 11.26 11.77 0.44 o
-8 1 -2 11.28 12.13 0.24 o
9 1 2 21.69 19.77 0.71 o
-9 1 -2 21.73 21.43 0.47 o
10 1 2 1.31 1.74 0.22 o
-10 1 -2 1.31 1.14 0.16 o
11 1 2 1.08 1.32 0.29 o
-11 1 -2 1.09 1.43 0.18 o
12 1 2 0.32 -0.17 0.35 <
-12 1 -2 0.32 0.13 0.18 <
13 1 2 0.15 0.25 0.49 <
-13 1 -2 0.15 0.20 0.38 <
14 1 2 1.14 1.56 1.39 <
-14 1 -2 1.14 0.93 0.48 <
15 1 2 3.33 2.77 1.25 <
-15 2 2 1.63 1.74 0.60 <
15 2 -2 1.63 1.75 1.13 <
-14 2 2 0.54 0.14 0.37 <
14 2 -2 0.54 0.53 0.68 <
-13 2 2 3.32 3.71 0.28 o
13 2 -2 3.32 4.58 0.45 o
-12 2 2 8.32 8.81 0.30 o
12 2 -2 8.31 8.70 0.51 o
-11 2 2 2.30 2.32 0.17 o
11 2 -2 2.30 1.59 0.23 o
-10 2 2 5.45 5.53 0.20 o
10 2 -2 5.46 5.41 0.23 o
-9 2 2 2.48 2.70 0.12 o
9 2 -2 2.48 2.41 0.15 o
-8 2 2 5.26 5.44 0.16 o
8 2 -2 5.26 5.11 0.18 o
-7 2 2 9.74 9.45 0.21 o
7 2 -2 9.74 8.92 0.24 o
-6 2 2 8.54 8.59 0.18 o
6 2 -2 8.56 8.75 0.23 o
-5 2 2 33.89 39.51 0.73 o
5 2 -2 33.89 38.43 0.78 o
-4 2 2 22.37 23.33 0.48 o
4 2 -2 22.37 23.06 0.48 o
-3 2 2 3.11 3.47 0.10 o
3 2 -2 3.10 3.36 0.12 o
-2 2 2 392.75 446.42 11.39 o
2 2 -2 392.88 449.13 11.45 o
-1 2 2 68.06 81.85 2.57 o
1 2 -2 68.04 82.62 2.12 o
0 2 2 38.90 44.85 2.01 o
0 2 -2 38.90 44.42 0.99 o
1 2 2 102.17 103.81 4.61 o
-1 2 -2 102.21 103.78 2.06 o
-2 2 -2 130.16 149.49 2.70 o
3 2 2 44.30 46.07 1.46 o
-3 2 -2 44.24 45.78 0.73 o
4 2 2 2.02 2.16 0.16 o
-4 2 -2 2.01 2.00 0.06 o
5 2 2 1.17 0.62 0.10 o
-5 2 -2 1.16 0.69 0.05 o
6 2 2 32.10 29.85 0.69 o
-6 2 -2 32.08 32.29 0.50 o
7 2 2 12.28 10.89 0.34 o
-7 2 -2 12.27 11.02 0.20 o
8 2 2 9.07 8.53 0.35 o
-8 2 -2 9.07 8.50 0.18 o
9 2 2 13.54 13.12 0.51 o
-9 2 -2 13.55 14.84 0.35 o
10 2 2 7.26 5.82 0.35 o
-10 2 -2 7.25 6.81 0.21 o
11 2 2 0.03 0.75 0.36 <
-11 2 -2 0.03 0.03 0.16 <
12 2 2 3.84 3.54 0.77 o
-12 2 -2 3.84 4.21 0.28 o
13 2 2 0.14 0.38 0.40 <
-13 2 -2 0.14 0.61 0.43 <
14 2 2 0.68 0.18 0.90 <
-14 2 -2 0.68 0.38 0.58 <
-14 3 2 0.14 0.05 0.57 <
14 3 -2 0.14 0.33 0.83 <
-13 3 2 1.86 1.94 0.39 o
13 3 -2 1.85 2.10 0.60 o
-12 3 2 1.87 1.55 0.27 o
12 3 -2 1.87 1.40 0.58 <
-11 3 2 1.40 1.48 0.24 o
11 3 -2 1.39 2.57 0.49 o
-10 3 2 1.14 0.80 0.21 o
10 3 -2 1.15 1.50 0.31 o
-9 3 2 1.45 1.66 0.15 o
9 3 -2 1.43 1.82 0.23 o
-8 3 2 1.53 1.66 0.12 o
8 3 -2 1.53 1.35 0.12 o
-7 3 2 11.33 11.97 0.28 o
7 3 -2 11.31 11.54 0.31 o
-6 3 2 30.17 29.58 0.57 o
6 3 -2 30.17 29.22 0.68 o
-5 3 2 10.06 10.22 0.24 o
5 3 -2 10.07 9.83 0.23 o
-4 3 2 33.75 36.99 0.76 o
4 3 -2 33.73 34.96 0.81 o
-3 3 2 57.38 64.38 1.29 o
3 3 -2 57.39 65.23 2.08 o
-2 3 2 100.37 110.36 2.47 o
2 3 -2 100.48 108.44 2.79 o
-1 3 2 19.62 23.20 0.48 o
1 3 -2 19.59 23.24 0.44 o
0 3 2 27.45 30.59 0.70 o
0 3 -2 27.50 30.34 0.62 o
1 3 2 16.36 17.66 0.42 o
-1 3 -2 16.40 17.82 0.38 o
2 3 2 3.73 3.81 0.18 o
-2 3 -2 3.71 3.58 0.10 o
3 3 2 0.65 0.64 0.25 <
-3 3 -2 0.63 0.69 0.06 o
4 3 2 3.72 4.19 0.28 o
-4 3 -2 3.71 3.75 0.09 o
5 3 2 33.14 31.17 1.03 o
-5 3 -2 33.12 31.47 0.52 o
6 3 2 5.19 6.04 0.29 o
-6 3 -2 5.17 5.81 0.14 o
7 3 2 24.54 22.83 0.79 o
-7 3 -2 24.50 23.43 0.43 o
8 3 2 24.60 25.70 1.27 o
-8 3 -2 24.60 25.81 0.47 o
9 3 2 2.02 1.98 0.31 o
-9 3 -2 2.02 2.03 0.14 o
10 3 2 11.93 11.83 0.77 o
-10 3 -2 11.92 11.75 0.30 o
11 3 2 3.12 3.31 0.69 o
-11 3 -2 3.12 2.72 0.22 o
12 3 2 4.70 4.58 0.66 o
-12 3 -2 4.70 4.90 0.37 o
13 3 2 0.22 -0.22 0.63 <
-13 3 -2 0.22 0.29 0.55 <
-14 4 2 0.06 1.26 1.19 <
-13 4 2 0.19 0.16 0.40 <
-12 4 2 1.43 0.96 0.41 <
12 4 -2 1.43 2.39 1.08 <
-11 4 2 1.68 2.29 0.21 o
11 4 -2 1.68 2.30 1.12 <
-10 4 2 0.02 0.02 0.21 <
10 4 -2 0.02 -0.34 0.54 <
-9 4 2 0.06 0.35 0.21 <
9 4 -2 0.06 0.18 0.24 <
-8 4 2 3.34 3.94 0.19 o
8 4 -2 3.32 2.87 0.26 o
-7 4 2 6.28 6.71 0.22 o
7 4 -2 6.27 6.02 0.37 o
-6 4 2 10.26 10.37 0.29 o
6 4 -2 10.27 9.21 0.35 o
-5 4 2 9.77 9.48 0.31 o
5 4 -2 9.79 9.52 0.31 o
-4 4 2 5.40 5.00 0.20 o
4 4 -2 5.37 5.02 0.19 o
-3 4 2 102.61 104.94 2.72 o
3 4 -2 102.69 103.73 2.69 o
-2 4 2 3.94 4.19 0.16 o
2 4 -2 3.94 4.67 0.16 o
-1 4 2 4.39 4.92 0.16 o
1 4 -2 4.43 4.81 0.15 o
0 4 2 30.34 31.06 0.72 o
0 4 -2 30.35 31.21 0.65 o
1 4 2 15.67 17.07 0.42 o
-1 4 -2 15.70 16.98 0.38 o
2 4 2 6.52 7.25 0.30 o
-2 4 -2 6.51 7.12 0.18 o
3 4 2 2.57 2.84 0.20 o
-3 4 -2 2.59 2.81 0.11 o
4 4 2 21.59 21.81 0.74 o
-4 4 -2 21.54 21.26 0.39 o
5 4 2 2.52 2.31 0.27 o
-5 4 -2 2.54 2.27 0.11 o
6 4 2 3.43 2.45 0.24 o
-6 4 -2 3.41 2.85 0.13 o
7 4 2 25.14 24.36 0.86 o
-7 4 -2 25.11 26.60 0.58 o
8 4 2 24.87 22.39 0.85 o
-8 4 -2 24.89 25.03 0.51 o
9 4 2 3.15 2.32 0.47 o
-9 4 -2 3.14 2.22 0.20 o
10 4 2 0.90 0.80 0.73 <
-10 4 -2 0.90 1.22 0.28 o
-11 4 -2 7.81 8.04 0.51 o
-12 4 -2 0.61 0.53 0.68 <
-13 4 -2 0.60 0.03 1.22 <
-12 5 2 0.46 0.21 0.73 <
12 5 -2 0.46 0.85 1.27 <
-11 5 2 0.24 0.21 0.44 <
11 5 -2 0.24 0.51 0.84 <
-10 5 2 1.43 1.86 0.34 o
10 5 -2 1.43 0.36 0.66 <
-9 5 2 4.93 4.58 0.29 o
9 5 -2 4.94 5.10 0.72 o
-8 5 2 4.97 4.94 0.22 o
8 5 -2 4.96 5.31 0.58 o
-7 5 2 0.02 -0.05 0.22 <
7 5 -2 0.02 -0.27 0.35 <
-6 5 2 1.75 1.80 0.16 o
6 5 -2 1.75 1.91 0.28 o
-5 5 2 3.87 3.99 0.21 o
5 5 -2 3.87 3.50 0.29 o
-4 5 2 5.29 5.66 0.25 o
4 5 -2 5.29 4.80 0.23 o
-3 5 2 2.24 2.11 0.15 o
3 5 -2 2.24 2.23 0.19 o
-2 5 2 10.07 9.14 0.32 o
2 5 -2 10.10 9.28 0.31 o
-1 5 2 0.76 0.09 0.60 <
1 5 -2 0.76 0.54 0.16 o
0 5 2 2.11 2.05 0.20 o
0 5 -2 2.12 2.14 0.15 o
1 5 2 0.86 0.68 0.18 o
-1 5 -2 0.87 0.87 0.14 o
2 5 2 0.89 1.02 0.31 o
-2 5 -2 0.90 0.88 0.11 o
3 5 2 3.31 3.57 0.32 o
-3 5 -2 3.30 2.96 0.14 o
4 5 2 0.95 0.83 0.33 <
-4 5 -2 0.95 0.63 0.14 o
5 5 2 0.94 1.11 0.38 <
-5 5 -2 0.94 0.64 0.13 o
-6 5 -2 1.75 1.72 0.17 o
7 5 2 12.87 11.80 0.86 o
-7 5 -2 12.87 12.62 0.33 o
8 5 2 0.40 0.94 1.02 <
-8 5 -2 0.40 1.14 0.28 o
-9 5 -2 3.31 3.29 0.33 o
-10 5 -2 1.35 1.04 0.43 <
-11 5 -2 0.58 0.79 0.75 <
-12 5 -2 0.70 -0.80 1.08 <
-11 6 2 0.11 1.10 0.73 <
-10 6 2 0.48 0.04 0.35 <
10 6 -2 0.48 0.19 1.03 <
-9 6 2 0.22 0.90 0.43 <
9 6 -2 0.22 -0.14 0.83 <
-8 6 2 0.13 -0.51 0.22 <
8 6 -2 0.13 0.49 0.45 <
-7 6 2 0.10 0.15 0.22 <
7 6 -2 0.10 0.80 0.32 <
-6 6 2 2.67 2.79 0.26 o
6 6 -2 2.67 3.31 0.57 o
-5 6 2 2.04 2.24 0.21 o
5 6 -2 2.04 2.48 0.33 o
-4 6 2 0.51 0.63 0.24 <
4 6 -2 0.51 0.32 0.31 <
-3 6 2 0.27 -0.17 0.28 <
3 6 -2 0.27 0.35 0.21 <
-2 6 2 1.19 1.02 0.22 o
2 6 -2 1.19 1.06 0.18 o
-1 6 2 2.25 1.85 0.34 o
1 6 -2 2.24 2.08 0.19 o
0 6 2 3.04 2.66 0.32 o
0 6 -2 3.04 2.94 0.23 o
1 6 2 0.56 0.26 0.46 <
-1 6 -2 0.56 0.56 0.20 <
2 6 2 0.10 0.38 0.43 <
-2 6 -2 0.10 0.00 0.19 <
3 6 2 2.20 3.13 0.37 o
-3 6 -2 2.19 2.31 0.17 o
4 6 2 2.21 2.24 0.58 o
-4 6 -2 2.21 1.89 0.18 o
5 6 2 0.30 0.77 0.62 <
-5 6 -2 0.30 0.20 0.21 <
6 6 2 0.95 1.92 0.80 <
-6 6 -2 0.95 1.16 0.30 o
7 6 2 0.40 0.15 1.07 <
-7 6 -2 0.40 0.76 0.25 o
-8 6 -2 1.50 1.26 0.35 o
-9 6 -2 0.23 0.65 0.60 <
-10 6 -2 1.97 2.75 1.15 <
-8 7 2 0.22 -0.20 0.58 <
8 7 -2 0.22 0.52 1.03 <
-7 7 2 0.79 0.25 0.41 <
7 7 -2 0.79 1.39 0.93 <
-6 7 2 0.50 0.49 0.33 <
6 7 -2 0.50 0.59 0.63 <
-5 7 2 0.17 0.29 0.35 <
5 7 -2 0.17 -0.55 0.70 <
-4 7 2 0.09 0.26 0.31 <
4 7 -2 0.09 0.70 0.70 <
-3 7 2 0.33 0.13 0.29 <
3 7 -2 0.33 0.31 0.36 <
-2 7 2 0.29 1.09 0.49 <
2 7 -2 0.30 0.27 0.31 <
-1 7 2 0.57 0.16 0.41 <
1 7 -2 0.57 0.09 0.29 <
0 7 2 2.98 0.94 0.59 <
0 7 -2 2.98 2.51 0.30 o
1 7 2 2.60 3.14 0.49 o
-1 7 -2 2.60 3.11 0.27 o
2 7 2 0.39 0.79 0.39 <
-2 7 -2 0.39 0.32 0.22 <
3 7 2 0.61 0.16 0.52 <
-3 7 -2 0.61 0.63 0.30 <
4 7 2 4.95 3.37 0.74 o
-4 7 -2 4.95 4.13 0.29 o
-5 7 -2 0.50 0.04 0.33 <
6 7 2 0.19 -0.23 1.33 <
-6 7 -2 0.18 -0.13 0.46 <
-7 7 -2 0.96 0.49 0.67 <
-4 8 2 0.28 -0.34 0.98 <
-3 8 2 0.29 0.55 1.06 <
-2 8 2 0.12 -0.16 0.56 <
2 8 -2 0.12 -0.40 0.69 <
-1 8 2 0.20 0.52 0.53 <
1 8 -2 0.20 -0.22 0.57 <
0 8 2 0.47 -1.08 0.73 <
0 8 -2 0.47 0.57 0.87 <
1 8 2 0.29 -0.35 0.72 <
-1 8 -2 0.29 -0.46 0.89 <
-2 8 -2 0.27 -1.12 0.95 <
-3 8 -2 0.17 0.20 1.13 <
-4 8 -2 0.39 0.95 1.47 <
16 1 -3 0.93 0.71 1.96 <
-15 1 3 3.35 2.91 0.40 o
15 1 -3 3.36 2.47 0.72 o
-14 1 3 0.29 0.00 0.27 <
14 1 -3 0.29 0.05 0.40 <
-13 1 3 0.58 0.63 0.21 o
13 1 -3 0.58 0.70 0.34 <
-12 1 3 24.95 27.35 0.68 o
12 1 -3 24.95 25.66 0.75 o
-11 1 3 15.21 15.51 0.42 o
11 1 -3 15.24 14.93 0.43 o
-10 1 3 6.55 6.74 0.22 o
10 1 -3 6.55 6.24 0.21 o
-9 1 3 8.87 8.61 0.22 o
9 1 -3 8.86 8.38 0.25 o
-8 1 3 16.15 15.25 0.34 o
8 1 -3 16.19 14.85 0.37 o
-7 1 3 9.88 9.37 0.20 o
7 1 -3 9.88 9.25 0.24 o
-6 1 3 2.07 1.63 0.06 o
6 1 -3 2.06 1.59 0.06 o
-5 1 3 28.30 29.56 0.60 o
5 1 -3 28.27 28.62 0.53 o
-4 1 3 20.93 23.96 0.55 o
4 1 -3 20.97 23.78 0.44 o
-3 1 3 43.76 48.27 1.53 o
3 1 -3 43.68 49.07 1.55 o
-2 1 3 48.05 56.44 2.51 o
2 1 -3 48.05 57.40 2.55 o
-1 1 3 130.99 142.29 6.30 o
1 1 -3 130.94 136.70 6.04 o
0 1 3 233.69 264.49 11.67 o
-1 1 -3 40.04 41.91 1.86 o
-2 1 -3 233.94 250.01 6.40 o
3 1 3 27.11 28.34 1.27 o
-3 1 -3 27.11 28.77 0.43 o
4 1 3 63.68 55.48 1.75 o
-4 1 -3 63.75 57.52 0.86 o
5 1 3 116.59 112.07 2.87 o
-5 1 -3 116.46 114.52 1.61 o
6 1 3 29.49 27.57 0.64 o
-6 1 -3 29.53 28.60 0.44 o
7 1 3 0.22 -0.11 0.11 <
-7 1 -3 0.23 0.31 0.06 o
8 1 3 9.99 9.59 0.38 o
-8 1 -3 9.96 10.00 0.21 o
9 1 3 7.51 7.28 0.35 o
-9 1 -3 7.52 7.39 0.19 o
10 1 3 2.27 2.60 0.33 o
-10 1 -3 2.27 3.03 0.16 o
11 1 3 3.13 2.96 0.33 o
-11 1 -3 3.13 3.30 0.21 o
12 1 3 1.25 1.07 0.32 o
-12 1 -3 1.26 1.09 0.31 o
13 1 3 0.96 0.24 0.78 <
-13 1 -3 0.96 0.71 0.53 <
14 1 3 1.04 2.81 0.59 o
-14 1 -3 1.04 0.79 0.65 <
-15 2 3 0.75 -0.01 0.54 <
15 2 -3 0.75 0.71 0.52 <
-14 2 3 1.05 1.22 0.34 o
14 2 -3 1.06 0.80 0.41 <
-13 2 3 5.87 6.11 0.31 o
13 2 -3 5.85 6.88 0.45 o
-12 2 3 9.26 9.54 0.31 o
12 2 -3 9.29 8.80 0.38 o
-11 2 3 1.68 2.12 0.19 o
11 2 -3 1.68 1.94 0.24 o
-10 2 3 0.48 0.39 0.14 <
10 2 -3 0.46 0.67 0.20 o
-9 2 3 10.20 10.23 0.29 o
9 2 -3 10.23 9.62 0.28 o
-8 2 3 3.95 4.58 0.13 o
8 2 -3 3.94 4.46 0.15 o
-7 2 3 15.48 15.20 0.31 o
7 2 -3 15.50 14.76 0.37 o
-6 2 3 5.81 6.22 0.14 o
6 2 -3 5.81 5.98 0.17 o
-5 2 3 145.71 154.65 3.07 o
5 2 -3 145.63 149.17 2.96 o
-4 2 3 10.24 8.97 0.23 o
4 2 -3 10.31 8.61 0.17 o
-3 2 3 10.36 10.62 0.26 o
3 2 -3 10.36 10.56 0.23 o
-2 2 3 321.43 359.35 15.95 o
2 2 -3 321.13 365.66 11.43 o
-1 2 3 112.14 129.82 4.06 o
1 2 -3 112.34 132.04 2.62 o
0 2 3 74.80 76.46 3.40 o
0 2 -3 74.72 77.39 1.54 o
1 2 3 71.67 78.23 3.49 o
-1 2 -3 71.61 75.98 1.51 o
-2 2 -3 25.66 29.93 0.48 o
3 2 3 46.06 48.80 2.18 o
-3 2 -3 46.10 47.97 0.76 o
4 2 3 3.11 2.95 0.14 o
-4 2 -3 3.09 3.29 0.07 o
5 2 3 2.17 2.29 0.20 o
-5 2 -3 2.15 2.30 0.06 o
6 2 3 38.41 34.38 1.12 o
-6 2 -3 38.40 37.37 0.57 o
7 2 3 7.41 7.13 0.30 o
-7 2 -3 7.40 7.81 0.16 o
8 2 3 0.39 0.57 0.16 o
-8 2 -3 0.39 0.60 0.10 o
9 2 3 3.49 2.50 0.25 o
-9 2 -3 3.47 3.19 0.12 o
10 2 3 1.02 1.39 0.51 <
-10 2 -3 1.02 1.21 0.16 o
11 2 3 3.55 2.79 0.40 o
-11 2 -3 3.56 3.38 0.22 o
12 2 3 2.77 2.77 0.42 o
-12 2 -3 2.76 2.80 0.34 o
13 2 3 0.62 0.21 0.83 <
-13 2 -3 0.61 0.33 0.45 <
14 2 3 4.97 3.75 0.47 o
-14 2 -3 4.97 4.74 1.09 o
-15 3 3 0.47 0.54 1.49 <
-14 3 3 0.27 0.42 0.31 <
14 3 -3 0.27 0.78 1.29 <
-13 3 3 1.83 1.48 0.33 o
13 3 -3 1.83 1.41 0.72 <
-12 3 3 0.55 -0.20 0.18 <
12 3 -3 0.54 1.01 0.58 <
-11 3 3 1.58 1.44 0.22 o
11 3 -3 1.59 1.78 0.29 o
-10 3 3 4.53 4.75 0.28 o
10 3 -3 4.52 4.44 0.26 o
-9 3 3 5.00 5.09 0.18 o
9 3 -3 5.01 4.84 0.19 o
-8 3 3 4.81 5.09 0.19 o
8 3 -3 4.80 4.75 0.19 o
-7 3 3 10.25 10.66 0.26 o
7 3 -3 10.27 10.31 0.28 o
-6 3 3 8.23 8.84 0.24 o
6 3 -3 8.22 8.21 0.24 o
-5 3 3 2.73 2.44 0.10 o
5 3 -3 2.71 2.26 0.12 o
-4 3 3 70.12 71.07 1.43 o
4 3 -3 70.16 68.03 1.78 o
-3 3 3 69.65 81.18 1.82 o
3 3 -3 69.59 77.51 1.77 o
-2 3 3 106.64 120.98 2.69 o
2 3 -3 106.67 116.54 2.33 o
-1 3 3 17.83 17.26 0.41 o
1 3 -3 17.81 17.24 0.33 o
0 3 3 4.41 4.59 0.13 o
0 3 -3 4.41 4.50 0.11 o
1 3 3 81.54 88.52 1.99 o
-1 3 -3 81.53 86.61 1.95 o
2 3 3 0.87 1.19 0.14 o
-2 3 -3 0.87 1.13 0.05 o
3 3 3 10.97 11.73 0.59 o
-3 3 -3 10.96 11.65 0.21 o
4 3 3 0.34 0.00 0.16 <
-4 3 -3 0.35 0.29 0.06 o
5 3 3 8.05 7.62 0.43 o
-5 3 -3 8.04 7.51 0.15 o
6 3 3 0.98 1.02 0.15 o
-6 3 -3 0.98 0.96 0.08 o
7 3 3 0.68 0.88 0.22 o
-7 3 -3 0.68 0.63 0.09 o
8 3 3 7.00 7.42 0.49 o
-8 3 -3 6.99 7.20 0.19 o
9 3 3 1.93 2.04 0.34 o
-9 3 -3 1.93 2.12 0.15 o
10 3 3 0.97 0.87 0.34 <
-10 3 -3 0.97 0.88 0.23 o
11 3 3 0.80 0.27 0.35 <
-11 3 -3 0.80 1.10 0.29 o
12 3 3 1.21 0.58 0.54 <
-12 3 -3 1.21 1.41 0.41 o
13 3 3 3.14 2.47 0.84 <
-13 3 -3 3.14 2.85 0.69 o
-14 4 3 2.34 2.64 0.81 o
-13 4 3 0.48 -0.08 0.56 <
13 4 -3 0.48 0.41 1.15 <
-12 4 3 0.38 0.02 0.30 <
12 4 -3 0.38 0.91 0.87 <
-11 4 3 1.18 1.26 0.26 o
11 4 -3 1.18 0.85 0.82 <
-10 4 3 0.77 0.92 0.25 o
-9 4 3 2.00 2.14 0.24 o
9 4 -3 2.00 1.56 0.25 o
-8 4 3 1.42 1.44 0.14 o
8 4 -3 1.43 1.26 0.33 o
-7 4 3 1.33 1.32 0.12 o
7 4 -3 1.33 1.54 0.20 o
-6 4 3 4.96 5.70 0.22 o
6 4 -3 4.96 4.67 0.26 o
-5 4 3 2.16 1.81 0.13 o
5 4 -3 2.16 2.85 0.17 o
-4 4 3 4.91 5.39 0.21 o
4 4 -3 4.91 5.43 0.17 o
-3 4 3 18.85 20.42 0.50 o
3 4 -3 18.85 19.84 0.48 o
-2 4 3 3.90 4.33 0.16 o
2 4 -3 3.90 4.13 0.15 o
-1 4 3 3.51 3.59 0.13 o
1 4 -3 3.51 3.73 0.14 o
0 4 3 7.76 7.76 0.22 o
0 4 -3 7.75 7.90 0.21 o
1 4 3 3.63 3.87 0.16 o
-1 4 -3 3.62 3.80 0.11 o
2 4 3 7.54 7.53 0.33 o
-2 4 -3 7.54 7.07 0.16 o
3 4 3 0.61 0.70 0.24 <
-3 4 -3 0.61 0.20 0.10 <
4 4 3 5.66 6.13 0.40 o
-4 4 -3 5.67 6.06 0.16 o
5 4 3 0.62 0.73 0.21 o
-5 4 -3 0.62 0.40 0.10 o
6 4 3 2.84 2.65 0.30 o
-6 4 -3 2.84 2.73 0.15 o
7 4 3 9.74 9.36 0.45 o
-7 4 -3 9.73 10.27 0.25 o
8 4 3 6.66 7.58 0.62 o
-8 4 -3 6.66 7.58 0.21 o
9 4 3 3.57 4.05 0.45 o
-9 4 -3 3.56 3.84 0.21 o
10 4 3 0.52 -0.42 0.73 <
-10 4 -3 0.52 0.16 0.30 <
-11 4 -3 2.90 3.36 0.51 o
-12 4 -3 0.76 0.62 0.86 <
-13 5 3 1.69 1.91 0.95 <
-12 5 3 0.61 0.48 0.44 <
12 5 -3 0.61 0.15 0.98 <
-11 5 3 0.16 0.36 0.43 <
11 5 -3 0.15 0.47 1.06 <
-10 5 3 1.31 1.25 0.35 o
10 5 -3 1.31 1.23 0.57 <
-9 5 3 0.77 0.76 0.28 <
9 5 -3 0.77 1.55 0.62 <
-8 5 3 0.09 0.35 0.19 <
8 5 -3 0.09 0.11 0.35 <
-7 5 3 2.55 2.36 0.18 o
7 5 -3 2.55 2.87 0.35 o
-6 5 3 3.59 3.57 0.18 o
6 5 -3 3.57 3.47 0.22 o
-5 5 3 0.17 0.14 0.15 <
5 5 -3 0.17 0.89 0.22 o
-4 5 3 12.74 12.86 0.41 o
4 5 -3 12.76 12.57 0.40 o
-3 5 3 18.70 17.32 0.52 o
3 5 -3 18.68 18.55 0.55 o
-2 5 3 1.12 1.08 0.17 o
2 5 -3 1.11 1.31 0.15 o
-1 5 3 6.05 5.81 0.23 o
1 5 -3 6.05 6.12 0.20 o
0 5 3 7.82 7.28 0.32 o
0 5 -3 7.83 7.39 0.24 o
1 5 3 1.48 1.46 0.28 o
-1 5 -3 1.48 1.29 0.11 o
2 5 3 1.74 1.40 0.23 o
-2 5 -3 1.74 1.90 0.12 o
3 5 3 4.28 3.95 0.34 o
-3 5 -3 4.29 4.13 0.14 o
4 5 3 2.81 4.32 0.38 o
-4 5 -3 2.82 3.16 0.14 o
5 5 3 1.71 1.25 0.48 <
-5 5 -3 1.69 1.16 0.16 o
6 5 3 3.07 2.94 0.43 o
-6 5 -3 3.08 3.26 0.15 o
7 5 3 9.49 8.96 0.80 o
-7 5 -3 9.51 9.79 0.28 o
-8 5 -3 0.82 0.85 0.29 <
-9 5 -3 0.08 0.34 0.34 <
-10 5 -3 5.66 5.26 0.45 o
-11 5 -3 0.02 0.26 0.86 <
-11 6 3 0.39 0.57 0.79 <
-10 6 3 1.85 1.82 0.70 <
10 6 -3 1.84 0.35 1.23 <
-9 6 3 2.05 2.05 0.38 o
9 6 -3 2.05 2.41 0.84 <
-8 6 3 0.52 0.11 0.25 <
8 6 -3 0.52 -0.95 0.49 <
-7 6 3 0.75 0.09 0.29 <
7 6 -3 0.74 1.08 0.45 <
-6 6 3 0.02 0.08 0.27 <
6 6 -3 0.02 0.22 0.53 <
-5 6 3 0.77 1.33 0.25 o
5 6 -3 0.77 0.63 0.31 <
-4 6 3 2.19 1.78 0.24 o
4 6 -3 2.19 1.08 0.30 o
-3 6 3 0.15 -0.09 0.25 <
3 6 -3 0.15 -0.14 0.17 <
-2 6 3 0.47 -0.02 0.30 <
2 6 -3 0.47 -0.13 0.18 <
-1 6 3 0.13 0.52 0.26 <
1 6 -3 0.13 -0.12 0.22 <
0 6 3 0.99 0.99 0.50 <
0 6 -3 0.99 0.92 0.18 o
1 6 3 0.08 -0.50 0.31 <
-1 6 -3 0.08 0.19 0.17 <
-2 6 -3 1.54 1.62 0.21 o
3 6 3 13.53 11.96 0.73 o
-3 6 -3 13.53 13.18 0.33 o
4 6 3 1.28 0.94 0.39 <
-4 6 -3 1.28 1.23 0.20 o
5 6 3 0.01 0.43 0.74 <
-5 6 -3 0.01 0.31 0.24 <
6 6 3 9.60 7.92 1.05 o
-6 6 -3 9.60 9.87 0.37 o
-7 6 -3 3.54 3.04 0.31 o
-8 6 -3 1.45 1.15 0.33 o
-9 6 -3 0.60 0.90 0.62 <
-10 6 -3 0.16 -0.59 0.92 <
-8 7 3 0.03 0.20 0.63 <
8 7 -3 0.03 0.24 1.22 <
-7 7 3 0.31 0.17 0.46 <
7 7 -3 0.31 -1.44 0.98 <
-6 7 3 0.08 -0.09 0.33 <
6 7 -3 0.08 -0.52 0.70 <
-5 7 3 0.31 0.27 0.35 <
5 7 -3 0.32 -0.19 0.75 <
-4 7 3 0.32 0.73 0.33 <
4 7 -3 0.32 0.52 0.39 <
-3 7 3 0.70 0.85 0.50 <
3 7 -3 0.71 0.66 0.32 <
-2 7 3 0.17 0.01 0.50 <
2 7 -3 0.17 0.00 0.38 <
-1 7 3 0.45 -0.12 0.59 <
1 7 -3 0.45 0.03 0.24 <
0 7 3 0.32 0.14 0.64 <
0 7 -3 0.32 0.32 0.29 <
1 7 3 0.25 -0.35 0.51 <
-1 7 -3 0.24 -0.10 0.27 <
2 7 3 0.05 0.67 0.46 <
-2 7 -3 0.05 0.44 0.25 <
3 7 3 0.75 1.32 0.74 <
-3 7 -3 0.75 0.73 0.32 <
4 7 3 2.04 1.61 0.65 <
-4 7 -3 2.05 1.37 0.33 o
5 7 3 0.43 -0.68 1.21 <
-5 7 -3 0.43 0.04 0.41 <
6 7 3 0.67 1.26 0.91 <
-6 7 -3 0.67 -0.07 0.57 <
-7 7 -3 0.36 0.22 0.57 <
-4 8 3 0.07 0.48 1.33 <
4 8 -3 0.07 0.35 0.88 <
-3 8 3 0.14 -0.23 1.08 <
-2 8 3 0.14 -0.95 0.65 <
2 8 -3 0.14 -0.79 0.68 <
-1 8 3 0.25 -0.70 1.17 <
1 8 -3 0.25 -0.56 0.91 <
0 8 3 0.74 0.94 0.70 <
0 8 -3 0.74 -0.24 1.00 <
1 8 3 0.54 0.56 0.99 <
-1 8 -3 0.54 0.18 0.87 <
-2 8 -3 0.10 -0.79 0.76 <
-3 8 -3 0.45 0.30 0.95 <
16 0 -4 0.21 -0.10 0.97 <
-15 0 4 4.61 4.11 0.53 o
15 0 -4 4.60 5.52 0.86 o
-14 0 4 3.28 3.92 0.34 o
14 0 -4 3.28 3.72 0.58 o
-13 0 4 3.48 3.89 0.39 o
13 0 -4 3.48 3.40 0.56 o
-12 0 4 8.34 8.71 0.44 o
12 0 -4 8.35 8.23 0.40 o
-11 0 4 19.26 19.88 0.72 o
11 0 -4 19.26 18.71 0.69 o
-10 0 4 1.63 1.95 0.17 o
10 0 -4 1.62 2.26 0.19 o
-9 0 4 16.67 17.33 0.61 o
9 0 -4 16.69 16.97 0.60 o
-8 0 4 1.71 1.35 0.14 o
8 0 -4 1.72 1.35 0.13 o
-7 0 4 1.76 2.51 0.13 o
7 0 -4 1.74 2.22 0.14 o
-6 0 4 97.84 95.98 2.47 o
6 0 -4 97.97 95.14 2.45 o
-5 0 4 3.82 4.04 0.13 o
5 0 -4 3.80 3.82 0.13 o
-4 0 4 40.14 43.26 1.37 o
4 0 -4 40.24 43.11 1.12 o
-3 0 4 100.77 120.19 5.31 o
3 0 -4 100.83 123.49 5.47 o
-2 0 4 25.42 27.57 1.23 o
2 0 -4 25.47 28.36 1.27 o
0 0 4 67.77 71.38 3.14 o
0 0 -4 67.83 67.45 2.98 o
2 0 4 71.12 76.23 3.36 o
-2 0 -4 71.20 77.13 2.43 o
3 0 4 67.39 63.84 2.82 o
-3 0 -4 67.39 66.91 1.72 o
4 0 4 292.35 268.57 11.88 o
-4 0 -4 292.09 266.83 6.81 o
5 0 4 201.51 182.98 8.16 o
-5 0 -4 201.76 187.83 4.16 o
6 0 4 30.63 27.80 0.91 o
-6 0 -4 30.56 29.19 0.68 o
7 0 4 25.36 25.97 1.23 o
-7 0 -4 25.36 26.61 0.63 o
8 0 4 41.81 36.95 1.74 o
-8 0 -4 41.88 41.05 0.95 o
9 0 4 0.37 0.91 0.23 o
-9 0 -4 0.37 0.27 0.21 <
10 0 4 2.05 2.08 0.47 o
-10 0 -4 2.06 2.61 0.25 o
11 0 4 0.74 0.27 0.64 <
-11 0 -4 0.73 1.16 0.22 o
12 0 4 3.20 2.26 0.47 o
-12 0 -4 3.20 3.09 0.40 o
13 0 4 0.50 1.21 0.84 <
-13 0 -4 0.49 -0.49 0.58 <
14 0 4 2.05 1.57 0.89 <
-14 0 -4 2.05 2.09 1.75 <
-16 1 4 0.51 0.62 0.67 <
16 1 -4 0.52 0.56 1.20 <
-15 1 4 1.35 1.35 0.44 o
15 1 -4 1.34 1.44 0.78 <
-14 1 4 3.22 3.57 0.33 o
14 1 -4 3.21 2.93 0.54 o
-13 1 4 2.65 2.33 0.22 o
13 1 -4 2.66 3.11 0.36 o
-12 1 4 8.68 8.91 0.32 o
12 1 -4 8.67 8.88 0.32 o
-11 1 4 0.45 0.50 0.13 o
11 1 -4 0.45 1.16 0.23 o
-10 1 4 2.23 2.44 0.17 o
10 1 -4 2.23 2.22 0.16 o
-9 1 4 0.79 0.96 0.10 o
9 1 -4 0.79 0.84 0.12 o
-8 1 4 7.19 6.93 0.18 o
8 1 -4 7.21 7.02 0.20 o
-7 1 4 2.77 2.48 0.09 o
7 1 -4 2.78 2.37 0.10 o
-6 1 4 24.75 23.65 0.45 o
6 1 -4 24.74 23.21 0.44 o
-5 1 4 64.11 66.44 1.33 o
5 1 -4 64.22 65.34 1.19 o
-4 1 4 9.42 10.03 0.24 o
4 1 -4 9.40 9.85 0.19 o
-3 1 4 12.58 14.16 0.47 o
3 1 -4 12.64 14.10 0.33 o
-2 1 4 72.26 89.70 3.98 o
2 1 -4 72.37 89.69 2.81 o
-1 1 4 21.70 24.56 1.11 o
1 1 -4 21.67 23.99 1.08 o
0 1 4 61.61 66.59 2.96 o
1 1 4 52.11 57.41 2.55 o
-1 1 -4 52.08 55.44 1.75 o
-2 1 -4 106.01 105.76 1.91 o
3 1 4 20.35 19.19 0.86 o
-3 1 -4 20.25 19.13 0.26 o
4 1 4 116.69 110.12 3.46 o
-4 1 -4 116.71 113.30 1.68 o
5 1 4 26.59 23.59 0.63 o
-5 1 -4 26.60 24.37 0.38 o
6 1 4 7.30 6.86 0.25 o
-6 1 -4 7.33 7.36 0.13 o
7 1 4 28.29 25.52 0.86 o
-7 1 -4 28.30 27.39 0.46 o
8 1 4 8.35 8.23 0.34 o
-8 1 -4 8.38 8.75 0.19 o
9 1 4 2.73 2.92 0.28 o
-9 1 -4 2.74 3.19 0.14 o
10 1 4 2.38 2.56 0.27 o
-10 1 -4 2.40 2.87 0.16 o
11 1 4 6.44 5.59 0.33 o
-11 1 -4 6.42 6.18 0.26 o
12 1 4 0.69 0.18 0.44 <
-12 1 -4 0.70 1.44 0.39 o
13 1 4 0.03 0.58 0.62 <
-13 1 -4 0.03 -0.36 0.56 <
14 1 4 4.56 4.64 0.81 o
-14 1 -4 4.55 3.71 1.07 o
-15 2 4 1.00 1.29 0.45 <
15 2 -4 1.00 1.30 0.88 <
-14 2 4 0.10 0.59 0.28 <
14 2 -4 0.10 0.07 0.52 <
-13 2 4 3.77 3.51 0.29 o
13 2 -4 3.78 4.06 0.38 o
-12 2 4 1.02 1.04 0.22 o
12 2 -4 1.02 1.69 0.27 o
-11 2 4 0.22 0.84 0.19 o
11 2 -4 0.22 0.65 0.17 o
-10 2 4 4.86 4.92 0.18 o
10 2 -4 4.86 4.93 0.19 o
-9 2 4 6.55 6.73 0.21 o
9 2 -4 6.56 7.13 0.22 o
-8 2 4 20.01 19.39 0.48 o
8 2 -4 19.99 18.93 0.47 o
-7 2 4 4.73 4.26 0.12 o
7 2 -4 4.72 4.62 0.15 o
-6 2 4 9.97 10.40 0.22 o
6 2 -4 9.97 9.92 0.25 o
-5 2 4 36.32 33.44 0.69 o
5 2 -4 36.32 32.52 0.67 o
-4 2 4 39.11 40.79 0.92 o
4 2 -4 39.08 39.55 0.73 o
-3 2 4 23.21 27.86 0.64 o
3 2 -4 23.26 27.36 0.56 o
-2 2 4 14.57 16.43 0.44 o
2 2 -4 14.58 16.67 0.29 o
-1 2 4 35.18 39.99 1.27 o
1 2 -4 35.18 41.28 0.70 o
0 2 4 35.70 38.77 1.74 o
0 2 -4 35.68 38.29 0.61 o
1 2 4 10.76 14.26 0.67 o
-1 2 -4 10.77 14.19 0.24 o
2 2 4 7.78 8.50 0.42 o
-2 2 -4 7.75 8.02 0.14 o
-3 2 -4 29.15 28.47 0.39 o
4 2 4 18.80 17.16 0.57 o
-4 2 -4 18.78 18.10 0.26 o
5 2 4 16.35 16.21 0.76 o
-5 2 -4 16.38 17.36 0.26 o
6 2 4 5.06 4.06 0.22 o
-6 2 -4 5.06 4.42 0.10 o
7 2 4 13.89 13.78 0.50 o
-7 2 -4 13.89 13.91 0.25 o
8 2 4 1.03 1.63 0.22 o
-8 2 -4 1.03 1.63 0.10 o
9 2 4 6.24 6.71 0.35 o
-9 2 -4 6.26 6.59 0.19 o
10 2 4 0.54 0.90 0.37 <
-10 2 -4 0.53 0.40 0.18 <
11 2 4 0.74 1.99 0.36 o
-11 2 -4 0.74 0.79 0.23 o
12 2 4 0.88 -0.04 0.51 <
-12 2 -4 0.88 0.78 0.39 <
13 2 4 1.71 2.20 0.62 o
-13 2 -4 1.71 1.72 0.52 o
14 2 4 1.65 1.92 1.08 <
-14 2 -4 1.65 0.54 1.03 <
-15 3 4 1.34 1.38 0.99 <
-14 3 4 2.40 2.04 0.48 o
14 3 -4 2.41 1.49 1.26 <
-13 3 4 4.94 4.98 0.34 o
13 3 -4 4.96 5.01 0.78 o
-12 3 4 1.87 1.66 0.28 o
12 3 -4 1.86 0.39 0.50 <
-11 3 4 1.44 1.11 0.18 o
11 3 -4 1.45 1.73 0.29 o
-10 3 4 0.14 -0.34 0.23 <
10 3 -4 0.14 0.27 0.22 <
-9 3 4 1.63 1.53 0.14 o
9 3 -4 1.61 1.32 0.15 o
-8 3 4 1.56 1.66 0.16 o
8 3 -4 1.54 1.62 0.14 o
-7 3 4 10.89 9.84 0.27 o
7 3 -4 10.87 9.34 0.26 o
-6 3 4 43.99 46.45 1.07 o
6 3 -4 43.97 44.77 1.02 o
-5 3 4 2.26 2.37 0.15 o
5 3 -4 2.26 2.18 0.10 o
-4 3 4 42.82 43.24 0.99 o
4 3 -4 42.81 41.49 0.95 o
-3 3 4 86.40 94.75 2.12 o
3 3 -4 86.39 91.39 2.06 o
-2 3 4 27.52 30.23 0.70 o
2 3 -4 27.58 29.47 0.61 o
-1 3 4 18.00 19.53 0.47 o
1 3 -4 17.99 19.51 0.35 o
0 3 4 14.38 15.04 0.36 o
0 3 -4 14.38 15.17 0.28 o
1 3 4 29.33 31.82 1.03 o
-1 3 -4 29.37 30.99 0.50 o
2 3 4 1.70 2.02 0.13 o
-2 3 -4 1.70 1.98 0.06 o
3 3 4 7.46 8.40 0.33 o
-3 3 -4 7.43 7.92 0.15 o
4 3 4 1.33 1.78 0.37 o
-4 3 -4 1.33 1.70 0.09 o
-5 3 -4 1.21 1.03 0.08 o
6 3 4 6.88 6.32 0.41 o
-6 3 -4 6.86 7.25 0.17 o
7 3 4 0.89 1.36 0.24 o
-7 3 -4 0.90 0.87 0.10 o
8 3 4 5.33 5.49 0.41 o
-8 3 -4 5.31 5.49 0.17 o
9 3 4 0.79 0.52 0.40 <
-9 3 -4 0.79 0.71 0.22 o
10 3 4 1.55 2.06 0.34 o
-10 3 -4 1.55 1.75 0.30 o
11 3 4 6.91 7.34 0.60 o
-11 3 -4 6.89 7.28 0.33 o
12 3 4 4.12 5.12 0.80 o
-12 3 -4 4.12 4.77 0.51 o
13 3 4 2.02 2.48 0.76 o
-14 4 4 6.15 5.56 0.62 o
-13 4 4 0.70 0.96 0.39 <
13 4 -4 0.70 1.46 1.28 <
-12 4 4 0.41 1.15 0.37 o
12 4 -4 0.42 1.31 0.71 <
-11 4 4 3.43 2.71 0.27 o
11 4 -4 3.43 2.41 0.64 o
-10 4 4 2.81 3.23 0.22 o
10 4 -4 2.82 3.18 0.49 o
-9 4 4 2.03 1.99 0.22 o
9 4 -4 2.01 1.74 0.35 o
-8 4 4 0.37 0.37 0.17 <
8 4 -4 0.38 0.71 0.31 <
-7 4 4 21.65 21.82 0.55 o
7 4 -4 21.60 20.43 0.73 o
-6 4 4 2.61 3.05 0.17 o
6 4 -4 2.62 2.61 0.15 o
-5 4 4 6.33 7.06 0.25 o
5 4 -4 6.32 6.91 0.22 o
-4 4 4 43.16 44.58 1.19 o
4 4 -4 43.10 42.06 0.97 o
-3 4 4 76.76 76.10 1.72 o
3 4 -4 76.79 76.29 1.72 o
-2 4 4 4.93 4.40 0.16 o
2 4 -4 4.92 4.44 0.14 o
-1 4 4 0.02 0.32 0.16 <
1 4 -4 0.02 0.00 0.09 <
0 4 4 27.66 27.37 0.58 o
0 4 -4 27.70 27.44 0.49 o
1 4 4 5.51 5.13 0.22 o
-1 4 -4 5.52 5.11 0.12 o
2 4 4 15.52 14.69 0.76 o
-2 4 -4 15.55 15.54 0.30 o
3 4 4 0.22 -0.02 0.29 <
-3 4 -4 0.21 0.34 0.08 o
4 4 4 3.90 3.58 0.32 o
-4 4 -4 3.88 3.88 0.13 o
5 4 4 5.46 5.65 0.40 o
-5 4 -4 5.48 6.15 0.17 o
6 4 4 4.98 4.01 0.33 o
-6 4 -4 4.97 4.99 0.16 o
7 4 4 3.71 4.83 0.40 o
-7 4 -4 3.70 3.61 0.19 o
8 4 4 1.99 2.14 0.37 o
-8 4 -4 1.99 1.79 0.20 o
9 4 4 4.43 4.75 0.50 o
-9 4 -4 4.42 4.57 0.31 o
10 4 4 1.62 1.60 0.81 <
-10 4 -4 1.62 2.48 0.40 o
11 4 4 0.50 -0.26 1.21 <
-11 4 -4 0.50 0.79 0.44 <
-13 5 4 1.63 1.04 1.02 <
-12 5 4 0.22 0.07 0.59 <
12 5 -4 0.22 0.37 1.36 <
-11 5 4 0.29 0.23 0.28 <
11 5 -4 0.29 0.01 1.21 <
-10 5 4 0.52 0.83 0.31 <
10 5 -4 0.53 0.49 0.53 <
-9 5 4 0.52 0.27 0.21 <
9 5 -4 0.53 0.35 0.40 <
-8 5 4 3.22 2.49 0.23 o
8 5 -4 3.21 2.04 0.33 o
-7 5 4 0.42 0.12 0.17 <
7 5 -4 0.42 0.23 0.26 <
-6 5 4 1.74 1.92 0.17 o
6 5 -4 1.74 2.01 0.18 o
-5 5 4 2.35 2.75 0.20 o
5 5 -4 2.34 1.82 0.20 o
-4 5 4 19.80 18.16 0.55 o
4 5 -4 19.78 18.19 0.54 o
-3 5 4 1.23 1.35 0.20 o
3 5 -4 1.23 1.43 0.22 o
-2 5 4 4.33 4.15 0.21 o
2 5 -4 4.33 4.48 0.20 o
-1 5 4 7.40 7.34 0.34 o
1 5 -4 7.40 7.94 0.24 o
0 5 4 5.76 5.64 0.33 o
0 5 -4 5.76 5.78 0.18 o
1 5 4 1.13 1.18 0.24 o
-1 5 -4 1.12 1.13 0.10 o
2 5 4 21.39 20.66 1.04 o
-2 5 -4 21.41 20.22 0.42 o
3 5 4 14.19 14.77 0.80 o
-3 5 -4 14.19 14.79 0.33 o
4 5 4 0.87 1.18 0.45 <
-4 5 -4 0.87 0.88 0.13 o
5 5 4 0.42 0.26 0.42 <
-5 5 -4 0.42 0.13 0.15 <
-6 5 -4 10.33 10.03 0.28 o
-7 5 -4 7.62 7.82 0.26 o
-8 5 -4 0.99 0.78 0.27 <
-9 5 -4 0.83 1.01 0.34 <
-10 5 -4 1.66 1.73 0.48 o
-11 5 -4 0.16 -0.05 0.91 <
-11 6 4 1.10 0.48 0.75 <
-10 6 4 0.42 0.74 0.59 <
10 6 -4 0.42 0.94 0.81 <
-9 6 4 0.57 0.52 0.44 <
9 6 -4 0.57 0.57 0.80 <
-8 6 4 0.67 0.85 0.26 o
8 6 -4 0.67 0.86 0.63 <
-7 6 4 0.89 1.28 0.24 o
7 6 -4 0.89 1.53 0.53 <
-6 6 4 1.04 1.08 0.24 o
6 6 -4 1.04 1.46 0.42 o
-5 6 4 1.72 1.19 0.22 o
5 6 -4 1.72 1.76 0.29 o
-4 6 4 0.78 0.71 0.31 <
4 6 -4 0.78 1.10 0.27 o
-3 6 4 0.16 0.08 0.27 <
3 6 -4 0.16 0.39 0.21 <
-2 6 4 0.30 0.40 0.33 <
2 6 -4 0.30 0.55 0.22 <
-1 6 4 10.08 8.55 0.48 o
1 6 -4 10.08 8.75 0.29 o
0 6 4 4.03 3.20 0.40 o
0 6 -4 4.03 3.88 0.17 o
1 6 4 0.53 -0.10 0.34 <
-1 6 -4 0.53 0.91 0.22 o
2 6 4 0.22 0.18 0.45 <
-2 6 -4 0.22 0.12 0.18 <
3 6 4 4.12 4.23 0.46 o
-3 6 -4 4.12 3.96 0.18 o
4 6 4 1.70 1.29 0.91 <
-4 6 -4 1.70 1.31 0.26 o
5 6 4 1.04 1.73 0.69 <
-5 6 -4 1.04 1.07 0.31 o
-6 6 -4 2.29 2.41 0.26 o
-7 6 -4 0.54 0.37 0.32 <
-8 6 -4 0.65 0.66 0.49 <
-9 6 -4 2.18 2.38 0.79 o
-8 7 4 0.25 -1.61 1.19 <
8 7 -4 0.25 1.04 0.92 <
-7 7 4 4.02 3.31 0.45 o
-6 7 4 0.84 0.71 0.41 <
6 7 -4 0.84 1.55 0.77 <
-5 7 4 0.77 0.93 0.38 <
5 7 -4 0.77 0.61 0.51 <
-4 7 4 0.96 0.71 0.50 <
4 7 -4 0.96 1.01 0.40 <
-3 7 4 0.31 0.33 0.68 <
3 7 -4 0.31 0.70 0.28 <
-2 7 4 0.51 0.24 0.50 <
2 7 -4 0.51 0.32 0.45 <
-1 7 4 0.04 -0.40 0.39 <
1 7 -4 0.04 0.12 0.28 <
0 7 4 1.76 1.51 0.51 <
0 7 -4 1.76 1.03 0.29 o
1 7 4 0.68 0.53 0.50 <
-1 7 -4 0.68 0.49 0.24 <
2 7 4 0.84 0.78 0.67 <
-2 7 -4 0.84 0.51 0.30 <
3 7 4 2.62 2.45 0.49 o
-3 7 -4 2.62 2.68 0.29 o
-4 7 -4 2.25 2.30 0.36 o
-5 7 -4 2.49 1.94 0.69 <
-6 7 -4 1.32 1.21 0.42 <
-7 7 -4 1.00 0.74 0.83 <
-4 8 4 0.17 1.07 0.98 <
4 8 -4 0.17 0.23 0.66 <
-3 8 4 0.26 0.27 0.84 <
-2 8 4 0.33 -0.09 0.86 <
-1 8 4 0.09 -0.88 1.20 <
1 8 -4 0.09 0.71 0.76 <
0 8 4 0.12 0.13 0.87 <
0 8 -4 0.12 -0.06 1.23 <
1 8 4 0.48 -0.47 1.01 <
-1 8 -4 0.48 -0.02 0.70 <
-2 8 -4 0.02 -0.29 1.30 <
-3 8 -4 0.01 0.54 1.10 <
-16 1 5 0.79 0.36 0.81 <
16 1 -5 0.79 0.65 0.76 <
-15 1 5 1.02 0.99 0.47 <
15 1 -5 1.02 1.05 0.66 <
-14 1 5 0.02 0.71 0.31 <
14 1 -5 0.01 0.16 0.44 <
-13 1 5 0.27 0.28 0.27 <
13 1 -5 0.26 0.68 0.29 <
-12 1 5 2.57 2.49 0.19 o
12 1 -5 2.58 1.97 0.22 o
-11 1 5 2.82 3.59 0.17 o
11 1 -5 2.81 3.29 0.18 o
-10 1 5 3.54 3.60 0.14 o
10 1 -5 3.55 3.45 0.16 o
-9 1 5 16.72 16.60 0.42 o
9 1 -5 16.70 16.08 0.41 o
-8 1 5 7.18 7.71 0.20 o
8 1 -5 7.15 7.65 0.22 o
-7 1 5 37.60 38.34 0.71 o
7 1 -5 37.68 37.90 0.87 o
-6 1 5 87.31 86.57 1.58 o
6 1 -5 87.24 84.10 1.88 o
-5 1 5 60.98 57.52 1.15 o
5 1 -5 61.00 56.89 1.04 o
-4 1 5 14.75 15.72 0.43 o
4 1 -5 14.78 15.81 0.30 o
-3 1 5 21.51 26.15 0.84 o
3 1 -5 21.48 26.45 0.54 o
-2 1 5 202.48 234.17 10.35 o
2 1 -5 202.54 229.40 4.16 o
-1 1 5 42.97 46.67 2.08 o
1 1 -5 42.94 45.27 1.01 o
0 1 5 111.09 118.37 5.23 o
0 1 -5 111.07 113.20 2.24 o
1 1 5 7.51 6.68 0.32 o
-1 1 -5 7.56 6.61 0.14 o
2 1 5 6.47 6.13 0.30 o
-2 1 -5 6.45 6.10 0.10 o
-3 1 -5 33.80 30.03 0.43 o
4 1 5 44.89 39.97 1.26 o
-4 1 -5 44.95 39.69 0.54 o
5 1 5 18.13 16.03 0.54 o
-5 1 -5 18.08 17.12 0.27 o
6 1 5 4.71 4.77 0.31 o
-6 1 -5 4.72 4.85 0.10 o
7 1 5 16.27 15.60 0.56 o
-7 1 -5 16.30 16.20 0.29 o
8 1 5 1.45 1.33 0.16 o
-8 1 -5 1.45 1.55 0.10 o
9 1 5 0.41 0.08 0.21 <
-9 1 -5 0.41 0.60 0.13 o
10 1 5 9.87 9.85 0.44 o
-10 1 -5 9.86 10.11 0.28 o
11 1 5 1.06 0.42 0.35 <
-11 1 -5 1.06 1.65 0.28 o
12 1 5 0.25 0.79 0.37 <
-12 1 -5 0.25 0.12 0.33 <
13 1 5 1.67 0.74 0.63 <
-13 1 -5 1.67 1.03 0.51 <
14 1 5 1.02 0.72 1.12 <
-14 1 -5 1.02 1.57 0.97 <
-15 2 5 1.54 1.20 0.38 o
15 2 -5 1.54 1.44 0.58 <
-14 2 5 0.80 0.71 0.54 <
14 2 -5 0.81 1.10 0.54 <
-13 2 5 10.90 11.05 0.39 o
13 2 -5 10.88 10.54 0.48 o
-12 2 5 6.96 7.01 0.30 o
12 2 -5 6.99 6.62 0.29 o
-11 2 5 1.99 2.42 0.18 o
11 2 -5 1.98 1.79 0.18 o
-10 2 5 1.88 1.66 0.16 o
10 2 -5 1.87 1.74 0.15 o
-9 2 5 1.45 1.68 0.12 o
9 2 -5 1.43 1.83 0.12 o
-8 2 5 16.58 17.62 0.43 o
8 2 -5 16.59 17.10 0.43 o
-7 2 5 3.61 3.47 0.11 o
7 2 -5 3.61 3.27 0.13 o
-6 2 5 4.16 4.68 0.13 o
6 2 -5 4.15 4.50 0.14 o
-5 2 5 81.55 82.24 1.84 o
5 2 -5 81.54 79.89 1.79 o
-4 2 5 7.05 6.54 0.17 o
4 2 -5 7.10 6.48 0.13 o
-3 2 5 5.99 6.26 0.19 o
3 2 -5 6.00 6.06 0.13 o
-2 2 5 13.02 15.32 0.42 o
2 2 -5 12.99 15.81 0.28 o
-1 2 5 11.68 14.16 0.47 o
1 2 -5 11.67 12.67 0.21 o
0 2 5 51.72 51.79 1.64 o
0 2 -5 51.80 52.23 0.83 o
1 2 5 1.43 1.64 0.13 o
-1 2 -5 1.42 1.57 0.05 o
2 2 5 2.54 2.33 0.16 o
-2 2 -5 2.51 2.37 0.05 o
-3 2 -5 90.63 86.26 1.22 o
4 2 5 22.41 18.72 0.97 o
-4 2 -5 22.43 21.68 0.31 o
5 2 5 15.73 13.93 0.71 o
-5 2 -5 15.74 15.75 0.24 o
6 2 5 7.76 7.05 0.39 o
-6 2 -5 7.76 7.83 0.16 o
7 2 5 1.93 1.99 0.20 o
-7 2 -5 1.95 2.28 0.10 o
8 2 5 2.15 2.09 0.33 o
-8 2 -5 2.17 1.95 0.13 o
9 2 5 2.53 3.44 0.40 o
-9 2 -5 2.53 2.58 0.16 o
10 2 5 8.32 7.67 0.57 o
-10 2 -5 8.30 8.63 0.34 o
11 2 5 13.18 12.81 0.80 o
-11 2 -5 13.21 15.12 0.46 o
12 2 5 1.26 0.86 0.63 <
-12 2 -5 1.25 1.82 0.54 o
13 2 5 1.60 1.23 0.53 <
-13 2 -5 1.59 1.30 0.62 <
-15 3 5 5.03 5.50 0.97 o
-14 3 5 2.13 2.50 0.44 o
14 3 -5 2.12 3.12 1.77 <
-13 3 5 2.19 2.25 0.25 o
13 3 -5 2.19 1.86 0.90 <
-12 3 5 1.71 1.11 0.28 o
12 3 -5 1.71 1.71 0.38 o
-11 3 5 1.92 2.19 0.22 o
11 3 -5 1.92 2.18 0.32 o
-10 3 5 5.57 5.79 0.26 o
10 3 -5 5.56 5.94 0.27 o
-9 3 5 0.48 0.47 0.14 o
9 3 -5 0.48 0.53 0.18 <
-8 3 5 8.53 8.55 0.28 o
8 3 -5 8.51 8.71 0.27 o
-7 3 5 1.43 1.29 0.11 o
7 3 -5 1.43 1.59 0.14 o
-6 3 5 3.80 4.21 0.18 o
6 3 -5 3.78 3.67 0.12 o
-5 3 5 7.35 7.64 0.22 o
5 3 -5 7.34 7.30 0.20 o
-4 3 5 8.73 8.75 0.23 o
4 3 -5 8.73 8.27 0.20 o
-3 3 5 2.49 3.62 0.12 o
3 3 -5 2.48 3.35 0.10 o
-2 3 5 1.98 1.75 0.11 o
2 3 -5 1.97 1.59 0.07 o
-1 3 5 8.17 8.49 0.22 o
1 3 -5 8.17 8.35 0.15 o
0 3 5 0.53 0.66 0.13 o
0 3 -5 0.53 0.41 0.06 o
1 3 5 27.11 27.44 0.74 o
-1 3 -5 27.14 27.69 0.45 o
2 3 5 21.49 21.00 0.73 o
-2 3 -5 21.48 20.71 0.35 o
3 3 5 19.63 19.84 0.67 o
-3 3 -5 19.65 19.41 0.31 o
4 3 5 4.10 3.97 0.33 o
-4 3 -5 4.12 4.17 0.10 o
5 3 5 1.71 1.43 0.56 <
-5 3 -5 1.71 1.59 0.10 o
-6 3 -5 17.17 17.26 0.33 o
7 3 5 1.99 2.50 0.29 o
-7 3 -5 1.98 1.91 0.11 o
8 3 5 10.08 10.44 0.64 o
-8 3 -5 10.09 10.71 0.25 o
9 3 5 1.03 0.86 0.43 <
-9 3 -5 1.03 1.17 0.19 o
10 3 5 1.66 1.49 0.44 o
-10 3 -5 1.67 1.72 0.29 o
11 3 5 3.24 2.28 0.57 o
-11 3 -5 3.25 2.93 0.38 o
12 3 5 1.73 1.91 0.89 <
-12 3 -5 1.73 2.40 1.19 <
13 3 5 4.68 3.06 1.36 <
-14 4 5 0.33 0.22 0.56 <
14 4 -5 0.33 -0.26 1.72 <
-13 4 5 0.64 0.76 0.29 <
13 4 -5 0.64 1.61 1.01 <
-12 4 5 0.42 -0.04 0.33 <
12 4 -5 0.42 0.37 1.01 <
-11 4 5 0.03 0.80 0.26 o
11 4 -5 0.03 0.44 0.45 <
-10 4 5 0.70 0.59 0.21 <
10 4 -5 0.70 0.20 0.37 <
-9 4 5 4.68 4.14 0.22 o
9 4 -5 4.69 4.09 0.27 o
-8 4 5 0.14 0.19 0.14 <
8 4 -5 0.14 0.34 0.19 <
-7 4 5 3.20 2.84 0.16 o
7 4 -5 3.22 3.05 0.21 o
-6 4 5 1.96 1.63 0.14 o
6 4 -5 1.96 1.47 0.15 o
-5 4 5 0.60 0.90 0.13 o
5 4 -5 0.60 0.49 0.12 o
-4 4 5 12.18 13.08 0.40 o
4 4 -5 12.18 12.54 0.33 o
-3 4 5 13.75 13.87 0.41 o
3 4 -5 13.77 14.26 0.36 o
-2 4 5 10.19 10.31 0.32 o
2 4 -5 10.18 10.30 0.26 o
-1 4 5 4.51 4.53 0.22 o
1 4 -5 4.51 4.71 0.12 o
0 4 5 10.04 11.20 0.34 o
0 4 -5 10.05 11.55 0.21 o
1 4 5 21.57 20.03 0.98 o
-1 4 -5 21.55 20.63 0.35 o
2 4 5 12.65 13.38 0.69 o
-2 4 -5 12.65 13.60 0.27 o
3 4 5 1.48 2.18 0.42 o
-3 4 -5 1.48 1.65 0.10 o
4 4 5 1.65 1.10 0.39 <
-4 4 -5 1.65 1.55 0.10 o
-5 4 -5 6.70 6.54 0.18 o
6 4 5 0.21 0.61 0.37 <
-6 4 -5 0.22 0.09 0.13 <
7 4 5 3.13 3.46 0.36 o
-7 4 -5 3.12 2.67 0.17 o
8 4 5 0.05 -0.43 0.44 <
-8 4 -5 0.05 0.21 0.19 <
9 4 5 0.12 -0.39 0.57 <
-9 4 -5 0.13 0.01 0.38 <
10 4 5 1.07 0.95 0.67 <
-10 4 -5 1.07 0.98 0.36 <
-11 4 -5 0.37 0.53 0.55 <
-13 5 5 0.27 0.29 0.61 <
-12 5 5 1.74 1.90 0.46 o
12 5 -5 1.74 2.12 1.30 <
-11 5 5 0.62 0.08 0.30 <
11 5 -5 0.62 1.01 0.92 <
-10 5 5 0.76 0.67 0.29 <
10 5 -5 0.77 0.09 0.51 <
-9 5 5 2.25 2.53 0.23 o
9 5 -5 2.24 2.70 0.45 o
-8 5 5 3.49 3.20 0.23 o
8 5 -5 3.50 3.26 0.38 o
-7 5 5 3.91 3.99 0.23 o
7 5 -5 3.92 3.71 0.26 o
-6 5 5 0.72 0.62 0.22 <
6 5 -5 0.71 0.38 0.28 <
-5 5 5 5.15 4.08 0.26 o
5 5 -5 5.16 4.59 0.22 o
-4 5 5 16.01 15.06 0.47 o
4 5 -5 16.04 15.46 0.48 o
-3 5 5 0.12 0.46 0.19 <
3 5 -5 0.11 0.21 0.14 <
-2 5 5 0.85 0.42 0.21 <
2 5 -5 0.84 0.82 0.16 o
-1 5 5 21.62 21.09 0.76 o
1 5 -5 21.63 21.25 0.53 o
0 5 5 0.02 0.22 0.28 <
0 5 -5 0.02 0.07 0.10 <
1 5 5 1.58 1.45 0.35 o
-1 5 -5 1.58 1.43 0.12 o
2 5 5 28.21 28.05 1.36 o
-2 5 -5 28.18 27.52 0.55 o
3 5 5 2.53 2.08 0.43 o
-3 5 -5 2.53 2.23 0.13 o
4 5 5 0.33 -0.02 0.69 <
-4 5 -5 0.33 0.85 0.15 o
-5 5 -5 6.36 6.78 0.24 o
-6 5 -5 3.48 3.12 0.20 o
-7 5 -5 0.95 0.53 0.23 <
-8 5 -5 0.94 0.76 0.34 <
-9 5 -5 1.52 1.26 0.35 o
-10 5 -5 1.08 0.62 0.79 <
-11 6 5 0.89 0.89 0.66 <
-10 6 5 0.16 0.51 0.52 <
10 6 -5 0.15 -0.33 1.14 <
-9 6 5 0.21 -0.36 0.44 <
9 6 -5 0.21 -0.29 0.58 <
-8 6 5 10.05 8.26 0.38 o
8 6 -5 10.05 9.30 0.64 o
-7 6 5 0.92 1.16 0.28 o
7 6 -5 0.93 0.73 0.37 <
-6 6 5 0.03 0.02 0.24 <
6 6 -5 0.03 0.02 0.30 <
-5 6 5 13.57 12.40 0.52 o
5 6 -5 13.56 11.95 0.44 o
-4 6 5 7.16 6.96 0.41 o
4 6 -5 7.17 6.57 0.33 o
-3 6 5 1.34 1.07 0.41 <
3 6 -5 1.34 1.32 0.25 o
-2 6 5 1.80 1.80 0.29 o
2 6 -5 1.80 1.79 0.21 o
-1 6 5 0.01 0.24 0.42 <
1 6 -5 0.01 0.40 0.20 <
0 6 5 1.16 1.63 0.33 o
0 6 -5 1.16 0.93 0.22 o
1 6 5 0.82 1.36 0.38 o
-1 6 -5 0.82 1.10 0.19 o
2 6 5 7.21 6.43 0.69 o
-2 6 -5 7.20 6.42 0.21 o
3 6 5 10.09 10.18 0.86 o
-3 6 -5 10.10 9.93 0.26 o
4 6 5 0.22 0.15 1.12 <
-4 6 -5 0.21 0.09 0.23 <
-5 6 -5 1.41 1.20 0.22 o
-6 6 -5 7.31 6.67 0.37 o
-7 6 -5 0.07 0.13 0.37 <
-8 6 -5 0.06 -0.15 0.49 <
-9 6 -5 1.28 0.49 0.73 <
-8 7 5 0.23 0.91 0.73 <
8 7 -5 0.23 -0.82 0.81 <
-7 7 5 1.82 1.35 0.58 <
7 7 -5 1.83 1.44 0.92 <
-6 7 5 0.59 0.31 0.47 <
6 7 -5 0.59 0.25 0.61 <
-5 7 5 1.10 0.53 0.41 <
5 7 -5 1.10 0.34 0.51 <
-4 7 5 0.36 0.31 0.45 <
4 7 -5 0.36 0.29 0.50 <
-3 7 5 0.07 1.00 0.57 <
3 7 -5 0.07 0.06 0.24 <
-2 7 5 1.42 1.26 0.45 <
2 7 -5 1.42 0.31 0.40 <
-1 7 5 0.76 0.56 0.52 <
1 7 -5 0.76 0.83 0.34 <
0 7 5 1.23 1.05 0.74 <
0 7 -5 1.23 1.28 0.27 o
1 7 5 0.12 0.72 1.02 <
-1 7 -5 0.12 -0.28 0.31 <
2 7 5 0.33 0.56 0.84 <
-2 7 -5 0.33 0.49 0.25 <
-3 7 -5 0.96 0.81 0.30 <
4 7 5 0.11 -0.76 1.07 <
-4 7 -5 0.11 0.67 0.55 <
-5 7 -5 1.67 1.07 0.42 <
-6 7 -5 0.02 0.79 0.68 <
-7 7 -5 0.37 0.09 0.71 <
-4 8 5 0.07 0.35 1.22 <
4 8 -5 0.07 0.78 1.43 <
-3 8 5 0.14 0.36 0.96 <
3 8 -5 0.14 0.94 0.92 <
-2 8 5 0.12 -0.68 0.94 <
2 8 -5 0.12 0.25 0.79 <
-1 8 5 0.01 0.47 0.79 <
1 8 -5 0.01 1.04 0.87 <
0 8 5 0.07 0.25 0.70 <
0 8 -5 0.07 0.29 0.90 <
1 8 5 0.14 -0.86 0.88 <
-16 0 6 0.34 0.70 1.08 <
16 0 -6 0.34 0.52 1.48 <
-15 0 6 0.43 0.70 0.55 <
15 0 -6 0.43 0.04 0.97 <
-14 0 6 4.71 3.91 0.45 o
14 0 -6 4.71 3.79 0.48 o
-13 0 6 0.47 0.78 0.28 <
13 0 -6 0.46 -0.29 0.36 <
-12 0 6 5.81 6.28 0.39 o
12 0 -6 5.79 6.62 0.35 o
-11 0 6 0.40 -0.02 0.25 <
11 0 -6 0.40 0.61 0.21 <
-10 0 6 40.96 42.02 1.39 o
10 0 -6 40.91 40.06 1.34 o
-9 0 6 17.21 17.07 0.49 o
9 0 -6 17.23 16.19 0.59 o
-8 0 6 30.07 30.15 0.81 o
8 0 -6 30.14 29.09 0.97 o
-7 0 6 139.50 136.79 4.30 o
7 0 -6 139.35 134.59 4.25 o
-6 0 6 229.55 225.93 5.79 o
6 0 -6 229.79 221.70 5.67 o
-5 0 6 23.55 25.01 0.66 o
5 0 -6 23.55 24.85 0.66 o
-4 0 6 9.22 10.67 0.52 o
4 0 -6 9.19 10.80 0.30 o
-3 0 6 274.58 305.20 13.45 o
3 0 -6 274.76 303.83 6.72 o
-2 0 6 21.81 25.25 1.13 o
2 0 -6 21.77 24.76 0.56 o
-1 0 6 49.02 52.68 2.33 o
1 0 -6 48.93 50.41 1.30 o
0 0 6 16.51 21.89 0.97 o
0 0 -6 16.42 21.10 0.48 o
-1 0 -6 44.92 43.19 1.12 o
-2 0 -6 5.66 6.62 0.17 o
-3 0 -6 23.16 24.90 0.57 o
4 0 6 24.74 22.34 1.00 o
-4 0 -6 24.70 21.95 0.46 o
-5 0 -6 4.22 4.35 0.14 o
6 0 6 3.04 2.60 0.23 o
-6 0 -6 3.03 2.74 0.11 o
7 0 6 6.16 5.89 0.38 o
-7 0 -6 6.16 6.62 0.20 o
8 0 6 0.01 0.48 0.28 <
-8 0 -6 0.02 0.12 0.15 <
9 0 6 28.63 28.69 1.41 o
-9 0 -6 28.62 31.70 0.89 o
10 0 6 22.11 21.33 1.11 o
-10 0 -6 22.11 25.55 0.91 o
11 0 6 3.90 2.93 0.41 o
-11 0 -6 3.91 3.82 0.47 o
12 0 6 1.68 2.15 0.72 <
-12 0 -6 1.67 1.05 0.86 <
13 0 6 7.21 7.35 0.65 o
-13 0 -6 7.22 7.25 0.91 o
-16 1 6 3.14 4.16 1.57 <
16 1 -6 3.15 1.92 1.36 <
-15 1 6 0.28 0.20 0.33 <
15 1 -6 0.27 0.78 0.63 <
-14 1 6 0.39 0.64 0.26 <
14 1 -6 0.39 0.50 0.35 <
-13 1 6 2.54 2.26 0.33 o
13 1 -6 2.55 2.44 0.25 o
-12 1 6 2.20 2.77 0.23 o
12 1 -6 2.18 2.28 0.21 o
-11 1 6 2.26 2.00 0.16 o
11 1 -6 2.25 1.87 0.15 o
-10 1 6 6.96 6.68 0.21 o
10 1 -6 6.94 6.78 0.22 o
-9 1 6 25.03 24.63 0.59 o
9 1 -6 25.05 24.00 0.59 o
-8 1 6 0.82 0.76 0.09 o
8 1 -6 0.81 0.64 0.08 o
-7 1 6 33.57 33.89 0.64 o
7 1 -6 33.58 33.18 0.77 o
-6 1 6 41.72 40.28 0.75 o
6 1 -6 41.74 40.27 0.92 o
-5 1 6 18.53 18.85 0.44 o
5 1 -6 18.62 18.38 0.33 o
-4 1 6 29.66 33.87 0.89 o
4 1 -6 29.67 34.47 0.59 o
-3 1 6 8.47 9.56 0.33 o
3 1 -6 8.49 9.74 0.16 o
-2 1 6 26.14 27.58 0.88 o
2 1 -6 26.14 27.49 0.41 o
-1 1 6 12.99 12.10 0.40 o
1 1 -6 13.04 12.38 0.19 o
0 1 6 100.50 103.94 4.60 o
0 1 -6 100.36 100.45 1.82 o
1 1 6 5.56 6.90 0.33 o
-1 1 -6 5.55 6.61 0.12 o
2 1 6 5.60 5.85 0.29 o
-2 1 -6 5.59 5.87 0.10 o
3 1 6 52.97 47.96 2.15 o
-3 1 -6 52.90 47.60 0.71 o
4 1 6 35.82 31.26 1.41 o
-4 1 -6 35.83 32.06 0.47 o
5 1 6 4.83 4.82 0.30 o
-5 1 -6 4.82 4.40 0.10 o
6 1 6 6.39 6.62 0.40 o
-6 1 -6 6.38 6.78 0.14 o
7 1 6 0.20 0.33 0.15 <
-7 1 -6 0.21 0.27 0.08 o
8 1 6 1.29 1.63 0.20 o
-8 1 -6 1.29 1.42 0.11 o
9 1 6 0.29 0.06 0.35 <
-9 1 -6 0.29 0.12 0.14 <
10 1 6 7.46 7.94 0.50 o
-10 1 -6 7.46 8.68 0.28 o
11 1 6 1.12 0.52 0.27 <
-11 1 -6 1.11 0.85 0.31 <
12 1 6 3.41 4.51 0.66 o
-12 1 -6 3.42 3.54 0.47 o
13 1 6 1.32 0.87 0.60 <
-13 1 -6 1.32 0.51 0.67 <
-15 2 6 1.39 2.02 0.46 o
15 2 -6 1.39 1.70 1.02 <
-14 2 6 0.07 -0.18 0.30 <
14 2 -6 0.07 -0.29 0.46 <
-13 2 6 0.12 0.16 0.19 <
13 2 -6 0.12 -0.11 0.30 <
-12 2 6 1.16 1.80 0.22 o
12 2 -6 1.17 1.34 0.31 o
-11 2 6 6.05 6.29 0.26 o
11 2 -6 6.04 6.01 0.23 o
-10 2 6 0.90 0.53 0.18 <
10 2 -6 0.90 1.10 0.16 o
-9 2 6 4.62 4.39 0.20 o
9 2 -6 4.62 4.27 0.17 o
-8 2 6 3.96 3.89 0.17 o
8 2 -6 3.97 3.80 0.14 o
-7 2 6 13.68 13.64 0.35 o
7 2 -6 13.66 13.65 0.35 o
-6 2 6 9.52 9.45 0.25 o
6 2 -6 9.54 9.51 0.23 o
-5 2 6 9.09 8.79 0.23 o
5 2 -6 9.09 8.27 0.20 o
-4 2 6 21.27 21.33 0.50 o
4 2 -6 21.30 20.50 0.34 o
-3 2 6 32.86 33.51 0.88 o
3 2 -6 32.83 32.79 0.61 o
-2 2 6 18.20 19.67 0.53 o
2 2 -6 18.21 20.01 0.33 o
-1 2 6 8.38 8.61 0.30 o
1 2 -6 8.37 8.67 0.15 o
0 2 6 40.49 40.21 1.28 o
0 2 -6 40.48 40.20 0.69 o
1 2 6 27.60 28.54 1.30 o
-1 2 -6 27.56 28.03 0.43 o
2 2 6 23.89 23.68 1.09 o
-2 2 -6 23.91 23.22 0.32 o
3 2 6 20.35 18.99 0.89 o
-3 2 -6 20.37 18.98 0.27 o
4 2 6 7.01 6.82 0.30 o
-4 2 -6 7.01 7.24 0.13 o
5 2 6 0.81 0.81 0.29 <
-5 2 -6 0.82 0.89 0.07 o
6 2 6 19.66 17.41 0.84 o
-6 2 -6 19.69 18.77 0.32 o
7 2 6 8.34 8.54 0.40 o
-7 2 -6 8.32 8.48 0.18 o
8 2 6 1.70 2.41 0.27 o
-8 2 -6 1.70 1.64 0.13 o
9 2 6 1.00 0.40 0.27 <
-9 2 -6 0.99 1.05 0.17 o
10 2 6 2.91 2.58 0.40 o
-10 2 -6 2.91 3.21 0.26 o
11 2 6 5.55 5.28 0.51 o
-11 2 -6 5.53 6.31 0.47 o
12 2 6 0.52 1.81 0.42 o
-12 2 -6 0.52 -0.16 0.75 <
13 2 6 0.46 0.28 0.95 <
-13 2 -6 0.45 0.68 0.76 <
-15 3 6 1.31 1.60 0.82 <
-14 3 6 3.03 2.99 0.37 o
14 3 -6 3.04 2.80 1.37 <
-13 3 6 3.61 3.73 0.41 o
13 3 -6 3.62 3.27 0.77 o
-12 3 6 0.82 0.84 0.28 o
12 3 -6 0.82 1.18 0.35 o
-11 3 6 0.13 -0.03 0.24 <
11 3 -6 0.13 0.28 0.25 <
-10 3 6 5.64 5.15 0.24 o
10 3 -6 5.66 4.91 0.22 o
-9 3 6 0.33 0.68 0.16 o
9 3 -6 0.34 0.46 0.16 <
-8 3 6 7.41 6.52 0.25 o
8 3 -6 7.42 7.07 0.23 o
-7 3 6 1.72 1.71 0.13 o
7 3 -6 1.72 1.56 0.16 o
-6 3 6 0.48 0.38 0.14 <
6 3 -6 0.48 0.39 0.11 o
-5 3 6 2.27 2.59 0.13 o
5 3 -6 2.27 2.56 0.11 o
-4 3 6 2.46 2.49 0.11 o
4 3 -6 2.44 2.06 0.10 o
-3 3 6 17.69 16.88 0.41 o
3 3 -6 17.67 16.28 0.32 o
-2 3 6 8.03 8.14 0.22 o
2 3 -6 8.02 7.97 0.16 o
-1 3 6 22.53 24.13 0.65 o
1 3 -6 22.55 25.37 0.45 o
0 3 6 37.01 38.47 1.01 o
0 3 -6 36.98 37.98 0.61 o
1 3 6 72.00 73.53 2.34 o
-1 3 -6 72.02 73.69 1.17 o
2 3 6 29.42 29.44 0.97 o
-2 3 -6 29.45 29.31 0.48 o
3 3 6 7.29 6.88 0.39 o
-3 3 -6 7.29 6.96 0.15 o
4 3 6 44.93 42.49 1.98 o
-4 3 -6 44.97 45.37 0.79 o
-5 3 -6 6.24 6.04 0.14 o
-6 3 -6 1.66 1.59 0.13 o
7 3 6 0.42 1.09 0.33 o
-7 3 -6 0.43 0.42 0.12 o
8 3 6 0.50 0.56 0.28 <
-8 3 -6 0.50 0.74 0.19 o
9 3 6 1.00 0.73 0.33 <
-9 3 -6 1.00 1.18 0.34 o
10 3 6 0.70 0.67 0.43 <
-10 3 -6 0.70 0.72 0.28 <
11 3 6 5.12 6.00 0.61 o
-11 3 -6 5.10 5.04 0.58 o
12 3 6 2.32 1.27 0.79 <
-12 3 -6 2.33 1.83 0.64 <
-14 4 6 4.30 4.98 0.56 o
-13 4 6 1.06 1.28 0.47 <
13 4 -6 1.07 2.23 1.09 <
-12 4 6 0.80 1.34 0.33 o
12 4 -6 0.80 0.66 0.50 <
-11 4 6 2.15 2.48 0.24 o
11 4 -6 2.16 2.02 0.39 o
-10 4 6 1.35 0.62 0.25 <
10 4 -6 1.35 1.44 0.25 o
-9 4 6 6.72 6.58 0.28 o
9 4 -6 6.74 5.96 0.26 o
-8 4 6 0.61 0.76 0.19 o
8 4 -6 0.62 0.73 0.19 o
-7 4 6 4.67 5.78 0.24 o
7 4 -6 4.65 4.85 0.22 o
-6 4 6 6.32 6.23 0.26 o
6 4 -6 6.35 5.83 0.24 o
-5 4 6 1.49 1.08 0.16 o
5 4 -6 1.48 1.28 0.12 o
-4 4 6 4.08 3.95 0.18 o
4 4 -6 4.06 3.94 0.14 o
-3 4 6 2.65 2.48 0.18 o
3 4 -6 2.64 2.33 0.13 o
-2 4 6 30.94 29.93 1.00 o
2 4 -6 30.91 29.77 0.57 o
-1 4 6 0.16 0.30 0.19 <
1 4 -6 0.16 0.16 0.08 <
0 4 6 1.07 1.38 0.18 o
0 4 -6 1.08 1.32 0.09 o
1 4 6 83.05 82.23 3.71 o
-1 4 -6 83.02 83.08 1.42 o
2 4 6 43.55 45.26 2.08 o
-2 4 -6 43.60 44.47 0.78 o
3 4 6 6.59 7.36 0.52 o
-3 4 -6 6.59 6.86 0.16 o
-4 4 -6 1.45 1.38 0.13 o
-5 4 -6 17.67 17.45 0.34 o
6 4 6 0.56 0.00 0.26 <
-6 4 -6 0.55 0.66 0.24 <
7 4 6 1.73 1.10 0.48 <
-7 4 -6 1.75 1.68 0.20 o
8 4 6 2.27 1.77 0.62 <
-8 4 -6 2.26 2.32 0.26 o
9 4 6 2.20 2.52 0.63 o
-9 4 -6 2.20 2.09 0.28 o
10 4 6 0.51 0.72 0.73 <
-10 4 -6 0.51 0.22 0.56 <
11 4 6 0.58 -0.16 0.57 <
-11 4 -6 0.58 0.08 0.84 <
-13 5 6 0.12 0.56 0.81 <
13 5 -6 0.12 -0.89 2.17 <
-12 5 6 1.23 0.98 0.30 o
12 5 -6 1.23 0.51 0.83 <
-11 5 6 1.25 1.20 0.38 o
11 5 -6 1.25 1.25 0.48 <
-10 5 6 1.02 0.42 0.29 <
10 5 -6 1.02 0.85 0.43 <
-9 5 6 8.52 8.76 0.33 o
9 5 -6 8.53 8.43 0.42 o
-8 5 6 7.61 7.55 0.28 o
8 5 -6 7.61 7.23 0.38 o
-7 5 6 0.27 -0.09 0.18 <
7 5 -6 0.27 0.42 0.17 <
-6 5 6 1.49 1.67 0.29 o
6 5 -6 1.49 1.62 0.24 o
-5 5 6 9.18 8.78 0.33 o
5 5 -6 9.19 9.17 0.29 o
-4 5 6 14.22 13.55 0.43 o
4 5 -6 14.21 13.55 0.40 o
-3 5 6 0.67 0.28 0.21 <
3 5 -6 0.67 0.59 0.20 o
-2 5 6 3.80 3.25 0.22 o
2 5 -6 3.80 3.62 0.18 o
-1 5 6 5.05 4.81 0.28 o
1 5 -6 5.06 4.79 0.20 o
0 5 6 3.15 3.57 0.33 o
0 5 -6 3.14 3.05 0.14 o
1 5 6 0.18 0.42 0.33 <
-1 5 -6 0.18 0.16 0.10 <
2 5 6 9.98 10.38 0.71 o
-2 5 -6 9.99 10.06 0.24 o
3 5 6 1.11 1.17 0.74 <
-3 5 -6 1.12 1.39 0.14 o
-4 5 -6 1.24 1.33 0.15 o
-5 5 -6 0.16 -0.03 0.20 <
-6 5 -6 1.06 1.06 0.24 o
-7 5 -6 1.88 1.94 0.23 o
-8 5 -6 1.29 1.48 0.33 o
-9 5 -6 0.57 0.42 0.48 <
-10 5 -6 0.10 0.43 0.86 <
-11 6 6 1.62 0.24 0.85 <
11 6 -6 1.62 0.53 0.91 <
-10 6 6 1.17 1.37 0.66 <
10 6 -6 1.17 0.95 0.78 <
-9 6 6 0.74 0.79 0.39 <
9 6 -6 0.74 -0.03 0.50 <
-8 6 6 2.45 2.72 0.28 o
8 6 -6 2.45 2.23 0.36 o
-7 6 6 0.47 0.54 0.35 <
7 6 -6 0.47 0.47 0.36 <
-6 6 6 1.54 1.60 0.37 o
6 6 -6 1.54 1.24 0.30 o
-5 6 6 2.31 2.12 0.43 o
5 6 -6 2.31 1.77 0.25 o
-4 6 6 0.05 0.44 0.30 <
4 6 -6 0.05 0.06 0.24 <
-3 6 6 0.27 0.32 0.28 <
3 6 -6 0.27 0.15 0.24 <
-2 6 6 2.56 1.97 0.53 o
2 6 -6 2.56 1.98 0.22 o
-1 6 6 6.90 5.00 0.46 o
1 6 -6 6.90 5.42 0.22 o
0 6 6 0.37 1.05 0.65 <
0 6 -6 0.37 0.20 0.20 <
1 6 6 0.46 -0.03 0.68 <
-1 6 -6 0.46 0.50 0.17 <
2 6 6 0.64 1.62 0.66 <
-2 6 -6 0.64 0.64 0.18 o
3 6 6 1.15 1.64 0.85 <
-3 6 -6 1.15 1.17 0.21 o
-4 6 -6 1.42 1.55 0.19 o
-5 6 -6 1.10 1.16 0.25 o
-6 6 -6 0.28 0.25 0.37 <
-7 6 -6 0.38 0.06 0.48 <
-8 6 -6 0.66 -0.17 0.64 <
-9 6 -6 0.63 1.22 1.08 <
-8 7 6 0.94 0.80 0.83 <
8 7 -6 0.94 0.91 0.98 <
-7 7 6 1.86 1.40 0.85 <
7 7 -6 1.86 1.43 0.64 <
-6 7 6 1.86 2.05 0.46 o
6 7 -6 1.87 0.28 0.50 <
-5 7 6 2.37 2.20 0.69 o
5 7 -6 2.37 1.89 0.55 o
-4 7 6 0.35 0.29 0.55 <
4 7 -6 0.35 0.38 0.42 <
-3 7 6 0.32 0.44 0.53 <
3 7 -6 0.32 0.44 0.29 <
-2 7 6 1.72 1.80 0.72 <
2 7 -6 1.72 1.48 0.28 o
-1 7 6 0.07 -0.26 0.52 <
1 7 -6 0.07 -0.12 0.31 <
0 7 6 0.43 -0.13 0.52 <
0 7 -6 0.43 -0.25 0.29 <
1 7 6 0.14 -0.63 1.14 <
-1 7 -6 0.14 0.05 0.29 <
2 7 6 0.18 -0.04 0.97 <
-2 7 -6 0.18 0.22 0.40 <
-3 7 -6 0.28 -0.49 0.46 <
-4 7 -6 0.70 0.85 0.47 <
-5 7 -6 2.92 2.01 0.77 <
-6 7 -6 0.04 -0.35 0.48 <
-3 8 6 0.43 0.02 0.79 <
3 8 -6 0.43 0.06 1.34 <
-16 1 7 1.13 0.42 0.56 <
16 1 -7 1.13 1.40 0.82 <
-15 1 7 1.00 0.51 0.48 <
15 1 -7 1.00 1.13 0.59 <
-14 1 7 1.22 1.05 0.31 o
14 1 -7 1.21 0.90 0.33 <
-13 1 7 4.02 4.78 0.30 o
13 1 -7 4.02 4.34 0.26 o
-12 1 7 1.75 2.51 0.26 o
12 1 -7 1.75 1.77 0.17 o
-11 1 7 5.36 5.77 0.22 o
11 1 -7 5.36 4.95 0.21 o
-10 1 7 5.99 5.88 0.22 o
10 1 -7 6.02 5.75 0.22 o
-9 1 7 1.01 0.94 0.15 o
9 1 -7 1.00 0.68 0.10 o
-8 1 7 14.11 13.66 0.31 o
8 1 -7 14.09 13.25 0.34 o
-7 1 7 53.32 52.47 0.97 o
7 1 -7 53.40 52.00 1.19 o
-6 1 7 24.07 23.57 0.50 o
6 1 -7 24.00 23.04 0.48 o
-5 1 7 5.05 4.70 0.14 o
5 1 -7 5.05 4.48 0.10 o
-4 1 7 90.41 87.11 2.24 o
4 1 -7 90.44 86.04 1.21 o
-3 1 7 7.83 8.85 0.31 o
3 1 -7 7.82 9.19 0.14 o
-2 1 7 8.01 8.18 0.29 o
2 1 -7 7.99 8.13 0.13 o
-1 1 7 151.64 146.46 4.60 o
1 1 -7 151.65 145.62 1.96 o
0 1 7 6.71 6.82 0.24 o
0 1 -7 6.72 6.78 0.12 o
1 1 7 13.14 13.71 0.63 o
-1 1 -7 13.17 13.12 0.22 o
2 1 7 36.12 35.28 1.58 o
-2 1 -7 36.08 33.99 0.51 o
3 1 7 15.73 15.06 0.69 o
-3 1 -7 15.77 14.64 0.23 o
4 1 7 8.85 9.06 0.46 o
-4 1 -7 8.83 8.74 0.15 o
5 1 7 9.96 8.67 0.47 o
-5 1 -7 9.97 9.60 0.18 o
6 1 7 12.85 13.30 0.68 o
-6 1 -7 12.82 13.89 0.27 o
7 1 7 4.09 4.29 0.25 o
-7 1 -7 4.10 4.34 0.13 o
8 1 7 6.90 6.63 0.32 o
-8 1 -7 6.90 7.47 0.19 o
9 1 7 22.14 22.00 0.80 o
-9 1 -7 22.13 24.07 0.55 o
10 1 7 21.82 23.05 0.84 o
-10 1 -7 21.83 24.17 0.62 o
11 1 7 0.47 0.45 0.42 <
-11 1 -7 0.47 0.49 0.42 <
12 1 7 0.74 0.53 0.43 <
-12 1 -7 0.74 0.69 0.65 <
13 1 7 4.08 3.68 1.13 o
-15 2 7 0.68 1.08 0.48 <
15 2 -7 0.69 0.80 0.63 <
-14 2 7 0.63 0.76 0.37 <
14 2 -7 0.64 0.44 0.49 <
-13 2 7 0.89 0.45 0.33 <
13 2 -7 0.89 0.58 0.32 <
-12 2 7 0.25 0.27 0.23 <
12 2 -7 0.25 0.35 0.23 <
-11 2 7 7.69 6.74 0.28 o
11 2 -7 7.71 7.27 0.25 o
-10 2 7 0.01 0.11 0.17 <
10 2 -7 0.02 0.14 0.16 <
-9 2 7 6.56 6.53 0.25 o
9 2 -7 6.55 6.43 0.21 o
-8 2 7 43.77 43.84 1.18 o
8 2 -7 43.77 43.24 1.00 o
-7 2 7 8.72 9.54 0.26 o
7 2 -7 8.73 9.59 0.26 o
-6 2 7 2.99 3.45 0.13 o
6 2 -7 3.00 3.22 0.12 o
-5 2 7 14.63 14.82 0.36 o
5 2 -7 14.60 14.47 0.29 o
-4 2 7 10.97 9.93 0.26 o
4 2 -7 10.98 9.59 0.18 o
-3 2 7 20.27 19.96 0.54 o
3 2 -7 20.29 19.58 0.32 o
-2 2 7 25.23 25.71 0.68 o
2 2 -7 25.27 25.91 0.42 o
-1 2 7 84.40 84.52 2.68 o
1 2 -7 84.26 85.73 1.71 o
0 2 7 181.50 179.92 5.68 o
0 2 -7 181.71 185.16 3.35 o
1 2 7 8.13 7.21 0.28 o
-1 2 -7 8.09 7.53 0.14 o
2 2 7 4.99 4.52 0.26 o
-2 2 -7 4.96 4.45 0.10 o
3 2 7 87.16 82.58 3.69 o
-3 2 -7 87.22 81.12 1.21 o
4 2 7 3.19 2.36 0.35 o
-4 2 -7 3.19 2.49 0.08 o
-5 2 -7 7.97 7.49 0.14 o
-6 2 -7 1.31 1.08 0.10 o
7 2 7 8.33 9.35 0.56 o
-7 2 -7 8.32 9.60 0.23 o
8 2 7 1.13 1.25 0.28 o
-8 2 -7 1.14 1.38 0.16 o
9 2 7 3.14 2.79 0.38 o
-9 2 -7 3.13 3.14 0.20 o
10 2 7 4.76 6.43 0.51 o
-10 2 -7 4.75 5.08 0.29 o
11 2 7 1.95 2.31 0.48 o
-11 2 -7 1.96 1.77 0.56 o
12 2 7 1.59 0.73 0.61 <
-12 2 -7 1.58 1.64 0.90 <
13 2 7 0.35 -0.38 1.50 <
-15 3 7 1.21 0.98 0.63 <
15 3 -7 1.21 0.53 1.00 <
-14 3 7 0.20 0.53 0.42 <
14 3 -7 0.20 0.06 0.75 <
-13 3 7 0.40 -0.06 0.29 <
13 3 -7 0.40 0.60 0.43 <
-12 3 7 0.69 0.72 0.30 <
12 3 -7 0.69 0.60 0.27 <
-11 3 7 1.37 1.37 0.26 o
11 3 -7 1.37 1.52 0.24 o
-10 3 7 10.89 10.82 0.38 o
10 3 -7 10.91 10.97 0.32 o
-9 3 7 3.35 3.51 0.25 o
9 3 -7 3.34 3.11 0.19 o
-8 3 7 3.22 3.36 0.18 o
8 3 -7 3.23 3.21 0.17 o
-7 3 7 5.55 5.59 0.22 o
7 3 -7 5.56 5.46 0.19 o
-6 3 7 2.56 2.96 0.16 o
6 3 -7 2.55 2.83 0.12 o
-5 3 7 16.60 17.34 0.43 o
5 3 -7 16.62 16.91 0.37 o
-4 3 7 7.21 7.06 0.20 o
4 3 -7 7.20 6.94 0.18 o
-3 3 7 56.52 55.47 1.45 o
3 3 -7 56.52 54.04 1.00 o
-2 3 7 1.03 1.18 0.12 o
2 3 -7 1.03 1.00 0.06 o
-1 3 7 4.73 4.22 0.18 o
1 3 -7 4.73 4.16 0.10 o
0 3 7 79.13 77.38 2.49 o
0 3 -7 79.09 79.15 1.34 o
1 3 7 36.25 39.71 1.81 o
-1 3 -7 36.29 38.89 0.64 o
2 3 7 40.09 37.80 1.73 o
-2 3 -7 40.06 37.08 0.65 o
3 3 7 1.99 1.03 0.49 <
-3 3 -7 2.01 1.36 0.08 o
4 3 7 5.47 4.45 0.51 o
-4 3 -7 5.48 4.91 0.13 o
-5 3 -7 6.03 6.01 0.18 o
-6 3 -7 1.52 1.23 0.13 o
7 3 7 1.99 1.40 0.34 o
-7 3 -7 1.99 1.66 0.14 o
8 3 7 1.38 1.98 0.38 o
-8 3 -7 1.38 1.42 0.22 o
9 3 7 0.96 0.98 0.42 <
-9 3 -7 0.95 1.42 0.28 o
10 3 7 0.50 -0.95 0.37 <
-10 3 -7 0.50 0.54 0.38 <
11 3 7 0.67 0.94 0.81 <
-11 3 -7 0.67 0.70 0.64 <
12 3 7 0.79 0.58 0.67 <
-12 3 -7 0.79 0.58 0.91 <
-14 4 7 0.32 1.05 0.70 <
14 4 -7 0.32 0.78 0.77 <
-13 4 7 1.78 1.95 0.38 o
13 4 -7 1.78 1.48 0.47 o
-12 4 7 0.59 0.46 0.25 <
12 4 -7 0.59 0.97 0.32 o
-11 4 7 2.76 2.31 0.25 o
11 4 -7 2.76 2.66 0.33 o
-10 4 7 6.20 6.22 0.30 o
10 4 -7 6.20 6.07 0.30 o
-9 4 7 3.73 4.27 0.23 o
9 4 -7 3.74 4.70 0.25 o
-8 4 7 1.89 1.77 0.24 o
8 4 -7 1.89 1.82 0.21 o
-7 4 7 0.98 0.60 0.19 o
7 4 -7 0.98 0.74 0.17 o
-6 4 7 3.55 3.95 0.27 o
6 4 -7 3.54 4.11 0.17 o
-5 4 7 0.14 0.23 0.17 <
5 4 -7 0.14 0.15 0.12 <
-4 4 7 3.65 3.75 0.21 o
4 4 -7 3.66 3.60 0.13 o
-3 4 7 1.32 1.47 0.20 o
3 4 -7 1.32 0.96 0.11 o
-2 4 7 3.49 3.10 0.21 o
2 4 -7 3.49 2.95 0.12 o
-1 4 7 3.82 4.51 0.23 o
1 4 -7 3.82 4.20 0.24 o
0 4 7 2.76 2.20 0.27 o
0 4 -7 2.77 2.51 0.11 o
1 4 7 9.34 10.10 0.61 o
-1 4 -7 9.33 9.69 0.19 o
-2 4 -7 6.24 5.54 0.14 o
-3 4 -7 3.37 3.59 0.13 o
-4 4 -7 5.12 5.13 0.16 o
-5 4 -7 1.83 1.34 0.13 o
-6 4 -7 2.01 1.72 0.18 o
7 4 7 2.90 2.47 0.66 o
-7 4 -7 2.90 3.04 0.18 o
8 4 7 0.45 0.35 0.53 <
-8 4 -7 0.45 0.37 0.25 <
9 4 7 0.49 -0.39 0.52 <
-9 4 -7 0.50 0.71 0.40 <
10 4 7 0.50 0.79 0.91 <
-10 4 -7 0.50 0.42 0.58 <
11 4 7 0.54 0.52 1.58 <
-11 4 -7 0.54 0.93 1.04 <
-13 5 7 0.19 -0.02 0.88 <
-12 5 7 3.65 3.71 0.42 o
12 5 -7 3.65 3.81 1.01 o
-11 5 7 0.63 0.55 0.50 <
11 5 -7 0.63 0.84 0.55 <
-10 5 7 1.16 0.37 0.29 <
10 5 -7 1.17 0.89 0.42 <
-9 5 7 9.97 9.83 0.44 o
9 5 -7 9.96 9.41 0.39 o
-8 5 7 0.91 1.20 0.26 o
8 5 -7 0.91 1.60 0.35 o
-7 5 7 1.11 1.07 0.20 o
7 5 -7 1.12 1.20 0.21 o
-6 5 7 3.65 3.16 0.27 o
6 5 -7 3.64 3.28 0.24 o
-5 5 7 1.61 1.97 0.25 o
5 5 -7 1.60 2.22 0.16 o
-4 5 7 0.36 0.13 0.31 <
4 5 -7 0.36 0.48 0.17 <
-3 5 7 1.60 1.42 0.25 o
3 5 -7 1.60 1.36 0.19 o
-2 5 7 6.52 6.16 0.30 o
2 5 -7 6.52 5.95 0.21 o
-1 5 7 3.01 2.35 0.36 o
1 5 -7 3.01 2.91 0.15 o
0 5 7 1.13 0.86 0.29 <
0 5 -7 1.13 1.10 0.13 o
1 5 7 15.53 14.05 0.82 o
-1 5 -7 15.54 14.87 0.36 o
-2 5 -7 8.08 7.93 0.24 o
-3 5 -7 0.10 0.29 0.16 <
-4 5 -7 3.89 4.04 0.21 o
-5 5 -7 2.05 1.85 0.18 o
-6 5 -7 0.04 0.19 0.27 <
-7 5 -7 0.95 0.95 0.28 o
-8 5 -7 0.54 0.43 0.29 <
-9 5 -7 0.05 -0.26 0.62 <
-10 5 -7 0.64 1.28 1.28 <
-11 6 7 0.42 0.99 0.81 <
11 6 -7 0.42 1.30 1.02 <
-10 6 7 0.99 0.66 0.47 <
10 6 -7 0.99 0.17 0.67 <
-9 6 7 2.04 1.41 0.47 o
9 6 -7 2.04 1.20 0.73 <
-8 6 7 5.25 5.27 0.48 o
8 6 -7 5.25 5.82 0.58 o
-7 6 7 0.01 -0.12 0.35 <
7 6 -7 0.01 0.43 0.35 <
-6 6 7 0.65 1.52 0.38 o
6 6 -7 0.65 0.73 0.44 <
-5 6 7 5.42 4.78 0.43 o
5 6 -7 5.42 4.71 0.31 o
-4 6 7 0.12 0.41 0.46 <
4 6 -7 0.12 0.24 0.25 <
-3 6 7 0.12 -0.10 0.44 <
3 6 -7 0.12 -0.21 0.25 <
-2 6 7 1.02 0.76 0.52 <
2 6 -7 1.02 0.51 0.25 <
-1 6 7 0.20 -0.48 0.83 <
1 6 -7 0.20 0.40 0.17 <
0 6 7 1.41 1.68 0.74 <
0 6 -7 1.41 1.24 0.21 o
1 6 7 1.23 1.21 0.75 <
-1 6 -7 1.22 1.17 0.26 o
-2 6 -7 0.15 0.25 0.20 <
-3 6 -7 0.01 0.09 0.21 <
-4 6 -7 0.02 0.11 0.27 <
-5 6 -7 0.36 -0.08 0.36 <
-6 6 -7 0.24 0.45 0.41 <
-7 6 -7 1.89 1.43 0.53 <
-8 6 -7 2.29 0.85 0.94 <
-8 7 7 0.20 0.05 1.29 <
8 7 -7 0.20 0.44 0.85 <
-7 7 7 0.17 0.06 0.73 <
7 7 -7 0.17 0.21 0.56 <
-6 7 7 1.11 0.31 0.54 <
6 7 -7 1.11 1.31 0.52 <
-5 7 7 0.35 -0.35 0.78 <
5 7 -7 0.35 -0.02 0.45 <
-4 7 7 0.08 -0.32 0.70 <
4 7 -7 0.08 -0.31 0.40 <
-3 7 7 0.26 0.24 0.96 <
3 7 -7 0.26 0.05 0.26 <
-2 7 7 0.05 0.23 0.81 <
2 7 -7 0.05 -0.07 0.40 <
-1 7 7 0.04 -0.33 0.62 <
1 7 -7 0.04 -0.48 0.32 <
0 7 7 0.05 -0.54 1.32 <
0 7 -7 0.05 0.34 0.33 <
1 7 7 0.38 0.67 0.96 <
-1 7 -7 0.38 0.34 0.47 <
-2 7 -7 0.18 -0.11 0.42 <
-3 7 -7 0.28 0.57 0.40 <
-4 7 -7 0.23 -0.06 0.64 <
-5 7 -7 0.01 0.12 0.59 <
-6 7 -7 0.11 2.25 1.20 <
-16 0 8 0.14 -0.01 0.91 <
16 0 -8 0.14 -0.68 0.74 <
-15 0 8 0.81 1.37 0.74 <
15 0 -8 0.80 0.09 0.64 <
-14 0 8 3.38 3.76 0.49 o
14 0 -8 3.39 3.19 0.58 o
-13 0 8 2.70 3.85 0.49 o
13 0 -8 2.70 3.10 0.41 o
-12 0 8 3.31 2.96 0.30 o
12 0 -8 3.28 2.82 0.25 o
-11 0 8 3.96 3.68 0.24 o
11 0 -8 3.96 4.08 0.26 o
-10 0 8 18.60 17.19 0.51 o
10 0 -8 18.56 18.01 0.66 o
-9 0 8 2.48 2.20 0.17 o
9 0 -8 2.45 2.01 0.17 o
-8 0 8 0.21 -0.07 0.14 <
8 0 -8 0.21 0.44 0.22 <
-7 0 8 48.09 47.77 1.54 o
7 0 -8 48.02 48.06 1.55 o
-6 0 8 17.79 17.76 0.49 o
6 0 -8 17.82 17.49 0.48 o
-5 0 8 59.26 52.76 1.37 o
5 0 -8 59.29 52.50 1.06 o
-4 0 8 4.57 4.57 0.26 o
4 0 -8 4.56 4.76 0.12 o
-3 0 8 4.33 4.42 0.24 o
3 0 -8 4.34 4.93 0.12 o
-2 0 8 356.97 358.60 15.86 o
2 0 -8 357.05 358.32 9.21 o
-1 0 8 193.11 190.13 8.42 o
1 0 -8 193.14 188.97 3.74 o
0 0 -8 44.01 40.36 0.91 o
-1 0 -8 31.19 26.20 0.60 o
-2 0 -8 105.23 88.61 1.98 o
-3 0 -8 18.09 15.30 0.37 o
-4 0 -8 24.74 21.93 0.52 o
-5 0 -8 23.47 25.99 0.71 o
-6 0 -8 32.40 37.00 1.00 o
7 0 8 6.62 6.50 0.42 o
-7 0 -8 6.59 8.20 0.30 o
8 0 8 8.88 8.21 0.52 o
-8 0 -8 8.86 8.37 0.31 o
9 0 8 79.01 85.26 3.90 o
-9 0 -8 79.03 91.46 2.41 o
10 0 8 0.67 1.32 0.31 o
-10 0 -8 0.67 0.89 0.30 o
11 0 8 5.11 5.34 0.51 o
-11 0 -8 5.11 6.57 0.58 o
12 0 8 10.83 9.68 0.90 o
-12 0 -8 10.84 11.23 1.06 o
16 1 -8 0.87 0.89 1.04 <
-15 1 8 0.04 0.31 0.64 <
15 1 -8 0.04 -0.12 0.65 <
-14 1 8 0.12 -0.24 0.34 <
14 1 -8 0.13 0.80 0.37 <
-13 1 8 0.58 0.55 0.26 <
13 1 -8 0.58 0.42 0.26 <
-12 1 8 2.14 2.14 0.28 o
12 1 -8 2.14 2.05 0.22 o
-11 1 8 12.81 11.58 0.32 o
11 1 -8 12.78 11.59 0.35 o
-10 1 8 2.60 3.18 0.23 o
10 1 -8 2.59 2.66 0.15 o
-9 1 8 4.68 4.83 0.17 o
9 1 -8 4.68 4.61 0.17 o
-8 1 8 28.53 27.55 0.58 o
8 1 -8 28.50 27.25 0.65 o
-7 1 8 24.53 25.95 0.50 o
7 1 -8 24.52 26.22 0.62 o
-6 1 8 2.68 2.92 0.13 o
6 1 -8 2.68 2.85 0.09 o
-5 1 8 9.37 7.66 0.22 o
5 1 -8 9.38 7.41 0.13 o
-4 1 8 7.75 5.88 0.20 o
4 1 -8 7.76 6.11 0.10 o
-3 1 8 15.03 16.76 0.56 o
3 1 -8 15.04 17.03 0.25 o
-2 1 8 7.75 7.66 0.27 o
2 1 -8 7.77 7.91 0.11 o
-1 1 8 170.68 168.78 7.47 o
1 1 -8 170.77 166.27 2.13 o
0 1 8 5.75 6.00 0.29 o
0 1 -8 5.75 5.65 0.11 o
1 1 8 33.75 31.25 1.41 o
-1 1 -8 33.78 30.50 0.47 o
2 1 8 15.17 13.68 0.62 o
-2 1 -8 15.21 13.12 0.23 o
3 1 8 5.53 3.86 0.20 o
-3 1 -8 5.55 4.00 0.09 o
-4 1 -8 0.99 0.66 0.06 o
-5 1 -8 3.33 4.34 0.11 o
6 1 8 6.85 7.63 0.46 o
-6 1 -8 6.83 7.85 0.20 o
7 1 8 2.14 2.13 0.20 o
-7 1 -8 2.16 2.43 0.12 o
8 1 8 24.37 25.85 0.91 o
-8 1 -8 24.34 27.82 0.56 o
9 1 8 4.75 4.35 0.32 o
-9 1 -8 4.75 4.78 0.22 o
10 1 8 6.05 6.21 0.49 o
-10 1 -8 6.06 7.50 0.31 o
11 1 8 3.85 3.65 0.45 o
-11 1 -8 3.84 4.29 0.44 o
12 1 8 2.67 2.85 0.60 o
-12 1 -8 2.67 3.49 0.44 o
13 1 8 0.85 1.27 1.42 <
-13 1 -8 0.86 0.77 1.11 <
-15 2 8 0.76 1.00 0.60 <
15 2 -8 0.76 0.96 0.87 <
-14 2 8 2.85 2.84 0.32 o
14 2 -8 2.84 2.30 0.38 o
-13 2 8 0.12 0.55 0.23 <
13 2 -8 0.12 0.07 0.26 <
-12 2 8 1.52 1.66 0.27 o
12 2 -8 1.53 1.70 0.22 o
-11 2 8 8.32 8.09 0.35 o
11 2 -8 8.32 8.09 0.27 o
-10 2 8 4.27 4.44 0.24 o
10 2 -8 4.27 4.17 0.21 o
-9 2 8 3.77 3.34 0.19 o
9 2 -8 3.78 3.14 0.16 o
-8 2 8 10.10 9.97 0.28 o
8 2 -8 10.11 9.53 0.27 o
-7 2 8 0.34 0.41 0.14 <
7 2 -8 0.34 0.66 0.10 o
-6 2 8 3.07 3.05 0.14 o
6 2 -8 3.06 2.58 0.10 o
-5 2 8 18.19 17.49 0.43 o
5 2 -8 18.21 17.34 0.34 o
-4 2 8 53.12 47.51 1.25 o
4 2 -8 53.09 46.90 0.80 o
-3 2 8 9.82 9.64 0.30 o
3 2 -8 9.80 9.04 0.16 o
-2 2 8 19.58 20.94 0.56 o
2 2 -8 19.57 21.25 0.33 o
-1 2 8 43.27 40.97 1.31 o
1 2 -8 43.29 41.42 0.66 o
0 2 8 90.64 90.20 2.87 o
0 2 -8 90.58 92.66 1.46 o
1 2 8 6.01 6.21 0.28 o
-1 2 -8 6.02 6.69 0.14 o
2 2 8 0.24 0.64 0.17 o
-2 2 -8 0.24 0.41 0.06 o
3 2 8 21.68 21.30 0.99 o
-3 2 -8 21.69 20.87 0.38 o
-4 2 -8 2.24 2.06 0.09 o
-5 2 -8 1.66 1.63 0.09 o
-6 2 -8 1.28 1.32 0.10 o
7 2 8 3.11 3.42 0.34 o
-7 2 -8 3.11 3.42 0.16 o
8 2 8 8.75 9.52 0.60 o
-8 2 -8 8.74 9.67 0.28 o
9 2 8 1.29 1.48 0.40 o
-9 2 -8 1.29 1.03 0.20 o
10 2 8 5.27 5.25 0.49 o
-10 2 -8 5.27 5.58 0.32 o
11 2 8 4.11 3.85 0.45 o
-11 2 -8 4.12 4.64 0.70 o
12 2 8 1.30 2.04 0.99 <
-12 2 -8 1.30 0.83 1.12 <
-15 3 8 0.23 0.61 0.58 <
15 3 -8 0.23 -0.20 0.73 <
-14 3 8 2.76 3.26 0.46 o
14 3 -8 2.75 3.36 0.67 o
-13 3 8 1.24 0.73 0.35 <
13 3 -8 1.24 1.26 0.50 <
-12 3 8 8.74 8.02 0.37 o
12 3 -8 8.76 8.76 0.37 o
-11 3 8 3.99 4.05 0.25 o
11 3 -8 3.98 3.87 0.24 o
-10 3 8 10.34 11.30 0.40 o
10 3 -8 10.35 10.92 0.34 o
-9 3 8 13.28 12.68 0.41 o
9 3 -8 13.30 12.57 0.35 o
-8 3 8 6.05 6.89 0.26 o
8 3 -8 6.04 6.40 0.20 o
-7 3 8 15.95 17.83 0.52 o
7 3 -8 15.96 16.58 0.42 o
-6 3 8 0.22 0.19 0.16 <
6 3 -8 0.23 0.41 0.11 o
-5 3 8 0.27 0.18 0.18 <
5 3 -8 0.27 0.10 0.08 <
-4 3 8 0.26 0.86 0.14 o
4 3 -8 0.26 0.63 0.08 o
-3 3 8 15.29 12.99 0.38 o
3 3 -8 15.26 12.98 0.29 o
-2 3 8 11.88 11.90 0.35 o
2 3 -8 11.86 12.42 0.25 o
-1 3 8 10.08 11.21 0.35 o
1 3 -8 10.12 11.73 0.22 o
0 3 8 56.61 54.77 1.77 o
0 3 -8 56.54 55.35 1.02 o
1 3 8 16.16 17.56 0.85 o
-1 3 -8 16.17 17.22 0.34 o
2 3 8 18.88 18.86 0.97 o
-2 3 -8 18.90 20.45 0.40 o
3 3 8 5.79 4.28 0.52 o
-3 3 -8 5.78 5.06 0.16 o
-4 3 -8 6.73 6.39 0.18 o
-5 3 -8 7.75 7.65 0.22 o
-6 3 -8 2.62 2.22 0.17 o
7 3 8 1.56 1.66 0.37 o
-7 3 -8 1.56 1.81 0.19 o
8 3 8 2.36 1.73 0.36 o
-8 3 -8 2.36 2.26 0.22 o
9 3 8 2.50 2.51 0.43 o
-9 3 -8 2.51 3.02 0.41 o
10 3 8 0.76 0.82 0.54 <
-10 3 -8 0.76 0.19 0.38 <
11 3 8 1.42 1.86 0.88 <
-11 3 -8 1.43 0.81 0.56 <
12 3 8 0.03 0.39 1.27 <
-12 3 -8 0.03 -0.07 1.38 <
-14 4 8 0.11 0.45 0.56 <
14 4 -8 0.11 0.17 0.56 <
-13 4 8 5.53 5.32 0.39 o
13 4 -8 5.53 5.14 0.77 o
-12 4 8 0.62 0.83 0.39 <
12 4 -8 0.62 0.40 0.41 <
-11 4 8 2.25 2.20 0.42 o
11 4 -8 2.26 2.74 0.29 o
-10 4 8 19.91 19.25 0.60 o
10 4 -8 19.90 19.64 0.60 o
-9 4 8 15.44 16.55 0.53 o
9 4 -8 15.47 15.87 0.45 o
-8 4 8 1.43 0.93 0.27 o
8 4 -8 1.43 0.84 0.20 o
-7 4 8 2.59 2.01 0.24 o
7 4 -8 2.58 2.57 0.23 o
-6 4 8 9.27 11.39 0.42 o
6 4 -8 9.30 11.04 0.28 o
-5 4 8 4.46 4.30 0.24 o
5 4 -8 4.43 4.59 0.16 o
-4 4 8 3.36 3.06 0.30 o
4 4 -8 3.36 3.60 0.17 o
-3 4 8 8.91 7.93 0.33 o
3 4 -8 8.89 8.32 0.24 o
-2 4 8 18.11 16.56 0.59 o
2 4 -8 18.11 17.36 0.35 o
-1 4 8 2.02 1.85 0.22 o
1 4 -8 1.99 1.60 0.09 o
0 4 8 0.75 0.74 0.38 <
0 4 -8 0.75 0.86 0.11 o
-1 4 -8 40.71 40.99 0.78 o
-2 4 -8 2.10 1.95 0.11 o
-3 4 -8 3.22 3.41 0.15 o
-4 4 -8 4.16 4.14 0.17 o
-5 4 -8 1.59 1.79 0.23 o
6 4 8 4.04 3.85 0.38 o
-6 4 -8 4.05 3.97 0.22 o
7 4 8 1.99 1.48 0.37 o
-7 4 -8 1.98 1.57 0.29 o
8 4 8 0.31 -0.92 0.57 <
-8 4 -8 0.31 0.24 0.39 <
9 4 8 0.41 0.41 0.79 <
-9 4 -8 0.41 0.70 0.42 <
10 4 8 1.96 1.21 0.95 <
-10 4 -8 1.96 2.32 0.65 o
11 4 8 0.39 0.17 1.18 <
-12 5 8 0.79 0.33 0.63 <
12 5 -8 0.79 0.74 0.96 <
-11 5 8 1.35 1.37 0.38 o
11 5 -8 1.34 1.38 0.50 <
-10 5 8 0.15 0.18 0.38 <
10 5 -8 0.15 -0.27 0.37 <
-9 5 8 3.70 3.64 0.33 o
9 5 -8 3.70 4.36 0.31 o
-8 5 8 0.68 0.53 0.32 <
8 5 -8 0.68 0.85 0.35 <
-7 5 8 0.41 0.06 0.24 <
7 5 -8 0.41 0.52 0.25 <
-6 5 8 0.01 0.52 0.26 <
6 5 -8 0.01 -0.03 0.26 <
-5 5 8 0.25 0.50 0.23 <
5 5 -8 0.26 0.57 0.21 <
-4 5 8 0.54 0.42 0.31 <
4 5 -8 0.54 0.32 0.18 <
-3 5 8 2.65 2.24 0.28 o
3 5 -8 2.64 2.76 0.18 o
-2 5 8 0.39 0.46 0.33 <
2 5 -8 0.39 0.47 0.20 <
-1 5 8 0.45 0.29 0.49 <
1 5 -8 0.45 0.12 0.14 <
0 5 8 7.00 5.77 0.75 o
0 5 -8 6.99 6.25 0.18 o
-1 5 -8 5.68 5.38 0.19 o
-2 5 -8 1.99 1.82 0.15 o
-3 5 -8 3.03 2.98 0.20 o
-4 5 -8 1.11 0.67 0.21 o
5 5 8 0.40 -0.09 0.66 <
-5 5 -8 0.40 0.11 0.24 <
-6 5 -8 2.44 2.39 0.30 o
-7 5 -8 3.63 3.72 0.37 o
-8 5 -8 0.66 0.98 0.49 <
-9 5 -8 0.17 -0.12 0.59 <
-11 6 8 0.20 0.62 0.61 <
11 6 -8 0.20 0.56 0.80 <
-10 6 8 1.12 0.93 0.85 <
10 6 -8 1.12 1.56 1.01 <
-9 6 8 0.19 0.02 0.64 <
9 6 -8 0.19 0.24 0.51 <
-8 6 8 0.28 0.04 0.38 <
8 6 -8 0.27 0.47 0.56 <
-7 6 8 0.39 0.26 0.32 <
7 6 -8 0.39 -0.14 0.33 <
-6 6 8 1.40 1.51 0.37 o
6 6 -8 1.40 0.70 0.30 <
-5 6 8 1.26 1.23 0.42 <
5 6 -8 1.26 0.89 0.26 o
-4 6 8 0.11 0.88 0.47 <
4 6 -8 0.11 0.09 0.29 <
-3 6 8 0.67 0.61 0.39 <
3 6 -8 0.67 0.87 0.29 o
-2 6 8 0.94 0.57 0.56 <
2 6 -8 0.94 1.06 0.23 o
-1 6 8 0.74 0.67 1.17 <
1 6 -8 0.75 0.80 0.20 o
0 6 8 1.05 0.69 1.00 <
0 6 -8 1.05 1.33 0.30 o
-1 6 -8 0.17 0.19 0.24 <
-2 6 -8 0.32 0.08 0.22 <
-3 6 -8 0.95 0.87 0.28 o
-4 6 -8 2.95 2.98 0.34 o
-5 6 -8 0.03 0.21 0.34 <
-6 6 -8 0.19 0.10 0.44 <
-7 6 -8 0.34 -0.43 0.74 <
-8 6 -8 0.51 0.94 0.76 <
8 7 -8 0.00 0.17 1.14 <
-7 7 8 0.17 -0.08 0.62 <
7 7 -8 0.17 0.47 0.97 <
-6 7 8 2.34 2.07 0.58 o
6 7 -8 2.34 1.76 0.50 o
-5 7 8 0.40 0.28 0.78 <
5 7 -8 0.40 0.25 0.42 <
-4 7 8 0.52 -0.32 0.74 <
4 7 -8 0.52 -0.09 0.35 <
-3 7 8 1.80 1.61 0.98 <
3 7 -8 1.80 1.51 0.32 o
2 7 -8 2.18 1.69 0.36 o
1 7 -8 0.49 0.29 0.40 <
0 7 -8 0.62 0.59 0.43 <
-1 7 -8 0.52 -0.12 0.55 <
-2 7 -8 0.21 -0.29 0.43 <
-3 7 -8 0.26 0.08 0.54 <
-4 7 -8 0.25 0.32 0.81 <
-5 7 -8 0.39 0.20 0.94 <
-16 1 9 0.39 0.78 0.61 <
16 1 -9 0.39 -0.09 0.73 <
-15 1 9 2.83 2.41 0.65 o
15 1 -9 2.84 2.13 0.44 o
-14 1 9 0.06 -0.05 0.40 <
14 1 -9 0.06 0.66 0.30 <
-13 1 9 0.54 1.02 0.30 o
13 1 -9 0.53 0.55 0.23 <
-12 1 9 6.37 5.86 0.29 o
12 1 -9 6.37 6.43 0.27 o
-11 1 9 0.62 0.11 0.19 <
11 1 -9 0.61 0.39 0.16 <
-10 1 9 0.22 0.30 0.17 <
10 1 -9 0.22 0.22 0.15 <
-9 1 9 7.86 8.27 0.24 o
9 1 -9 7.83 8.49 0.25 o
-8 1 9 2.53 2.75 0.14 o
8 1 -9 2.54 2.63 0.13 o
-7 1 9 3.87 3.95 0.15 o
7 1 -9 3.87 3.87 0.13 o
-6 1 9 20.84 20.02 0.48 o
6 1 -9 20.88 19.64 0.33 o
-5 1 9 37.29 31.43 0.72 o
5 1 -9 37.24 31.17 0.48 o
-4 1 9 18.53 15.85 0.44 o
4 1 -9 18.52 16.27 0.24 o
-3 1 9 71.22 76.44 2.41 o
3 1 -9 71.28 76.07 1.07 o
-2 1 9 149.71 151.19 4.74 o
2 1 -9 149.66 151.80 2.03 o
-1 1 9 173.40 168.98 5.29 o
1 1 -9 173.36 169.35 2.51 o
0 1 9 0.60 0.65 0.14 o
0 1 -9 0.60 0.66 0.04 o
1 1 9 17.30 17.32 0.79 o
-1 1 -9 17.33 16.81 0.28 o
-2 1 -9 57.41 49.95 0.80 o
-3 1 -9 9.80 8.02 0.16 o
-4 1 -9 6.22 5.88 0.13 o
-5 1 -9 7.82 9.47 0.21 o
6 1 9 1.19 1.12 0.34 o
-6 1 -9 1.18 1.65 0.12 o
7 1 9 0.28 -0.28 0.43 <
-7 1 -9 0.28 0.08 0.11 <
8 1 9 12.86 14.39 0.57 o
-8 1 -9 12.88 15.98 0.36 o
9 1 9 6.25 6.99 0.43 o
-9 1 -9 6.25 7.94 0.27 o
10 1 9 0.63 1.81 0.44 o
-10 1 -9 0.63 0.83 0.31 <
11 1 9 2.71 2.62 0.64 o
-11 1 -9 2.71 3.73 0.54 o
12 1 9 2.41 3.19 0.79 o
-12 1 -9 2.42 3.25 0.84 o
-15 2 9 0.66 0.52 0.53 <
15 2 -9 0.66 0.72 0.50 <
-14 2 9 0.21 0.82 0.41 <
14 2 -9 0.21 0.86 0.46 <
-13 2 9 3.03 2.55 0.34 o
13 2 -9 3.04 3.11 0.30 o
-12 2 9 9.75 7.75 0.39 o
12 2 -9 9.72 8.65 0.32 o
-11 2 9 21.33 20.30 0.66 o
11 2 -9 21.36 20.44 0.53 o
-10 2 9 1.38 0.92 0.17 o
10 2 -9 1.37 1.35 0.14 o
-9 2 9 3.82 3.41 0.25 o
9 2 -9 3.80 2.96 0.16 o
-8 2 9 46.37 47.52 1.10 o
8 2 -9 46.38 48.02 1.11 o
-7 2 9 0.47 0.87 0.12 o
7 2 -9 0.47 0.87 0.14 o
-6 2 9 5.03 5.44 0.19 o
6 2 -9 5.03 5.10 0.13 o
-5 2 9 1.58 1.83 0.14 o
5 2 -9 1.58 1.92 0.08 o
-4 2 9 39.53 34.52 0.92 o
4 2 -9 39.50 34.00 0.59 o
-3 2 9 7.43 8.00 0.25 o
3 2 -9 7.46 7.79 0.15 o
-2 2 9 4.90 4.96 0.21 o
2 2 -9 4.89 4.61 0.09 o
-1 2 9 55.13 54.10 1.72 o
1 2 -9 55.05 53.52 0.85 o
0 2 9 39.20 38.69 1.24 o
0 2 -9 39.26 39.52 0.68 o
1 2 9 6.31 5.72 0.30 o
-1 2 -9 6.27 5.81 0.12 o
2 2 9 1.10 0.85 0.39 <
-2 2 -9 1.10 1.01 0.07 o
-3 2 -9 2.33 1.91 0.08 o
-4 2 -9 13.81 14.87 0.29 o
-5 2 -9 7.52 7.94 0.18 o
-6 2 -9 0.23 0.31 0.13 <
7 2 9 10.56 10.50 0.64 o
-7 2 -9 10.56 12.35 0.31 o
8 2 9 18.24 18.91 1.01 o
-8 2 -9 18.27 19.98 0.47 o
9 2 9 2.08 2.24 0.58 o
-9 2 -9 2.07 2.37 0.25 o
10 2 9 0.07 -0.01 0.40 <
-10 2 -9 0.07 -0.15 0.35 <
11 2 9 0.98 0.68 0.46 <
-11 2 -9 0.98 0.82 0.65 <
12 2 9 0.17 -0.53 0.97 <
-12 2 -9 0.17 0.08 1.44 <
-15 3 9 0.22 -0.46 0.64 <
15 3 -9 0.22 0.77 1.07 <
-14 3 9 3.15 3.42 0.59 o
14 3 -9 3.15 3.99 0.62 o
-13 3 9 0.21 0.24 0.35 <
13 3 -9 0.22 0.06 0.48 <
-12 3 9 0.44 0.44 0.36 <
12 3 -9 0.44 0.21 0.28 <
-11 3 9 11.59 10.92 0.40 o
11 3 -9 11.58 11.40 0.31 o
-10 3 9 13.25 14.50 0.47 o
10 3 -9 13.27 13.53 0.35 o
-9 3 9 13.73 12.57 0.43 o
9 3 -9 13.72 12.45 0.32 o
-8 3 9 1.58 2.02 0.22 o
8 3 -9 1.59 1.88 0.14 o
-7 3 9 4.18 5.17 0.28 o
7 3 -9 4.19 4.50 0.18 o
-6 3 9 7.80 7.47 0.26 o
6 3 -9 7.78 7.26 0.20 o
-5 3 9 7.76 7.42 0.31 o
5 3 -9 7.76 7.69 0.20 o
-4 3 9 2.43 2.05 0.22 o
4 3 -9 2.42 2.24 0.10 o
-3 3 9 6.54 5.51 0.25 o
3 3 -9 6.55 5.47 0.15 o
-2 3 9 1.10 1.05 0.21 o
2 3 -9 1.09 1.04 0.09 o
-1 3 9 0.48 0.20 0.19 <
1 3 -9 0.49 0.57 0.08 o
0 3 9 5.21 4.90 0.29 o
0 3 -9 5.20 5.31 0.14 o
1 3 9 0.14 0.09 0.37 <
-1 3 -9 0.14 0.07 0.08 <
-2 3 -9 0.58 0.89 0.11 o
-3 3 -9 4.76 5.31 0.16 o
-4 3 -9 0.46 0.82 0.14 o
-5 3 -9 3.79 4.14 0.18 o
-6 3 -9 9.18 9.19 0.29 o
7 3 9 10.67 10.46 0.67 o
-7 3 -9 10.68 11.67 0.34 o
8 3 9 1.74 1.29 0.41 o
-8 3 -9 1.73 1.74 0.23 o
9 3 9 0.35 -0.80 0.57 <
-9 3 -9 0.35 0.41 0.38 <
10 3 9 1.82 1.67 0.47 o
-10 3 -9 1.82 2.08 0.45 o
11 3 9 2.24 1.89 0.89 <
-11 3 -9 2.25 1.20 0.92 <
-14 4 9 0.05 0.48 0.67 <
14 4 -9 0.05 -0.04 0.71 <
-13 4 9 0.26 0.39 0.50 <
13 4 -9 0.26 -0.10 0.47 <
-12 4 9 1.36 1.66 0.54 o
12 4 -9 1.36 1.95 0.42 o
-11 4 9 0.81 0.99 0.28 o
11 4 -9 0.81 1.01 0.25 o
-10 4 9 0.42 0.19 0.33 <
10 4 -9 0.42 0.96 0.29 o
-9 4 9 1.03 1.06 0.33 o
9 4 -9 1.03 0.79 0.22 o
-8 4 9 0.88 1.82 0.25 o
8 4 -9 0.88 1.64 0.21 o
-7 4 9 0.28 -0.06 0.27 <
7 4 -9 0.27 0.27 0.21 <
-6 4 9 1.74 0.95 0.20 o
6 4 -9 1.74 1.27 0.15 o
-5 4 9 1.24 1.61 0.21 o
5 4 -9 1.23 1.40 0.13 o
-4 4 9 2.06 1.91 0.31 o
4 4 -9 2.06 2.20 0.13 o
-3 4 9 0.42 -0.08 0.19 <
3 4 -9 0.42 0.55 0.11 o
-2 4 9 0.57 0.60 0.25 <
2 4 -9 0.58 0.50 0.12 o
-1 4 9 0.98 0.99 0.39 <
1 4 -9 0.98 0.79 0.12 o
0 4 -9 0.06 0.19 0.09 <
-1 4 -9 5.89 5.82 0.17 o
-2 4 -9 1.87 1.55 0.12 o
-3 4 -9 3.99 4.18 0.16 o
-4 4 -9 2.06 1.62 0.15 o
-5 4 -9 0.94 0.66 0.19 o
-6 4 -9 4.14 3.28 0.31 o
7 4 9 0.97 -0.19 0.40 <
-7 4 -9 0.97 0.83 0.56 <
8 4 9 0.04 -0.48 1.02 <
-8 4 -9 0.04 -0.03 0.38 <
9 4 9 0.67 -0.51 0.42 <
-9 4 -9 0.67 -0.02 0.61 <
10 4 9 0.39 0.42 0.91 <
-10 4 -9 0.39 -0.12 0.74 <
-12 5 9 0.59 0.87 0.79 <
12 5 -9 0.59 0.35 0.77 <
-11 5 9 1.67 2.15 0.44 o
11 5 -9 1.67 1.39 0.53 <
-10 5 9 3.57 3.33 0.49 o
10 5 -9 3.58 3.87 0.45 o
-9 5 9 1.97 2.27 0.59 o
9 5 -9 1.97 2.45 0.37 o
-8 5 9 0.05 -0.28 0.38 <
8 5 -9 0.05 0.44 0.27 <
-7 5 9 2.92 2.48 0.29 o
7 5 -9 2.93 2.99 0.31 o
-6 5 9 0.18 -0.03 0.32 <
6 5 -9 0.18 0.35 0.24 <
-5 5 9 0.33 0.09 0.26 <
5 5 -9 0.34 0.68 0.26 <
-4 5 9 1.36 1.79 0.35 o
4 5 -9 1.36 1.48 0.21 o
-3 5 9 1.07 1.37 0.41 o
3 5 -9 1.07 0.69 0.18 o
-2 5 9 0.35 1.03 0.36 <
2 5 -9 0.36 0.53 0.19 <
-1 5 9 1.51 1.88 0.71 <
1 5 -9 1.51 1.55 0.15 o
0 5 -9 2.17 1.79 0.12 o
-1 5 -9 0.55 0.22 0.19 <
-2 5 -9 1.65 1.84 0.23 o
-3 5 -9 2.67 2.36 0.22 o
-4 5 -9 2.54 2.19 0.25 o
5 5 9 0.52 0.72 0.89 <
-5 5 -9 0.52 0.32 0.25 <
-6 5 -9 2.43 3.05 0.31 o
-7 5 -9 4.45 4.18 0.40 o
-8 5 -9 0.00 -0.42 0.56 <
-9 5 -9 0.42 0.13 0.90 <
-10 6 9 0.01 -0.39 0.60 <
10 6 -9 0.01 0.27 0.67 <
-9 6 9 0.02 -0.04 0.65 <
9 6 -9 0.02 -0.41 0.42 <
-8 6 9 0.25 0.91 0.50 <
8 6 -9 0.24 0.52 0.51 <
-7 6 9 0.05 0.05 0.49 <
7 6 -9 0.05 0.39 0.44 <
-6 6 9 0.30 0.70 0.57 <
6 6 -9 0.30 0.39 0.46 <
-5 6 9 0.78 0.78 0.44 <
5 6 -9 0.78 0.78 0.40 <
-4 6 9 2.67 3.06 0.68 o
4 6 -9 2.66 2.44 0.27 o
-3 6 9 4.94 4.64 0.60 o
3 6 -9 4.95 4.54 0.25 o
-2 6 9 0.14 0.41 1.06 <
2 6 -9 0.14 0.01 0.32 <
1 6 -9 0.97 1.08 0.28 o
0 6 -9 7.27 6.44 0.27 o
-1 6 -9 1.82 1.42 0.22 o
-2 6 -9 1.42 1.32 0.26 o
-3 6 -9 0.48 0.63 0.26 <
-4 6 -9 0.13 0.36 0.38 <
-5 6 -9 0.33 0.30 0.49 <
-6 6 -9 0.01 0.36 0.58 <
-7 6 -9 1.48 1.11 1.41 <
8 7 -9 0.29 -0.17 0.79 <
-7 7 9 0.11 0.46 0.99 <
7 7 -9 0.11 -0.10 0.92 <
-6 7 9 0.07 -1.09 0.85 <
6 7 -9 0.07 -0.13 0.51 <
-5 7 9 0.10 0.12 0.88 <
5 7 -9 0.10 -0.12 0.51 <
4 7 -9 0.24 0.69 0.50 <
3 7 -9 0.50 0.66 0.39 <
2 7 -9 0.42 0.17 0.53 <
1 7 -9 0.74 -0.23 0.36 <
0 7 -9 0.15 0.29 0.39 <
-1 7 -9 0.17 0.38 0.40 <
-2 7 -9 0.09 0.31 0.59 <
-3 7 -9 0.27 0.20 1.16 <
-4 7 -9 0.19 -0.29 1.33 <
16 0 -10 2.76 3.07 1.13 <
-15 0 10 0.22 0.08 0.64 <
15 0 -10 0.22 -0.11 0.63 <
-14 0 10 0.31 -0.64 0.65 <
14 0 -10 0.32 0.42 0.40 <
-13 0 10 17.12 17.49 0.97 o
13 0 -10 17.12 16.91 0.67 o
-12 0 10 12.33 13.73 0.61 o
12 0 -10 12.35 13.50 0.57 o
-11 0 10 0.81 1.28 0.28 o
11 0 -10 0.82 1.10 0.24 o
-10 0 10 7.54 7.04 0.31 o
10 0 -10 7.51 7.53 0.34 o
-9 0 10 15.75 17.78 0.51 o
9 0 -10 15.81 17.33 0.63 o
-8 0 10 10.86 10.62 0.41 o
8 0 -10 10.83 10.61 0.34 o
-7 0 10 16.55 15.50 0.55 o
7 0 -10 16.58 14.93 0.37 o
-6 0 10 61.60 52.97 1.39 o
6 0 -10 61.52 53.92 1.22 o
-5 0 10 86.61 79.24 2.51 o
5 0 -10 86.64 79.31 1.59 o
-4 0 10 51.97 52.63 2.37 o
4 0 -10 51.96 53.06 1.07 o
-3 0 10 47.15 47.75 2.14 o
3 0 -10 47.09 46.76 0.86 o
-2 0 10 581.87 567.29 25.18 o
2 0 -10 581.86 577.04 25.67 o
1 0 -10 4.13 3.64 0.10 o
0 0 -10 11.52 10.92 0.27 o
-1 0 -10 120.03 105.00 2.34 o
-2 0 -10 14.90 9.83 0.26 o
-3 0 -10 3.64 3.18 0.13 o
-4 0 -10 2.83 2.50 0.12 o
-5 0 -10 11.24 14.62 0.44 o
-6 0 -10 0.79 0.62 0.14 o
7 0 10 8.38 6.21 0.43 o
-7 0 -10 8.34 7.89 0.30 o
8 0 10 11.74 12.36 0.72 o
-8 0 -10 11.74 13.07 0.46 o
9 0 10 4.36 2.89 0.41 o
-9 0 -10 4.36 4.00 0.31 o
10 0 10 5.42 6.94 0.62 o
-10 0 -10 5.41 6.81 0.54 o
11 0 10 2.27 2.61 1.26 <
-11 0 -10 2.27 2.65 0.78 o
-16 1 10 0.48 0.49 1.10 <
16 1 -10 0.48 0.21 0.97 <
-15 1 10 1.11 0.78 0.74 <
15 1 -10 1.12 1.19 0.42 <
-14 1 10 2.26 1.98 0.47 o
14 1 -10 2.26 1.95 0.33 o
-13 1 10 0.12 0.21 0.35 <
13 1 -10 0.12 -0.09 0.23 <
-12 1 10 15.63 15.60 0.53 o
12 1 -10 15.65 16.46 0.45 o
-11 1 10 2.59 2.74 0.21 o
11 1 -10 2.59 3.07 0.17 o
-10 1 10 2.81 2.95 0.19 o
10 1 -10 2.82 2.75 0.17 o
-9 1 10 3.51 3.58 0.18 o
9 1 -10 3.52 3.66 0.16 o
-8 1 10 1.28 1.71 0.15 o
8 1 -10 1.28 1.74 0.10 o
-7 1 10 4.99 4.61 0.18 o
7 1 -10 4.98 4.56 0.11 o
-6 1 10 12.67 13.04 0.38 o
6 1 -10 12.65 12.53 0.22 o
-5 1 10 36.29 30.51 0.82 o
5 1 -10 36.26 31.13 0.51 o
-4 1 10 9.32 8.11 0.30 o
4 1 -10 9.36 8.30 0.14 o
-3 1 10 106.73 108.32 3.41 o
3 1 -10 106.61 107.47 1.51 o
-2 1 10 39.29 37.69 1.21 o
2 1 -10 39.31 36.29 0.48 o
-1 1 10 53.07 50.26 1.60 o
1 1 -10 53.15 50.35 0.80 o
0 1 10 20.92 19.58 0.89 o
0 1 -10 20.87 18.37 0.31 o
-1 1 -10 15.31 11.69 0.22 o
-2 1 -10 6.31 5.61 0.12 o
-3 1 -10 5.17 4.87 0.12 o
-4 1 -10 17.43 19.99 0.35 o
-5 1 -10 12.16 12.46 0.28 o
6 1 10 4.71 5.23 0.46 o
-6 1 -10 4.69 5.53 0.17 o
7 1 10 7.39 6.32 0.43 o
-7 1 -10 7.38 7.60 0.21 o
8 1 10 19.75 19.22 0.91 o
-8 1 -10 19.73 21.02 0.45 o
9 1 10 1.90 2.12 0.37 o
-9 1 -10 1.89 2.02 0.23 o
10 1 10 1.98 2.29 0.76 <
-10 1 -10 1.98 1.70 0.35 o
-11 1 -10 1.13 1.83 0.59 o
-15 2 10 3.07 3.03 0.85 o
15 2 -10 3.06 2.32 0.62 o
-14 2 10 2.46 2.09 0.53 o
14 2 -10 2.46 1.82 0.34 o
-13 2 10 3.67 3.50 0.41 o
13 2 -10 3.67 3.82 0.31 o
-12 2 10 1.04 0.79 0.22 o
12 2 -10 1.04 1.33 0.21 o
-11 2 10 10.45 11.23 0.40 o
11 2 -10 10.46 11.31 0.31 o
-10 2 10 0.11 0.14 0.27 <
10 2 -10 0.11 -0.18 0.14 <
-9 2 10 0.93 1.28 0.20 o
9 2 -10 0.93 1.15 0.13 o
-8 2 10 1.28 1.72 0.20 o
8 2 -10 1.29 1.94 0.12 o
-7 2 10 8.54 8.43 0.29 o
7 2 -10 8.55 8.89 0.21 o
-6 2 10 6.71 5.82 0.31 o
6 2 -10 6.69 5.96 0.15 o
-5 2 10 2.76 2.54 0.20 o
5 2 -10 2.75 2.72 0.13 o
-4 2 10 12.36 11.86 0.43 o
4 2 -10 12.37 12.55 0.24 o
-3 2 10 50.13 51.90 1.66 o
3 2 -10 50.12 51.69 0.83 o
-2 2 10 0.18 0.53 0.14 o
2 2 -10 0.18 0.43 0.07 o
-1 2 10 16.91 15.75 0.53 o
1 2 -10 16.91 16.27 0.32 o
0 2 10 17.12 15.97 0.55 o
0 2 -10 17.13 16.01 0.30 o
-1 2 -10 14.01 14.69 0.26 o
-2 2 -10 11.15 10.32 0.21 o
-3 2 -10 3.33 3.72 0.11 o
-4 2 -10 1.05 1.37 0.12 o
-5 2 -10 13.94 13.39 0.30 o
-6 2 -10 0.14 0.15 0.12 <
7 2 10 19.61 19.33 1.02 o
-7 2 -10 19.62 22.48 0.58 o
8 2 10 1.30 1.09 0.32 o
-8 2 -10 1.30 1.53 0.22 o
9 2 10 2.73 1.83 0.46 o
-9 2 -10 2.73 2.63 0.29 o
10 2 10 4.19 3.97 0.72 o
-10 2 -10 4.20 4.24 0.48 o
11 2 10 3.08 3.30 0.79 o
-11 2 -10 3.08 4.50 0.88 o
15 3 -10 0.11 0.78 1.24 <
-14 3 10 2.02 2.67 0.63 o
14 3 -10 2.01 2.12 0.61 o
-13 3 10 3.15 2.90 0.40 o
13 3 -10 3.15 3.08 0.35 o
-12 3 10 4.90 4.63 0.40 o
12 3 -10 4.91 4.96 0.28 o
-11 3 10 4.61 4.75 0.31 o
11 3 -10 4.60 5.26 0.23 o
-10 3 10 2.06 2.04 0.30 o
10 3 -10 2.06 2.00 0.25 o
-9 3 10 10.39 11.71 0.51 o
9 3 -10 10.40 11.24 0.33 o
-8 3 10 1.72 1.76 0.21 o
8 3 -10 1.73 1.68 0.13 o
-7 3 10 0.24 0.03 0.19 <
7 3 -10 0.25 0.43 0.13 o
-6 3 10 1.93 2.26 0.20 o
6 3 -10 1.93 1.94 0.11 o
-5 3 10 2.51 2.96 0.25 o
5 3 -10 2.52 3.11 0.13 o
-4 3 10 12.14 12.00 0.45 o
4 3 -10 12.13 11.70 0.28 o
-3 3 10 8.10 7.69 0.47 o
3 3 -10 8.08 7.34 0.21 o
-2 3 10 1.52 0.96 0.23 o
2 3 -10 1.52 1.36 0.10 o
-1 3 10 1.76 1.63 0.29 o
1 3 -10 1.76 1.86 0.09 o
0 3 10 4.41 4.28 0.36 o
0 3 -10 4.39 5.21 0.15 o
-1 3 -10 0.14 0.48 0.08 o
-2 3 -10 2.48 3.02 0.12 o
-3 3 -10 5.70 5.87 0.19 o
-4 3 -10 2.30 2.45 0.14 o
-5 3 -10 15.55 16.86 0.40 o
-6 3 -10 6.38 7.17 0.30 o
7 3 10 7.21 8.30 0.58 o
-7 3 -10 7.22 8.06 0.33 o
8 3 10 5.02 3.27 0.40 o
-8 3 -10 5.02 5.20 0.30 o
9 3 10 3.54 4.18 0.51 o
-9 3 -10 3.54 3.63 0.36 o
10 3 10 1.97 1.80 0.77 <
-10 3 -10 1.98 2.71 0.70 o
11 3 10 0.01 -0.29 1.07 <
-14 4 10 0.62 -0.42 0.94 <
14 4 -10 0.61 -0.47 0.82 <
-13 4 10 3.48 3.36 0.56 o
13 4 -10 3.48 3.05 0.57 o
-12 4 10 0.77 0.53 0.54 <
12 4 -10 0.77 1.46 0.50 <
-11 4 10 1.10 0.28 0.53 <
11 4 -10 1.11 0.62 0.30 <
-10 4 10 10.39 10.88 0.49 o
10 4 -10 10.38 10.28 0.39 o
-9 4 10 2.71 3.47 0.33 o
9 4 -10 2.73 3.76 0.23 o
-8 4 10 1.99 1.80 0.26 o
8 4 -10 1.99 2.22 0.20 o
-7 4 10 0.28 0.59 0.27 <
7 4 -10 0.28 -0.17 0.17 <
-6 4 10 0.87 0.85 0.23 o
6 4 -10 0.88 1.13 0.15 o
-5 4 10 3.91 4.13 0.28 o
5 4 -10 3.92 3.85 0.15 o
-4 4 10 4.36 3.93 0.28 o
4 4 -10 4.36 3.83 0.17 o
-3 4 10 0.43 0.42 0.27 <
3 4 -10 0.43 0.11 0.12 <
-2 4 10 1.98 2.15 0.55 o
2 4 -10 1.98 2.28 0.12 o
-1 4 10 6.40 4.94 0.51 o
1 4 -10 6.40 6.41 0.17 o
0 4 -10 3.88 3.62 0.14 o
-1 4 -10 0.12 -0.02 0.12 <
-2 4 -10 5.37 5.89 0.19 o
-3 4 -10 3.12 3.43 0.17 o
-4 4 -10 1.41 1.00 0.23 o
-5 4 -10 3.38 3.64 0.21 o
-6 4 -10 23.14 23.94 0.63 o
7 4 10 2.41 1.96 0.57 o
-7 4 -10 2.41 2.18 0.34 o
8 4 10 1.42 0.43 0.73 <
-8 4 -10 1.42 1.82 0.27 o
9 4 10 3.26 1.77 0.66 <
-9 4 -10 3.26 3.45 0.44 o
10 4 10 1.36 1.47 1.28 <
-10 4 -10 1.36 0.60 0.95 <
-12 5 10 0.52 -0.48 0.82 <
12 5 -10 0.52 0.00 0.84 <
-11 5 10 0.81 0.64 0.60 <
11 5 -10 0.80 0.89 0.53 <
-10 5 10 2.51 2.00 0.49 o
10 5 -10 2.51 2.42 0.40 o
-9 5 10 0.17 0.17 0.29 <
9 5 -10 0.16 -0.15 0.34 <
-8 5 10 0.25 0.20 0.34 <
8 5 -10 0.25 -0.36 0.46 <
-7 5 10 1.42 1.45 0.30 o
7 5 -10 1.42 1.16 0.28 o
-6 5 10 3.53 4.07 0.46 o
6 5 -10 3.53 2.89 0.27 o
-5 5 10 1.52 2.15 0.35 o
5 5 -10 1.51 1.84 0.24 o
-4 5 10 8.47 8.43 0.41 o
4 5 -10 8.48 7.86 0.26 o
-3 5 10 2.29 2.01 0.46 o
3 5 -10 2.29 2.26 0.25 o
-2 5 10 0.54 0.39 0.34 <
2 5 -10 0.55 0.21 0.19 <
1 5 -10 0.64 0.61 0.15 o
0 5 -10 5.88 5.49 0.23 o
-1 5 -10 2.56 2.32 0.26 o
-2 5 -10 0.40 0.03 0.19 <
-3 5 -10 0.63 0.58 0.20 <
-4 5 -10 0.50 0.66 0.34 <
5 5 10 0.72 0.37 0.86 <
-5 5 -10 0.72 0.32 0.32 <
-6 5 -10 0.26 0.52 0.44 <
-7 5 -10 0.40 0.27 0.43 <
-8 5 -10 0.12 0.33 0.66 <
-10 6 10 0.09 -0.16 0.71 <
10 6 -10 0.09 0.17 0.91 <
-9 6 10 0.42 1.12 0.58 <
9 6 -10 0.42 -0.04 0.64 <
-8 6 10 0.26 -0.48 0.49 <
8 6 -10 0.26 0.26 0.51 <
-7 6 10 2.19 2.04 0.49 o
7 6 -10 2.19 3.12 0.41 o
-6 6 10 0.37 0.50 0.58 <
6 6 -10 0.37 0.17 0.40 <
-5 6 10 1.07 -0.15 0.75 <
5 6 -10 1.07 0.87 0.26 o
-4 6 10 0.30 -0.26 0.56 <
4 6 -10 0.30 0.82 0.25 o
-3 6 10 1.83 1.45 1.58 <
3 6 -10 1.83 1.85 0.38 o
2 6 -10 0.19 0.24 0.26 <
1 6 -10 0.76 1.09 0.36 o
0 6 -10 0.25 0.69 0.35 <
-1 6 -10 0.47 1.06 0.28 o
-2 6 -10 0.05 0.15 0.27 <
-3 6 -10 1.25 0.90 0.35 <
-4 6 -10 0.36 0.21 0.58 <
-5 6 -10 0.02 -0.06 0.47 <
-6 6 -10 0.15 -0.14 0.77 <
7 7 -10 0.06 -0.72 1.38 <
6 7 -10 0.49 -0.41 0.61 <
5 7 -10 0.73 0.77 0.73 <
4 7 -10 0.48 0.63 0.51 <
3 7 -10 1.43 0.68 0.54 <
2 7 -10 0.69 1.03 0.48 <
1 7 -10 1.86 2.06 0.77 <
0 7 -10 0.56 -0.12 0.39 <
-1 7 -10 0.26 0.28 0.61 <
-3 7 -10 0.63 0.14 1.18 <
-15 1 11 0.63 0.07 0.73 <
15 1 -11 0.63 0.37 0.50 <
-14 1 11 4.57 3.61 0.43 o
14 1 -11 4.57 3.95 0.33 o
-13 1 11 9.28 7.71 0.51 o
13 1 -11 9.27 8.31 0.29 o
-12 1 11 10.59 11.00 0.45 o
12 1 -11 10.60 10.05 0.29 o
-11 1 11 0.19 -0.08 0.26 <
11 1 -11 0.19 0.09 0.16 <
-10 1 11 3.04 3.99 0.23 o
10 1 -11 3.04 3.33 0.16 o
-9 1 11 11.56 12.79 0.35 o
9 1 -11 11.54 11.81 0.27 o
-8 1 11 4.05 4.15 0.21 o
8 1 -11 4.07 4.20 0.13 o
-7 1 11 11.69 10.89 0.34 o
7 1 -11 11.68 11.07 0.21 o
-6 1 11 16.56 15.70 0.56 o
6 1 -11 16.59 16.15 0.28 o
-5 1 11 2.07 2.02 0.15 o
5 1 -11 2.05 1.80 0.07 o
-4 1 11 4.27 4.19 0.23 o
4 1 -11 4.28 3.81 0.09 o
-3 1 11 73.95 75.28 2.39 o
3 1 -11 73.99 75.83 1.13 o
-2 1 11 19.90 18.78 0.63 o
2 1 -11 19.91 19.14 0.28 o
-1 1 11 3.46 3.42 0.20 o
1 1 -11 3.45 3.57 0.09 o
0 1 11 30.94 29.74 1.37 o
0 1 -11 30.94 30.75 0.54 o
1 1 11 15.78 13.41 0.67 o
-1 1 -11 15.80 14.14 0.27 o
-2 1 -11 1.65 1.70 0.07 o
-3 1 -11 10.73 10.70 0.22 o
-4 1 -11 10.89 9.65 0.20 o
-5 1 -11 0.96 0.68 0.12 o
6 1 11 0.94 0.76 0.71 <
-6 1 -11 0.93 1.21 0.14 o
7 1 11 1.89 1.59 0.28 o
-7 1 -11 1.89 0.81 0.17 o
8 1 11 0.34 0.51 0.43 <
-8 1 -11 0.34 0.47 0.21 <
9 1 11 3.67 3.76 0.41 o
-9 1 -11 3.67 4.21 0.26 o
10 1 11 1.53 1.25 0.62 <
-10 1 -11 1.53 2.05 0.40 o
11 1 11 3.30 4.33 0.61 o
-11 1 -11 3.30 5.22 1.14 o
-15 2 11 1.43 0.70 0.91 <
15 2 -11 1.42 0.96 0.50 <
-14 2 11 0.45 0.73 0.67 <
14 2 -11 0.45 0.02 0.33 <
-13 2 11 1.01 0.34 0.47 <
13 2 -11 1.02 0.50 0.40 <
-12 2 11 5.76 5.25 0.39 o
12 2 -11 5.74 5.13 0.23 o
-11 2 11 6.06 7.28 0.43 o
11 2 -11 6.07 7.08 0.24 o
-10 2 11 0.90 1.51 0.34 o
10 2 -11 0.89 1.16 0.21 o
-9 2 11 0.21 0.06 0.26 <
9 2 -11 0.21 0.03 0.13 <
-8 2 11 0.72 0.19 0.20 <
8 2 -11 0.72 0.57 0.13 o
-7 2 11 12.51 12.36 0.47 o
7 2 -11 12.50 12.21 0.27 o
-6 2 11 2.15 1.93 0.19 o
6 2 -11 2.16 2.29 0.11 o
-5 2 11 0.15 0.46 0.19 <
5 2 -11 0.15 0.17 0.09 <
-4 2 11 46.91 47.65 1.55 o
4 2 -11 46.84 47.78 0.89 o
-3 2 11 48.35 50.98 1.64 o
3 2 -11 48.42 50.53 0.87 o
-2 2 11 5.18 5.18 0.24 o
2 2 -11 5.15 5.70 0.13 o
-1 2 11 5.67 5.70 0.30 o
1 2 -11 5.66 5.41 0.14 o
0 2 11 9.72 9.05 0.47 o
0 2 -11 9.75 9.49 0.19 o
-1 2 -11 4.19 5.25 0.12 o
-2 2 -11 1.63 1.48 0.09 o
-3 2 -11 1.85 2.21 0.11 o
-4 2 -11 35.42 38.85 0.75 o
-5 2 -11 6.32 6.05 0.19 o
-6 2 -11 1.26 0.63 0.15 o
7 2 11 12.67 13.43 0.78 o
-7 2 -11 12.66 14.43 0.41 o
8 2 11 1.45 1.03 0.33 o
-8 2 -11 1.46 1.23 0.20 o
9 2 11 1.24 1.66 0.38 o
-9 2 -11 1.23 1.76 0.36 o
10 2 11 1.34 1.80 0.59 o
-10 2 -11 1.33 1.17 0.69 <
11 2 11 0.36 1.66 1.13 <
-11 2 -11 0.36 0.18 1.25 <
-14 3 11 0.72 0.52 0.65 <
14 3 -11 0.72 1.26 0.51 <
-13 3 11 0.10 0.15 0.44 <
13 3 -11 0.10 0.17 0.38 <
-12 3 11 0.38 0.73 0.40 <
12 3 -11 0.38 0.12 0.23 <
-11 3 11 0.71 1.24 0.39 o
11 3 -11 0.71 0.81 0.24 o
-10 3 11 0.59 0.23 0.28 <
10 3 -11 0.59 0.62 0.23 <
-9 3 11 0.13 0.14 0.40 <
9 3 -11 0.13 0.31 0.17 <
-8 3 11 1.14 1.13 0.29 o
8 3 -11 1.14 0.92 0.17 o
-7 3 11 0.64 1.44 0.21 o
7 3 -11 0.65 0.61 0.16 o
-6 3 11 4.00 3.97 0.35 o
6 3 -11 4.01 4.41 0.17 o
-5 3 11 11.01 10.09 0.40 o
5 3 -11 11.00 10.21 0.25 o
-4 3 11 27.73 28.58 1.37 o
4 3 -11 27.74 28.81 0.61 o
-3 3 11 0.41 0.85 0.22 o
3 3 -11 0.41 0.86 0.12 o
-2 3 11 1.96 2.28 0.61 o
2 3 -11 1.97 2.18 0.11 o
-1 3 11 21.28 18.63 1.01 o
1 3 -11 21.27 20.16 0.44 o
0 3 -11 14.10 14.17 0.33 o
-1 3 -11 7.71 7.76 0.21 o
-2 3 -11 8.09 8.36 0.22 o
-3 3 -11 2.80 3.71 0.16 o
-4 3 -11 0.94 1.27 0.14 o
-5 3 -11 10.10 9.71 0.31 o
-6 3 -11 12.08 12.71 0.43 o
7 3 11 6.26 6.65 0.54 o
-7 3 -11 6.26 7.58 0.37 o
8 3 11 0.97 0.64 0.42 <
-8 3 -11 0.97 0.81 0.41 <
9 3 11 0.62 0.97 0.44 <
-9 3 -11 0.62 1.25 0.43 <
10 3 11 1.83 2.42 0.82 <
-10 3 -11 1.83 1.62 0.85 <
-13 4 11 0.02 0.44 0.68 <
13 4 -11 0.02 0.55 0.56 <
-12 4 11 0.15 0.69 0.55 <
12 4 -11 0.15 0.09 0.37 <
-11 4 11 0.66 0.66 0.41 <
11 4 -11 0.66 0.40 0.28 <
-10 4 11 2.93 1.88 0.35 o
10 4 -11 2.93 2.46 0.24 o
-9 4 11 0.96 1.14 0.33 o
9 4 -11 0.95 0.49 0.23 <
-8 4 11 1.38 1.69 0.31 o
8 4 -11 1.38 1.26 0.19 o
-7 4 11 3.83 3.71 0.29 o
7 4 -11 3.83 3.76 0.20 o
-6 4 11 3.21 3.42 0.28 o
6 4 -11 3.21 2.77 0.17 o
-5 4 11 5.46 5.90 0.34 o
5 4 -11 5.46 6.63 0.23 o
4 4 -11 0.82 0.91 0.15 o
-3 4 11 0.31 -0.06 0.31 <
3 4 -11 0.31 0.35 0.15 <
-2 4 11 1.30 1.30 0.42 o
2 4 -11 1.30 1.20 0.12 o
1 4 -11 1.18 1.48 0.14 o
0 4 -11 1.13 1.29 0.16 o
-1 4 -11 0.82 0.46 0.15 o
-2 4 -11 0.04 0.04 0.15 <
-3 4 -11 1.05 0.98 0.15 o
-4 4 -11 0.05 -0.09 0.20 <
-5 4 -11 0.01 -0.30 0.32 <
-6 4 -11 2.39 3.53 0.25 o
7 4 11 0.71 0.94 0.51 <
-7 4 -11 0.71 1.14 0.46 <
8 4 11 0.86 0.23 0.76 <
-8 4 -11 0.86 0.89 0.53 <
9 4 11 0.64 0.89 0.62 <
-9 4 -11 0.64 1.13 0.39 <
-12 5 11 0.35 0.38 0.67 <
12 5 -11 0.34 0.52 0.77 <
-11 5 11 0.96 0.98 0.61 <
11 5 -11 0.96 1.46 0.71 <
-10 5 11 0.27 0.13 0.55 <
10 5 -11 0.28 0.33 0.35 <
-9 5 11 0.23 -0.17 0.49 <
9 5 -11 0.23 0.27 0.40 <
-8 5 11 2.24 1.84 0.48 o
8 5 -11 2.23 2.33 0.29 o
-7 5 11 1.67 2.26 0.43 o
7 5 -11 1.67 1.32 0.29 o
-6 5 11 1.05 1.04 0.48 <
6 5 -11 1.05 0.94 0.26 o
-5 5 11 4.26 3.40 0.48 o
5 5 -11 4.25 4.00 0.24 o
-4 5 11 6.05 5.73 0.62 o
4 5 -11 6.05 6.20 0.24 o
-3 5 11 0.13 0.01 0.35 <
3 5 -11 0.14 0.28 0.22 <
2 5 -11 0.91 0.92 0.29 o
1 5 -11 2.83 2.59 0.19 o
0 5 -11 0.03 0.01 0.18 <
-1 5 -11 0.38 0.28 0.22 <
-2 5 -11 0.29 0.50 0.27 <
-3 5 -11 1.60 1.02 0.23 o
-4 5 -11 0.07 -0.31 0.28 <
-5 5 -11 1.72 2.53 0.43 o
-6 5 -11 3.13 2.95 0.43 o
-7 5 -11 0.42 0.10 0.75 <
-8 5 -11 0.44 0.62 0.83 <
-10 6 11 0.33 -0.14 0.92 <
10 6 -11 0.33 -0.20 0.75 <
-9 6 11 0.32 0.55 0.86 <
9 6 -11 0.31 0.93 0.59 <
-8 6 11 0.15 0.07 0.67 <
8 6 -11 0.15 -0.02 0.45 <
-7 6 11 0.16 -0.31 1.00 <
7 6 -11 0.16 0.68 0.35 <
-6 6 11 0.31 0.70 0.87 <
6 6 -11 0.31 0.31 0.41 <
-5 6 11 0.36 0.73 0.89 <
5 6 -11 0.36 -0.04 0.37 <
-4 6 11 3.44 2.42 1.16 <
4 6 -11 3.44 3.52 0.32 o
3 6 -11 0.72 0.58 0.41 <
2 6 -11 0.12 0.56 0.29 <
1 6 -11 1.29 0.97 0.41 <
0 6 -11 0.62 0.28 0.61 <
-1 6 -11 0.25 0.32 0.32 <
-2 6 -11 0.79 0.27 0.37 <
-3 6 -11 0.24 0.41 0.35 <
-4 6 -11 0.37 0.23 0.59 <
-5 6 -11 1.37 0.83 1.04 <
-6 6 -11 0.58 -0.38 1.06 <
5 7 -11 0.10 0.55 1.19 <
4 7 -11 0.00 -1.58 0.87 <
3 7 -11 0.23 0.01 0.64 <
2 7 -11 0.01 0.25 0.43 <
1 7 -11 0.18 -0.21 0.56 <
-1 7 -11 0.24 -0.97 1.50 <
15 0 -12 2.87 2.41 0.64 o
-14 0 12 3.01 4.17 0.68 o
14 0 -12 3.01 2.55 0.41 o
-13 0 12 28.14 29.74 1.63 o
13 0 -12 28.15 25.82 1.10 o
-12 0 12 1.79 2.89 0.43 o
12 0 -12 1.80 2.50 0.40 o
-11 0 12 0.91 0.87 0.34 <
11 0 -12 0.92 1.23 0.26 o
-10 0 12 11.03 10.97 0.50 o
10 0 -12 11.02 10.83 0.37 o
-9 0 12 0.99 1.45 0.27 o
9 0 -12 1.00 1.32 0.18 o
-8 0 12 4.14 3.34 0.29 o
8 0 -12 4.13 3.76 0.18 o
-7 0 12 0.54 0.63 0.18 o
7 0 -12 0.54 0.34 0.15 <
-6 0 12 22.15 20.16 1.00 o
6 0 -12 22.08 20.03 0.49 o
-5 0 12 8.18 7.86 0.46 o
5 0 -12 8.22 7.95 0.22 o
4 0 -12 7.00 6.32 0.18 o
3 0 -12 14.62 12.56 0.28 o
2 0 -12 10.37 9.10 0.28 o
1 0 -12 14.52 15.02 0.43 o
0 0 -12 10.32 11.61 0.30 o
-1 0 -12 3.29 3.17 0.13 o
-2 0 -12 11.22 10.34 0.28 o
-3 0 -12 82.25 83.25 1.88 o
-4 0 -12 10.48 9.79 0.28 o
-5 0 -12 5.86 6.76 0.30 o
-6 0 -12 14.30 12.44 0.41 o
7 0 12 6.64 5.52 0.56 o
-7 0 -12 6.64 4.75 0.33 o
8 0 12 3.62 4.07 0.56 o
-8 0 -12 3.64 3.99 0.33 o
9 0 12 2.83 1.70 0.97 <
-9 0 -12 2.84 3.47 0.35 o
-10 0 -12 3.49 4.60 1.14 o
15 1 -12 1.45 1.36 0.45 o
-14 1 12 2.31 2.60 0.73 o
14 1 -12 2.31 1.46 0.32 o
-13 1 12 0.51 1.41 0.80 <
13 1 -12 0.51 0.19 0.27 <
-12 1 12 3.79 4.49 0.41 o
12 1 -12 3.80 4.08 0.21 o
-11 1 12 1.17 1.11 0.25 o
11 1 -12 1.16 0.92 0.17 o
-10 1 12 0.63 0.72 0.34 <
10 1 -12 0.63 0.79 0.17 o
-9 1 12 0.60 0.59 0.18 o
9 1 -12 0.60 0.47 0.12 o
-8 1 12 4.40 4.02 0.25 o
8 1 -12 4.39 3.84 0.14 o
-7 1 12 11.05 11.16 0.43 o
7 1 -12 11.03 10.79 0.22 o
-6 1 12 14.80 12.95 0.55 o
6 1 -12 14.79 14.37 0.26 o
-5 1 12 8.59 7.87 0.37 o
5 1 -12 8.57 8.30 0.16 o
-4 1 12 5.11 5.59 0.25 o
4 1 -12 5.11 5.60 0.12 o
-3 1 12 55.88 54.79 1.75 o
3 1 -12 55.84 54.03 0.87 o
-2 1 12 1.39 1.18 0.16 o
2 1 -12 1.39 1.59 0.07 o
-1 1 12 0.45 0.55 0.15 o
1 1 -12 0.45 0.42 0.07 o
0 1 12 1.26 0.86 0.20 o
0 1 -12 1.26 1.21 0.08 o
1 1 12 0.10 0.19 0.30 <
-1 1 -12 0.10 0.16 0.08 <
-2 1 -12 4.54 5.26 0.13 o
-3 1 -12 5.35 5.43 0.14 o
-4 1 -12 19.06 18.96 0.37 o
-5 1 -12 2.19 2.30 0.14 o
6 1 12 6.29 4.84 0.63 o
-6 1 -12 6.31 5.97 0.20 o
7 1 12 5.26 5.09 0.47 o
-7 1 -12 5.27 4.85 0.24 o
8 1 12 0.63 0.88 0.38 <
-8 1 -12 0.63 0.34 0.24 <
9 1 12 0.13 0.01 0.73 <
-9 1 -12 0.13 0.04 0.37 <
10 1 12 0.83 0.21 1.04 <
-10 1 -12 0.83 2.12 0.51 o
11 1 12 0.22 -0.24 1.42 <
-11 1 -12 0.22 1.11 1.21 <
-15 2 12 0.60 -0.77 2.05 <
15 2 -12 0.60 1.35 0.53 <
-14 2 12 2.04 2.08 0.71 <
14 2 -12 2.04 2.31 0.49 o
-13 2 12 1.13 1.20 0.44 <
13 2 -12 1.12 1.87 0.29 o
-12 2 12 0.27 0.14 0.42 <
12 2 -12 0.27 0.46 0.29 <
-11 2 12 0.46 0.29 0.31 <
11 2 -12 0.46 0.47 0.17 <
-10 2 12 4.42 4.67 0.36 o
10 2 -12 4.42 4.13 0.20 o
-9 2 12 3.67 3.60 0.30 o
9 2 -12 3.67 2.92 0.15 o
-8 2 12 3.57 3.45 0.26 o
8 2 -12 3.58 3.52 0.19 o
-7 2 12 1.64 2.18 0.37 o
7 2 -12 1.64 1.22 0.13 o
-6 2 12 14.20 13.92 0.74 o
6 2 -12 14.21 13.51 0.29 o
-5 2 12 1.03 1.08 0.27 o
5 2 -12 1.03 1.14 0.10 o
-4 2 12 37.49 36.56 1.20 o
4 2 -12 37.52 37.69 0.66 o
-3 2 12 2.41 1.70 0.23 o
3 2 -12 2.41 1.89 0.09 o
-2 2 12 4.45 4.41 0.32 o
2 2 -12 4.45 4.48 0.13 o
-1 2 12 16.61 14.74 0.73 o
1 2 -12 16.62 16.30 0.33 o
0 2 12 12.82 10.95 0.56 o
0 2 -12 12.82 12.18 0.26 o
-1 2 -12 5.37 5.46 0.15 o
-2 2 -12 4.75 4.41 0.14 o
-3 2 -12 0.65 0.57 0.10 o
-4 2 -12 13.78 13.03 0.30 o
-5 2 -12 4.39 4.35 0.17 o
-6 2 -12 3.59 3.11 0.19 o
7 2 12 3.01 3.39 0.65 o
-7 2 -12 3.01 3.02 0.22 o
8 2 12 4.51 3.28 0.71 o
-8 2 -12 4.51 4.20 0.29 o
9 2 12 0.28 -0.99 0.79 <
-9 2 -12 0.28 0.80 0.34 <
10 2 12 0.45 -0.37 0.70 <
-10 2 -12 0.45 0.63 0.81 <
-14 3 12 1.33 -0.27 0.85 <
14 3 -12 1.33 1.16 0.60 <
-13 3 12 0.11 0.08 0.49 <
13 3 -12 0.11 0.71 0.44 <
-12 3 12 0.15 0.56 0.53 <
12 3 -12 0.15 0.48 0.28 <
-11 3 12 0.51 1.49 0.59 <
11 3 -12 0.51 0.80 0.26 o
-10 3 12 0.21 0.32 0.26 <
10 3 -12 0.21 -0.22 0.25 <
-9 3 12 4.48 4.20 0.32 o
9 3 -12 4.48 4.36 0.20 o
-8 3 12 10.48 10.21 0.55 o
8 3 -12 10.49 10.62 0.32 o
-7 3 12 5.51 4.50 0.34 o
7 3 -12 5.52 4.93 0.17 o
-6 3 12 11.55 12.82 0.71 o
6 3 -12 11.54 12.95 0.31 o
-5 3 12 15.94 16.15 0.84 o
5 3 -12 15.96 15.95 0.37 o
-4 3 12 18.99 18.73 0.94 o
4 3 -12 19.02 19.63 0.43 o
-3 3 12 3.69 3.81 0.31 o
3 3 -12 3.67 4.51 0.19 o
-2 3 12 6.91 6.45 0.40 o
2 3 -12 6.93 7.30 0.23 o
-1 3 12 1.19 0.95 0.23 o
1 3 -12 1.19 1.39 0.11 o
0 3 -12 0.48 0.36 0.14 <
-1 3 -12 1.11 1.54 0.12 o
-2 3 -12 2.94 3.16 0.15 o
-3 3 -12 6.61 6.35 0.25 o
-4 3 -12 2.19 2.57 0.24 o
-5 3 -12 7.16 6.14 0.31 o
-6 3 -12 7.74 8.25 0.39 o
7 3 12 0.21 -0.02 0.39 <
-7 3 -12 0.21 -0.06 0.31 <
8 3 12 1.80 1.30 0.56 <
-8 3 -12 1.80 1.76 0.34 o
9 3 12 1.96 1.15 0.95 <
-9 3 -12 1.96 1.97 0.61 o
10 3 12 1.54 0.95 1.27 <
-13 4 12 1.13 0.34 0.78 <
13 4 -12 1.12 1.10 0.63 <
-12 4 12 0.27 -0.15 0.86 <
12 4 -12 0.27 -0.07 0.52 <
-11 4 12 0.72 0.30 0.49 <
11 4 -12 0.72 0.19 0.35 <
-10 4 12 0.53 0.62 0.28 <
10 4 -12 0.53 0.59 0.32 <
-9 4 12 3.18 3.19 0.36 o
9 4 -12 3.17 3.06 0.24 o
-8 4 12 4.33 4.36 0.47 o
8 4 -12 4.34 4.14 0.26 o
-7 4 12 2.62 2.35 0.32 o
7 4 -12 2.62 2.74 0.26 o
-6 4 12 3.20 2.36 0.31 o
6 4 -12 3.19 3.23 0.19 o
-5 4 12 39.62 37.62 1.80 o
5 4 -12 39.65 39.90 0.94 o
-4 4 12 4.01 3.72 0.47 o
4 4 -12 4.00 3.78 0.19 o
-3 4 12 0.74 1.24 0.50 <
3 4 -12 0.75 0.65 0.14 o
-2 4 12 7.57 7.32 0.52 o
2 4 -12 7.58 7.35 0.25 o
1 4 -12 5.15 5.03 0.23 o
0 4 -12 1.23 1.62 0.17 o
-1 4 -12 0.36 0.30 0.15 <
-2 4 -12 7.24 7.22 0.23 o
-3 4 -12 0.61 0.20 0.19 <
-4 4 -12 1.23 0.73 0.29 <
-5 4 -12 8.26 8.69 0.44 o
-6 4 -12 4.74 4.72 0.41 o
7 4 12 1.09 0.36 1.28 <
-7 4 -12 1.09 0.14 0.45 <
8 4 12 0.30 -0.07 0.54 <
-8 4 -12 0.30 -0.37 0.58 <
9 4 12 1.86 3.64 1.14 o
-12 5 12 0.80 0.97 1.30 <
12 5 -12 0.80 0.13 1.05 <
-11 5 12 1.42 2.29 0.77 <
11 5 -12 1.42 1.32 0.43 o
-10 5 12 1.89 2.18 0.49 o
10 5 -12 1.89 2.14 0.45 o
-9 5 12 0.15 0.67 0.51 <
9 5 -12 0.15 -0.12 0.40 <
-8 5 12 0.54 0.87 0.52 <
8 5 -12 0.54 0.48 0.37 <
-7 5 12 0.64 0.52 0.50 <
7 5 -12 0.64 0.91 0.26 o
-6 5 12 2.77 2.32 0.50 o
6 5 -12 2.77 2.92 0.32 o
-5 5 12 0.06 -0.22 0.47 <
5 5 -12 0.06 0.12 0.23 <
-4 5 12 2.21 3.10 0.47 o
4 5 -12 2.22 2.16 0.23 o
-3 5 12 0.41 0.95 0.88 <
3 5 -12 0.41 0.64 0.25 <
2 5 -12 1.07 1.03 0.28 o
1 5 -12 0.02 0.48 0.28 <
0 5 -12 0.96 0.65 0.20 o
-1 5 -12 3.56 2.97 0.26 o
-2 5 -12 1.21 0.62 0.28 <
-3 5 -12 0.23 0.60 0.29 <
-4 5 -12 1.26 1.56 0.48 o
-5 5 -12 6.68 6.43 0.53 o
-6 5 -12 0.43 0.42 0.44 <
-7 5 -12 1.14 1.50 0.62 <
10 6 -12 0.01 -0.13 0.95 <
-9 6 12 0.08 -0.05 1.36 <
9 6 -12 0.08 0.08 0.60 <
-8 6 12 0.55 1.44 0.80 <
8 6 -12 0.55 1.43 0.66 <
-7 6 12 1.01 1.30 0.52 <
7 6 -12 1.01 1.22 0.61 <
-6 6 12 0.29 1.08 1.11 <
6 6 -12 0.29 0.31 0.54 <
-5 6 12 0.11 0.13 1.11 <
5 6 -12 0.11 0.12 0.49 <
4 6 -12 0.24 -0.24 0.31 <
3 6 -12 1.14 0.76 0.53 <
2 6 -12 1.50 2.08 0.44 o
1 6 -12 0.08 0.91 0.31 <
0 6 -12 0.04 -0.10 0.38 <
-1 6 -12 0.93 1.11 0.44 <
-2 6 -12 0.87 1.10 0.43 <
-3 6 -12 0.05 0.15 0.60 <
-4 6 -12 0.48 2.61 1.26 <
-5 6 -12 0.16 0.49 1.22 <
5 7 -12 0.02 0.12 0.82 <
4 7 -12 0.02 0.25 1.45 <
2 7 -12 0.94 0.53 0.63 <
0 7 -12 0.08 0.75 0.76 <
-15 1 13 0.18 -1.12 1.36 <
15 1 -13 0.18 -0.60 0.49 <
-14 1 13 4.91 5.17 0.73 o
14 1 -13 4.91 3.77 0.39 o
-13 1 13 1.90 2.28 0.88 <
13 1 -13 1.90 1.75 0.26 o
-12 1 13 0.47 0.49 0.50 <
12 1 -13 0.47 0.67 0.24 <
-11 1 13 4.04 3.46 0.36 o
11 1 -13 4.04 3.97 0.20 o
-10 1 13 2.53 1.98 0.30 o
10 1 -13 2.54 2.52 0.20 o
-9 1 13 1.34 1.66 0.21 o
9 1 -13 1.35 1.51 0.15 o
-8 1 13 4.14 3.63 0.26 o
8 1 -13 4.13 3.93 0.15 o
-7 1 13 6.78 7.54 0.33 o
7 1 -13 6.78 6.97 0.15 o
-6 1 13 1.36 1.21 0.20 o
6 1 -13 1.37 1.33 0.10 o
-5 1 13 0.35 0.50 0.23 <
5 1 -13 0.33 0.32 0.08 o
-4 1 13 7.34 7.22 0.43 o
4 1 -13 7.34 7.40 0.15 o
-3 1 13 0.77 0.55 0.16 o
3 1 -13 0.77 0.55 0.08 o
-2 1 13 19.83 20.97 1.01 o
2 1 -13 19.81 19.75 0.39 o
-1 1 13 5.32 5.82 0.35 o
1 1 -13 5.32 6.04 0.15 o
0 1 13 13.94 13.18 0.67 o
0 1 -13 13.93 14.07 0.27 o
1 1 13 4.18 2.82 0.39 o
-1 1 -13 4.18 3.77 0.11 o
-2 1 -13 16.18 14.48 0.29 o
-3 1 -13 31.46 30.87 0.56 o
-4 1 -13 10.57 11.39 0.26 o
-5 1 -13 0.09 -0.02 0.16 <
6 1 13 3.89 2.95 0.74 o
-6 1 -13 3.88 3.26 0.25 o
-7 1 -13 3.08 3.04 0.21 o
8 1 13 0.99 1.37 0.61 <
-8 1 -13 0.99 1.54 0.28 o
9 1 13 0.19 -1.14 0.65 <
-9 1 -13 0.19 0.03 0.32 <
10 1 13 0.22 0.98 1.39 <
-10 1 -13 0.22 1.73 0.58 <
15 2 -13 2.57 2.32 1.00 <
14 2 -13 3.36 2.81 0.42 o
-13 2 13 0.34 0.79 0.69 <
13 2 -13 0.34 0.23 0.31 <
-12 2 13 0.25 0.49 0.55 <
12 2 -13 0.25 -0.07 0.29 <
-11 2 13 1.01 1.14 0.42 <
11 2 -13 1.01 0.93 0.20 o
-10 2 13 1.97 1.57 0.41 o
10 2 -13 1.96 1.63 0.21 o
-9 2 13 2.31 2.52 0.27 o
9 2 -13 2.32 2.61 0.15 o
-8 2 13 3.08 2.90 0.22 o
8 2 -13 3.08 3.37 0.15 o
-7 2 13 33.51 34.52 1.66 o
7 2 -13 33.50 35.80 0.69 o
-6 2 13 6.01 6.12 0.42 o
6 2 -13 6.04 6.41 0.18 o
-5 2 13 1.06 0.89 0.22 o
5 2 -13 1.05 0.83 0.12 o
-4 2 13 25.19 23.94 1.16 o
4 2 -13 25.15 25.16 0.49 o
-3 2 13 9.86 9.88 0.55 o
3 2 -13 9.90 10.58 0.29 o
-2 2 13 4.10 3.38 0.29 o
2 2 -13 4.08 3.94 0.36 o
-1 2 13 5.43 4.52 0.37 o
1 2 -13 5.42 4.59 0.14 o
0 2 13 1.98 1.27 0.35 o
0 2 -13 1.96 1.93 0.11 o
-1 2 -13 10.95 11.41 0.26 o
-2 2 -13 3.01 3.27 0.14 o
-3 2 -13 0.89 1.12 0.13 o
-4 2 -13 4.30 4.20 0.19 o
-5 2 -13 2.36 1.77 0.16 o
-6 2 -13 0.30 0.12 0.23 <
7 2 13 0.03 -0.55 0.56 <
-7 2 -13 0.03 0.25 0.27 <
8 2 13 0.92 1.11 0.60 <
-8 2 -13 0.92 0.72 0.40 <
9 2 13 2.67 3.35 0.50 o
-9 2 -13 2.67 3.68 0.43 o
10 2 13 1.56 2.28 0.91 <
-10 2 -13 1.56 0.94 1.13 <
14 3 -13 0.18 0.86 0.77 <
-13 3 13 0.68 0.32 0.67 <
13 3 -13 0.68 0.57 0.40 <
-12 3 13 2.12 1.45 0.59 <
12 3 -13 2.11 2.22 0.33 o
-11 3 13 2.17 1.96 0.51 o
11 3 -13 2.17 2.02 0.25 o
-10 3 13 2.38 3.05 0.53 o
10 3 -13 2.38 2.30 0.24 o
-9 3 13 3.00 3.48 0.34 o
9 3 -13 3.01 2.46 0.20 o
-8 3 13 1.63 1.66 0.41 o
8 3 -13 1.63 2.07 0.20 o
-7 3 13 1.24 1.03 0.34 o
7 3 -13 1.24 0.58 0.15 o
-6 3 13 16.70 17.04 0.90 o
6 3 -13 16.71 17.54 0.41 o
-5 3 13 15.89 14.76 0.79 o
5 3 -13 15.87 16.06 0.37 o
-4 3 13 12.58 11.90 0.65 o
4 3 -13 12.59 12.84 0.35 o
-3 3 13 2.63 1.63 0.31 o
3 3 -13 2.62 2.59 0.19 o
-2 3 13 1.71 1.72 0.33 o
2 3 -13 1.71 1.76 0.14 o
-1 3 13 7.55 6.13 0.57 o
1 3 -13 7.55 7.01 0.22 o
0 3 -13 0.52 0.55 0.14 o
-1 3 -13 0.13 0.37 0.13 <
-2 3 -13 0.01 0.05 0.19 <
-3 3 -13 1.96 2.61 0.19 o
-4 3 -13 0.13 -0.23 0.24 <
-5 3 -13 0.41 0.64 0.29 <
-6 3 -13 0.19 0.24 0.30 <
7 3 13 1.84 1.27 0.41 o
-7 3 -13 1.84 2.36 0.32 o
8 3 13 0.34 0.92 1.34 <
-8 3 -13 0.34 -0.27 0.45 <
9 3 13 0.14 0.37 0.76 <
-9 3 -13 0.14 0.36 0.71 <
-13 4 13 0.48 0.62 1.02 <
13 4 -13 0.48 1.09 0.55 <
-12 4 13 0.39 0.12 0.62 <
12 4 -13 0.39 -0.10 0.55 <
-11 4 13 0.20 0.60 0.80 <
11 4 -13 0.19 0.00 0.42 <
-10 4 13 0.53 0.85 0.60 <
10 4 -13 0.53 0.86 0.26 o
-9 4 13 0.40 0.77 0.53 <
9 4 -13 0.40 -0.01 0.22 <
-8 4 13 0.53 0.96 0.33 <
8 4 -13 0.53 0.09 0.27 <
-7 4 13 0.56 0.64 0.38 <
7 4 -13 0.56 0.42 0.27 <
-6 4 13 1.85 0.46 0.29 <
6 4 -13 1.86 1.44 0.17 o
-5 4 13 4.92 3.56 0.34 o
5 4 -13 4.91 4.13 0.20 o
-4 4 13 1.67 2.13 0.39 o
4 4 -13 1.67 1.71 0.23 o
-3 4 13 0.88 1.24 0.54 <
3 4 -13 0.88 1.00 0.24 o
-2 4 13 2.40 2.60 0.48 o
2 4 -13 2.39 2.34 0.24 o
1 4 -13 2.85 2.26 0.20 o
0 4 -13 3.27 3.57 0.22 o
-1 4 -13 0.44 0.46 0.18 <
-2 4 -13 0.82 1.44 0.22 o
-3 4 -13 0.71 0.61 0.22 <
-4 4 -13 0.46 0.46 0.30 <
-5 4 -13 3.68 4.45 0.36 o
6 4 13 1.11 0.78 0.75 <
-6 4 -13 1.11 0.86 0.38 <
7 4 13 0.46 -0.53 0.64 <
-7 4 -13 0.45 0.87 0.56 <
8 4 13 0.62 0.70 0.72 <
-8 4 -13 0.62 -0.15 0.82 <
-11 5 13 0.30 -0.24 1.09 <
11 5 -13 0.30 1.05 0.45 <
-10 5 13 0.09 0.59 0.46 <
10 5 -13 0.09 0.27 0.51 <
-9 5 13 0.69 0.75 0.57 <
9 5 -13 0.69 1.01 0.40 <
-8 5 13 1.06 0.56 0.34 <
8 5 -13 1.05 1.53 0.38 o
-7 5 13 0.43 0.23 0.46 <
7 5 -13 0.43 0.09 0.26 <
-6 5 13 3.52 3.46 0.58 o
6 5 -13 3.53 2.76 0.29 o
-5 5 13 4.60 4.25 0.67 o
5 5 -13 4.59 4.49 0.26 o
-4 5 13 0.41 1.26 0.73 <
4 5 -13 0.40 -0.16 0.25 <
3 5 -13 2.07 2.09 0.26 o
2 5 -13 2.20 1.96 0.31 o
1 5 -13 0.05 -0.18 0.31 <
0 5 -13 2.13 2.21 0.33 o
-1 5 -13 1.92 2.17 0.27 o
-2 5 -13 0.17 -0.22 0.34 <
-3 5 -13 0.44 -0.10 0.27 <
-4 5 -13 1.72 0.86 0.44 <
-5 5 -13 1.25 1.33 0.59 <
-6 5 -13 0.35 0.38 0.54 <
-9 6 13 0.37 -0.25 1.04 <
9 6 -13 0.37 0.59 0.88 <
-8 6 13 0.03 0.74 0.91 <
8 6 -13 0.03 0.21 0.41 <
-7 6 13 0.87 0.61 1.17 <
7 6 -13 0.87 0.89 0.56 <
-6 6 13 1.71 1.10 0.96 <
6 6 -13 1.71 1.73 0.67 <
5 6 -13 0.14 0.41 0.70 <
4 6 -13 0.03 0.92 0.56 <
3 6 -13 0.06 0.12 0.36 <
2 6 -13 0.21 0.47 0.50 <
1 6 -13 0.14 0.32 0.43 <
0 6 -13 1.67 2.27 0.73 o
-1 6 -13 5.65 6.03 1.07 o
-2 6 -13 0.66 1.08 0.53 <
-3 6 -13 0.09 0.86 0.60 <
-4 6 -13 3.49 2.82 1.49 <
15 0 -14 0.42 -0.08 0.88 <
-14 0 14 0.34 0.77 1.80 <
14 0 -14 0.34 -0.84 0.61 <
-13 0 14 1.25 2.13 1.10 <
13 0 -14 1.25 2.16 0.40 o
-12 0 14 1.96 2.12 0.99 <
12 0 -14 1.96 1.38 0.34 o
-11 0 14 5.26 3.44 0.52 o
11 0 -14 5.27 4.53 0.32 o
-10 0 14 0.77 0.68 0.26 <
10 0 -14 0.77 0.72 0.38 <
-9 0 14 8.15 7.92 0.53 o
9 0 -14 8.14 7.00 0.29 o
-8 0 14 37.70 38.36 1.83 o
8 0 -14 37.76 37.86 0.90 o
-7 0 14 9.03 8.46 0.51 o
7 0 -14 9.00 8.16 0.25 o
-6 0 14 1.08 1.82 0.24 o
6 0 -14 1.10 1.27 0.13 o
-5 0 14 14.17 15.14 0.79 o
5 0 -14 14.19 14.75 0.38 o
4 0 -14 14.09 14.08 0.36 o
3 0 -14 31.27 30.39 1.02 o
2 0 -14 3.30 3.48 0.18 o
1 0 -14 28.97 30.63 0.84 o
0 0 -14 5.11 4.82 0.23 o
-1 0 -14 6.68 6.53 0.24 o
-2 0 -14 32.33 32.39 0.89 o
-3 0 -14 37.04 37.10 1.02 o
-4 0 -14 4.01 4.47 0.23 o
-5 0 -14 2.89 3.66 0.27 o
6 0 14 8.24 6.61 0.61 o
-6 0 -14 8.26 7.09 0.42 o
7 0 14 0.09 1.81 0.69 <
-7 0 -14 0.09 0.26 0.35 <
8 0 14 0.39 -0.64 0.76 <
-8 0 -14 0.39 0.67 0.38 <
-9 0 -14 2.26 3.72 1.24 o
-10 0 -14 0.18 -0.23 1.44 <
15 1 -14 1.11 -0.01 0.65 <
-14 1 14 1.87 0.92 0.79 <
14 1 -14 1.86 1.69 0.36 o
-13 1 14 0.37 0.57 0.66 <
13 1 -14 0.37 -0.10 0.29 <
-12 1 14 0.26 0.27 0.85 <
12 1 -14 0.26 0.30 0.22 <
-11 1 14 0.88 0.92 0.35 <
11 1 -14 0.88 1.20 0.20 o
-10 1 14 1.54 1.09 0.36 o
10 1 -14 1.55 1.67 0.19 o
-9 1 14 0.62 0.73 0.26 <
9 1 -14 0.62 0.39 0.13 <
-8 1 14 2.32 2.62 0.23 o
8 1 -14 2.33 2.45 0.17 o
-7 1 14 15.83 16.60 0.62 o
7 1 -14 15.86 16.30 0.30 o
-6 1 14 3.06 1.94 0.24 o
6 1 -14 3.05 2.84 0.11 o
-5 1 14 1.27 1.22 0.21 o
5 1 -14 1.28 1.10 0.09 o
-4 1 14 1.51 2.06 0.25 o
4 1 -14 1.52 1.70 0.09 o
-3 1 14 1.20 0.87 0.18 o
3 1 -14 1.19 0.94 0.13 o
-2 1 14 1.63 2.31 0.24 o
2 1 -14 1.62 1.47 0.09 o
-1 1 14 4.18 4.50 0.34 o
1 1 -14 4.18 4.63 0.14 o
0 1 14 9.59 8.52 0.49 o
0 1 -14 9.60 9.50 0.21 o
-1 1 -14 1.32 1.46 0.11 o
-2 1 -14 27.81 29.24 0.54 o
-3 1 -14 1.56 1.20 0.11 o
-4 1 -14 1.92 2.31 0.18 o
-5 1 -14 4.63 4.15 0.22 o
-6 1 -14 0.87 1.05 0.26 o
7 1 14 0.62 0.53 0.54 <
-7 1 -14 0.62 1.06 0.26 o
8 1 14 0.39 -0.69 0.79 <
-8 1 -14 0.39 0.78 0.32 <
9 1 14 3.25 2.82 0.92 o
-9 1 -14 3.24 3.87 0.40 o
-14 2 14 0.00 -0.71 1.33 <
14 2 -14 0.00 -0.65 0.47 <
-13 2 14 0.45 0.31 0.65 <
13 2 -14 0.45 0.50 0.37 <
-12 2 14 2.18 2.54 0.56 o
12 2 -14 2.18 1.89 0.24 o
-11 2 14 1.20 1.05 0.63 <
11 2 -14 1.20 1.14 0.25 o
-10 2 14 3.34 3.33 0.43 o
10 2 -14 3.33 3.64 0.21 o
-9 2 14 1.88 2.33 0.38 o
9 2 -14 1.87 1.78 0.20 o
-8 2 14 2.14 2.23 0.26 o
8 2 -14 2.14 1.86 0.20 o
-7 2 14 7.64 7.55 0.49 o
7 2 -14 7.64 7.96 0.21 o
-6 2 14 5.30 5.69 0.40 o
6 2 -14 5.29 5.51 0.19 o
-5 2 14 1.63 1.66 0.23 o
5 2 -14 1.64 1.74 0.14 o
-4 2 14 0.08 0.18 0.22 <
4 2 -14 0.08 -0.02 0.09 <
-3 2 14 4.20 4.47 0.33 o
3 2 -14 4.20 4.46 0.17 o
-2 2 14 2.99 3.18 0.26 o
2 2 -14 2.98 3.10 0.13 o
-1 2 14 0.01 -0.02 0.37 <
1 2 -14 0.01 0.01 0.10 <
0 2 -14 0.49 0.42 0.12 o
-1 2 -14 8.08 7.90 0.23 o
-2 2 -14 4.75 3.66 0.16 o
-3 2 -14 2.86 3.37 0.18 o
-4 2 -14 1.08 1.02 0.21 o
-5 2 -14 6.22 5.23 0.23 o
-6 2 -14 0.84 0.99 0.26 o
7 2 14 1.32 1.32 0.46 <
-7 2 -14 1.32 1.80 0.35 o
8 2 14 0.01 0.14 0.80 <
-8 2 -14 0.01 -0.37 0.41 <
9 2 14 0.77 1.31 1.28 <
-9 2 -14 0.76 0.28 0.57 <
14 3 -14 0.86 0.83 0.65 <
-13 3 14 0.57 0.41 1.09 <
13 3 -14 0.58 0.57 0.44 <
-12 3 14 0.02 -0.07 0.75 <
12 3 -14 0.02 -0.03 0.44 <
-11 3 14 0.57 -0.31 0.52 <
11 3 -14 0.57 0.40 0.26 <
-10 3 14 0.42 0.35 0.34 <
10 3 -14 0.41 0.61 0.27 <
-9 3 14 2.19 2.09 0.35 o
9 3 -14 2.19 1.51 0.22 o
-8 3 14 5.86 6.30 0.47 o
8 3 -14 5.86 6.21 0.23 o
-7 3 14 0.59 0.61 0.25 <
7 3 -14 0.59 0.43 0.16 <
-6 3 14 8.42 8.43 0.53 o
6 3 -14 8.42 8.33 0.25 o
-5 3 14 9.70 9.08 0.56 o
5 3 -14 9.71 10.07 0.29 o
-4 3 14 3.46 2.86 0.31 o
4 3 -14 3.47 3.30 0.18 o
-3 3 14 0.34 0.40 0.20 <
3 3 -14 0.34 0.05 0.16 <
-2 3 14 4.01 3.91 0.46 o
2 3 -14 4.00 3.82 0.18 o
1 3 -14 7.62 7.65 0.25 o
0 3 -14 1.07 0.92 0.18 o
-1 3 -14 5.58 5.17 0.21 o
-2 3 -14 1.86 1.76 0.21 o
-3 3 -14 3.23 3.75 0.25 o
-4 3 -14 1.22 0.57 0.27 <
-5 3 -14 0.55 0.42 0.31 <
-6 3 -14 0.67 0.56 0.30 <
7 3 14 0.49 0.45 0.96 <
-7 3 -14 0.49 0.01 0.43 <
8 3 14 0.80 0.50 0.97 <
-8 3 -14 0.80 1.00 0.61 <
13 4 -14 1.07 1.45 0.87 <
-12 4 14 0.64 0.44 1.29 <
12 4 -14 0.65 0.69 0.47 <
-11 4 14 0.32 -0.11 0.94 <
11 4 -14 0.31 0.10 0.41 <
-10 4 14 0.04 0.69 0.54 <
10 4 -14 0.04 0.18 0.34 <
-9 4 14 4.42 4.09 0.45 o
9 4 -14 4.41 5.22 0.31 o
-8 4 14 1.16 0.74 0.30 <
8 4 -14 1.16 1.59 0.27 o
-7 4 14 0.33 0.61 0.44 <
7 4 -14 0.33 0.67 0.27 <
-6 4 14 6.54 6.00 0.56 o
6 4 -14 6.53 6.30 0.27 o
-5 4 14 9.51 8.35 0.59 o
5 4 -14 9.52 8.64 0.34 o
-4 4 14 1.50 1.57 0.36 o
4 4 -14 1.50 1.22 0.19 o
-3 4 14 0.16 -0.37 0.49 <
3 4 -14 0.16 0.18 0.29 <
2 4 -14 2.09 1.61 0.26 o
1 4 -14 4.01 3.85 0.27 o
0 4 -14 9.74 10.32 0.34 o
-1 4 -14 1.27 1.38 0.19 o
-2 4 -14 0.38 0.49 0.25 <
-3 4 -14 1.93 2.39 0.31 o
-4 4 -14 3.01 2.76 0.37 o
-5 4 -14 0.06 -0.10 0.51 <
6 4 14 1.74 1.47 1.25 <
-6 4 -14 1.74 1.90 0.48 o
7 4 14 1.27 -0.03 0.84 <
-7 4 -14 1.27 1.45 0.83 <
-11 5 14 0.30 0.10 0.85 <
11 5 -14 0.30 0.02 0.58 <
-10 5 14 1.12 1.90 0.68 <
10 5 -14 1.12 1.41 0.59 <
-9 5 14 0.33 -0.53 0.90 <
9 5 -14 0.33 0.01 0.48 <
-8 5 14 0.37 0.14 0.43 <
8 5 -14 0.37 0.47 0.51 <
-7 5 14 1.06 0.14 0.77 <
7 5 -14 1.06 1.07 0.45 <
-6 5 14 5.74 6.54 0.54 o
6 5 -14 5.74 5.86 0.43 o
-5 5 14 1.17 0.79 0.86 <
5 5 -14 1.17 1.26 0.30 o
-4 5 14 1.15 0.57 0.69 <
4 5 -14 1.16 0.64 0.38 <
3 5 -14 1.81 0.93 0.34 <
2 5 -14 1.41 1.92 0.44 o
1 5 -14 0.93 1.27 0.44 <
0 5 -14 5.96 6.41 0.36 o
-1 5 -14 3.87 4.34 0.53 o
-2 5 -14 0.04 -0.37 0.31 <
-3 5 -14 0.07 0.32 0.68 <
-4 5 -14 2.42 2.70 0.61 o
-5 5 -14 0.96 0.89 0.65 <
-6 5 -14 0.16 -0.50 1.01 <
-8 6 14 0.16 0.72 1.68 <
8 6 -14 0.17 0.42 0.84 <
-7 6 14 0.45 0.80 1.07 <
7 6 -14 0.45 -0.43 0.96 <
6 6 -14 0.20 -0.61 0.59 <
5 6 -14 0.03 0.31 0.57 <
4 6 -14 0.19 -0.13 0.68 <
3 6 -14 2.86 2.18 0.56 o
2 6 -14 1.28 1.20 0.73 <
1 6 -14 0.14 -0.09 0.41 <
0 6 -14 0.27 -0.20 0.75 <
-1 6 -14 1.29 1.32 1.28 <
-2 6 -14 0.30 1.44 1.15 <
15 1 -15 0.36 0.36 0.60 <
14 1 -15 0.01 0.54 0.48 <
-13 1 15 1.56 1.21 0.84 <
13 1 -15 1.56 1.51 0.32 o
-12 1 15 1.78 1.31 0.48 <
12 1 -15 1.78 1.63 0.28 o
-11 1 15 2.54 2.31 0.36 o
11 1 -15 2.54 2.37 0.23 o
-10 1 15 2.41 1.91 0.28 o
10 1 -15 2.41 2.39 0.16 o
-9 1 15 11.82 10.80 0.47 o
9 1 -15 11.84 11.35 0.30 o
-8 1 15 23.33 22.21 0.80 o
8 1 -15 23.30 22.98 0.47 o
-7 1 15 7.37 8.01 0.38 o
7 1 -15 7.38 7.74 0.20 o
-6 1 15 1.61 1.68 0.30 o
6 1 -15 1.62 1.71 0.13 o
-5 1 15 6.54 6.75 0.48 o
5 1 -15 6.53 5.95 0.16 o
-4 1 15 12.89 13.98 0.74 o
4 1 -15 12.89 13.10 0.27 o
-3 1 15 1.39 1.35 0.28 o
3 1 -15 1.39 1.56 0.13 o
-2 1 15 1.65 1.53 0.22 o
2 1 -15 1.65 1.73 0.18 o
-1 1 15 0.61 0.94 0.29 o
1 1 -15 0.62 0.45 0.14 o
0 1 15 0.46 0.69 0.31 <
0 1 -15 0.46 0.79 0.13 o
-1 1 -15 0.70 0.37 0.11 o
-2 1 -15 3.43 2.73 0.15 o
-3 1 -15 1.21 1.19 0.15 o
-4 1 -15 0.30 0.28 0.24 <
-5 1 -15 3.97 3.62 0.26 o
-6 1 -15 0.22 -0.09 0.22 <
7 1 15 0.30 -0.88 0.56 <
-7 1 -15 0.30 0.15 0.34 <
8 1 15 5.69 5.97 0.84 o
-8 1 -15 5.69 6.41 0.52 o
-9 1 -15 1.31 1.83 0.77 <
14 2 -15 1.39 1.69 0.46 o
-13 2 15 0.04 -0.11 0.78 <
13 2 -15 0.04 0.29 0.32 <
-12 2 15 0.24 0.59 0.49 <
12 2 -15 0.23 0.06 0.32 <
-11 2 15 0.80 0.92 0.42 <
11 2 -15 0.79 0.84 0.28 o
-10 2 15 4.82 4.87 0.47 o
10 2 -15 4.82 4.72 0.22 o
-9 2 15 0.55 0.11 0.25 <
9 2 -15 0.55 0.10 0.24 <
-8 2 15 0.26 0.03 0.20 <
8 2 -15 0.26 0.03 0.17 <
-7 2 15 11.52 11.14 0.66 o
7 2 -15 11.52 12.06 0.31 o
-6 2 15 1.52 1.01 0.24 o
6 2 -15 1.53 1.77 0.14 o
-5 2 15 0.83 0.83 0.23 o
5 2 -15 0.83 0.93 0.20 o
-4 2 15 0.06 -0.38 0.40 <
4 2 -15 0.06 -0.07 0.13 <
-3 2 15 2.93 2.47 0.28 o
3 2 -15 2.92 3.21 0.16 o
-2 2 15 14.10 14.19 0.74 o
2 2 -15 14.13 15.47 0.41 o
-1 2 15 2.07 2.58 0.32 o
1 2 -15 2.07 2.48 0.17 o
0 2 -15 0.42 0.42 0.16 <
-1 2 -15 18.44 18.21 0.48 o
-2 2 -15 11.57 12.15 0.35 o
-3 2 -15 4.41 5.07 0.23 o
-4 2 -15 0.52 0.41 0.22 <
-5 2 -15 0.14 0.21 0.29 <
-6 2 -15 0.53 0.18 0.39 <
7 2 15 0.10 0.19 0.98 <
-7 2 -15 0.10 -0.22 0.46 <
8 2 15 2.17 3.52 1.11 o
-8 2 -15 2.17 2.54 0.55 o
-13 3 15 0.74 -0.51 1.62 <
13 3 -15 0.74 0.48 0.51 <
-12 3 15 0.36 0.04 0.78 <
12 3 -15 0.36 -0.06 0.36 <
-11 3 15 0.00 -0.90 0.62 <
11 3 -15 0.00 0.49 0.38 <
-10 3 15 0.35 0.42 0.34 <
10 3 -15 0.35 0.50 0.23 <
-9 3 15 0.30 0.48 0.50 <
9 3 -15 0.30 0.15 0.19 <
-8 3 15 1.12 1.25 0.30 o
8 3 -15 1.11 0.94 0.31 o
-7 3 15 0.14 -0.21 0.34 <
7 3 -15 0.14 0.08 0.24 <
-6 3 15 0.28 1.44 0.46 o
6 3 -15 0.28 0.27 0.21 <
-5 3 15 0.53 0.55 0.35 <
5 3 -15 0.54 0.39 0.17 <
-4 3 15 1.39 1.64 0.47 o
4 3 -15 1.39 1.65 0.21 o
-3 3 15 0.87 1.49 0.64 <
3 3 -15 0.87 0.49 0.21 <
-2 3 15 1.90 1.80 0.39 o
2 3 -15 1.89 1.53 0.16 o
1 3 -15 12.46 13.68 0.44 o
0 3 -15 7.77 8.43 0.29 o
-1 3 -15 6.35 5.94 0.26 o
-2 3 -15 0.72 0.79 0.23 o
-3 3 -15 0.67 0.89 0.22 o
-4 3 -15 5.45 4.76 0.37 o
-5 3 -15 1.41 1.30 0.30 o
-6 3 -15 2.69 3.48 0.51 o
7 3 15 0.10 0.60 0.89 <
-7 3 -15 0.10 0.46 0.50 <
8 3 15 0.16 -0.16 1.90 <
-8 3 -15 0.16 -0.08 0.85 <
-12 4 15 0.60 0.88 0.68 <
12 4 -15 0.60 0.41 0.53 <
-11 4 15 1.05 1.08 0.70 <
11 4 -15 1.05 1.45 0.54 <
-10 4 15 0.03 -1.18 0.39 <
10 4 -15 0.03 -0.07 0.35 <
-9 4 15 0.13 -0.17 0.50 <
9 4 -15 0.14 0.26 0.35 <
-8 4 15 0.67 -0.09 0.51 <
8 4 -15 0.67 0.19 0.28 <
-7 4 15 0.14 0.02 0.39 <
7 4 -15 0.14 0.36 0.39 <
-6 4 15 2.05 1.69 0.51 o
6 4 -15 2.05 2.55 0.24 o
-5 4 15 2.39 1.60 0.55 <
5 4 -15 2.40 2.39 0.32 o
-4 4 15 1.89 1.89 0.63 <
4 4 -15 1.89 2.09 0.26 o
-3 4 15 1.07 0.63 0.56 <
3 4 -15 1.07 1.14 0.33 o
2 4 -15 2.41 2.41 0.27 o
1 4 -15 6.17 5.98 0.31 o
0 4 -15 2.38 2.91 0.27 o
-1 4 -15 0.33 0.47 0.26 <
-2 4 -15 1.20 0.98 0.38 <
-3 4 -15 1.47 1.05 0.30 o
-4 4 -15 0.27 0.25 0.38 <
-5 4 -15 0.15 -0.14 0.56 <
6 4 15 0.13 0.36 1.25 <
-6 4 -15 0.13 0.14 0.52 <
7 4 15 0.19 1.49 1.29 <
-10 5 15 0.68 1.51 0.97 <
10 5 -15 0.69 1.01 0.85 <
-9 5 15 0.36 -0.73 0.72 <
9 5 -15 0.36 0.38 0.59 <
-8 5 15 0.38 0.91 1.12 <
8 5 -15 0.38 0.88 0.69 <
-7 5 15 1.40 1.20 1.12 <
7 5 -15 1.40 1.64 0.59 <
-6 5 15 1.16 0.18 0.55 <
6 5 -15 1.16 0.83 0.46 <
-5 5 15 0.13 1.97 0.79 <
5 5 -15 0.13 0.21 0.38 <
4 5 -15 0.89 1.14 0.52 <
3 5 -15 3.84 4.01 0.37 o
2 5 -15 0.05 0.17 0.36 <
1 5 -15 1.92 1.34 0.46 <
0 5 -15 7.97 7.55 0.70 o
-1 5 -15 0.31 0.65 0.50 <
-2 5 -15 0.01 -0.65 0.64 <
-3 5 -15 2.08 1.53 0.77 <
-4 5 -15 0.43 0.36 0.81 <
5 6 -15 0.41 0.32 1.05 <
4 6 -15 0.41 0.43 1.15 <
3 6 -15 0.01 0.69 0.91 <
2 6 -15 0.12 1.05 0.91 <
1 6 -15 0.04 0.82 0.73 <
0 6 -15 1.21 1.09 0.83 <
-1 6 -15 1.11 0.97 1.42 <
14 0 -16 1.80 1.67 0.78 <
13 0 -16 0.38 0.23 0.69 <
-12 0 16 7.13 6.66 1.04 o
12 0 -16 7.13 6.80 0.40 o
-11 0 16 1.30 0.23 0.71 <
11 0 -16 1.31 1.06 0.31 o
-10 0 16 4.00 6.01 0.56 o
10 0 -16 4.01 3.86 0.29 o
-9 0 16 21.36 19.00 1.02 o
9 0 -16 21.34 20.47 0.61 o
-8 0 16 29.79 33.90 1.65 o
8 0 -16 29.83 32.57 0.78 o
-7 0 16 0.48 0.67 0.27 <
7 0 -16 0.47 0.48 0.22 <
-6 0 16 1.07 0.81 0.30 <
6 0 -16 1.06 0.69 0.15 o
-5 0 16 9.95 12.03 0.68 o
5 0 -16 9.96 10.70 0.36 o
-4 0 16 0.05 0.44 0.24 <
4 0 -16 0.04 0.40 0.16 <
3 0 -16 1.94 2.20 0.18 o
2 0 -16 2.32 2.75 0.21 o
1 0 -16 4.40 4.48 0.23 o
0 0 -16 1.74 2.38 0.19 o
-1 0 -16 8.44 9.66 0.34 o
-2 0 -16 0.56 0.66 0.30 <
-3 0 -16 2.50 2.77 0.27 o
-4 0 -16 2.39 2.84 0.38 o
-5 0 -16 0.61 0.45 0.26 <
-6 0 -16 0.18 0.43 0.44 <
-7 0 -16 9.32 11.08 0.63 o
-8 0 -16 9.74 12.71 0.75 o
14 1 -16 0.17 0.64 0.54 <
-13 1 16 0.46 -0.90 0.96 <
13 1 -16 0.45 0.28 0.44 <
-12 1 16 0.73 1.42 0.73 <
12 1 -16 0.72 0.84 0.32 <
-11 1 16 3.77 3.57 0.39 o
11 1 -16 3.77 3.56 0.23 o
-10 1 16 1.00 0.61 0.38 <
10 1 -16 0.99 0.29 0.21 <
-9 1 16 7.07 7.04 0.37 o
9 1 -16 7.08 7.33 0.24 o
-8 1 16 1.59 2.09 0.26 o
8 1 -16 1.60 1.49 0.17 o
-7 1 16 2.00 2.69 0.24 o
7 1 -16 2.01 2.44 0.14 o
-6 1 16 1.14 1.80 0.27 o
6 1 -16 1.14 0.87 0.14 o
5 1 -16 0.12 0.22 0.14 <
-4 1 16 1.78 1.33 0.24 o
4 1 -16 1.77 1.57 0.14 o
-3 1 16 4.01 4.46 0.37 o
3 1 -16 4.02 4.46 0.21 o
-2 1 16 14.01 14.74 0.79 o
2 1 -16 13.99 15.38 0.42 o
-1 1 16 0.59 0.44 0.40 <
1 1 -16 0.59 0.39 0.15 <
0 1 16 0.60 1.37 0.64 <
0 1 -16 0.59 0.90 0.12 o
-1 1 -16 8.43 9.19 0.23 o
-2 1 -16 5.64 5.55 0.20 o
-3 1 -16 0.92 1.13 0.23 o
-4 1 -16 0.83 0.64 0.29 <
-5 1 -16 0.14 0.13 0.27 <
-6 1 -16 0.11 0.17 0.28 <
7 1 16 0.52 0.88 0.52 <
-7 1 -16 0.52 0.59 0.38 <
-8 1 -16 1.26 1.79 0.89 <
14 2 -16 0.56 -0.01 0.68 <
-13 2 16 0.93 -1.07 1.17 <
13 2 -16 0.93 0.85 0.43 <
-12 2 16 0.14 -0.07 0.48 <
12 2 -16 0.13 0.56 0.42 <
-11 2 16 0.13 0.43 0.65 <
11 2 -16 0.13 0.54 0.33 <
-10 2 16 1.07 1.42 0.39 o
10 2 -16 1.08 1.13 0.23 o
-9 2 16 2.09 2.46 0.41 o
9 2 -16 2.09 2.80 0.32 o
-8 2 16 0.38 0.28 0.27 <
8 2 -16 0.38 0.30 0.23 <
-7 2 16 0.10 -0.17 0.25 <
7 2 -16 0.10 -0.03 0.21 <
-6 2 16 6.79 6.92 0.49 o
6 2 -16 6.79 6.91 0.25 o
-5 2 16 6.54 6.54 0.47 o
5 2 -16 6.53 6.56 0.31 o
-4 2 16 0.77 0.48 0.25 <
4 2 -16 0.77 0.59 0.24 <
-3 2 16 0.26 0.94 0.33 <
3 2 -16 0.26 0.10 0.14 <
-2 2 16 8.82 9.37 0.60 o
2 2 -16 8.82 9.68 0.29 o
-1 2 16 5.63 5.21 0.44 o
1 2 -16 5.62 5.23 0.23 o
0 2 -16 1.17 1.37 0.21 o
-1 2 -16 1.39 1.34 0.18 o
-2 2 -16 1.23 1.23 0.25 o
-3 2 -16 0.16 -0.08 0.26 <
-4 2 -16 4.12 3.65 0.36 o
-5 2 -16 2.01 1.67 0.32 o
-6 2 -16 0.21 0.23 0.36 <
7 2 16 1.14 0.92 0.62 <
-7 2 -16 1.14 1.62 0.54 o
8 2 16 1.21 0.98 1.30 <
-8 2 -16 1.21 1.14 0.59 <
-13 3 16 0.32 0.71 1.35 <
13 3 -16 0.32 0.19 0.61 <
-12 3 16 0.78 0.79 1.28 <
12 3 -16 0.78 0.89 0.38 <
-11 3 16 0.14 0.40 0.77 <
11 3 -16 0.14 -0.17 0.33 <
-10 3 16 1.94 2.17 0.45 o
10 3 -16 1.93 1.79 0.37 o
-9 3 16 1.49 1.08 0.50 <
9 3 -16 1.49 1.79 0.26 o
-8 3 16 0.10 0.88 0.36 <
8 3 -16 0.10 -0.26 0.36 <
-7 3 16 0.21 0.21 0.55 <
7 3 -16 0.21 0.26 0.27 <
-6 3 16 0.23 -0.12 0.31 <
6 3 -16 0.22 0.50 0.31 <
-5 3 16 2.13 2.28 0.41 o
5 3 -16 2.13 2.72 0.24 o
-4 3 16 0.99 1.15 0.30 o
4 3 -16 0.99 1.63 0.29 o
-3 3 16 4.29 4.10 0.38 o
3 3 -16 4.30 5.65 0.32 o
-2 3 16 9.84 8.78 0.58 o
2 3 -16 9.84 8.96 0.42 o
1 3 -16 9.70 12.39 0.43 o
0 3 -16 3.95 4.41 0.27 o
-1 3 -16 3.72 3.80 0.21 o
-2 3 -16 7.07 8.01 0.34 o
-3 3 -16 0.54 0.55 0.30 <
-4 3 -16 0.40 0.39 0.36 <
-5 3 -16 0.02 0.52 0.49 <
6 3 16 0.32 0.25 0.63 <
-6 3 -16 0.31 -0.26 0.55 <
7 3 16 0.20 0.96 0.90 <
-7 3 -16 0.20 -0.10 0.88 <
12 4 -16 0.99 1.54 1.03 <
-11 4 16 2.05 1.98 0.94 <
11 4 -16 2.05 2.03 0.61 o
-10 4 16 0.13 0.09 0.87 <
10 4 -16 0.13 -0.38 0.72 <
-9 4 16 0.95 0.64 0.65 <
9 4 -16 0.94 2.12 0.36 o
-8 4 16 1.72 1.36 0.55 <
8 4 -16 1.73 2.29 0.46 o
-7 4 16 1.25 1.88 0.54 o
7 4 -16 1.24 1.16 0.43 <
-6 4 16 0.74 1.11 0.68 <
6 4 -16 0.74 0.05 0.30 <
-5 4 16 1.25 1.26 0.39 o
5 4 -16 1.25 1.68 0.48 o
-4 4 16 5.89 5.47 0.68 o
4 4 -16 5.89 6.25 0.35 o
3 4 -16 0.01 0.12 0.30 <
2 4 -16 0.49 0.34 0.36 <
1 4 -16 15.35 15.98 0.53 o
0 4 -16 9.13 9.98 0.44 o
-1 4 -16 0.80 0.95 0.27 o
-2 4 -16 0.32 0.00 0.37 <
-3 4 -16 2.67 3.31 0.41 o
-4 4 -16 0.17 0.35 0.40 <
-5 4 -16 0.23 -0.16 0.74 <
6 4 16 0.22 1.00 1.51 <
-6 4 -16 0.22 -1.77 1.50 <
-10 5 16 1.28 0.76 1.04 <
10 5 -16 1.28 0.83 1.47 <
-9 5 16 0.07 -0.48 1.17 <
9 5 -16 0.07 -0.32 0.74 <
-8 5 16 0.30 0.10 0.83 <
8 5 -16 0.30 -0.22 0.53 <
-7 5 16 1.03 2.29 0.94 <
7 5 -16 1.03 1.26 0.55 <
-6 5 16 1.83 2.06 0.92 <
6 5 -16 1.83 1.41 0.66 <
5 5 -16 0.22 0.35 0.51 <
4 5 -16 0.32 0.22 0.47 <
3 5 -16 0.61 0.93 0.49 <
2 5 -16 0.26 0.09 0.42 <
1 5 -16 0.08 0.59 0.59 <
0 5 -16 0.37 0.93 0.86 <
-1 5 -16 0.29 -0.40 0.67 <
-2 5 -16 0.20 0.46 0.58 <
-3 5 -16 0.04 -0.05 0.75 <
5 6 -16 0.03 -1.20 1.03 <
4 6 -16 0.29 0.25 0.77 <
3 6 -16 0.83 0.54 0.72 <
2 6 -16 0.18 -0.61 0.76 <
1 6 -16 0.17 0.13 0.79 <
0 6 -16 0.08 0.19 1.09 <
14 1 -17 0.33 0.09 0.78 <
-13 1 17 0.57 0.80 1.35 <
13 1 -17 0.57 0.24 0.60 <
-12 1 17 0.45 -0.13 0.83 <
12 1 -17 0.45 0.67 0.36 <
-11 1 17 0.19 0.25 0.36 <
11 1 -17 0.19 -0.15 0.43 <
-10 1 17 1.27 1.08 0.29 o
10 1 -17 1.27 1.40 0.30 o
-9 1 17 4.39 5.38 0.40 o
9 1 -17 4.40 4.91 0.23 o
-8 1 17 1.12 1.52 0.22 o
8 1 -17 1.11 1.29 0.26 o
-7 1 17 1.78 0.90 0.23 o
7 1 -17 1.78 1.10 0.18 o
-6 1 17 7.43 7.69 0.37 o
6 1 -17 7.43 7.63 0.28 o
-5 1 17 0.10 -0.07 0.62 <
5 1 -17 0.10 0.09 0.16 <
-4 1 17 3.50 4.13 0.42 o
4 1 -17 3.49 3.65 0.21 o
-3 1 17 22.06 22.95 1.15 o
3 1 -17 22.05 23.66 0.59 o
-2 1 17 2.26 2.90 0.37 o
2 1 -17 2.26 2.55 0.16 o
-1 1 17 0.04 0.16 0.42 <
1 1 -17 0.04 0.17 0.19 <
0 1 -17 7.63 8.03 0.26 o
-1 1 -17 3.50 3.79 0.19 o
-2 1 -17 2.57 2.73 0.19 o
-3 1 -17 3.05 3.49 0.23 o
-4 1 -17 2.55 3.16 0.31 o
-5 1 -17 0.54 0.57 0.32 <
6 1 17 1.96 0.86 0.88 <
-6 1 -17 1.97 2.16 0.40 o
7 1 17 6.48 5.21 1.07 o
-7 1 -17 6.48 8.32 0.83 o
-13 2 17 2.06 0.59 1.05 <
13 2 -17 2.06 2.12 0.45 o
-12 2 17 0.03 -0.46 0.78 <
12 2 -17 0.03 0.25 0.49 <
-11 2 17 1.16 0.42 0.46 <
11 2 -17 1.15 0.98 0.40 <
-10 2 17 8.67 9.86 0.56 o
10 2 -17 8.67 8.46 0.33 o
-9 2 17 3.69 3.42 0.37 o
9 2 -17 3.69 3.77 0.24 o
-8 2 17 0.70 0.89 0.29 o
8 2 -17 0.70 1.06 0.30 o
-7 2 17 0.50 1.57 0.39 o
7 2 -17 0.49 0.53 0.26 <
-6 2 17 1.13 0.72 0.39 <
6 2 -17 1.13 1.71 0.30 o
-5 2 17 0.72 1.09 0.51 <
5 2 -17 0.73 0.45 0.32 <
-4 2 17 0.76 0.74 0.26 <
4 2 -17 0.77 1.29 0.26 o
-3 2 17 13.56 13.31 0.75 o
3 2 -17 13.54 13.62 0.55 o
-2 2 17 20.51 20.86 1.06 o
2 2 -17 20.54 22.12 0.66 o
1 2 -17 1.36 2.01 0.26 o
0 2 -17 0.89 0.83 0.28 o
-1 2 -17 9.16 9.75 0.35 o
-2 2 -17 0.14 0.31 0.25 <
-3 2 -17 0.19 -0.62 0.41 <
-4 2 -17 0.20 0.17 0.35 <
-5 2 -17 1.11 1.73 0.53 o
6 2 17 1.02 0.73 0.75 <
-6 2 -17 1.02 1.63 0.51 o
7 2 17 1.31 1.24 1.18 <
-7 2 -17 1.31 2.21 0.59 o
-12 3 17 2.97 2.37 1.07 <
12 3 -17 2.98 2.41 0.52 o
-11 3 17 1.91 1.99 0.86 <
11 3 -17 1.91 2.35 0.46 o
-10 3 17 1.14 0.84 0.67 <
10 3 -17 1.14 0.87 0.42 <
-9 3 17 0.76 0.47 0.42 <
9 3 -17 0.76 0.78 0.26 o
-8 3 17 1.40 1.37 0.51 <
8 3 -17 1.40 1.61 0.28 o
-7 3 17 3.99 5.29 0.46 o
7 3 -17 3.99 4.40 0.41 o
-6 3 17 2.85 2.22 0.59 o
6 3 -17 2.85 2.87 0.29 o
-5 3 17 6.97 7.20 0.52 o
5 3 -17 6.97 7.74 0.41 o
-4 3 17 0.25 0.63 0.52 <
4 3 -17 0.25 0.33 0.31 <
-3 3 17 0.15 0.20 0.52 <
3 3 -17 0.15 0.29 0.26 <
2 3 -17 9.98 9.89 0.45 o
1 3 -17 4.13 5.13 0.27 o
0 3 -17 4.08 3.38 0.24 o
-1 3 -17 0.36 0.47 0.31 <
-2 3 -17 0.79 1.64 0.41 o
-3 3 -17 0.65 0.79 0.30 <
-4 3 -17 0.02 0.16 0.43 <
-5 3 -17 0.09 -0.02 0.57 <
6 3 17 0.42 0.27 0.77 <
-6 3 -17 0.42 0.25 0.81 <
-11 4 17 0.37 0.38 0.91 <
11 4 -17 0.37 1.27 0.97 <
-10 4 17 0.13 0.04 0.57 <
10 4 -17 0.13 0.09 0.64 <
-9 4 17 0.18 1.14 0.84 <
9 4 -17 0.18 -0.42 0.62 <
-8 4 17 0.31 0.71 0.61 <
8 4 -17 0.31 0.50 0.47 <
-7 4 17 0.00 -0.10 0.58 <
7 4 -17 0.00 0.38 0.43 <
-6 4 17 0.24 0.18 0.71 <
6 4 -17 0.24 0.46 0.39 <
-5 4 17 0.09 0.55 0.56 <
5 4 -17 0.09 0.03 0.38 <
-4 4 17 0.33 0.46 0.75 <
4 4 -17 0.33 0.67 0.39 <
3 4 -17 0.44 0.84 0.49 <
2 4 -17 0.33 -0.64 0.45 <
1 4 -17 0.57 0.34 0.32 <
0 4 -17 2.07 1.63 0.40 o
-1 4 -17 0.92 1.59 0.41 o
-2 4 -17 0.55 0.26 0.44 <
-3 4 -17 0.86 0.71 0.50 <
-4 4 -17 0.92 1.29 0.78 <
5 4 17 0.67 1.64 1.79 <
-5 4 -17 0.67 -0.48 0.87 <
-9 5 17 0.11 0.56 2.12 <
9 5 -17 0.12 -0.28 1.41 <
-8 5 17 0.60 0.98 0.84 <
8 5 -17 0.60 0.97 0.94 <
-7 5 17 0.09 0.75 0.91 <
7 5 -17 0.09 0.65 1.20 <
6 5 -17 0.09 -0.25 0.76 <
5 5 -17 0.16 -0.52 0.64 <
4 5 -17 0.95 0.87 0.53 <
3 5 -17 0.25 0.23 0.51 <
2 5 -17 0.21 -0.25 0.65 <
1 5 -17 2.23 2.19 0.78 <
0 5 -17 0.76 -0.30 0.90 <
-1 5 -17 0.01 0.19 1.21 <
13 0 -18 0.15 -0.07 0.83 <
-12 0 18 1.43 2.03 1.18 <
12 0 -18 1.43 1.44 0.77 <
-11 0 18 0.35 0.70 0.72 <
11 0 -18 0.35 0.39 0.42 <
-10 0 18 0.56 0.49 0.34 <
10 0 -18 0.56 0.91 0.45 <
-9 0 18 1.28 2.10 0.50 o
9 0 -18 1.28 1.09 0.37 <
-8 0 18 3.03 2.67 0.44 o
8 0 -18 3.04 2.70 0.31 o
-7 0 18 7.73 8.64 0.57 o
7 0 -18 7.73 8.22 0.42 o
-6 0 18 0.17 0.36 0.26 <
6 0 -18 0.17 -0.03 0.42 <
-5 0 18 1.88 1.53 0.34 o
5 0 -18 1.87 1.42 0.27 o
-4 0 18 45.71 45.98 2.18 o
4 0 -18 45.72 46.42 1.55 o
-3 0 18 26.90 30.62 1.51 o
3 0 -18 26.90 31.07 1.08 o
-2 0 18 1.59 1.26 0.64 <
2 0 -18 1.59 1.77 0.32 o
-1 0 18 4.22 3.89 0.40 o
1 0 -18 4.22 3.61 0.32 o
0 0 18 13.80 15.08 1.02 o
0 0 -18 13.82 15.50 0.49 o
-1 0 -18 3.18 3.11 0.37 o
-2 0 -18 3.26 3.95 0.32 o
-3 0 -18 4.26 4.71 0.40 o
-4 0 -18 3.32 4.54 0.38 o
-5 0 -18 0.28 -0.57 0.63 <
-6 0 -18 2.58 2.32 0.55 o
-13 1 18 1.67 0.75 1.11 <
13 1 -18 1.67 1.62 0.81 <
-12 1 18 0.10 -0.22 0.72 <
12 1 -18 0.10 0.11 0.51 <
-11 1 18 0.49 0.66 0.48 <
11 1 -18 0.49 0.76 0.35 <
-10 1 18 3.10 2.39 0.40 o
10 1 -18 3.10 2.50 0.38 o
-9 1 18 3.87 3.73 0.48 o
9 1 -18 3.87 4.36 0.28 o
-8 1 18 0.11 -0.19 0.32 <
8 1 -18 0.11 -0.32 0.25 <
-7 1 18 1.45 2.41 0.36 o
7 1 -18 1.45 1.83 0.23 o
-6 1 18 0.77 1.04 0.23 o
6 1 -18 0.77 1.02 0.30 o
-5 1 18 1.39 2.05 0.48 o
5 1 -18 1.38 1.57 0.22 o
-4 1 18 1.46 0.84 0.34 <
4 1 -18 1.47 1.54 0.24 o
-3 1 18 10.97 12.12 0.70 o
3 1 -18 10.98 11.67 0.40 o
-2 1 18 1.52 2.90 0.50 o
2 1 -18 1.52 1.89 0.22 o
-1 1 18 2.93 2.24 0.76 <
1 1 -18 2.93 3.04 0.22 o
0 1 -18 0.79 0.98 0.28 o
-1 1 -18 0.31 0.37 0.19 <
-2 1 -18 0.26 0.50 0.22 <
-3 1 -18 0.97 1.55 0.29 o
-4 1 -18 0.58 0.13 0.42 <
-5 1 -18 0.10 0.74 0.41 <
6 1 18 3.70 4.32 1.40 o
-6 1 -18 3.70 3.92 0.68 o
13 2 -18 1.01 0.48 0.92 <
-12 2 18 0.80 1.04 0.67 <
12 2 -18 0.80 1.19 0.47 <
-11 2 18 0.49 0.46 0.70 <
11 2 -18 0.49 0.24 0.50 <
-10 2 18 0.65 0.18 0.33 <
10 2 -18 0.65 0.41 0.44 <
-9 2 18 0.24 0.01 0.49 <
9 2 -18 0.24 0.43 0.37 <
-8 2 18 1.83 1.60 0.48 o
8 2 -18 1.83 1.93 0.28 o
-7 2 18 2.49 2.75 0.28 o
7 2 -18 2.49 3.26 0.39 o
-6 2 18 5.01 5.64 0.46 o
6 2 -18 5.01 5.83 0.36 o
-5 2 18 1.18 0.53 0.41 <
5 2 -18 1.18 1.65 0.37 o
-4 2 18 2.29 3.07 0.75 o
4 2 -18 2.29 3.10 0.31 o
-3 2 18 5.15 5.25 0.46 o
3 2 -18 5.15 5.19 0.35 o
-2 2 18 5.82 7.16 0.94 o
2 2 -18 5.81 6.47 0.41 o
1 2 -18 1.11 2.07 0.34 o
0 2 -18 0.41 0.43 0.33 <
-1 2 -18 2.60 3.30 0.35 o
-2 2 -18 0.44 0.59 0.48 <
-3 2 -18 0.01 0.15 0.41 <
-4 2 -18 0.13 0.71 0.58 <
-5 2 -18 0.79 0.41 0.84 <
6 2 18 2.19 2.18 1.17 <
-6 2 -18 2.19 3.02 0.94 o
-12 3 18 0.84 0.69 1.08 <
12 3 -18 0.85 0.52 0.80 <
-11 3 18 1.27 -0.04 0.56 <
11 3 -18 1.27 1.31 0.60 <
-10 3 18 1.58 1.44 0.76 <
10 3 -18 1.58 1.79 0.54 o
-9 3 18 1.19 1.34 0.61 <
9 3 -18 1.19 0.74 0.55 <
-8 3 18 0.00 -0.25 0.48 <
8 3 -18 0.00 -0.33 0.36 <
-7 3 18 0.10 0.30 0.52 <
7 3 -18 0.10 0.39 0.44 <
-6 3 18 0.06 0.27 0.30 <
6 3 -18 0.06 -0.33 0.40 <
-5 3 18 2.01 3.01 0.59 o
5 3 -18 2.00 2.04 0.32 o
-4 3 18 0.79 1.49 0.80 <
4 3 -18 0.79 1.70 0.30 o
-3 3 18 0.59 0.25 0.87 <
3 3 -18 0.59 0.96 0.42 <
2 3 -18 4.33 4.49 0.37 o
1 3 -18 0.86 0.66 0.25 <
0 3 -18 1.77 2.93 0.39 o
-1 3 -18 0.36 0.26 0.38 <
-2 3 -18 0.00 -0.20 0.47 <
-3 3 -18 1.76 1.40 0.54 <
-4 3 -18 1.06 1.21 0.57 <
-5 3 -18 0.57 -0.23 0.96 <
-10 4 18 0.07 -0.03 1.43 <
10 4 -18 0.07 0.30 0.73 <
-9 4 18 0.45 1.00 0.79 <
9 4 -18 0.45 -0.44 0.97 <
-8 4 18 0.76 1.39 0.74 <
8 4 -18 0.77 0.36 1.02 <
-7 4 18 0.75 0.23 0.74 <
7 4 -18 0.75 0.31 0.53 <
-6 4 18 0.21 0.65 0.69 <
6 4 -18 0.21 0.56 0.73 <
-5 4 18 0.75 1.99 1.01 <
5 4 -18 0.75 1.34 0.37 o
4 4 -18 1.79 1.66 0.42 o
3 4 -18 0.08 1.03 0.44 <
2 4 -18 0.03 0.23 0.55 <
1 4 -18 2.25 3.25 0.60 o
0 4 -18 0.08 0.23 0.52 <
-1 4 -18 0.37 0.13 0.46 <
-2 4 -18 0.34 0.15 0.63 <
-3 4 -18 0.02 -0.88 0.61 <
8 5 -18 0.10 0.90 1.72 <
7 5 -18 0.19 -0.11 0.93 <
6 5 -18 0.35 0.46 0.91 <
5 5 -18 0.95 0.54 0.64 <
4 5 -18 0.00 0.03 0.65 <
3 5 -18 0.11 0.13 0.53 <
2 5 -18 1.36 0.10 0.66 <
1 5 -18 2.09 1.25 1.08 <
0 5 -18 0.38 1.58 1.66 <
13 1 -19 0.13 0.91 1.46 <
-12 1 19 0.04 0.19 1.31 <
12 1 -19 0.04 -0.19 0.76 <
-11 1 19 1.31 1.14 0.68 <
11 1 -19 1.30 0.83 0.61 <
-10 1 19 0.41 0.27 0.46 <
10 1 -19 0.42 0.63 0.52 <
-9 1 19 1.37 1.67 0.40 o
9 1 -19 1.37 1.08 0.44 <
-8 1 19 3.10 2.96 0.36 o
8 1 -19 3.11 3.63 0.42 o
-7 1 19 3.52 3.78 0.32 o
7 1 -19 3.51 2.86 0.34 o
-6 1 19 1.40 1.81 0.37 o
6 1 -19 1.40 1.34 0.28 o
-5 1 19 8.46 8.97 0.47 o
5 1 -19 8.47 9.63 0.38 o
-4 1 19 17.57 17.71 0.96 o
4 1 -19 17.56 18.60 0.58 o
-3 1 19 11.74 12.94 0.74 o
3 1 -19 11.74 13.38 0.48 o
-2 1 19 0.46 -0.33 0.45 <
2 1 -19 0.46 0.66 0.27 <
1 1 -19 3.49 3.17 0.24 o
0 1 -19 4.88 4.68 0.29 o
-1 1 -19 0.49 0.21 0.28 <
-2 1 -19 0.28 0.01 0.34 <
-3 1 -19 0.15 0.78 0.53 <
-4 1 -19 0.02 0.24 0.63 <
-5 1 -19 0.17 0.22 0.60 <
-6 1 -19 1.07 1.89 1.12 <
-12 2 19 0.09 0.40 0.70 <
12 2 -19 0.09 -0.77 0.70 <
-11 2 19 0.43 0.46 0.97 <
11 2 -19 0.43 -0.27 0.57 <
-10 2 19 3.36 3.94 0.53 o
10 2 -19 3.36 2.47 0.52 o
-9 2 19 0.07 0.58 0.40 <
9 2 -19 0.08 0.77 0.68 <
-8 2 19 0.16 -0.25 0.68 <
8 2 -19 0.16 -0.46 0.73 <
-7 2 19 0.05 0.08 0.34 <
7 2 -19 0.05 0.86 0.40 <
-6 2 19 4.20 5.19 0.45 o
6 2 -19 4.19 4.15 0.46 o
-5 2 19 2.67 2.77 0.41 o
5 2 -19 2.68 3.30 0.30 o
-4 2 19 0.69 0.04 0.62 <
4 2 -19 0.68 0.65 0.29 <
-3 2 19 2.43 3.31 0.54 o
3 2 -19 2.43 2.46 0.31 o
2 2 -19 1.92 2.35 0.30 o
1 2 -19 0.50 0.27 0.36 <
0 2 -19 0.08 0.23 0.45 <
-1 2 -19 0.33 0.17 0.45 <
-2 2 -19 3.02 3.21 0.62 o
-3 2 -19 2.42 2.48 0.92 <
-4 2 -19 0.20 -0.06 0.83 <
-5 2 -19 1.48 1.00 1.06 <
-11 3 19 1.24 0.73 1.22 <
11 3 -19 1.24 1.31 1.19 <
-10 3 19 0.18 0.14 0.59 <
10 3 -19 0.18 0.91 0.60 <
-9 3 19 0.28 -0.72 0.67 <
9 3 -19 0.29 0.89 1.25 <
-8 3 19 0.65 0.69 0.38 <
8 3 -19 0.65 -0.48 0.57 <
-7 3 19 0.43 0.18 0.80 <
7 3 -19 0.43 0.85 0.44 <
-6 3 19 0.05 0.92 0.56 <
6 3 -19 0.05 -0.76 0.45 <
-5 3 19 0.15 0.14 0.80 <
5 3 -19 0.16 0.06 0.49 <
-4 3 19 0.08 0.50 1.18 <
4 3 -19 0.08 -0.18 0.33 <
3 3 -19 0.25 0.08 0.36 <
2 3 -19 0.24 0.86 0.38 <
1 3 -19 0.54 0.33 0.41 <
0 3 -19 0.75 0.35 0.78 <
-1 3 -19 0.86 1.48 0.64 <
-2 3 -19 0.02 -0.15 0.95 <
-3 3 -19 1.08 0.41 0.55 <
-9 4 19 0.06 0.35 1.14 <
9 4 -19 0.05 0.62 1.24 <
-8 4 19 0.65 0.75 0.72 <
8 4 -19 0.65 0.12 1.01 <
-7 4 19 0.56 0.25 0.84 <
7 4 -19 0.56 1.23 0.95 <
-6 4 19 0.46 1.08 0.82 <
6 4 -19 0.46 1.10 0.77 <
5 4 -19 0.02 0.16 0.64 <
4 4 -19 0.01 -0.02 0.65 <
3 4 -19 0.29 -0.05 0.38 <
2 4 -19 0.18 -0.11 0.42 <
1 4 -19 1.02 1.03 0.60 <
0 4 -19 0.21 0.23 0.66 <
-1 4 -19 0.15 0.58 0.70 <
-2 4 -19 0.50 0.37 0.92 <
5 5 -19 0.07 0.09 1.76 <
4 5 -19 0.01 -0.26 0.69 <
3 5 -19 0.20 0.38 0.71 <
2 5 -19 0.11 1.22 0.62 <
1 5 -19 0.02 0.22 1.20 <
-12 0 20 0.94 -0.16 1.12 <
12 0 -20 0.94 0.94 2.17 <
-11 0 20 1.72 0.94 0.45 <
11 0 -20 1.73 0.39 1.02 <
-10 0 20 2.47 1.65 0.42 o
10 0 -20 2.47 1.14 0.61 <
-9 0 20 1.43 1.92 0.42 o
9 0 -20 1.43 2.37 0.49 o
-8 0 20 5.23 5.09 0.50 o
-7 0 20 4.87 6.24 0.53 o
7 0 -20 4.88 5.41 0.66 o
-6 0 20 1.00 1.93 0.53 o
6 0 -20 1.00 0.86 0.46 <
-5 0 20 5.87 6.40 0.62 o
5 0 -20 5.87 5.88 0.51 o
-4 0 20 25.46 26.81 1.36 o
4 0 -20 25.46 28.58 1.02 o
-3 0 20 0.83 1.61 0.63 <
3 0 -20 0.84 2.03 0.48 o
-2 0 20 0.06 0.29 0.79 <
2 0 -20 0.06 0.55 0.50 <
-1 0 20 6.27 7.09 0.96 o
1 0 -20 6.27 7.41 0.65 o
0 0 -20 0.33 0.59 0.39 <
-1 0 -20 0.72 0.71 0.53 <
-2 0 -20 2.02 1.71 0.51 o
-3 0 -20 0.16 0.18 0.71 <
-4 0 -20 0.02 -0.50 1.19 <
-5 0 -20 1.08 0.20 1.24 <
-12 1 20 0.21 0.76 1.00 <
12 1 -20 0.21 -1.06 1.41 <
-11 1 20 0.02 -0.75 0.64 <
11 1 -20 0.02 0.10 0.80 <
-10 1 20 0.03 -0.70 0.44 <
10 1 -20 0.03 -0.07 0.74 <
-9 1 20 0.32 -0.02 0.46 <
9 1 -20 0.32 0.29 0.66 <
-8 1 20 1.15 1.49 0.44 o
8 1 -20 1.14 0.80 0.81 <
-7 1 20 1.74 1.28 0.30 o
7 1 -20 1.74 2.15 0.39 o
-6 1 20 0.36 0.88 0.44 <
6 1 -20 0.36 0.97 0.32 o
-5 1 20 7.50 6.27 0.37 o
5 1 -20 7.49 6.51 0.43 o
-4 1 20 2.59 2.57 0.36 o
4 1 -20 2.59 2.94 0.25 o
-3 1 20 0.51 1.71 0.45 o
3 1 -20 0.52 1.15 0.35 o
-2 1 20 0.81 0.67 1.11 <
2 1 -20 0.81 1.25 0.23 o
1 1 -20 0.45 0.58 0.42 <
0 1 -20 0.06 -0.07 0.32 <
-1 1 -20 0.50 0.67 0.56 <
-2 1 -20 3.15 4.02 0.50 o
-3 1 -20 1.51 1.92 0.64 o
-4 1 -20 0.16 0.46 0.70 <
-11 2 20 0.08 -0.34 1.25 <
11 2 -20 0.08 0.48 0.61 <
-10 2 20 0.13 -0.71 0.61 <
10 2 -20 0.13 0.16 0.88 <
-9 2 20 0.96 0.79 0.47 <
9 2 -20 0.97 1.69 0.94 <
-8 2 20 0.36 0.61 0.65 <
8 2 -20 0.36 0.46 0.73 <
-7 2 20 0.02 0.50 0.38 <
7 2 -20 0.02 -0.51 0.49 <
-6 2 20 1.76 1.73 0.44 o
6 2 -20 1.76 1.60 0.54 <
-5 2 20 4.42 4.86 0.82 o
5 2 -20 4.42 5.19 0.51 o
-4 2 20 0.10 1.36 0.61 <
4 2 -20 0.09 0.90 0.42 <
-3 2 20 0.05 0.64 0.79 <
3 2 -20 0.05 -0.09 0.33 <
2 2 -20 2.58 2.66 0.31 o
1 2 -20 2.54 3.29 0.54 o
0 2 -20 0.87 1.19 0.54 <
-1 2 -20 0.22 0.01 0.60 <
-2 2 -20 0.28 -0.24 0.52 <
-3 2 -20 2.56 1.27 1.24 <
-4 2 -20 0.22 0.01 1.15 <
-10 3 20 0.26 0.97 0.89 <
10 3 -20 0.26 -0.25 1.05 <
-9 3 20 0.46 0.43 0.76 <
9 3 -20 0.46 0.55 0.74 <
-8 3 20 0.71 1.15 0.62 <
8 3 -20 0.71 -0.07 0.88 <
-7 3 20 0.84 1.04 0.61 <
7 3 -20 0.84 0.69 0.49 <
-6 3 20 1.48 1.01 0.77 <
6 3 -20 1.47 1.20 0.72 <
-5 3 20 1.63 2.41 1.29 <
5 3 -20 1.63 1.85 0.42 o
4 3 -20 0.53 0.52 0.47 <
3 3 -20 0.45 0.31 0.42 <
2 3 -20 0.27 0.68 0.51 <
1 3 -20 0.02 -0.01 0.50 <
0 3 -20 0.30 -0.34 0.66 <
-1 3 -20 1.15 0.70 0.78 <
-2 3 -20 0.43 -0.09 1.28 <
8 4 -20 0.06 0.14 0.96 <
6 4 -20 1.84 3.17 1.09 <
5 4 -20 0.04 0.21 0.72 <
4 4 -20 0.24 0.88 0.51 <
3 4 -20 1.28 1.33 0.64 <
2 4 -20 1.35 1.72 0.54 o
1 4 -20 0.15 0.35 0.59 <
-11 1 21 0.82 0.87 0.82 <
-10 1 21 0.16 1.23 0.67 <
-9 1 21 0.43 0.60 0.60 <
9 1 -21 0.43 1.06 0.96 <
-8 1 21 0.39 0.86 0.63 <
8 1 -21 0.39 0.54 0.85 <
-7 1 21 0.11 -0.22 0.39 <
7 1 -21 0.11 -0.45 0.69 <
-6 1 21 0.54 0.20 0.47 <
6 1 -21 0.54 0.37 0.37 <
-5 1 21 2.05 2.50 0.55 o
5 1 -21 2.05 2.16 0.50 o
-4 1 21 0.17 0.19 0.57 <
4 1 -21 0.17 0.57 0.35 <
-3 1 21 0.09 -0.62 0.71 <
3 1 -21 0.09 0.14 0.36 <
-2 1 21 2.82 3.46 0.56 o
2 1 -21 2.83 3.39 0.30 o
-1 1 21 0.93 0.30 1.03 <
1 1 -21 0.94 1.39 0.37 o
0 1 -21 0.38 0.09 0.57 <
-1 1 -21 2.62 2.12 0.72 <
-2 1 -21 2.90 3.27 1.27 <
-3 1 -21 0.44 2.05 0.77 <
-10 2 21 0.24 0.23 1.19 <
10 2 -21 0.24 1.36 1.52 <
-9 2 21 1.96 1.98 0.69 <
9 2 -21 1.96 3.15 0.76 o
-8 2 21 1.02 1.67 0.66 <
8 2 -21 1.02 1.94 1.34 <
-7 2 21 0.21 -0.35 0.58 <
7 2 -21 0.21 0.62 0.81 <
-6 2 21 3.71 3.97 0.47 o
6 2 -21 3.70 3.81 0.68 o
-5 2 21 4.46 4.92 0.65 o
5 2 -21 4.47 4.98 0.61 o
-4 2 21 1.51 1.09 0.68 <
4 2 -21 1.51 1.68 0.41 o
3 2 -21 1.02 0.97 0.57 <
2 2 -21 0.23 -0.28 0.45 <
1 2 -21 0.43 -0.59 0.54 <
0 2 -21 0.08 0.51 0.75 <
-1 2 -21 0.20 -0.06 0.77 <
-2 2 -21 2.51 1.29 0.51 <
-3 2 -21 1.07 0.98 0.92 <
-9 3 21 0.06 -0.17 1.02 <
-8 3 21 0.83 0.42 0.83 <
8 3 -21 0.83 -0.38 0.83 <
-7 3 21 2.62 1.71 0.78 <
7 3 -21 2.62 3.89 0.57 o
-6 3 21 3.29 5.11 0.80 o
6 3 -21 3.29 3.78 0.51 o
5 3 -21 0.17 0.02 0.81 <
4 3 -21 0.33 -0.04 0.89 <
3 3 -21 2.81 2.57 0.93 <
2 3 -21 1.75 1.73 0.72 <
1 3 -21 0.68 0.68 0.74 <
0 3 -21 0.64 1.11 0.87 <
6 4 -21 0.08 0.29 1.01 <
5 4 -21 0.03 0.63 0.94 <
4 4 -21 0.25 -0.74 0.97 <
3 4 -21 0.09 0.65 0.97 <
-10 0 22 0.01 -1.03 0.86 <
-9 0 22 0.62 0.02 0.95 <
-8 0 22 0.52 0.06 0.98 <
-7 0 22 0.48 0.32 0.66 <
7 0 -22 0.48 0.42 1.23 <
-6 0 22 0.78 0.55 0.58 <
6 0 -22 0.78 -0.40 0.64 <
-5 0 22 0.61 1.24 1.29 <
5 0 -22 0.61 1.09 0.85 <
-4 0 22 0.20 0.18 1.01 <
4 0 -22 0.19 -0.17 0.78 <
-3 0 22 1.82 3.23 0.85 o
3 0 -22 1.82 1.74 0.59 <
2 0 -22 1.48 0.91 0.76 <
1 0 -22 0.10 -0.97 0.54 <
0 0 -22 1.74 1.63 0.99 <
-1 0 -22 10.22 12.04 1.63 o
-10 1 22 0.52 -0.11 0.88 <
-9 1 22 1.31 1.50 0.54 <
-8 1 22 1.46 1.78 0.48 o
-7 1 22 0.13 0.20 0.68 <
7 1 -22 0.13 -0.06 0.98 <
-6 1 22 0.33 0.12 0.71 <
6 1 -22 0.33 0.32 0.59 <
-5 1 22 2.51 2.27 0.50 o
5 1 -22 2.51 1.80 0.55 o
-4 1 22 0.51 0.66 0.59 <
4 1 -22 0.51 0.81 0.52 <
-3 1 22 0.04 0.76 1.05 <
3 1 -22 0.04 0.27 0.60 <
-2 1 22 0.14 0.65 1.15 <
2 1 -22 0.14 0.29 0.51 <
1 1 -22 0.13 0.15 0.79 <
0 1 -22 0.66 0.73 0.89 <
-1 1 -22 0.52 0.49 0.81 <
-9 2 22 0.05 1.19 0.94 <
9 2 -22 0.05 -0.39 1.31 <
-8 2 22 1.53 2.04 0.46 o
8 2 -22 1.53 2.63 1.22 <
-7 2 22 0.28 1.64 0.88 <
7 2 -22 0.28 -0.24 0.81 <
-6 2 22 1.16 1.26 0.80 <
6 2 -22 1.16 1.12 0.76 <
-5 2 22 0.17 -0.42 0.67 <
5 2 -22 0.17 -0.37 0.59 <
-4 2 22 0.88 1.48 1.04 <
4 2 -22 0.88 0.92 0.66 <
-3 2 22 1.50 1.69 0.73 <
3 2 -22 1.50 1.93 0.63 o
-2 2 22 0.61 0.13 0.99 <
2 2 -22 0.61 0.71 0.65 <
1 2 -22 0.30 -0.30 0.68 <
0 2 -22 0.95 0.63 0.96 <
-1 2 -22 0.06 0.10 1.03 <
-7 3 22 1.06 0.20 1.59 <
7 3 -22 1.06 0.40 1.12 <
-6 3 22 1.21 1.39 1.69 <
6 3 -22 1.21 0.75 0.86 <
-5 3 22 0.65 1.85 1.15 <
5 3 -22 0.65 2.04 0.85 <
4 3 -22 0.49 1.25 0.87 <
3 3 -22 0.07 1.04 0.70 <
2 3 -22 0.07 0.65 1.10 <
1 3 -22 0.15 -0.95 0.69 <
-9 1 23 1.15 0.87 1.62 <
-8 1 23 0.08 0.74 0.84 <
-7 1 23 0.16 0.53 0.75 <
-6 1 23 1.07 1.20 0.89 <
6 1 -23 1.07 1.59 1.06 <
-5 1 23 0.95 1.88 1.04 <
5 1 -23 0.95 1.49 0.56 <
-4 1 23 1.72 2.71 1.17 <
4 1 -23 1.72 2.38 0.59 o
3 1 -23 0.67 0.57 0.74 <
2 1 -23 0.45 1.05 1.20 <
1 1 -23 0.46 -0.14 0.97 <
-7 2 23 0.10 -0.09 0.90 <
-6 2 23 0.76 0.32 0.88 <
6 2 -23 0.76 0.62 0.72 <
-5 2 23 0.39 0.53 1.35 <
5 2 -23 0.39 -0.66 0.96 <
-4 2 23 0.03 -0.10 0.97 <
4 2 -23 0.03 0.53 0.78 <
-3 2 23 0.19 -0.62 1.96 <
3 2 -23 0.19 0.85 0.77 <
2 2 -23 0.14 0.48 0.83 <
5 0 -24 1.95 1.83 1.21 <
3 0 -24 1.26 2.40 0.99 <
2 0 -24 0.23 0.90 1.12 <
-6 1 24 0.02 0.53 1.33 <
-5 1 24 0.03 -0.98 1.91 <
5 1 -24 0.03 0.52 1.20 <
4 1 -24 0.21 -0.02 1.29 <
3 1 -24 0.37 1.72 1.32 <
loop_
_restr_angle_atom_site_label_1
_restr_angle_site_symmetry_1
_restr_angle_atom_site_label_2
_restr_angle_site_symmetry_2
_restr_angle_atom_site_label_3
_restr_angle_site_symmetry_3
_restr_angle_target
_restr_angle_target_weight_param
? ? ? ? ? ? ? ?
loop_
_restr_distance_atom_site_label_1
_restr_distance_site_symmetry_1
_restr_distance_atom_site_label_2
_restr_distance_site_symmetry_2
_restr_distance_target
_restr_distance_target_weight_param
? ? ? ? ? ?
loop_
_restr_equal_angle_atom_site_label_1
_restr_equal_angle_site_symmetry_1
_restr_equal_angle_atom_site_label_2
_restr_equal_angle_site_symmetry_2
_restr_equal_angle_atom_site_label_3
_restr_equal_angle_site_symmetry_3
_restr_equal_angle_class_class_id
_restr_equal_angle_class_target_weight_param
? ? ? ? ? ? ? ?
loop_
_restr_equal_distance_atom_site_label_1
_restr_equal_distance_site_symmetry_1
_restr_equal_distance_atom_site_label_2
_restr_equal_distance_site_symmetry_2
_restr_equal_distance_class_class_id
_restr_equal_distance_class_target_weight_param
? ? ? ? ? ?
loop_
_restr_equal_torsion_atom_site_label_1
_restr_equal_torsion_site_symmetry_1
_restr_equal_torsion_atom_site_label_2
_restr_equal_torsion_site_symmetry_2
_restr_equal_torsion_atom_site_label_3
_restr_equal_torsion_site_symmetry_3
_restr_equal_torsion_atom_site_label_4
_restr_equal_torsion_site_symmetry_4
_restr_equal_torsion_class_class_id
_restr_equal_torsion_class_target_weight_param
? ? ? ? ? ? ? ? ? ?
loop_
_restr_torsion_atom_site_label_1
_restr_torsion_site_symmetry_1
_restr_torsion_atom_site_label_2
_restr_torsion_site_symmetry_2
_restr_torsion_atom_site_label_3
_restr_torsion_site_symmetry_3
_restr_torsion_atom_site_label_4
_restr_torsion_site_symmetry_4
_restr_torsion_angle_target
_restr_torsion_weight_param
? ? ? ? ? ? ? ? ? ?
loop_
_twin_individual_id
_twin_individual_mass_fraction_refined
_twin_individual_twin_matrix_11
_twin_individual_twin_matrix_12
_twin_individual_twin_matrix_13
_twin_individual_twin_matrix_21
_twin_individual_twin_matrix_22
_twin_individual_twin_matrix_23
_twin_individual_twin_matrix_31
_twin_individual_twin_matrix_32
_twin_individual_twin_matrix_33
? ? ? ? ? ? ? ? ? ? ?
loop_
_twin_refln_datum_id
_twin_refln_individual_id
_twin_refln_index_h
_twin_refln_index_k
_twin_refln_index_l
_twin_refln_F_squared_calc
_twin_refln_F_squared_meas
_twin_refln_F_squared_sigma
_twin_refln_include_status
? ? ? ? ? ? ? ? ?
loop_
_jana_atom_site_adp_c_label
_jana_atom_site_adp_c_type_symbol
_jana_atom_site_adp_c_111
_jana_atom_site_adp_c_112
_jana_atom_site_adp_c_113
_jana_atom_site_adp_c_122
_jana_atom_site_adp_c_123
_jana_atom_site_adp_c_133
_jana_atom_site_adp_c_222
_jana_atom_site_adp_c_223
_jana_atom_site_adp_c_233
_jana_atom_site_adp_c_333
? ? ? ? ? ? ? ? ? ? ? ?
loop_
_jana_atom_site_adp_d_label
_jana_atom_site_adp_d_type_symbol
_jana_atom_site_adp_d_1111
_jana_atom_site_adp_d_1112
_jana_atom_site_adp_d_1113
_jana_atom_site_adp_d_1122
_jana_atom_site_adp_d_1123
_jana_atom_site_adp_d_1133
_jana_atom_site_adp_d_1222
_jana_atom_site_adp_d_1223
_jana_atom_site_adp_d_1233
_jana_atom_site_adp_d_1333
_jana_atom_site_adp_d_2222
_jana_atom_site_adp_d_2223
_jana_atom_site_adp_d_2233
_jana_atom_site_adp_d_2333
_jana_atom_site_adp_d_3333
? ? ? ? ? ? ? ? ? ? ? ? ? ? ? ? ?
loop_
_jana_atom_site_adp_e_label
_jana_atom_site_adp_e_type_symbol
_jana_atom_site_adp_e_11111
_jana_atom_site_adp_e_11112
_jana_atom_site_adp_e_11113
_jana_atom_site_adp_e_11122
_jana_atom_site_adp_e_11123
_jana_atom_site_adp_e_11133
_jana_atom_site_adp_e_11222
_jana_atom_site_adp_e_11223
_jana_atom_site_adp_e_11233
_jana_atom_site_adp_e_11333
_jana_atom_site_adp_e_12222
_jana_atom_site_adp_e_12223
_jana_atom_site_adp_e_12233
_jana_atom_site_adp_e_12333
_jana_atom_site_adp_e_13333
_jana_atom_site_adp_e_22222
_jana_atom_site_adp_e_22223
_jana_atom_site_adp_e_22233
_jana_atom_site_adp_e_22333
_jana_atom_site_adp_e_23333
_jana_atom_site_adp_e_33333
? ? ? ? ? ? ? ? ? ? ? ? ? ? ? ? ? ? ? ? ? ? ?
loop_
_jana_atom_site_adp_f_label
_jana_atom_site_adp_f_type_symbol
_jana_atom_site_adp_f_111111
_jana_atom_site_adp_f_111112
_jana_atom_site_adp_f_111113
_jana_atom_site_adp_f_111122
_jana_atom_site_adp_f_111123
_jana_atom_site_adp_f_111133
_jana_atom_site_adp_f_111222
_jana_atom_site_adp_f_111223
_jana_atom_site_adp_f_111233
_jana_atom_site_adp_f_111333
_jana_atom_site_adp_f_112222
_jana_atom_site_adp_f_112223
_jana_atom_site_adp_f_112233
_jana_atom_site_adp_f_112333
_jana_atom_site_adp_f_113333
_jana_atom_site_adp_f_122222
_jana_atom_site_adp_f_122223
_jana_atom_site_adp_f_122233
_jana_atom_site_adp_f_122333
_jana_atom_site_adp_f_123333
_jana_atom_site_adp_f_133333
_jana_atom_site_adp_f_222222
_jana_atom_site_adp_f_222223
_jana_atom_site_adp_f_222233
_jana_atom_site_adp_f_222333
_jana_atom_site_adp_f_223333
_jana_atom_site_adp_f_233333
_jana_atom_site_adp_f_333333
? ? ? ? ? ? ? ? ? ? ? ? ? ? ? ? ? ? ? ? ? ? ? ? ? ? ? ? ? ?
