#------------------------------------------------------------------------------
#$Date: 2022-06-09 04:56:52 +0300 (Thu, 09 Jun 2022) $
#$Revision: 275937 $
#$URL: file:///home/coder/svn-repositories/cod/cif/2/10/90/2109006.cif $
#------------------------------------------------------------------------------
#
# This file is available in the Crystallography Open Database (COD),
# http://www.crystallography.net/. The original data for this entry
# were provided by IUCr Journals, http://journals.iucr.org/.
#
# The file may be used within the scientific community so long as
# proper attribution is given to the journal article from which the
# data were obtained.
#
data_2109006
loop_
_publ_author_name
'Hoser, Anna Agnieszka'
'Rekis, Toms'
'Madsen, Anders \/Ostergaard'
_publ_section_title
;
 Dynamics and disorder: on the stability of pyrazinamide polymorphs
;
_journal_issue                   '3 Part 1'
_journal_name_full               'Acta Crystallographica Section B'
_journal_page_first              416
_journal_page_last               424
_journal_paper_doi               10.1107/S2052520622004577
_journal_volume                  78
_journal_year                    2022
_chemical_formula_sum            'C5 H5 N3 O'
_chemical_formula_weight         123.1
_chemical_name_common            Pyrazinamide
_space_group_IT_number           2
_space_group_name_Hall           '-P 1'
_space_group_name_H-M_alt        'P -1'
_symmetry_cell_setting           triclinic
_symmetry_Int_Tables_number      2
_symmetry_space_group_name_Hall  '-P 1'
_symmetry_space_group_name_H-M   'P -1'
_cell_angle_alpha                97.45(3)
_cell_angle_beta                 98.04(3)
_cell_angle_gamma                106.55(2)
_cell_formula_units_Z            2
_cell_length_a                   5.1280(14)
_cell_length_b                   5.7080(12)
_cell_length_c                   9.857(4)
_cell_measurement_reflns_used    15213
_cell_measurement_temperature    122
_cell_measurement_theta_max      53.32
_cell_measurement_theta_min      2.12
_cell_volume                     269.45(15)
_diffrn_ambient_temperature      122
_diffrn_measured_fraction_theta_full 0.96
_diffrn_measured_fraction_theta_max 0.77
_diffrn_measurement_device_type  'Nonius Kappa CCD'
_diffrn_radiation_probe          x-ray
_diffrn_radiation_source         'X-ray tube'
_diffrn_radiation_type           'Mo K\a'
_diffrn_radiation_wavelength     0.71073
_diffrn_reflns_av_R_equivalents  0.0743
_diffrn_reflns_av_unetI/netI     0.0371
_diffrn_reflns_limit_h_max       10
_diffrn_reflns_limit_h_min       -9
_diffrn_reflns_limit_k_max       9
_diffrn_reflns_limit_k_min       -12
_diffrn_reflns_limit_l_max       21
_diffrn_reflns_limit_l_min       -21
_diffrn_reflns_number            15213
_diffrn_reflns_theta_full        44.37
_diffrn_reflns_theta_max         53.32
_diffrn_reflns_theta_min         2.12
_exptl_absorpt_coefficient_mu    0.113
_exptl_crystal_colour            colorless
_exptl_crystal_density_diffrn    1.5175
_exptl_crystal_description       prism
_exptl_crystal_F_000             128
_refine_diff_density_max         0.50
_refine_diff_density_min         -0.27
_refine_ls_extinction_method     none
_refine_ls_goodness_of_fit_gt    2.85
_refine_ls_goodness_of_fit_ref   2.60
_refine_ls_hydrogen_treatment    constr
_refine_ls_number_constraints    0
_refine_ls_number_parameters     82
_refine_ls_number_reflns         4988
_refine_ls_number_restraints     0
_refine_ls_R_factor_all          0.0540
_refine_ls_R_factor_gt           0.0397
_refine_ls_shift/su_max          0.0024
_refine_ls_shift/su_mean         0.0003
_refine_ls_structure_factor_coef F
_refine_ls_weighting_details     w=1/(\s^2^(F)+0.0001F^2^)
_refine_ls_weighting_scheme      sigma
_refine_ls_wR_factor_gt          0.0635
_refine_ls_wR_factor_ref         0.0647
_reflns_number_gt                4005
_reflns_number_total             4988
_reflns_threshold_expression     I>3\s(I)
_cod_data_source_file            so5076sup1.cif
_cod_data_source_block           delta122K
_cod_depositor_comments
;
The following automatic conversions were performed:

data item '_diffrn_radiation_probe' value 'X-ray' was changed to
'x-ray' in accordance with the
/home/data/users/saulius/crontab/automatic-downloads/rss-feeds/IUCr/lib/dictionaries/cif_core.dic
dictionary named 'cif_core.dic' version 2.4.2 last updated on
2011-04-26.

Automatic conversion script
Id: cif_fix_values 7556 2019-12-06 15:28:31Z antanas 
;
_cod_original_formula_sum        'C5 H5 N3 O1'
_cod_database_code               2109006
loop_
_space_group_symop_id
_space_group_symop_operation_xyz
1 x,y,z
2 -x,-y,-z
loop_
_atom_site_label
_atom_site_type_symbol
_atom_site_fract_x
_atom_site_fract_y
_atom_site_fract_z
_atom_site_adp_type
_atom_site_U_iso_or_equiv
_atom_site_site_symmetry_multiplicity
_atom_site_occupancy
_atom_site_calc_flag
_atom_site_refinement_flags
_atom_site_disorder_assembly
_atom_site_disorder_group
O1 O 0.80224(6) 1.15293(5) 0.10104(3) Uani 0.01598(8) 2 1 d . . .
N1 N 0.24229(7) 1.04167(6) 0.37038(3) Uani 0.01502(8) 2 1 d . . .
N3 N 0.78478(6) 0.74568(6) 0.07172(3) Uani 0.01500(8) 2 1 d . . .
N2 N 0.42276(7) 0.65832(6) 0.24927(4) Uani 0.01519(8) 2 1 d . . .
C1 C 0.51158(6) 0.88913(6) 0.22318(3) Uani 0.01115(8) 2 1 d . . .
C3 C 0.71342(6) 0.93999(6) 0.12568(3) Uani 0.01188(8) 2 1 d . . .
C2 C 0.15238(8) 0.81092(7) 0.39541(4) Uani 0.01459(9) 2 1 d . . .
C4 C 0.24172(8) 0.61977(6) 0.33507(4) Uani 0.01692(10) 2 1 d . . .
C5 C 0.42242(8) 1.07968(6) 0.28310(4) Uani 0.01394(9) 2 1 d . . .
H1n3 H 0.717086 0.601443 0.094668 Uiso 0.018 2 1 d . . .
H2n3 H 0.899009 0.76319 0.013578 Uiso 0.018 2 1 d . . .
H1c2 H 0.022155 0.775221 0.456841 Uiso 0.0175 2 1 d . . .
H1c4 H 0.171016 0.456326 0.355873 Uiso 0.0203 2 1 d . . .
H1c5 H 0.491614 1.242633 0.261398 Uiso 0.0167 2 1 d . . .
loop_
_atom_site_aniso_label
_atom_site_aniso_type_symbol
_atom_site_aniso_U_11
_atom_site_aniso_U_22
_atom_site_aniso_U_33
_atom_site_aniso_U_12
_atom_site_aniso_U_13
_atom_site_aniso_U_23
O1 O 0.01577(11) 0.01287(11) 0.02105(13) 0.00347(9) 0.00899(9) 0.00537(9)
N1 N 0.01815(13) 0.01233(12) 0.01903(13) 0.00797(10) 0.00962(10) 0.00446(9)
N3 N 0.01526(12) 0.01350(12) 0.01836(13) 0.00530(10) 0.00879(10) 0.00231(9)
N2 N 0.01856(13) 0.01038(11) 0.02058(13) 0.00643(10) 0.01079(10) 0.00462(9)
C1 C 0.01148(11) 0.00976(12) 0.01388(12) 0.00430(9) 0.00499(9) 0.00287(9)
C3 C 0.01061(11) 0.01196(12) 0.01364(12) 0.00341(9) 0.00417(9) 0.00240(9)
C2 C 0.01690(13) 0.01356(13) 0.01756(13) 0.00727(11) 0.00931(11) 0.00535(10)
C4 C 0.02141(15) 0.01137(13) 0.02314(16) 0.00714(11) 0.01331(13) 0.00672(11)
C5 C 0.01641(13) 0.01033(12) 0.01829(13) 0.00601(10) 0.00832(11) 0.00414(10)
loop_
_atom_type_symbol
_atom_type_scat_dispersion_real
_atom_type_scat_dispersion_imag
_atom_type_scat_source
C 0.0033 0.0016 'International Tables Vol C tables 4.2.6.8 and 6.1.1.1'
H 0.0000 0.0000 'International Tables Vol C tables 4.2.6.8 and 6.1.1.1'
N 0.0061 0.0033 'International Tables Vol C tables 4.2.6.8 and 6.1.1.1'
O 0.0106 0.0060 'International Tables Vol C tables 4.2.6.8 and 6.1.1.1'
loop_
_diffrn_standard_refln_index_h
_diffrn_standard_refln_index_k
_diffrn_standard_refln_index_l
? ? ?
loop_
_exptl_crystal_face_index_h
_exptl_crystal_face_index_k
_exptl_crystal_face_index_l
_exptl_crystal_face_perp_dist
? ? ? ?
loop_
_geom_angle_atom_site_label_1
_geom_angle_atom_site_label_2
_geom_angle_atom_site_label_3
_geom_angle_site_symmetry_1
_geom_angle_site_symmetry_2
_geom_angle_site_symmetry_3
_geom_angle
_geom_angle_publ_flag
C2 N1 C5 . . . 116.23(4) ?
C3 N3 H1n3 . . . 120 ?
C3 N3 H2n3 . . . 120 ?
H1n3 N3 H2n3 . . . 120 ?
C1 N2 C4 . . . 116.39(4) ?
N2 C1 C3 . . . 118.12(4) ?
N2 C1 C5 . . . 121.98(4) ?
C3 C1 C5 . . . 119.90(4) ?
O1 C3 N3 . . . 124.64(4) ?
O1 C3 C1 . . . 119.55(4) ?
N3 C3 C1 . . . 115.80(4) ?
N1 C2 C4 . . . 122.03(4) ?
N1 C2 H1c2 . . . 118.98 ?
C4 C2 H1c2 . . . 118.98 ?
N2 C4 C2 . . . 121.68(4) ?
N2 C4 H1c4 . . . 119.16 ?
C2 C4 H1c4 . . . 119.16 ?
N1 C5 C1 . . . 121.68(4) ?
N1 C5 H1c5 . . . 119.16 ?
C1 C5 H1c5 . . . 119.16 ?
loop_
_geom_bond_atom_site_label_1
_geom_bond_atom_site_label_2
_geom_bond_site_symmetry_1
_geom_bond_site_symmetry_2
_geom_bond_distance
_geom_bond_publ_flag
O1 C3 . . 1.2393(7) ?
N1 C2 . . 1.3335(8) ?
N1 C5 . . 1.3405(9) ?
N3 C3 . . 1.3340(7) ?
N3 H1n3 . . 0.87 ?
N3 H2n3 . . 0.87 ?
N2 C1 . . 1.3372(8) ?
N2 C4 . . 1.3330(9) ?
C1 C3 . . 1.5028(9) ?
C1 C5 . . 1.3903(8) ?
C2 C4 . . 1.3953(8) ?
C2 H1c2 . . 0.96 ?
C4 H1c4 . . 0.96 ?
C5 H1c5 . . 0.96 ?
loop_
_geom_hbond_atom_site_label_D
_geom_hbond_atom_site_label_H
_geom_hbond_atom_site_label_A
_geom_hbond_site_symmetry_D
_geom_hbond_site_symmetry_H
_geom_hbond_site_symmetry_A
_geom_hbond_distance_DH
_geom_hbond_distance_HA
_geom_hbond_distance_DA
_geom_hbond_angle_DHA
_geom_hbond_publ_flag
N3 H2n3 O1 . . 2_775 0.87 2.01 2.8784(16) 171.76 ?
loop_
_geom_torsion_atom_site_label_1
_geom_torsion_atom_site_label_2
_geom_torsion_atom_site_label_3
_geom_torsion_atom_site_label_4
_geom_torsion_site_symmetry_1
_geom_torsion_site_symmetry_2
_geom_torsion_site_symmetry_3
_geom_torsion_site_symmetry_4
_geom_torsion
_geom_torsion_publ_flag
? ? ? ? ? ? ? ? ? ?
loop_
_refln_index_h
_refln_index_k
_refln_index_l
_refln_F_squared_calc
_refln_F_squared_meas
_refln_F_squared_sigma
_refln_observed_status
4 0 0 113.47 126.29 3.51 o
5 0 0 32.31 34.09 0.86 o
6 0 0 11.85 12.27 0.31 o
7 0 0 0.24 0.03 0.04 <
8 0 0 0.03 0.06 0.06 <
9 0 0 0.08 0.05 0.07 <
-9 1 0 1.91 1.65 0.09 o
-8 1 0 3.13 3.10 0.10 o
-7 1 0 0.00 0.04 0.04 <
-6 1 0 0.31 0.43 0.03 o
-5 1 0 3.09 3.41 0.10 o
-4 1 0 109.26 122.32 3.90 o
-3 1 0 101.88 105.04 4.26 o
1 1 0 0.10 0.96 0.06 o
2 1 0 2.02 1.84 0.08 o
3 1 0 2.36 2.83 0.07 o
4 1 0 0.18 0.13 0.02 o
5 1 0 18.91 20.46 0.51 o
6 1 0 1.67 1.38 0.07 o
7 1 0 0.93 0.89 0.07 o
8 1 0 2.67 2.48 0.09 o
9 1 0 2.56 2.12 0.12 o
-10 2 0 0.10 0.16 0.16 <
-9 2 0 0.62 0.39 0.05 o
-8 2 0 5.06 5.33 0.15 o
-7 2 0 1.99 1.83 0.06 o
-6 2 0 51.31 52.45 1.31 o
-5 2 0 26.94 27.07 0.67 o
-4 2 0 16.36 17.84 0.41 o
-3 2 0 165.26 181.73 10.00 o
-1 2 0 0.92 1.50 0.06 o
0 2 0 26.77 32.22 1.78 o
2 2 0 207.31 216.20 12.01 o
3 2 0 13.57 14.59 0.41 o
4 2 0 8.53 8.41 0.24 o
5 2 0 137.38 138.88 4.44 o
6 2 0 1.08 0.93 0.06 o
7 2 0 16.75 16.95 0.48 o
8 2 0 0.01 0.05 0.09 <
9 2 0 1.74 1.41 0.15 o
-10 3 0 4.38 4.18 0.20 o
-9 3 0 3.41 3.04 0.13 o
-8 3 0 16.81 17.08 0.49 o
-7 3 0 8.35 8.38 0.22 o
-6 3 0 228.74 210.26 8.35 o
-5 3 0 1.60 1.43 0.04 o
-4 3 0 35.88 37.47 0.85 o
-3 3 0 223.55 218.97 12.20 o
-2 3 0 84.70 91.85 5.06 o
-1 3 0 66.71 80.28 3.14 o
0 3 0 2.22 2.48 0.06 o
1 3 0 74.96 94.02 3.05 o
2 3 0 20.03 23.15 0.58 o
3 3 0 8.83 8.60 0.20 o
4 3 0 0.45 0.43 0.04 o
5 3 0 0.86 1.04 0.05 o
6 3 0 1.05 0.64 0.05 o
7 3 0 2.39 2.03 0.09 o
8 3 0 3.14 3.13 0.23 o
9 3 0 0.11 0.06 0.13 <
-10 4 0 1.99 2.11 0.13 o
-9 4 0 2.87 2.99 0.13 o
-8 4 0 2.93 2.94 0.12 o
-7 4 0 0.26 0.50 0.04 o
-6 4 0 1.96 2.33 0.08 o
-5 4 0 2.50 2.14 0.06 o
-4 4 0 17.92 15.84 0.44 o
-3 4 0 10.75 9.93 0.21 o
-2 4 0 0.21 0.48 0.02 o
0 4 0 66.98 67.78 2.17 o
1 4 0 36.51 36.12 1.01 o
2 4 0 40.70 38.39 0.95 o
3 4 0 55.69 52.53 1.32 o
4 4 0 0.79 0.90 0.06 o
5 4 0 1.15 1.07 0.07 o
6 4 0 0.27 0.15 0.07 <
7 4 0 0.14 0.02 0.06 <
8 4 0 0.44 0.38 0.13 <
-10 5 0 0.31 0.23 0.09 <
-9 5 0 2.39 2.43 0.11 o
-8 5 0 3.53 3.83 0.15 o
-7 5 0 3.02 3.09 0.12 o
-6 5 0 5.33 5.51 0.17 o
-5 5 0 70.14 64.77 1.79 o
-4 5 0 96.55 89.73 2.49 o
-3 5 0 47.62 44.78 0.94 o
-2 5 0 65.32 62.94 1.56 o
0 5 0 0.60 0.66 0.03 o
1 5 0 79.63 82.67 2.29 o
2 5 0 35.25 33.06 0.82 o
3 5 0 16.83 16.04 0.40 o
4 5 0 15.21 14.75 0.49 o
5 5 0 6.15 6.19 0.22 o
6 5 0 1.21 1.26 0.10 o
7 5 0 0.50 0.54 0.16 o
-10 6 0 1.11 1.38 0.11 o
-9 6 0 2.77 2.66 0.12 o
-8 6 0 0.47 0.12 0.07 <
-7 6 0 0.09 -0.01 0.05 <
-6 6 0 6.01 6.34 0.19 o
-5 6 0 15.72 13.55 0.34 o
-4 6 0 4.74 3.97 0.11 o
-3 6 0 32.50 32.19 0.73 o
-2 6 0 0.65 0.48 0.02 o
-1 6 0 16.64 15.39 0.35 o
0 6 0 3.09 3.42 0.09 o
1 6 0 1.51 2.17 0.07 o
2 6 0 1.06 1.10 0.08 o
3 6 0 1.75 1.80 0.08 o
4 6 0 17.64 18.24 0.60 o
5 6 0 0.96 1.08 0.13 o
6 6 0 0.27 0.06 0.15 <
-10 7 0 0.33 0.25 0.18 <
-9 7 0 4.03 4.12 0.16 o
-8 7 0 0.07 -0.55 0.07 <
-7 7 0 82.18 83.49 2.33 o
-6 7 0 20.23 20.43 0.58 o
-5 7 0 8.01 8.36 0.22 o
-4 7 0 45.22 49.42 1.23 o
-3 7 0 64.36 67.40 1.53 o
-2 7 0 2.33 2.38 0.07 o
-1 7 0 8.59 8.33 0.22 o
0 7 0 26.33 27.60 0.69 o
1 7 0 15.58 17.61 0.57 o
2 7 0 0.25 0.37 0.05 o
3 7 0 3.25 3.17 0.16 o
4 7 0 10.34 11.27 0.66 o
-9 8 0 4.62 5.18 0.24 o
-8 8 0 4.95 4.78 0.18 o
-7 8 0 67.71 68.21 1.90 o
-6 8 0 0.00 -0.14 0.05 <
-5 8 0 5.05 4.92 0.15 o
-4 8 0 28.25 29.58 0.83 o
-3 8 0 6.61 6.51 0.19 o
-2 8 0 1.29 1.26 0.06 o
-1 8 0 0.00 -0.14 0.05 <
0 8 0 0.15 0.20 0.07 <
1 8 0 0.06 0.11 0.05 <
2 8 0 1.37 1.22 0.09 o
3 8 0 2.49 2.38 0.12 o
-8 9 0 1.94 2.23 0.32 o
-7 9 0 0.08 -0.14 0.06 <
-6 9 0 7.49 6.94 0.24 o
-5 9 0 9.51 9.01 0.26 o
-4 9 0 2.31 2.31 0.10 o
-3 9 0 12.83 12.06 0.35 o
-2 9 0 125.65 122.44 3.91 o
-1 9 0 7.85 8.63 0.36 o
0 9 0 6.94 7.05 0.30 o
1 9 0 7.77 7.85 0.34 o
2 9 0 9.26 9.43 0.40 o
-8 10 0 0.00 -0.16 0.29 <
-7 10 0 0.00 0.11 0.10 <
-6 10 0 15.21 14.03 0.57 o
-5 10 0 11.64 10.24 0.35 o
-4 10 0 2.28 1.73 0.09 o
-3 10 0 12.94 13.11 0.54 o
-2 10 0 45.70 45.32 1.79 o
-1 10 0 0.28 -0.18 0.08 <
0 10 0 8.02 7.75 0.33 o
1 10 0 0.61 0.43 0.09 o
-7 11 0 4.27 3.72 0.35 o
-6 11 0 0.56 0.21 0.10 <
-5 11 0 0.20 0.12 0.12 <
-4 11 0 8.28 7.66 0.33 o
-3 11 0 0.93 0.65 0.08 o
-2 11 0 1.24 1.22 0.11 o
-1 11 0 3.44 3.39 0.18 o
0 11 0 0.18 -0.05 0.11 <
-5 12 0 8.81 8.13 0.49 o
-4 12 0 7.41 7.32 0.45 o
-3 12 0 2.39 2.37 0.21 o
2 -12 1 0.11 -0.17 0.18 <
4 -12 1 1.36 1.47 0.14 o
1 -11 1 0.49 0.68 0.09 o
2 -11 1 0.13 0.09 0.07 <
3 -11 1 4.20 3.75 0.19 o
4 -11 1 0.07 -0.17 0.11 <
5 -11 1 0.37 -0.06 0.10 <
6 -11 1 2.71 2.69 0.25 o
7 -11 1 0.09 0.10 0.18 <
-2 -10 1 0.21 -0.24 0.16 <
-1 -10 1 17.74 18.57 0.75 o
0 -10 1 8.71 8.33 0.35 o
1 -10 1 1.69 1.53 0.11 o
2 -10 1 21.78 22.87 0.92 o
3 -10 1 35.50 34.02 1.35 o
4 -10 1 1.55 1.45 0.08 o
5 -10 1 1.00 1.03 0.08 o
6 -10 1 1.76 1.73 0.12 o
7 -10 1 0.61 0.56 0.08 o
-3 -9 1 0.00 0.14 0.27 <
-2 -9 1 0.54 0.83 0.10 o
-1 -9 1 8.18 9.15 0.39 o
0 -9 1 1.14 0.94 0.09 o
1 -9 1 1.72 1.69 0.09 o
2 -9 1 2.24 2.34 0.11 o
3 -9 1 7.51 7.34 0.22 o
4 -9 1 1.22 1.21 0.07 o
5 -9 1 0.24 0.11 0.05 <
6 -9 1 8.68 8.06 0.28 o
7 -9 1 5.72 5.46 0.17 o
8 -9 1 0.02 0.07 0.12 <
-4 -8 1 3.56 4.26 0.28 o
-3 -8 1 46.11 48.46 1.91 o
-2 -8 1 0.34 0.13 0.07 <
-1 -8 1 0.83 1.05 0.09 o
0 -8 1 30.70 33.22 1.07 o
1 -8 1 2.84 3.19 0.12 o
2 -8 1 1.37 1.35 0.06 o
3 -8 1 1.75 1.53 0.07 o
4 -8 1 2.65 2.94 0.10 o
5 -8 1 4.43 4.29 0.12 o
6 -8 1 0.20 0.38 0.05 o
7 -8 1 2.02 1.70 0.08 o
8 -8 1 0.73 0.44 0.08 o
9 -8 1 0.27 -0.03 0.10 <
10 -8 1 0.36 0.33 0.23 <
-5 -7 1 3.81 4.42 0.29 o
-4 -7 1 37.27 38.96 1.54 o
-3 -7 1 80.03 84.89 2.72 o
-2 -7 1 2.51 2.75 0.11 o
-1 -7 1 0.14 0.01 0.04 <
0 -7 1 33.63 35.03 0.87 o
1 -7 1 2.78 2.88 0.08 o
2 -7 1 42.56 42.64 1.18 o
3 -7 1 1.38 1.51 0.05 o
4 -7 1 8.73 9.08 0.21 o
5 -7 1 0.86 0.78 0.04 o
6 -7 1 3.28 3.23 0.11 o
7 -7 1 35.96 36.11 1.01 o
8 -7 1 36.92 37.36 1.21 o
9 -7 1 0.02 0.05 0.08 <
10 -7 1 0.44 0.62 0.12 o
-6 -6 1 0.00 0.01 0.09 <
-5 -6 1 0.80 0.62 0.14 o
-4 -6 1 1.35 1.21 0.10 o
-3 -6 1 0.10 0.07 0.06 <
-2 -6 1 10.97 9.78 0.28 o
-1 -6 1 15.82 14.68 0.37 o
0 -6 1 13.71 13.53 0.34 o
1 -6 1 2.32 1.90 0.06 o
2 -6 1 68.22 64.33 1.45 o
3 -6 1 2.18 2.40 0.06 o
4 -6 1 0.64 0.74 0.04 o
5 -6 1 5.10 4.93 0.13 o
6 -6 1 1.85 1.55 0.07 o
7 -6 1 6.29 5.91 0.18 o
8 -6 1 4.65 4.40 0.17 o
9 -6 1 0.82 0.83 0.09 o
10 -6 1 0.03 -0.10 0.11 <
-7 -5 1 0.04 -0.15 0.10 <
-6 -5 1 16.14 16.76 0.55 o
-5 -5 1 2.07 2.12 0.10 o
-4 -5 1 0.38 0.45 0.05 o
-3 -5 1 0.56 0.31 0.04 o
-2 -5 1 60.63 53.39 1.33 o
-1 -5 1 50.21 46.83 1.49 o
0 -5 1 0.27 0.63 0.03 o
1 -5 1 45.68 44.74 0.94 o
2 -5 1 33.84 33.66 0.71 o
3 -5 1 10.43 10.01 0.21 o
4 -5 1 14.21 15.10 0.38 o
5 -5 1 3.00 2.51 0.08 o
6 -5 1 4.77 4.40 0.14 o
7 -5 1 8.13 8.73 0.30 o
8 -5 1 0.53 0.45 0.06 o
9 -5 1 13.40 13.77 0.46 o
10 -5 1 0.00 0.09 0.10 <
-8 -4 1 0.04 -0.24 0.15 <
-7 -4 1 0.59 0.67 0.07 o
-6 -4 1 5.83 6.21 0.22 o
-5 -4 1 0.08 -0.03 0.04 <
-4 -4 1 0.71 0.70 0.05 o
-3 -4 1 0.44 0.53 0.03 o
-2 -4 1 5.05 4.74 0.11 o
-1 -4 1 0.05 0.01 0.02 <
0 -4 1 0.79 1.56 0.04 o
1 -4 1 31.55 30.87 0.77 o
2 -4 1 73.15 74.49 1.84 o
3 -4 1 0.13 0.32 0.02 o
4 -4 1 1.46 1.18 0.05 o
5 -4 1 30.75 30.92 0.86 o
6 -4 1 6.06 5.73 0.20 o
7 -4 1 0.76 0.66 0.06 o
8 -4 1 5.61 5.60 0.20 o
9 -4 1 1.50 1.48 0.09 o
10 -4 1 1.09 1.01 0.11 o
-9 -3 1 0.06 0.20 0.19 <
-8 -3 1 10.96 10.87 0.45 o
-7 -3 1 4.02 3.56 0.14 o
-6 -3 1 11.10 10.78 0.31 o
-5 -3 1 46.60 47.55 1.32 o
-4 -3 1 245.04 227.49 13.11 o
-3 -3 1 0.01 0.14 0.02 o
-2 -3 1 11.02 10.87 0.23 o
0 -3 1 18.73 23.27 0.65 o
1 -3 1 157.91 171.63 9.45 o
2 -3 1 0.25 0.18 0.02 o
3 -3 1 8.77 9.22 0.26 o
4 -3 1 12.64 13.16 0.33 o
5 -3 1 4.54 4.99 0.13 o
6 -3 1 43.12 44.89 1.12 o
7 -3 1 27.94 27.42 0.77 o
8 -3 1 1.91 1.92 0.08 o
9 -3 1 2.38 2.41 0.11 o
-9 -2 1 0.01 0.17 0.15 <
-8 -2 1 24.65 22.98 0.75 o
-7 -2 1 6.49 6.39 0.19 o
-6 -2 1 4.49 4.46 0.16 o
-5 -2 1 65.62 63.21 1.78 o
-4 -2 1 106.26 105.38 2.91 o
-3 -2 1 19.56 19.90 0.50 o
-2 -2 1 21.50 20.21 0.56 o
-1 -2 1 74.87 82.36 4.56 o
2 -2 1 8.96 9.51 0.54 o
4 -2 1 8.02 6.96 0.16 o
5 -2 1 0.89 0.93 0.03 o
6 -2 1 149.68 156.23 3.88 o
7 -2 1 51.89 53.30 1.33 o
8 -2 1 3.01 3.21 0.10 o
9 -2 1 1.35 1.43 0.07 o
-9 -1 1 0.37 0.18 0.07 <
-8 -1 1 4.01 3.85 0.18 o
-7 -1 1 2.24 2.08 0.09 o
-6 -1 1 8.00 6.95 0.20 o
-5 -1 1 0.31 0.39 0.03 o
-4 -1 1 0.79 0.94 0.03 o
-3 -1 1 36.67 43.83 1.43 o
2 -1 1 0.43 2.15 0.12 o
3 -1 1 3.26 3.04 0.09 o
4 -1 1 0.05 0.08 0.02 o
5 -1 1 2.38 2.75 0.09 o
6 -1 1 1.13 1.17 0.05 o
7 -1 1 0.20 0.10 0.04 <
8 -1 1 4.46 5.01 0.14 o
9 -1 1 0.18 -0.10 0.07 <
10 -1 1 0.04 0.08 0.08 <
-10 0 1 22.81 19.06 0.77 o
-9 0 1 0.22 0.52 0.08 o
-8 0 1 0.02 0.08 0.05 <
-7 0 1 41.36 42.17 1.05 o
-6 0 1 1.07 0.92 0.04 o
-5 0 1 21.51 22.29 0.51 o
-4 0 1 7.56 9.07 0.21 o
-3 0 1 45.18 51.73 1.67 o
0 0 1 72.57 58.06 3.20 o
1 0 1 151.96 144.57 8.11 o
2 0 1 0.62 2.02 0.07 o
3 0 1 108.47 102.74 3.47 o
4 0 1 68.25 78.25 2.19 o
5 0 1 3.60 3.98 0.11 o
6 0 1 1.96 2.31 0.07 o
7 0 1 2.18 1.96 0.11 o
8 0 1 16.52 15.91 0.53 o
9 0 1 0.05 0.09 0.08 <
-9 1 1 0.09 0.14 0.05 <
-8 1 1 0.72 0.70 0.05 o
-7 1 1 2.04 2.04 0.07 o
-6 1 1 1.61 1.67 0.06 o
-5 1 1 10.23 11.25 0.32 o
-4 1 1 11.91 11.57 0.26 o
-3 1 1 6.96 8.63 0.28 o
-2 1 1 6.61 5.62 0.31 o
-1 1 1 3.12 7.26 0.28 o
1 1 1 107.76 104.25 4.24 o
2 1 1 25.08 26.57 1.47 o
3 1 1 9.38 10.19 0.26 o
4 1 1 13.31 15.99 0.41 o
5 1 1 2.90 2.99 0.11 o
6 1 1 0.36 0.51 0.06 o
7 1 1 4.00 3.59 0.14 o
8 1 1 0.03 0.06 0.06 <
9 1 1 4.05 3.12 0.17 o
-10 2 1 0.49 0.23 0.26 <
-9 2 1 22.31 21.50 0.55 o
-8 2 1 4.54 4.70 0.13 o
-7 2 1 4.98 5.01 0.14 o
-6 2 1 112.04 111.80 2.79 o
-5 2 1 246.86 223.84 8.87 o
-4 2 1 9.72 9.81 0.22 o
-3 2 1 37.56 35.18 0.98 o
-1 2 1 0.08 0.12 0.01 o
1 2 1 22.42 23.14 0.91 o
2 2 1 122.50 123.18 4.12 o
3 2 1 7.01 6.24 0.18 o
4 2 1 9.56 10.54 0.27 o
5 2 1 113.91 113.31 3.66 o
6 2 1 53.94 55.85 1.55 o
7 2 1 5.16 5.48 0.17 o
8 2 1 2.53 2.68 0.14 o
9 2 1 12.48 10.80 0.45 o
-10 3 1 0.01 -0.11 0.08 <
-9 3 1 15.25 13.81 0.40 o
-8 3 1 4.66 4.55 0.13 o
-7 3 1 1.37 1.38 0.05 o
-6 3 1 10.08 9.50 0.24 o
-5 3 1 22.42 22.36 0.51 o
-4 3 1 0.43 0.38 0.02 o
-3 3 1 25.55 28.66 0.65 o
-2 3 1 3.48 3.10 0.09 o
-1 3 1 4.17 6.01 0.17 o
0 3 1 38.18 46.57 1.49 o
1 3 1 24.71 30.80 0.86 o
2 3 1 147.66 155.82 6.31 o
3 3 1 3.79 3.75 0.09 o
4 3 1 0.35 0.36 0.03 o
5 3 1 104.37 99.12 2.80 o
6 3 1 14.35 14.31 0.47 o
7 3 1 3.47 3.27 0.13 o
8 3 1 0.89 0.75 0.13 o
-10 4 1 0.65 0.64 0.11 o
-9 4 1 0.47 0.23 0.08 <
-8 4 1 7.94 8.11 0.28 o
-7 4 1 8.49 8.55 0.25 o
-6 4 1 0.39 0.51 0.04 o
-5 4 1 11.00 9.89 0.23 o
-4 4 1 34.82 30.94 0.86 o
-3 4 1 7.56 6.83 0.17 o
-2 4 1 4.33 3.18 0.08 o
-1 4 1 30.10 28.08 0.70 o
0 4 1 1.71 2.18 0.07 o
1 4 1 0.00 0.05 0.02 <
2 4 1 4.82 4.51 0.12 o
3 4 1 13.70 13.44 0.34 o
4 4 1 0.02 -0.09 0.05 <
5 4 1 0.00 -0.10 0.05 <
6 4 1 0.00 -0.04 0.06 <
7 4 1 5.12 5.58 0.35 o
8 4 1 0.11 -0.02 0.14 <
-10 5 1 0.45 0.29 0.10 <
-9 5 1 0.00 0.06 0.07 <
-8 5 1 21.53 22.91 0.75 o
-7 5 1 0.02 -0.01 0.05 <
-6 5 1 23.02 23.26 0.65 o
-5 5 1 2.54 2.11 0.06 o
-4 5 1 3.10 3.42 0.09 o
-3 5 1 17.51 17.91 0.41 o
-2 5 1 14.01 12.52 0.31 o
-1 5 1 145.28 140.44 3.88 o
0 5 1 82.11 78.74 2.53 o
1 5 1 5.24 4.74 0.14 o
2 5 1 30.28 30.09 0.75 o
3 5 1 55.60 54.76 1.52 o
4 5 1 0.00 -0.01 0.04 <
5 5 1 0.30 0.34 0.10 o
6 5 1 1.23 1.20 0.10 o
7 5 1 4.29 3.88 0.27 o
-10 6 1 1.51 1.25 0.20 o
-9 6 1 0.04 0.03 0.08 <
-8 6 1 0.09 0.05 0.07 <
-7 6 1 17.12 17.34 0.49 o
-6 6 1 19.86 20.49 0.58 o
-5 6 1 2.21 1.87 0.06 o
-4 6 1 8.33 7.01 0.18 o
-3 6 1 2.21 2.60 0.06 o
-2 6 1 1.66 1.76 0.05 o
-1 6 1 33.52 30.47 0.69 o
0 6 1 0.13 0.10 0.03 o
1 6 1 3.07 3.00 0.10 o
2 6 1 6.39 6.14 0.18 o
3 6 1 2.50 2.13 0.09 o
4 6 1 3.82 4.34 0.20 o
5 6 1 3.99 4.78 0.30 o
6 6 1 0.64 0.30 0.15 <
-10 7 1 11.21 11.87 0.70 o
-9 7 1 1.33 1.10 0.10 o
-8 7 1 0.12 0.02 0.07 <
-7 7 1 44.10 44.66 1.25 o
-6 7 1 25.46 25.51 0.72 o
-5 7 1 6.08 5.77 0.15 o
-4 7 1 3.59 3.47 0.10 o
-3 7 1 0.88 1.10 0.04 o
-2 7 1 3.68 3.73 0.10 o
-1 7 1 38.44 38.71 1.08 o
0 7 1 0.03 0.20 0.06 o
1 7 1 43.51 47.16 1.51 o
2 7 1 0.19 0.00 0.05 <
3 7 1 0.71 1.11 0.13 o
4 7 1 61.17 65.39 2.57 o
-9 8 1 0.38 0.05 0.10 <
-8 8 1 0.41 0.09 0.10 <
-7 8 1 1.45 1.34 0.07 o
-6 8 1 0.32 0.26 0.05 o
-5 8 1 4.28 4.52 0.13 o
-4 8 1 6.75 6.87 0.20 o
-3 8 1 6.77 7.46 0.25 o
-2 8 1 5.77 5.29 0.16 o
-1 8 1 0.00 0.06 0.06 <
0 8 1 1.50 2.10 0.12 o
1 8 1 13.83 14.90 0.49 o
2 8 1 0.81 0.94 0.09 o
3 8 1 0.09 0.00 0.08 <
-8 9 1 1.30 1.29 0.14 o
-7 9 1 0.73 0.92 0.09 o
-6 9 1 8.21 8.19 0.28 o
-5 9 1 4.31 4.01 0.13 o
-4 9 1 0.00 -0.02 0.05 <
-3 9 1 3.57 3.87 0.15 o
-2 9 1 0.03 -0.50 0.15 <
-1 9 1 12.18 13.04 0.54 o
0 9 1 0.47 0.28 0.08 o
1 9 1 2.52 2.36 0.13 o
2 9 1 11.37 11.79 0.49 o
-8 10 1 0.01 -0.01 0.19 <
-7 10 1 4.27 3.48 0.24 o
-6 10 1 0.01 -0.15 0.08 <
-5 10 1 7.92 6.71 0.29 o
-4 10 1 0.99 0.94 0.09 o
-3 10 1 0.55 0.43 0.08 o
-2 10 1 51.86 51.71 2.04 o
-1 10 1 16.54 17.52 0.71 o
0 10 1 3.81 3.78 0.18 o
1 10 1 5.56 5.25 0.34 o
-6 11 1 0.02 -0.08 0.13 <
-5 11 1 2.11 2.29 0.13 o
-4 11 1 0.17 0.16 0.09 <
-3 11 1 0.09 -0.16 0.08 <
-2 11 1 0.49 0.74 0.12 o
-1 11 1 0.11 -0.06 0.11 <
0 11 1 0.09 0.13 0.18 <
-6 12 1 0.88 0.79 0.20 o
-3 12 1 0.84 1.04 0.20 o
3 -12 2 4.55 4.40 0.32 o
5 -12 2 8.79 8.66 0.52 o
0 -11 2 0.22 0.05 0.15 <
1 -11 2 0.04 0.04 0.10 <
2 -11 2 1.50 1.26 0.10 o
3 -11 2 2.36 2.02 0.12 o
4 -11 2 0.13 -0.08 0.11 <
5 -11 2 5.77 5.56 0.34 o
6 -11 2 0.18 0.12 0.11 <
-2 -10 2 6.00 6.12 0.39 o
-1 -10 2 2.87 2.55 0.14 o
0 -10 2 5.64 5.50 0.25 o
1 -10 2 12.79 12.25 0.51 o
2 -10 2 0.11 0.13 0.07 <
3 -10 2 88.89 86.45 2.76 o
4 -10 2 19.67 19.44 0.64 o
5 -10 2 3.40 3.06 0.13 o
6 -10 2 10.81 10.58 0.44 o
7 -10 2 12.70 12.30 0.51 o
8 -10 2 0.06 0.16 0.26 <
-3 -9 2 2.27 2.25 0.16 o
-2 -9 2 0.17 -0.23 0.09 <
-1 -9 2 15.54 15.81 0.64 o
0 -9 2 10.88 10.52 0.36 o
1 -9 2 4.30 4.12 0.16 o
2 -9 2 12.68 12.77 0.37 o
3 -9 2 89.73 86.06 2.38 o
4 -9 2 5.59 5.56 0.17 o
5 -9 2 0.21 0.22 0.05 o
6 -9 2 3.20 2.99 0.12 o
7 -9 2 1.24 1.26 0.10 o
8 -9 2 0.89 0.86 0.11 o
9 -9 2 0.19 0.19 0.14 <
-4 -8 2 0.27 0.46 0.11 o
-3 -8 2 0.19 -0.18 0.08 <
-2 -8 2 0.34 0.77 0.15 o
-1 -8 2 1.06 1.04 0.07 o
0 -8 2 0.96 0.88 0.07 o
1 -8 2 2.93 3.69 0.14 o
2 -8 2 0.90 0.84 0.05 o
3 -8 2 5.97 5.74 0.15 o
4 -8 2 10.27 11.37 0.33 o
5 -8 2 34.82 36.30 0.91 o
6 -8 2 4.87 4.93 0.16 o
7 -8 2 0.15 0.10 0.06 <
8 -8 2 48.85 49.90 1.61 o
9 -8 2 2.95 2.84 0.16 o
-5 -7 2 11.04 12.80 0.74 o
-4 -7 2 0.04 -0.41 0.07 <
-3 -7 2 49.39 51.92 1.67 o
-2 -7 2 12.18 12.44 0.41 o
-1 -7 2 2.22 2.56 0.09 o
0 -7 2 27.69 30.89 0.86 o
1 -7 2 40.48 43.74 1.09 o
2 -7 2 2.81 2.88 0.07 o
3 -7 2 0.10 0.24 0.03 o
4 -7 2 49.37 52.05 1.18 o
5 -7 2 20.28 22.54 0.63 o
6 -7 2 2.84 3.02 0.10 o
7 -7 2 11.41 11.33 0.33 o
8 -7 2 20.70 21.15 0.70 o
9 -7 2 0.13 -0.03 0.08 <
-6 -6 2 1.50 1.00 0.19 o
-5 -6 2 0.01 -0.09 0.07 <
-4 -6 2 0.97 0.94 0.07 o
-3 -6 2 12.24 13.07 0.43 o
-2 -6 2 2.16 2.05 0.07 o
-1 -6 2 0.80 0.59 0.03 o
0 -6 2 0.38 0.21 0.02 o
1 -6 2 0.03 0.03 0.02 <
2 -6 2 63.13 61.62 1.39 o
3 -6 2 9.00 8.31 0.18 o
4 -6 2 23.37 23.05 0.53 o
5 -6 2 11.51 11.01 0.31 o
6 -6 2 17.87 17.07 0.48 o
7 -6 2 1.59 1.64 0.09 o
8 -6 2 0.53 0.39 0.07 o
9 -6 2 0.07 -0.10 0.08 <
10 -6 2 1.55 1.61 0.19 o
-7 -5 2 0.02 -0.39 0.16 <
-6 -5 2 0.16 0.03 0.06 <
-5 -5 2 0.38 -0.14 0.11 <
-4 -5 2 16.57 15.93 0.45 o
-3 -5 2 37.12 36.68 0.91 o
-2 -5 2 48.03 41.81 0.95 o
-1 -5 2 93.75 81.05 2.01 o
0 -5 2 108.10 110.10 2.73 o
1 -5 2 7.55 7.60 0.18 o
3 -5 2 47.57 47.03 0.99 o
4 -5 2 40.80 40.73 0.93 o
5 -5 2 53.83 52.69 1.47 o
6 -5 2 34.61 33.87 0.95 o
7 -5 2 3.86 4.48 0.17 o
8 -5 2 2.71 2.58 0.12 o
9 -5 2 0.86 0.64 0.07 o
10 -5 2 0.15 0.00 0.12 <
-8 -4 2 0.34 0.11 0.13 <
-7 -4 2 1.97 1.69 0.09 o
-6 -4 2 0.95 0.92 0.06 o
-5 -4 2 0.85 0.96 0.05 o
-4 -4 2 0.22 0.18 0.03 o
-3 -4 2 0.21 0.16 0.02 o
-2 -4 2 78.08 63.57 1.57 o
-1 -4 2 40.01 33.87 0.77 o
0 -4 2 34.63 33.43 0.70 o
1 -4 2 54.51 55.98 1.27 o
2 -4 2 209.07 210.81 11.76 o
3 -4 2 0.01 0.22 0.02 o
4 -4 2 0.07 0.25 0.03 o
5 -4 2 1.25 1.18 0.05 o
6 -4 2 0.00 -0.02 0.04 <
7 -4 2 10.28 11.46 0.38 o
8 -4 2 0.48 0.47 0.12 o
9 -4 2 1.32 1.14 0.08 o
-9 -3 2 0.01 -0.21 0.10 <
-8 -3 2 0.01 -0.11 0.10 <
-7 -3 2 2.14 2.09 0.09 o
-6 -3 2 11.37 11.37 0.33 o
-5 -3 2 4.75 4.22 0.12 o
-4 -3 2 35.37 35.32 0.80 o
-3 -3 2 12.94 12.59 0.29 o
-2 -3 2 23.66 24.59 0.56 o
-1 -3 2 104.66 139.13 5.44 o
1 -3 2 0.22 0.19 0.02 o
2 -3 2 46.54 51.72 1.43 o
3 -3 2 78.56 100.36 3.92 o
4 -3 2 139.55 154.71 4.31 o
5 -3 2 14.80 15.87 0.45 o
6 -3 2 2.45 2.38 0.08 o
7 -3 2 99.04 101.10 2.82 o
8 -3 2 2.54 2.45 0.09 o
9 -3 2 6.89 7.18 0.25 o
10 -3 2 0.22 0.22 0.11 <
-9 -2 2 0.68 0.70 0.11 o
-8 -2 2 7.11 7.30 0.22 o
-7 -2 2 3.20 3.14 0.13 o
-6 -2 2 33.26 33.06 1.07 o
-5 -2 2 5.85 5.14 0.15 o
-3 -2 2 12.68 11.93 0.30 o
-2 -2 2 37.76 39.95 1.59 o
2 -2 2 4.93 5.35 0.17 o
3 -2 2 130.23 170.05 6.63 o
4 -2 2 24.65 27.43 0.62 o
5 -2 2 4.96 6.22 0.15 o
6 -2 2 5.43 5.18 0.14 o
7 -2 2 3.54 3.49 0.11 o
8 -2 2 0.91 0.66 0.06 o
9 -2 2 0.62 0.59 0.08 o
-9 -1 2 2.06 1.96 0.09 o
-8 -1 2 3.51 3.60 0.18 o
-7 -1 2 5.14 4.84 0.15 o
-6 -1 2 1.01 1.10 0.05 o
-5 -1 2 0.05 -0.02 0.02 <
-4 -1 2 1.51 1.47 0.04 o
-3 -1 2 3.84 4.24 0.17 o
2 -1 2 137.48 140.17 5.68 o
3 -1 2 90.27 103.53 3.33 o
4 -1 2 61.11 67.33 1.68 o
5 -1 2 61.94 66.78 1.67 o
6 -1 2 1.32 1.50 0.05 o
7 -1 2 0.00 0.04 0.04 <
8 -1 2 0.01 0.07 0.11 <
9 -1 2 0.85 0.75 0.08 o
10 -1 2 0.50 0.26 0.36 <
-10 0 2 0.12 0.00 0.14 <
-9 0 2 0.68 0.31 0.07 o
-8 0 2 0.33 0.19 0.06 o
-7 0 2 2.88 3.01 0.09 o
-6 0 2 3.14 2.94 0.08 o
-5 0 2 17.94 18.03 0.41 o
-4 0 2 62.74 70.64 2.75 o
2 0 2 34.60 38.26 1.53 o
3 0 2 159.65 165.19 6.53 o
4 0 2 67.42 71.67 1.66 o
5 0 2 27.01 28.33 0.72 o
6 0 2 9.32 10.39 0.27 o
7 0 2 4.05 4.00 0.15 o
8 0 2 0.04 0.18 0.07 <
9 0 2 0.17 0.19 0.08 <
-10 1 2 4.08 3.94 0.27 o
-9 1 2 1.29 1.01 0.07 o
-8 1 2 4.22 4.48 0.13 o
-7 1 2 5.66 5.40 0.15 o
-6 1 2 0.69 0.83 0.04 o
-5 1 2 0.15 0.23 0.03 o
-4 1 2 10.06 10.44 0.26 o
-3 1 2 140.06 145.57 5.74 o
0 1 2 34.53 36.43 1.42 o
1 1 2 91.21 112.04 4.37 o
2 1 2 1.16 0.95 0.03 o
3 1 2 5.84 6.83 0.20 o
4 1 2 1.00 1.05 0.04 o
5 1 2 0.00 -0.01 0.03 <
6 1 2 25.10 26.08 0.84 o
7 1 2 2.12 1.83 0.09 o
8 1 2 0.84 0.90 0.08 o
9 1 2 0.61 0.18 0.11 <
-10 2 2 0.66 0.45 0.10 o
-9 2 2 0.23 0.07 0.05 <
-8 2 2 0.38 0.34 0.04 o
-7 2 2 21.97 22.78 0.57 o
-6 2 2 1.54 1.52 0.05 o
-5 2 2 259.03 232.35 13.07 o
-4 2 2 71.08 67.16 2.16 o
-3 2 2 64.22 64.74 2.07 o
0 2 2 39.57 38.73 1.51 o
1 2 2 0.00 0.11 0.02 o
2 2 2 64.71 80.18 3.15 o
3 2 2 76.80 84.01 2.34 o
4 2 2 3.25 3.51 0.10 o
5 2 2 2.70 2.74 0.09 o
6 2 2 33.47 34.19 0.95 o
7 2 2 0.16 0.02 0.08 <
8 2 2 5.80 5.56 0.35 o
-10 3 2 0.53 0.40 0.11 o
-9 3 2 12.35 11.77 0.31 o
-8 3 2 13.36 13.01 0.33 o
-7 3 2 27.85 28.13 0.70 o
-6 3 2 16.98 16.07 0.40 o
-4 3 2 0.29 0.16 0.02 o
-3 3 2 46.70 48.83 1.21 o
-1 3 2 34.40 41.55 1.03 o
0 3 2 12.18 15.11 0.38 o
1 3 2 0.12 0.19 0.02 o
2 3 2 13.07 15.13 0.38 o
3 3 2 0.51 0.70 0.04 o
4 3 2 4.68 4.45 0.12 o
5 3 2 0.84 0.97 0.07 o
6 3 2 0.93 0.76 0.09 o
7 3 2 0.07 0.12 0.09 <
8 3 2 0.38 0.27 0.13 <
9 3 2 1.83 2.04 0.21 o
-10 4 2 0.01 -0.21 0.10 <
-9 4 2 2.06 2.20 0.11 o
-8 4 2 2.30 2.29 0.09 o
-7 4 2 7.01 7.34 0.19 o
-6 4 2 5.63 5.48 0.13 o
-5 4 2 1.40 1.22 0.04 o
-4 4 2 18.12 15.29 0.38 o
-3 4 2 63.59 53.72 1.72 o
-2 4 2 31.93 30.57 0.69 o
-1 4 2 4.84 4.98 0.11 o
1 4 2 42.94 48.77 1.91 o
2 4 2 33.25 35.01 0.87 o
3 4 2 24.50 25.26 0.63 o
4 4 2 29.69 29.52 0.83 o
5 4 2 1.26 1.62 0.08 o
6 4 2 1.49 1.43 0.10 o
7 4 2 0.00 0.09 0.12 <
8 4 2 0.00 -0.28 0.13 <
-10 5 2 0.02 -0.10 0.13 <
-9 5 2 1.30 1.28 0.08 o
-8 5 2 11.12 11.25 0.38 o
-7 5 2 7.96 9.48 0.32 o
-6 5 2 0.56 0.42 0.05 o
-5 5 2 3.59 3.79 0.10 o
-4 5 2 89.48 71.37 1.61 o
-3 5 2 108.52 94.75 3.02 o
-2 5 2 32.14 30.51 0.69 o
-1 5 2 47.07 44.01 0.99 o
1 5 2 0.00 -0.02 0.03 <
2 5 2 33.43 33.51 0.84 o
3 5 2 5.32 5.10 0.14 o
4 5 2 4.13 4.11 0.15 o
5 5 2 2.43 2.32 0.11 o
6 5 2 1.17 1.02 0.10 o
7 5 2 0.86 0.28 0.23 <
-10 6 2 1.16 0.96 0.11 o
-9 6 2 1.19 1.22 0.09 o
-8 6 2 2.06 1.93 0.10 o
-7 6 2 1.49 1.02 0.06 o
-6 6 2 2.90 2.91 0.10 o
-5 6 2 16.92 17.15 0.43 o
-4 6 2 11.14 9.20 0.23 o
-3 6 2 0.00 0.05 0.02 <
-2 6 2 39.62 39.79 0.99 o
-1 6 2 0.53 0.62 0.03 o
0 6 2 2.94 2.84 0.09 o
1 6 2 8.84 9.53 0.28 o
2 6 2 3.86 4.46 0.16 o
3 6 2 2.25 2.58 0.11 o
4 6 2 1.04 1.08 0.10 o
5 6 2 10.69 11.00 0.45 o
6 6 2 0.52 0.20 0.18 <
-10 7 2 1.69 1.86 0.18 o
-9 7 2 3.54 3.15 0.17 o
-8 7 2 11.44 12.04 0.40 o
-7 7 2 2.41 2.29 0.09 o
-6 7 2 186.88 193.24 5.37 o
-5 7 2 21.14 21.06 0.53 o
-4 7 2 16.62 17.08 0.43 o
-3 7 2 61.15 68.68 1.90 o
-2 7 2 55.81 59.04 1.64 o
-1 7 2 9.83 9.78 0.28 o
0 7 2 11.71 11.73 0.39 o
1 7 2 8.73 9.71 0.32 o
2 7 2 5.37 5.68 0.20 o
3 7 2 0.02 0.00 0.06 <
4 7 2 0.02 0.45 0.09 o
-9 8 2 7.65 8.54 0.52 o
-8 8 2 6.58 6.54 0.23 o
-7 8 2 4.07 3.99 0.15 o
-6 8 2 58.18 58.21 1.45 o
-5 8 2 0.01 0.09 0.04 <
-4 8 2 2.12 1.98 0.07 o
-3 8 2 11.81 11.90 0.39 o
-2 8 2 4.27 4.35 0.19 o
-1 8 2 1.60 1.62 0.10 o
0 8 2 0.73 0.54 0.07 o
1 8 2 0.01 -0.01 0.05 <
2 8 2 0.88 0.83 0.08 o
3 8 2 1.60 1.33 0.10 o
-9 9 2 0.00 -0.06 0.17 <
-8 9 2 7.09 7.71 0.27 o
-7 9 2 4.47 4.57 0.18 o
-6 9 2 0.00 0.07 0.06 <
-5 9 2 18.71 16.13 0.65 o
-4 9 2 15.55 14.27 0.47 o
-3 9 2 3.34 3.32 0.16 o
-2 9 2 17.76 17.47 0.70 o
-1 9 2 107.54 110.34 4.31 o
0 9 2 2.84 3.06 0.16 o
1 9 2 7.05 7.17 0.31 o
2 9 2 2.89 2.74 0.21 o
-7 10 2 0.40 0.44 0.10 o
-6 10 2 0.01 -0.10 0.07 <
-5 10 2 10.77 9.33 0.39 o
-4 10 2 8.30 7.22 0.31 o
-3 10 2 1.13 0.69 0.08 o
-2 10 2 3.56 3.51 0.18 o
-1 10 2 13.42 13.79 0.57 o
0 10 2 0.02 -0.25 0.13 <
1 10 2 3.40 2.85 0.15 o
-7 11 2 8.19 6.82 0.42 o
-6 11 2 7.35 6.41 0.39 o
-5 11 2 0.34 0.09 0.10 <
-4 11 2 1.84 2.12 0.13 o
-3 11 2 9.29 8.89 0.38 o
-2 11 2 0.69 0.86 0.14 o
-1 11 2 1.25 1.15 0.10 o
0 11 2 3.21 3.25 0.24 o
-6 12 2 1.32 1.28 0.17 o
-1 -11 3 0.02 -0.42 0.19 <
0 -11 3 1.67 1.71 0.17 o
1 -11 3 5.00 4.97 0.23 o
2 -11 3 2.27 2.13 0.13 o
3 -11 3 0.00 0.12 0.07 <
4 -11 3 9.18 8.81 0.30 o
5 -11 3 0.33 0.39 0.10 o
6 -11 3 0.26 0.11 0.23 <
-2 -10 3 0.06 0.12 0.09 <
-1 -10 3 0.01 0.02 0.08 <
0 -10 3 19.48 20.40 0.82 o
1 -10 3 9.33 8.22 0.29 o
2 -10 3 0.00 0.22 0.07 o
3 -10 3 16.58 16.57 0.47 o
4 -10 3 9.90 9.62 0.33 o
5 -10 3 1.90 1.85 0.12 o
6 -10 3 0.53 0.53 0.08 o
7 -10 3 0.02 -0.07 0.10 <
-3 -9 3 0.05 0.03 0.08 <
-2 -9 3 0.09 -0.13 0.09 <
-1 -9 3 0.24 0.02 0.08 <
0 -9 3 3.33 3.75 0.15 o
1 -9 3 0.01 -0.21 0.06 <
2 -9 3 1.53 1.32 0.07 o
3 -9 3 0.27 0.32 0.06 o
4 -9 3 17.62 16.99 0.43 o
5 -9 3 0.09 0.13 0.07 <
6 -9 3 0.42 0.40 0.07 o
7 -9 3 6.98 6.72 0.30 o
8 -9 3 3.01 2.49 0.14 o
9 -9 3 0.11 -0.25 0.13 <
-4 -8 3 7.79 8.30 0.35 o
-3 -8 3 12.35 13.18 0.44 o
-2 -8 3 97.38 107.91 4.22 o
-1 -8 3 0.23 0.21 0.05 o
0 -8 3 1.15 1.15 0.07 o
1 -8 3 42.04 44.43 1.24 o
2 -8 3 2.33 2.45 0.09 o
3 -8 3 7.17 7.37 0.19 o
4 -8 3 0.02 0.06 0.04 <
5 -8 3 0.00 0.04 0.06 <
6 -8 3 1.94 1.82 0.08 o
7 -8 3 0.39 0.33 0.08 o
8 -8 3 5.03 5.11 0.19 o
9 -8 3 4.19 4.30 0.31 o
-5 -7 3 4.42 3.90 0.27 o
-4 -7 3 2.11 2.03 0.10 o
-3 -7 3 48.49 51.36 1.65 o
-2 -7 3 60.44 62.30 1.73 o
-1 -7 3 3.76 3.85 0.12 o
0 -7 3 0.01 0.03 0.05 <
1 -7 3 10.59 11.01 0.28 o
2 -7 3 7.56 8.01 0.17 o
3 -7 3 21.19 22.64 0.57 o
4 -7 3 0.01 -0.03 0.04 <
5 -7 3 13.11 14.16 0.40 o
6 -7 3 0.02 0.08 0.05 <
7 -7 3 0.60 0.49 0.07 o
8 -7 3 27.49 28.32 0.92 o
9 -7 3 18.61 18.09 0.60 o
10 -7 3 0.04 -0.21 0.15 <
-6 -6 3 3.79 4.10 0.27 o
-5 -6 3 0.93 0.95 0.08 o
-4 -6 3 1.50 1.74 0.09 o
-3 -6 3 0.00 -0.18 0.05 <
-2 -6 3 1.22 1.36 0.05 o
-1 -6 3 25.22 20.15 0.46 o
0 -6 3 25.62 23.36 0.49 o
1 -6 3 15.64 16.01 0.34 o
2 -6 3 6.46 5.76 0.14 o
3 -6 3 59.72 58.55 1.33 o
4 -6 3 1.25 1.26 0.04 o
5 -6 3 0.01 0.03 0.04 <
6 -6 3 0.83 0.89 0.05 o
7 -6 3 0.58 0.23 0.07 o
8 -6 3 1.11 0.96 0.08 o
9 -6 3 1.00 1.02 0.08 o
-7 -5 3 0.05 -0.17 0.08 <
-6 -5 3 0.01 -0.10 0.06 <
-5 -5 3 38.84 41.83 1.35 o
-4 -5 3 1.65 2.01 0.07 o
-3 -5 3 9.16 10.20 0.22 o
-2 -5 3 2.80 1.73 0.05 o
-1 -5 3 34.23 25.56 0.58 o
0 -5 3 55.61 57.88 1.31 o
1 -5 3 11.63 13.53 0.31 o
2 -5 3 3.02 2.96 0.07 o
3 -5 3 1.31 1.52 0.04 o
4 -5 3 2.96 3.33 0.09 o
5 -5 3 7.01 7.72 0.22 o
6 -5 3 13.67 13.70 0.39 o
7 -5 3 3.99 3.66 0.14 o
8 -5 3 1.19 1.29 0.08 o
9 -5 3 0.97 0.71 0.07 o
-8 -4 3 8.91 8.39 0.36 o
-7 -4 3 0.05 -0.04 0.06 <
-6 -4 3 2.43 2.12 0.08 o
-5 -4 3 2.10 2.26 0.08 o
-4 -4 3 0.05 0.06 0.03 <
-3 -4 3 11.13 11.26 0.24 o
-2 -4 3 3.60 3.72 0.08 o
-1 -4 3 0.58 1.01 0.03 o
0 -4 3 9.35 13.39 0.31 o
1 -4 3 4.06 5.82 0.15 o
2 -4 3 40.71 42.21 0.96 o
3 -4 3 52.35 53.50 1.33 o
4 -4 3 1.58 1.74 0.06 o
5 -4 3 0.14 0.12 0.03 o
6 -4 3 14.04 14.70 0.48 o
7 -4 3 4.69 4.26 0.16 o
8 -4 3 0.00 -0.04 0.06 <
9 -4 3 2.90 2.47 0.11 o
-9 -3 3 1.06 0.81 0.19 o
-8 -3 3 0.03 0.00 0.12 <
-7 -3 3 32.10 32.06 0.90 o
-6 -3 3 11.56 12.04 0.35 o
-5 -3 3 18.04 18.38 0.52 o
-4 -3 3 106.93 101.64 2.54 o
-2 -3 3 1.68 2.44 0.07 o
-1 -3 3 22.79 22.21 0.72 o
1 -3 3 2.01 2.72 0.08 o
2 -3 3 177.62 227.71 12.56 o
3 -3 3 1.66 1.95 0.04 o
4 -3 3 29.89 30.48 0.76 o
5 -3 3 3.50 3.56 0.10 o
6 -3 3 4.61 4.95 0.15 o
7 -3 3 47.76 50.13 1.40 o
8 -3 3 26.81 27.26 0.89 o
9 -3 3 1.70 1.59 0.11 o
-9 -2 3 0.35 -0.03 0.09 <
-8 -2 3 0.09 -0.08 0.06 <
-7 -2 3 32.19 31.09 1.01 o
-6 -2 3 11.15 11.14 0.37 o
-5 -2 3 2.16 2.11 0.06 o
-4 -2 3 41.78 39.60 0.90 o
-3 -2 3 54.98 52.76 1.46 o
-2 -2 3 20.87 18.01 0.71 o
-1 -2 3 23.59 29.87 1.65 o
2 -2 3 80.66 69.88 3.86 o
3 -2 3 14.14 17.15 0.43 o
4 -2 3 85.78 92.10 2.59 o
5 -2 3 1.11 0.83 0.03 o
6 -2 3 0.06 0.05 0.03 <
7 -2 3 64.60 66.39 1.85 o
8 -2 3 16.85 15.52 0.51 o
9 -2 3 0.76 0.42 0.11 o
10 -2 3 0.27 -0.18 0.17 <
-10 -1 3 0.23 0.14 0.12 <
-9 -1 3 16.14 14.52 0.42 o
-8 -1 3 1.17 1.11 0.10 o
-7 -1 3 2.93 2.67 0.09 o
-6 -1 3 15.79 14.56 0.37 o
-5 -1 3 14.97 12.33 0.28 o
-4 -1 3 0.20 0.29 0.02 o
-3 -1 3 1.31 1.46 0.06 o
1 -1 3 73.47 76.43 2.98 o
2 -1 3 88.01 83.46 3.27 o
3 -1 3 0.56 1.00 0.03 o
4 -1 3 6.27 5.47 0.13 o
5 -1 3 5.50 5.93 0.14 o
6 -1 3 0.11 0.22 0.03 o
7 -1 3 0.08 0.03 0.05 <
8 -1 3 0.08 0.38 0.07 o
9 -1 3 3.63 3.29 0.17 o
-10 0 3 13.39 14.02 0.81 o
-9 0 3 52.68 47.89 1.55 o
-8 0 3 1.14 1.10 0.06 o
-7 0 3 0.01 0.09 0.06 <
-6 0 3 68.44 64.26 1.61 o
-5 0 3 0.04 0.20 0.03 o
-4 0 3 85.53 82.00 2.29 o
-3 0 3 8.73 12.13 0.39 o
-2 0 3 0.00 0.04 0.02 <
0 0 3 185.09 175.62 9.67 o
2 0 3 185.88 192.63 7.86 o
3 0 3 6.34 4.59 0.12 o
4 0 3 29.69 32.17 0.80 o
5 0 3 53.77 59.90 1.96 o
6 0 3 1.46 1.32 0.07 o
7 0 3 0.00 0.01 0.05 <
8 0 3 1.70 1.43 0.10 o
9 0 3 4.38 3.60 0.18 o
-10 1 3 1.42 1.66 0.15 o
-9 1 3 7.76 7.47 0.20 o
-8 1 3 2.76 2.71 0.09 o
-7 1 3 2.07 2.15 0.07 o
-6 1 3 0.01 0.05 0.03 <
-5 1 3 11.87 12.07 0.34 o
-4 1 3 51.37 45.85 1.14 o
-3 1 3 25.35 25.21 0.70 o
-2 1 3 14.35 17.59 0.69 o
-1 1 3 61.32 60.44 2.35 o
0 1 3 10.32 13.71 0.54 o
1 1 3 91.46 110.11 4.30 o
2 1 3 11.85 14.27 0.36 o
3 1 3 1.83 2.22 0.06 o
4 1 3 1.95 2.28 0.07 o
5 1 3 3.30 3.69 0.11 o
6 1 3 7.25 7.38 0.25 o
7 1 3 2.68 2.81 0.12 o
8 1 3 2.06 1.66 0.11 o
9 1 3 0.07 -0.06 0.13 <
-10 2 3 0.70 0.33 0.12 <
-9 2 3 0.68 0.33 0.05 o
-8 2 3 45.68 45.27 1.13 o
-7 2 3 11.34 11.74 0.30 o
-6 2 3 2.82 2.75 0.08 o
-5 2 3 156.58 153.37 4.26 o
-3 2 3 24.72 24.00 0.67 o
-2 2 3 71.80 71.61 2.79 o
-1 2 3 101.92 112.10 4.36 o
0 2 3 3.90 3.69 0.12 o
2 2 3 2.30 2.17 0.05 o
3 2 3 89.76 93.28 2.66 o
4 2 3 1.51 1.61 0.05 o
5 2 3 3.12 3.77 0.12 o
6 2 3 79.29 79.87 2.57 o
7 2 3 28.05 27.72 1.56 o
8 2 3 3.28 3.21 0.16 o
9 2 3 0.61 0.12 0.18 <
-9 3 3 0.32 0.18 0.05 o
-8 3 3 11.85 11.33 0.29 o
-7 3 3 5.85 5.79 0.15 o
-6 3 3 0.98 1.07 0.04 o
-5 3 3 0.84 0.88 0.03 o
-4 3 3 4.80 5.36 0.13 o
-3 3 3 5.09 5.41 0.14 o
-2 3 3 21.53 26.37 0.65 o
-1 3 3 20.48 24.03 0.60 o
0 3 3 10.50 10.42 0.26 o
1 3 3 1.31 1.49 0.04 o
2 3 3 13.26 14.77 0.37 o
3 3 3 42.76 45.46 1.27 o
4 3 3 1.80 1.69 0.06 o
5 3 3 0.35 0.44 0.05 o
6 3 3 31.41 29.12 1.16 o
7 3 3 3.39 3.02 0.23 o
8 3 3 0.48 0.76 0.17 o
-10 4 3 26.75 27.36 1.09 o
-9 4 3 0.71 0.77 0.08 o
-8 4 3 0.07 0.07 0.04 <
-7 4 3 24.08 25.43 0.64 o
-6 4 3 8.51 8.60 0.20 o
-5 4 3 2.44 2.56 0.07 o
-4 4 3 18.08 15.09 0.34 o
-3 4 3 15.79 11.97 0.25 o
-2 4 3 14.29 13.95 0.32 o
-1 4 3 16.24 14.30 0.36 o
0 4 3 0.02 0.10 0.02 o
1 4 3 9.42 9.27 0.23 o
2 4 3 0.08 -0.02 0.02 <
3 4 3 6.47 6.45 0.19 o
4 4 3 19.73 20.07 0.57 o
5 4 3 0.13 0.05 0.06 <
6 4 3 0.03 0.03 0.08 <
7 4 3 0.05 0.26 0.14 <
-10 5 3 26.99 29.76 1.67 o
-9 5 3 0.97 0.96 0.08 o
-8 5 3 0.00 -0.31 0.06 <
-7 5 3 20.47 21.92 0.71 o
-6 5 3 0.09 0.03 0.04 <
-5 5 3 31.74 29.44 0.73 o
-4 5 3 0.07 0.04 0.03 <
-3 5 3 27.01 24.92 0.57 o
-2 5 3 11.76 11.93 0.34 o
-1 5 3 8.33 8.01 0.20 o
0 5 3 189.08 195.49 6.23 o
1 5 3 66.21 65.84 1.84 o
2 5 3 10.90 11.07 0.28 o
3 5 3 13.97 14.11 0.46 o
4 5 3 31.27 31.58 1.02 o
5 5 3 0.00 -0.05 0.10 <
6 5 3 0.36 0.51 0.11 o
-10 6 3 3.73 4.21 0.29 o
-9 6 3 7.68 7.30 0.32 o
-8 6 3 0.08 0.14 0.07 <
-7 6 3 0.05 0.04 0.04 <
-6 6 3 41.27 41.56 1.16 o
-5 6 3 34.12 35.82 0.89 o
-4 6 3 0.78 0.40 0.03 o
-3 6 3 5.95 4.66 0.11 o
-2 6 3 2.17 2.64 0.07 o
-1 6 3 0.26 0.29 0.03 o
0 6 3 5.86 5.24 0.15 o
1 6 3 0.00 -0.01 0.04 <
2 6 3 0.17 0.36 0.05 o
3 6 3 1.64 1.69 0.12 o
4 6 3 0.25 0.01 0.07 <
-10 7 3 1.77 2.09 0.19 o
-9 7 3 14.51 14.87 0.61 o
-8 7 3 3.20 3.53 0.18 o
-7 7 3 1.55 2.08 0.10 o
-6 7 3 25.36 25.63 0.72 o
-5 7 3 6.22 6.48 0.17 o
-4 7 3 4.14 3.83 0.11 o
-3 7 3 7.04 6.72 0.20 o
-2 7 3 2.64 2.93 0.12 o
-1 7 3 2.77 2.91 0.10 o
0 7 3 16.78 18.00 0.58 o
1 7 3 0.72 0.87 0.06 o
2 7 3 32.46 34.74 1.12 o
3 7 3 0.06 -0.02 0.07 <
4 7 3 0.08 0.12 0.08 <
-9 8 3 0.12 -0.08 0.09 <
-8 8 3 0.10 -0.07 0.08 <
-7 8 3 0.68 0.51 0.06 o
-6 8 3 9.41 9.35 0.28 o
-5 8 3 0.05 -0.07 0.04 <
-4 8 3 10.98 11.07 0.32 o
-3 8 3 6.61 6.38 0.22 o
-2 8 3 6.05 6.64 0.28 o
-1 8 3 5.93 5.87 0.25 o
0 8 3 0.00 -0.03 0.05 <
1 8 3 0.43 0.54 0.07 o
2 8 3 3.67 3.60 0.17 o
3 8 3 1.11 0.99 0.13 o
-8 9 3 7.42 7.69 0.27 o
-7 9 3 0.24 0.14 0.08 <
-6 9 3 5.65 5.05 0.22 o
-5 9 3 7.24 6.87 0.29 o
-4 9 3 0.06 0.21 0.07 o
-3 9 3 0.29 0.26 0.07 o
-2 9 3 4.38 4.62 0.21 o
-1 9 3 10.12 9.41 0.40 o
0 9 3 19.68 21.35 0.85 o
1 9 3 0.04 0.07 0.07 <
2 9 3 2.50 2.43 0.22 o
-7 10 3 0.23 0.14 0.11 <
-6 10 3 2.49 2.24 0.18 o
-5 10 3 0.32 0.07 0.07 <
-4 10 3 13.18 12.57 0.52 o
-3 10 3 0.48 0.75 0.11 o
-2 10 3 0.07 -0.17 0.07 <
-1 10 3 41.69 42.53 1.68 o
0 10 3 8.24 8.83 0.37 o
1 10 3 3.09 2.64 0.21 o
-7 11 3 15.82 12.87 0.75 o
-6 11 3 2.36 1.68 0.15 o
-5 11 3 0.43 0.11 0.10 <
-4 11 3 0.77 0.79 0.09 o
-3 11 3 0.01 0.03 0.11 <
-2 11 3 0.65 0.69 0.09 o
-1 11 3 0.04 0.04 0.13 <
-1 -11 4 2.73 3.04 0.23 o
0 -11 4 1.77 1.94 0.18 o
1 -11 4 0.05 -0.23 0.09 <
2 -11 4 0.08 0.21 0.09 <
3 -11 4 0.07 -0.03 0.07 <
4 -11 4 6.08 5.89 0.22 o
-2 -10 4 6.41 6.78 0.42 o
-1 -10 4 11.50 11.51 0.48 o
0 -10 4 6.96 5.92 0.22 o
1 -10 4 14.29 13.64 0.46 o
2 -10 4 13.31 12.35 0.41 o
3 -10 4 0.23 -0.09 0.05 <
4 -10 4 105.72 101.62 3.25 o
5 -10 4 16.40 16.73 0.55 o
6 -10 4 3.03 3.48 0.25 o
7 -10 4 6.74 6.50 0.29 o
-3 -9 4 1.13 1.35 0.14 o
-2 -9 4 1.18 1.03 0.09 o
-1 -9 4 0.08 0.04 0.08 <
0 -9 4 17.80 17.14 0.56 o
1 -9 4 8.92 8.27 0.28 o
2 -9 4 1.93 1.92 0.08 o
3 -9 4 11.83 11.51 0.33 o
4 -9 4 37.83 38.47 1.07 o
5 -9 4 1.76 1.79 0.09 o
6 -9 4 0.51 0.27 0.08 o
7 -9 4 0.38 0.01 0.09 <
8 -9 4 0.01 -0.13 0.14 <
-4 -8 4 6.52 6.87 0.30 o
-3 -8 4 2.31 2.16 0.10 o
-2 -8 4 2.88 2.59 0.10 o
-1 -8 4 2.04 1.83 0.14 o
0 -8 4 1.36 1.60 0.08 o
1 -8 4 5.51 5.68 0.17 o
2 -8 4 11.56 12.61 0.36 o
3 -8 4 1.75 1.76 0.06 o
4 -8 4 4.62 4.54 0.13 o
5 -8 4 11.66 12.61 0.42 o
6 -8 4 25.93 28.66 0.93 o
7 -8 4 2.44 2.63 0.12 o
8 -8 4 0.43 0.26 0.08 o
9 -8 4 21.95 22.06 0.73 o
-5 -7 4 0.71 0.91 0.14 o
-4 -7 4 17.05 17.26 0.57 o
-3 -7 4 0.21 -0.27 0.07 <
-2 -7 4 111.91 115.21 3.20 o
-1 -7 4 18.47 18.13 0.51 o
0 -7 4 4.73 5.10 0.16 o
1 -7 4 30.62 33.96 0.77 o
2 -7 4 33.31 36.33 0.83 o
3 -7 4 0.57 0.58 0.03 o
4 -7 4 1.16 1.18 0.05 o
5 -7 4 26.63 29.67 0.83 o
6 -7 4 5.04 5.71 0.18 o
7 -7 4 1.18 1.19 0.09 o
8 -7 4 3.64 3.34 0.14 o
9 -7 4 2.33 2.02 0.11 o
-6 -6 4 2.07 2.49 0.21 o
-5 -6 4 3.01 2.69 0.15 o
-4 -6 4 0.19 0.39 0.07 o
-3 -6 4 0.14 0.02 0.05 <
-2 -6 4 0.94 1.35 0.05 o
-1 -6 4 3.57 3.31 0.08 o
0 -6 4 14.94 13.05 0.28 o
1 -6 4 7.07 6.66 0.15 o
2 -6 4 1.77 1.76 0.05 o
3 -6 4 125.35 126.48 2.86 o
4 -6 4 19.29 19.35 0.44 o
5 -6 4 15.65 16.22 0.46 o
6 -6 4 12.08 12.56 0.42 o
7 -6 4 14.41 14.67 0.49 o
8 -6 4 0.40 0.12 0.08 <
9 -6 4 0.21 0.09 0.07 <
10 -6 4 0.01 0.28 0.20 <
-7 -5 4 1.40 0.90 0.21 o
-6 -5 4 0.00 -0.04 0.06 <
-5 -5 4 0.28 0.17 0.05 o
-4 -5 4 0.52 0.76 0.05 o
-3 -5 4 24.89 23.13 0.49 o
-2 -5 4 45.37 42.84 0.97 o
-1 -5 4 87.54 71.18 1.61 o
0 -5 4 131.92 108.27 3.45 o
1 -5 4 76.74 78.75 1.95 o
2 -5 4 20.10 20.96 0.48 o
4 -5 4 20.88 22.55 0.63 o
5 -5 4 20.74 21.96 0.55 o
6 -5 4 19.55 20.08 0.65 o
7 -5 4 10.53 10.67 0.36 o
8 -5 4 1.15 1.31 0.09 o
9 -5 4 0.89 0.93 0.08 o
10 -5 4 0.10 -0.09 0.19 <
-8 -4 4 3.48 3.61 0.26 o
-7 -4 4 0.17 0.12 0.06 <
-6 -4 4 4.58 4.57 0.15 o
-5 -4 4 1.89 1.93 0.07 o
-4 -4 4 0.26 0.38 0.04 o
-3 -4 4 0.04 0.03 0.02 <
-2 -4 4 0.38 0.43 0.02 o
-1 -4 4 78.18 62.73 1.56 o
0 -4 4 16.09 14.22 0.32 o
1 -4 4 32.85 37.01 0.92 o
2 -4 4 21.91 24.26 0.60 o
3 -4 4 34.24 34.96 0.74 o
4 -4 4 0.26 0.56 0.03 o
5 -4 4 6.54 7.41 0.22 o
6 -4 4 0.35 0.37 0.06 o
7 -4 4 0.24 0.16 0.06 <
8 -4 4 12.01 13.00 0.44 o
9 -4 4 1.10 1.14 0.10 o
10 -4 4 0.54 0.72 0.21 o
-8 -3 4 1.83 1.66 0.09 o
-7 -3 4 0.40 0.03 0.06 <
-6 -3 4 0.01 0.04 0.05 <
-5 -3 4 37.19 35.24 0.88 o
-4 -3 4 8.95 8.07 0.21 o
-3 -3 4 200.62 185.94 7.27 o
-2 -3 4 50.25 45.31 1.13 o
-1 -3 4 49.42 60.37 2.36 o
2 -3 4 1.86 1.27 0.03 o
3 -3 4 6.02 5.23 0.12 o
4 -3 4 44.18 48.63 1.22 o
5 -3 4 57.64 66.07 2.12 o
6 -3 4 3.90 4.10 0.11 o
7 -3 4 1.28 1.10 0.06 o
8 -3 4 25.96 26.69 0.87 o
9 -3 4 0.56 0.36 0.12 o
-9 -2 4 0.92 0.99 0.08 o
-8 -2 4 1.36 1.46 0.08 o
-7 -2 4 18.01 17.40 0.57 o
-6 -2 4 15.10 14.43 0.48 o
-5 -2 4 44.71 43.42 1.08 o
-4 -2 4 17.29 15.05 0.42 o
-2 -2 4 10.26 9.92 0.32 o
-1 -2 4 45.65 52.08 1.66 o
1 -2 4 50.21 64.47 2.54 o
2 -2 4 8.21 6.32 0.15 o
3 -2 4 1.46 1.19 0.04 o
4 -2 4 27.37 30.65 0.77 o
5 -2 4 1.03 1.18 0.04 o
6 -2 4 3.02 3.61 0.10 o
7 -2 4 0.22 0.23 0.05 o
8 -2 4 0.10 -0.05 0.06 <
9 -2 4 0.23 0.17 0.11 <
10 -2 4 0.03 -0.24 0.18 <
-10 -1 4 0.84 0.47 0.14 o
-9 -1 4 5.57 5.00 0.19 o
-8 -1 4 1.89 1.85 0.13 o
-7 -1 4 3.32 3.39 0.11 o
-6 -1 4 4.52 4.34 0.12 o
-5 -1 4 2.47 2.31 0.06 o
-4 -1 4 3.31 3.10 0.08 o
-3 -1 4 12.64 13.99 0.55 o
0 -1 4 134.67 136.94 7.56 o
1 -1 4 1.72 1.49 0.06 o
3 -1 4 64.58 77.87 1.78 o
4 -1 4 44.15 47.21 1.01 o
5 -1 4 27.60 28.88 0.72 o
6 -1 4 28.84 29.89 0.97 o
7 -1 4 0.66 0.64 0.06 o
8 -1 4 0.09 0.08 0.07 <
9 -1 4 0.01 0.34 0.12 <
-10 0 4 0.18 0.02 0.13 <
-9 0 4 2.90 2.13 0.11 o
-8 0 4 0.00 0.03 0.12 <
-7 0 4 2.02 1.78 0.06 o
-6 0 4 16.79 15.53 0.39 o
-5 0 4 9.72 6.65 0.17 o
-4 0 4 12.02 11.72 0.29 o
-3 0 4 60.88 61.55 1.98 o
1 0 4 131.16 148.77 5.84 o
3 0 4 4.69 5.01 0.14 o
4 0 4 34.85 39.10 1.13 o
5 0 4 9.44 11.37 0.37 o
6 0 4 4.68 4.06 0.18 o
7 0 4 0.89 0.84 0.07 o
8 0 4 0.56 0.37 0.08 o
9 0 4 0.12 0.29 0.14 <
-10 1 4 0.62 0.77 0.13 o
-9 1 4 7.91 8.13 0.22 o
-8 1 4 1.71 1.82 0.07 o
-7 1 4 4.33 4.54 0.13 o
-6 1 4 3.92 3.31 0.08 o
-5 1 4 5.85 6.61 0.16 o
-4 1 4 4.28 3.85 0.10 o
-3 1 4 33.77 33.29 1.06 o
-2 1 4 102.19 91.58 2.91 o
-1 1 4 1.33 1.63 0.07 o
0 1 4 181.17 194.22 10.74 o
1 1 4 1.83 2.54 0.08 o
2 1 4 2.20 3.60 0.10 o
3 1 4 4.37 4.63 0.12 o
4 1 4 11.98 13.75 0.44 o
5 1 4 2.65 3.07 0.11 o
6 1 4 0.00 -0.14 0.09 <
7 1 4 14.79 14.47 0.59 o
8 1 4 1.34 0.97 0.10 o
-10 2 4 2.24 2.36 0.12 o
-9 2 4 5.11 4.90 0.14 o
-8 2 4 4.50 4.35 0.12 o
-7 2 4 10.00 10.03 0.26 o
-6 2 4 57.50 55.99 1.40 o
-5 2 4 0.03 0.05 0.02 <
-3 2 4 100.87 87.54 2.43 o
-2 2 4 128.99 120.25 6.62 o
1 2 4 42.18 37.72 1.21 o
2 2 4 5.63 7.38 0.21 o
3 2 4 20.44 25.00 0.63 o
4 2 4 21.13 22.45 0.74 o
5 2 4 0.42 0.46 0.05 o
6 2 4 0.06 0.10 0.11 <
7 2 4 3.36 2.87 0.22 o
-10 3 4 0.17 0.44 0.09 o
-9 3 4 0.96 0.96 0.06 o
-8 3 4 21.78 22.33 0.56 o
-7 3 4 27.96 27.49 0.69 o
-6 3 4 32.13 31.08 0.77 o
-5 3 4 17.95 15.93 0.36 o
-3 3 4 0.13 0.08 0.01 o
-2 3 4 19.99 22.54 0.56 o
-1 3 4 46.90 52.64 1.45 o
0 3 4 6.56 8.82 0.20 o
1 3 4 3.28 3.09 0.09 o
2 3 4 1.20 1.50 0.05 o
3 3 4 2.46 2.63 0.08 o
4 3 4 0.79 0.82 0.05 o
5 3 4 3.58 3.75 0.17 o
6 3 4 1.68 1.73 0.12 o
7 3 4 1.19 0.96 0.13 o
8 3 4 0.00 -0.41 0.14 <
-10 4 4 1.18 0.67 0.13 o
-9 4 4 0.80 0.62 0.12 o
-8 4 4 1.88 2.15 0.09 o
-7 4 4 0.10 0.01 0.04 <
-6 4 4 16.70 17.43 0.40 o
-5 4 4 14.75 13.88 0.32 o
-4 4 4 8.07 7.64 0.18 o
-3 4 4 46.70 35.72 0.75 o
-2 4 4 102.10 88.16 2.43 o
-1 4 4 28.07 28.01 0.69 o
0 4 4 12.34 12.42 0.31 o
2 4 4 18.20 19.59 0.49 o
3 4 4 22.45 23.72 0.67 o
4 4 4 8.93 9.97 0.33 o
5 4 4 11.49 11.50 0.47 o
6 4 4 0.76 0.75 0.12 o
8 4 4 0.11 0.04 0.14 <
-10 5 4 15.57 16.40 0.94 o
-9 5 4 0.13 0.18 0.14 <
-8 5 4 4.11 4.43 0.17 o
-7 5 4 26.79 28.04 0.91 o
-6 5 4 10.08 11.79 0.30 o
-5 5 4 0.76 1.04 0.05 o
-4 5 4 1.31 1.56 0.05 o
-3 5 4 68.87 54.82 1.36 o
-2 5 4 70.63 62.41 1.54 o
-1 5 4 13.33 12.72 0.32 o
0 5 4 16.62 16.20 0.41 o
1 5 4 95.29 103.85 4.06 o
2 5 4 0.08 0.05 0.04 <
3 5 4 8.78 8.95 0.30 o
4 5 4 0.00 -0.04 0.08 <
5 5 4 0.77 0.72 0.18 o
-10 6 4 2.24 2.38 0.14 o
-9 6 4 0.83 0.78 0.10 o
-8 6 4 0.18 0.34 0.16 <
-7 6 4 0.06 0.13 0.07 <
-6 6 4 1.83 1.24 0.07 o
-5 6 4 29.31 29.63 0.74 o
-4 6 4 30.81 31.75 0.79 o
-3 6 4 8.12 7.08 0.15 o
-2 6 4 4.61 5.38 0.14 o
-1 6 4 38.79 39.36 0.98 o
0 6 4 0.83 0.91 0.04 o
1 6 4 1.09 1.10 0.06 o
2 6 4 8.22 8.32 0.28 o
3 6 4 3.00 3.37 0.16 o
4 6 4 1.15 1.08 0.14 o
-10 7 4 2.32 2.29 0.20 o
-9 7 4 7.75 7.85 0.34 o
-8 7 4 12.10 12.52 0.51 o
-7 7 4 18.82 19.16 0.63 o
-6 7 4 9.48 9.55 0.32 o
-4 7 4 13.33 13.59 0.39 o
-3 7 4 21.30 20.95 0.68 o
-2 7 4 50.34 54.22 2.12 o
-1 7 4 32.28 34.26 1.10 o
0 7 4 11.28 11.55 0.38 o
1 7 4 8.06 8.23 0.28 o
2 7 4 1.03 0.93 0.07 o
3 7 4 0.95 0.99 0.09 o
-9 8 4 6.40 7.05 0.44 o
-8 8 4 9.69 9.37 0.32 o
-7 8 4 7.56 7.63 0.27 o
-6 8 4 0.83 0.81 0.07 o
-5 8 4 30.53 31.15 0.87 o
-4 8 4 0.84 0.86 0.06 o
-3 8 4 0.03 -0.02 0.05 <
-2 8 4 1.52 1.58 0.10 o
-1 8 4 3.74 3.56 0.13 o
0 8 4 10.75 11.11 0.46 o
1 8 4 1.46 1.44 0.10 o
2 8 4 0.00 0.18 0.12 <
-9 9 4 0.43 0.37 0.16 <
-8 9 4 1.30 1.39 0.12 o
-7 9 4 12.02 13.79 0.46 o
-6 9 4 4.02 3.62 0.18 o
-5 9 4 0.07 -0.08 0.07 <
-4 9 4 24.89 22.76 0.91 o
-3 9 4 16.19 15.58 0.63 o
-2 9 4 1.77 1.69 0.11 o
-1 9 4 13.94 13.93 0.57 o
0 9 4 56.72 59.38 2.33 o
1 9 4 0.70 0.69 0.09 o
-7 10 4 1.22 1.48 0.14 o
-6 10 4 0.92 0.91 0.12 o
-5 10 4 0.01 -0.04 0.08 <
-4 10 4 4.28 4.26 0.20 o
-3 10 4 3.55 3.56 0.18 o
-2 10 4 0.66 0.50 0.08 o
-1 10 4 0.05 0.37 0.10 o
0 10 4 1.90 1.71 0.12 o
1 10 4 0.13 -0.05 0.11 <
-7 11 4 0.35 0.53 0.11 o
-6 11 4 22.73 20.78 1.18 o
-5 11 4 7.89 7.58 0.32 o
-4 11 4 0.46 0.57 0.10 o
-3 11 4 3.66 3.64 0.19 o
-2 11 4 7.50 7.57 0.46 o
-1 11 4 0.06 -0.16 0.25 <
0 -11 5 1.01 0.93 0.13 o
1 -11 5 3.66 3.76 0.15 o
2 -11 5 6.28 5.75 0.21 o
3 -11 5 2.58 2.29 0.15 o
4 -11 5 0.35 0.36 0.13 <
-2 -10 5 1.27 1.24 0.14 o
-1 -10 5 0.59 0.55 0.09 o
0 -10 5 0.68 0.97 0.11 o
1 -10 5 12.93 13.18 0.44 o
2 -10 5 6.98 6.50 0.23 o
3 -10 5 1.54 1.41 0.08 o
4 -10 5 5.77 5.89 0.18 o
5 -10 5 0.03 -0.04 0.08 <
6 -10 5 1.17 1.54 0.12 o
7 -10 5 0.15 0.06 0.11 <
-3 -9 5 0.78 0.47 0.12 o
-2 -9 5 0.28 -0.01 0.11 <
-1 -9 5 2.22 2.16 0.10 o
0 -9 5 0.02 -0.10 0.06 <
1 -9 5 0.60 0.85 0.07 o
2 -9 5 1.05 1.18 0.06 o
3 -9 5 0.35 0.27 0.05 o
4 -9 5 2.49 2.37 0.08 o
5 -9 5 15.49 14.91 0.49 o
6 -9 5 0.00 -0.19 0.08 <
7 -9 5 0.28 0.38 0.09 o
8 -9 5 2.84 2.62 0.15 o
-4 -8 5 7.05 7.63 0.47 o
-3 -8 5 10.77 11.20 0.38 o
-2 -8 5 29.21 30.35 0.85 o
-1 -8 5 130.90 135.92 3.77 o
0 -8 5 0.01 0.01 0.06 <
1 -8 5 1.25 1.35 0.06 o
2 -8 5 34.55 37.09 0.92 o
3 -8 5 0.47 0.44 0.04 o
4 -8 5 12.03 12.12 0.31 o
5 -8 5 0.11 0.23 0.05 o
6 -8 5 1.71 2.01 0.13 o
7 -8 5 0.55 0.30 0.07 o
8 -8 5 0.76 0.72 0.09 o
9 -8 5 6.18 4.98 0.33 o
-6 -7 5 0.01 -0.13 0.13 <
-5 -7 5 22.25 22.66 0.74 o
-4 -7 5 6.14 6.34 0.22 o
-3 -7 5 0.17 0.17 0.05 o
-2 -7 5 37.48 37.69 1.05 o
-1 -7 5 20.73 21.60 0.61 o
0 -7 5 1.95 2.05 0.07 o
1 -7 5 0.80 0.84 0.04 o
2 -7 5 0.04 0.21 0.04 o
3 -7 5 7.66 8.09 0.21 o
4 -7 5 3.44 3.93 0.11 o
5 -7 5 1.08 1.16 0.07 o
6 -7 5 9.85 10.88 0.37 o
7 -7 5 0.04 0.11 0.06 <
8 -7 5 0.00 -0.14 0.07 <
9 -7 5 13.06 10.82 0.64 o
-6 -6 5 0.50 -0.05 0.17 <
-5 -6 5 2.80 2.86 0.13 o
-4 -6 5 7.58 8.88 0.30 o
-3 -6 5 3.26 4.28 0.14 o
-2 -6 5 0.15 0.08 0.03 <
-1 -6 5 1.79 2.19 0.06 o
0 -6 5 31.33 24.49 0.52 o
1 -6 5 26.65 25.87 0.55 o
2 -6 5 5.36 5.59 0.13 o
3 -6 5 5.52 5.20 0.14 o
4 -6 5 21.85 22.21 0.56 o
5 -6 5 0.53 0.41 0.06 o
6 -6 5 0.09 0.12 0.05 <
7 -6 5 0.19 0.42 0.07 o
8 -6 5 0.03 0.26 0.07 o
9 -6 5 0.13 0.07 0.09 <
-7 -5 5 53.47 54.90 1.77 o
-6 -5 5 0.42 0.35 0.09 o
-5 -5 5 0.00 -0.04 0.05 <
-4 -5 5 59.99 64.12 1.59 o
-3 -5 5 0.16 0.33 0.03 o
-2 -5 5 30.73 31.71 0.72 o
-1 -5 5 4.02 2.44 0.07 o
0 -5 5 5.64 3.89 0.09 o
1 -5 5 34.75 38.28 0.95 o
2 -5 5 18.25 19.33 0.48 o
3 -5 5 7.53 7.75 0.18 o
4 -5 5 25.62 26.94 0.76 o
5 -5 5 0.08 0.23 0.04 o
6 -5 5 2.58 2.83 0.12 o
7 -5 5 14.70 15.42 0.51 o
8 -5 5 2.16 2.04 0.10 o
9 -5 5 0.03 -0.01 0.08 <
-8 -4 5 2.81 2.65 0.15 o
-7 -4 5 6.14 6.26 0.20 o
-6 -4 5 1.91 1.83 0.08 o
-5 -4 5 6.98 6.78 0.18 o
-4 -4 5 0.30 0.30 0.03 o
-3 -4 5 0.78 0.94 0.03 o
-2 -4 5 52.61 53.50 1.33 o
-1 -4 5 7.98 7.12 0.17 o
0 -4 5 0.02 0.18 0.02 o
1 -4 5 23.35 28.91 0.72 o
2 -4 5 4.46 5.42 0.14 o
3 -4 5 20.02 21.94 0.55 o
4 -4 5 20.52 21.29 0.60 o
5 -4 5 0.36 0.38 0.04 o
6 -4 5 0.01 0.07 0.04 <
7 -4 5 3.17 3.12 0.13 o
8 -4 5 4.66 4.87 0.22 o
9 -4 5 0.66 0.81 0.10 o
-8 -3 5 1.99 1.67 0.08 o
-7 -3 5 0.13 -0.01 0.05 <
-6 -3 5 61.18 58.15 1.87 o
-5 -3 5 23.70 23.35 0.65 o
-4 -3 5 13.10 12.36 0.31 o
-3 -3 5 155.49 136.12 4.35 o
-1 -3 5 5.14 6.00 0.15 o
0 -3 5 22.93 24.43 0.55 o
1 -3 5 87.84 120.59 6.64 o
2 -3 5 0.61 0.77 0.02 o
3 -3 5 85.27 94.73 2.36 o
4 -3 5 0.26 0.28 0.03 o
5 -3 5 31.98 33.81 0.85 o
6 -3 5 0.71 0.89 0.04 o
7 -3 5 2.07 2.11 0.08 o
8 -3 5 32.82 33.97 1.36 o
9 -3 5 14.51 11.69 0.68 o
-9 -2 5 0.46 0.32 0.07 o
-8 -2 5 0.24 0.22 0.07 o
-7 -2 5 0.51 0.31 0.06 o
-6 -2 5 27.04 26.22 0.85 o
-5 -2 5 11.94 12.04 0.31 o
-4 -2 5 0.84 0.71 0.03 o
-3 -2 5 5.85 4.55 0.13 o
-2 -2 5 6.50 6.00 0.20 o
-1 -2 5 4.55 4.36 0.14 o
0 -2 5 6.49 7.62 0.30 o
1 -2 5 11.16 14.92 0.42 o
2 -2 5 2.44 3.21 0.08 o
3 -2 5 1.57 1.12 0.03 o
4 -2 5 9.27 10.85 0.31 o
5 -2 5 24.46 25.83 0.65 o
6 -2 5 0.33 0.24 0.04 o
7 -2 5 0.26 0.24 0.05 o
8 -2 5 19.83 16.11 0.65 o
9 -2 5 4.07 2.99 0.23 o
-9 -1 5 2.90 2.51 0.12 o
-8 -1 5 53.60 51.58 2.03 o
-7 -1 5 1.57 1.50 0.08 o
-6 -1 5 1.91 1.85 0.06 o
-5 -1 5 52.80 44.43 1.01 o
-4 -1 5 19.56 12.72 0.32 o
-3 -1 5 3.88 3.16 0.19 o
-2 -1 5 6.43 7.71 0.43 o
-1 -1 5 45.77 49.36 1.93 o
0 -1 5 98.15 97.16 5.36 o
1 -1 5 2.07 3.33 0.09 o
2 -1 5 0.12 0.29 0.02 o
3 -1 5 0.15 0.14 0.01 o
4 -1 5 0.78 0.93 0.03 o
5 -1 5 4.00 3.58 0.11 o
6 -1 5 10.89 10.94 0.31 o
7 -1 5 0.04 0.02 0.05 <
8 -1 5 0.04 0.04 0.07 <
9 -1 5 0.08 -0.19 0.12 <
-9 0 5 27.31 26.86 1.07 o
-8 0 5 79.63 78.90 1.98 o
-7 0 5 2.66 2.57 0.08 o
-6 0 5 0.01 -0.04 0.03 <
-5 0 5 70.79 61.21 1.52 o
-4 0 5 2.40 3.24 0.09 o
-3 0 5 149.95 158.66 8.74 o
-2 0 5 0.93 2.07 0.09 o
-1 0 5 56.57 61.33 2.39 o
0 0 5 101.35 98.77 5.45 o
1 0 5 55.87 52.32 2.05 o
3 0 5 100.78 109.72 3.18 o
4 0 5 7.43 6.83 0.23 o
5 0 5 8.44 8.82 0.36 o
6 0 5 27.94 27.37 1.08 o
7 0 5 0.75 0.18 0.07 <
8 0 5 0.08 -0.02 0.07 <
9 0 5 0.82 0.15 0.13 <
-10 1 5 3.08 2.76 0.20 o
-9 1 5 0.05 -0.04 0.06 <
-8 1 5 4.87 4.59 0.13 o
-7 1 5 15.02 15.49 0.39 o
-6 1 5 4.39 4.56 0.11 o
-5 1 5 2.69 2.38 0.07 o
-4 1 5 46.73 44.44 1.11 o
-3 1 5 129.87 121.88 4.75 o
-2 1 5 17.08 16.24 0.52 o
-1 1 5 3.79 4.49 0.15 o
0 1 5 44.56 44.31 1.41 o
1 1 5 4.35 5.56 0.16 o
2 1 5 5.60 9.89 0.33 o
3 1 5 1.45 1.75 0.07 o
4 1 5 0.51 0.56 0.05 o
5 1 5 0.43 0.44 0.06 o
6 1 5 0.28 0.07 0.11 <
7 1 5 9.33 8.41 0.36 o
8 1 5 3.61 3.41 0.17 o
-10 2 5 1.06 1.27 0.15 o
-9 2 5 0.14 0.10 0.05 <
-8 2 5 1.22 1.28 0.06 o
-7 2 5 58.63 60.01 1.66 o
-6 2 5 22.18 21.94 0.55 o
-5 2 5 0.01 0.00 0.02 <
-4 2 5 111.85 104.93 3.36 o
-3 2 5 128.04 122.62 3.92 o
-2 2 5 15.06 14.10 0.30 o
-1 2 5 53.29 54.78 1.51 o
0 2 5 0.30 0.23 0.02 o
1 2 5 2.59 3.24 0.11 o
2 2 5 57.23 60.47 2.37 o
3 2 5 0.18 0.36 0.04 o
4 2 5 50.40 50.22 2.01 o
5 2 5 0.29 0.18 0.06 <
6 2 5 0.63 0.63 0.08 o
8 2 5 10.05 7.70 0.47 o
-10 3 5 0.11 0.39 0.12 o
-9 3 5 1.12 1.15 0.06 o
-8 3 5 1.69 1.56 0.07 o
-7 3 5 4.09 3.88 0.11 o
-6 3 5 3.55 3.45 0.10 o
-5 3 5 1.21 1.41 0.04 o
-4 3 5 23.25 22.17 0.47 o
-3 3 5 0.04 0.16 0.01 o
-2 3 5 19.82 19.43 0.48 o
-1 3 5 7.48 8.97 0.25 o
0 3 5 15.02 18.66 0.60 o
1 3 5 5.55 5.01 0.17 o
2 3 5 0.11 0.23 0.03 o
3 3 5 5.07 4.96 0.15 o
4 3 5 9.25 9.21 0.53 o
5 3 5 1.65 1.52 0.10 o
6 3 5 0.08 -0.63 0.13 <
8 3 5 0.69 0.57 0.17 o
-10 4 5 15.36 16.06 0.65 o
-9 4 5 60.36 63.00 2.02 o
-8 4 5 0.11 -0.04 0.05 <
-7 4 5 0.00 0.03 0.04 <
-6 4 5 43.93 44.82 1.12 o
-5 4 5 4.12 4.17 0.10 o
-4 4 5 23.07 22.16 0.62 o
-3 4 5 17.93 14.61 0.33 o
-2 4 5 0.33 0.15 0.02 o
-1 4 5 11.59 11.53 0.26 o
0 4 5 17.31 17.22 0.43 o
1 4 5 19.66 20.57 0.51 o
2 4 5 28.00 28.71 0.72 o
3 4 5 0.96 0.94 0.06 o
4 4 5 4.54 4.46 0.20 o
5 4 5 17.02 18.57 1.06 o
6 4 5 0.08 -0.06 0.09 <
-10 5 5 13.47 14.43 0.59 o
-9 5 5 27.89 29.20 1.16 o
-8 5 5 0.50 0.57 0.13 o
-7 5 5 0.12 -0.15 0.06 <
-6 5 5 9.39 9.21 0.24 o
-5 5 5 0.01 0.13 0.03 o
-4 5 5 19.82 17.07 0.43 o
-3 5 5 1.19 0.83 0.04 o
-2 5 5 44.75 39.94 0.99 o
-1 5 5 4.42 4.53 0.12 o
0 5 5 2.36 2.43 0.07 o
1 5 5 133.11 134.65 3.76 o
2 5 5 33.89 34.18 0.95 o
3 5 5 7.34 7.95 0.33 o
4 5 5 4.72 4.52 0.29 o
5 5 5 11.50 11.33 0.66 o
-9 6 5 4.24 4.22 0.20 o
-8 6 5 19.68 19.91 0.80 o
-7 6 5 0.24 0.31 0.06 o
-6 6 5 0.01 0.07 0.05 <
-5 6 5 59.39 59.57 1.65 o
-4 6 5 30.73 33.59 0.94 o
-3 6 5 0.00 0.07 0.03 <
-2 6 5 1.72 1.29 0.05 o
-1 6 5 0.32 0.53 0.04 o
0 6 5 0.11 0.17 0.04 o
1 6 5 0.04 -0.03 0.03 <
2 6 5 0.02 0.02 0.05 <
3 6 5 2.83 3.33 0.16 o
5 6 5 0.00 0.26 0.11 <
-9 7 5 2.01 2.31 0.14 o
-8 7 5 10.06 10.23 0.43 o
-7 7 5 5.67 5.64 0.20 o
-6 7 5 4.21 4.95 0.18 o
-5 7 5 2.30 2.47 0.14 o
-4 7 5 0.20 0.18 0.05 o
-3 7 5 0.32 0.21 0.05 o
-2 7 5 8.50 7.92 0.23 o
-1 7 5 11.63 12.31 0.41 o
0 7 5 0.61 0.65 0.05 o
1 7 5 3.27 3.69 0.17 o
2 7 5 1.21 1.36 0.14 o
3 7 5 15.70 15.96 0.64 o
-9 8 5 0.84 0.79 0.10 o
-8 8 5 0.47 0.27 0.07 o
-7 8 5 0.11 -0.18 0.07 <
-6 8 5 0.82 0.52 0.07 o
-5 8 5 12.97 13.37 0.38 o
-4 8 5 0.14 -0.10 0.05 <
-3 8 5 11.30 11.15 0.46 o
-2 8 5 3.88 3.63 0.17 o
-1 8 5 2.42 2.32 0.10 o
0 8 5 1.68 1.52 0.08 o
1 8 5 0.35 0.27 0.08 o
2 8 5 0.13 0.12 0.19 <
-8 9 5 0.16 0.22 0.09 <
-7 9 5 7.20 6.99 0.30 o
-6 9 5 0.13 -0.15 0.09 <
-5 9 5 12.33 12.15 0.41 o
-4 9 5 3.26 3.68 0.14 o
-3 9 5 2.67 2.54 0.14 o
-2 9 5 0.69 0.87 0.09 o
-1 9 5 2.67 2.96 0.15 o
0 9 5 23.04 23.57 0.94 o
1 9 5 16.86 18.02 0.73 o
-7 10 5 0.09 -0.09 0.10 <
-6 10 5 1.71 1.61 0.15 o
-5 10 5 0.43 0.66 0.10 o
-4 10 5 0.61 0.54 0.09 o
-3 10 5 12.30 11.90 0.49 o
-2 10 5 0.11 0.05 0.07 <
-1 10 5 0.01 -0.38 0.09 <
0 10 5 20.38 21.12 0.85 o
-7 11 5 1.27 1.33 0.18 o
-6 11 5 12.17 11.55 0.68 o
-5 11 5 0.30 0.17 0.11 <
-4 11 5 0.76 0.55 0.11 o
-3 11 5 0.04 -0.18 0.13 <
0 -11 6 0.30 0.17 0.09 <
1 -11 6 1.30 1.26 0.14 o
2 -11 6 1.59 1.51 0.12 o
3 -11 6 0.69 0.61 0.13 o
4 -11 6 0.15 0.20 0.13 <
-2 -10 6 0.01 -0.16 0.14 <
-1 -10 6 9.75 10.25 0.43 o
0 -10 6 11.16 10.93 0.37 o
1 -10 6 12.08 11.50 0.39 o
2 -10 6 19.05 18.03 0.59 o
3 -10 6 8.74 8.00 0.24 o
4 -10 6 1.90 1.91 0.40 o
5 -10 6 79.58 77.66 4.30 o
6 -10 6 8.33 9.62 0.57 o
-3 -9 6 0.00 -0.35 0.22 <
-2 -9 6 1.03 1.23 0.08 o
-1 -9 6 0.34 0.33 0.06 o
0 -9 6 0.28 0.05 0.06 <
1 -9 6 14.49 14.07 0.47 o
2 -9 6 4.14 3.84 0.13 o
3 -9 6 1.13 1.18 0.06 o
4 -9 6 6.40 6.42 0.17 o
5 -9 6 8.72 8.63 0.30 o
6 -9 6 0.61 0.60 0.09 o
7 -9 6 1.89 1.72 0.12 o
8 -9 6 0.00 0.37 0.13 <
-4 -8 6 0.16 -0.09 0.07 <
-3 -8 6 14.53 14.96 0.50 o
-2 -8 6 5.44 5.31 0.17 o
-1 -8 6 25.95 26.72 0.88 o
0 -8 6 12.86 13.25 0.44 o
1 -8 6 2.59 2.97 0.09 o
2 -8 6 11.04 11.84 0.28 o
3 -8 6 20.00 21.09 0.53 o
4 -8 6 1.01 1.05 0.06 o
5 -8 6 1.07 1.02 0.09 o
6 -8 6 8.71 9.69 0.41 o
7 -8 6 12.54 12.63 0.52 o
8 -8 6 0.68 0.67 0.10 o
9 -8 6 0.33 0.06 0.15 <
-6 -7 6 1.14 0.89 0.14 o
-5 -7 6 7.81 8.33 0.51 o
-4 -7 6 4.85 4.76 0.18 o
-3 -7 6 17.16 17.13 0.49 o
-2 -7 6 2.35 2.21 0.08 o
-1 -7 6 142.83 144.58 3.60 o
0 -7 6 15.38 15.59 0.36 o
1 -7 6 3.43 3.65 0.09 o
2 -7 6 20.67 22.88 0.49 o
3 -7 6 14.37 14.80 0.38 o
4 -7 6 0.70 0.60 0.06 o
5 -7 6 0.41 0.48 0.06 o
6 -7 6 10.93 11.67 0.39 o
7 -7 6 0.41 0.86 0.10 o
8 -7 6 0.80 0.67 0.09 o
9 -7 6 0.56 0.36 0.15 <
-6 -6 6 4.81 5.21 0.24 o
-5 -6 6 1.60 1.90 0.10 o
-4 -6 6 2.98 2.87 0.10 o
-3 -6 6 0.28 0.67 0.10 o
-2 -6 6 0.73 0.75 0.04 o
-1 -6 6 4.35 4.19 0.10 o
0 -6 6 7.76 6.46 0.14 o
1 -6 6 40.74 38.60 0.81 o
2 -6 6 13.39 13.61 0.31 o
3 -6 6 1.17 1.11 0.04 o
4 -6 6 143.39 150.51 4.18 o
5 -6 6 18.95 19.49 0.55 o
6 -6 6 9.06 10.42 0.35 o
7 -6 6 7.52 7.65 0.27 o
8 -6 6 7.75 7.76 0.34 o
9 -6 6 0.09 0.45 0.11 o
-7 -5 6 0.16 -0.63 0.12 <
-6 -5 6 0.01 -0.25 0.16 <
-5 -5 6 0.28 0.39 0.05 o
-4 -5 6 3.97 4.15 0.11 o
-3 -5 6 6.02 7.42 0.18 o
-2 -5 6 19.75 18.07 0.46 o
-1 -5 6 26.89 25.61 0.64 o
0 -5 6 96.07 82.93 2.05 o
1 -5 6 105.21 102.28 2.84 o
2 -5 6 30.74 33.13 0.83 o
3 -5 6 22.23 24.02 0.60 o
4 -5 6 248.69 222.94 12.29 o
5 -5 6 6.51 7.04 0.21 o
6 -5 6 5.91 6.62 0.20 o
7 -5 6 4.03 4.02 0.16 o
8 -5 6 1.76 1.68 0.11 o
9 -5 6 0.04 0.12 0.10 <
-8 -4 6 0.38 0.01 0.09 <
-7 -4 6 6.93 7.17 0.22 o
-6 -4 6 0.14 0.21 0.06 o
-5 -4 6 4.78 4.74 0.13 o
-4 -4 6 0.94 0.95 0.04 o
-3 -4 6 0.84 0.56 0.03 o
-2 -4 6 2.43 2.07 0.06 o
-1 -4 6 3.97 3.87 0.09 o
0 -4 6 53.74 49.17 1.36 o
1 -4 6 0.66 0.51 0.02 o
2 -4 6 28.77 30.83 0.65 o
3 -4 6 5.25 5.78 0.17 o
4 -4 6 2.08 2.37 0.08 o
5 -4 6 1.37 1.73 0.07 o
6 -4 6 9.18 10.13 0.30 o
7 -4 6 1.04 1.30 0.09 o
8 -4 6 0.21 0.06 0.08 <
9 -4 6 6.60 5.76 0.37 o
-8 -3 6 3.81 3.53 0.13 o
-7 -3 6 10.62 10.23 0.30 o
-6 -3 6 4.30 3.81 0.15 o
-5 -3 6 7.95 8.06 0.24 o
-4 -3 6 78.55 73.24 2.03 o
-3 -3 6 6.05 5.41 0.14 o
-1 -3 6 78.11 74.24 2.37 o
0 -3 6 55.11 64.12 1.78 o
1 -3 6 141.54 169.32 6.66 o
2 -3 6 121.11 139.44 4.49 o
3 -3 6 3.31 2.78 0.08 o
4 -3 6 0.05 0.21 0.03 o
5 -3 6 18.12 18.42 0.47 o
6 -3 6 17.30 17.01 0.48 o
7 -3 6 0.64 0.90 0.11 o
8 -3 6 0.14 0.03 0.09 <
9 -3 6 3.42 2.56 0.21 o
-9 -2 6 0.41 0.47 0.06 o
-8 -2 6 0.23 0.20 0.09 <
-7 -2 6 1.22 0.99 0.07 o
-6 -2 6 29.48 30.07 0.84 o
-5 -2 6 32.07 32.78 0.82 o
-4 -2 6 40.00 38.44 0.87 o
-3 -2 6 24.79 20.65 0.52 o
-1 -2 6 4.13 4.48 0.13 o
0 -2 6 13.27 12.54 0.40 o
1 -2 6 42.35 49.42 1.61 o
2 -2 6 5.58 6.49 0.17 o
3 -2 6 2.46 3.72 0.10 o
4 -2 6 0.25 0.55 0.03 o
5 -2 6 7.28 7.68 0.22 o
6 -2 6 0.31 0.42 0.04 o
7 -2 6 2.46 2.60 0.11 o
8 -2 6 0.12 0.30 0.12 <
9 -2 6 0.57 0.60 0.13 o
-9 -1 6 3.15 2.45 0.12 o
-8 -1 6 4.90 4.24 0.15 o
-7 -1 6 0.20 0.08 0.05 <
-6 -1 6 3.07 2.89 0.08 o
-5 -1 6 0.59 0.51 0.03 o
-4 -1 6 9.50 6.44 0.17 o
-3 -1 6 13.90 10.98 0.36 o
-2 -1 6 45.17 51.56 2.02 o
-1 -1 6 69.33 83.37 3.26 o
1 -1 6 68.00 72.14 2.81 o
2 -1 6 0.48 1.06 0.03 o
4 -1 6 27.61 31.32 0.88 o
5 -1 6 19.69 20.78 0.58 o
6 -1 6 9.22 8.73 0.29 o
7 -1 6 10.10 9.13 0.38 o
8 -1 6 0.19 0.08 0.12 <
9 -1 6 0.07 0.24 0.22 <
-10 0 6 8.15 7.61 0.33 o
-9 0 6 0.11 -0.28 0.09 <
-8 0 6 25.28 24.34 0.56 o
-7 0 6 0.54 0.51 0.07 o
-6 0 6 6.99 6.28 0.17 o
-5 0 6 42.95 35.38 0.88 o
-4 0 6 13.94 6.34 0.16 o
-3 0 6 1.13 1.05 0.05 o
-2 0 6 22.29 22.24 0.62 o
1 0 6 38.10 41.70 1.33 o
2 0 6 30.76 37.31 1.04 o
3 0 6 190.93 198.35 10.98 o
4 0 6 1.42 1.46 0.05 o
5 0 6 5.26 5.56 0.24 o
6 0 6 0.20 0.11 0.05 <
7 0 6 0.44 0.55 0.07 o
8 0 6 0.05 0.28 0.12 <
-10 1 6 0.32 0.26 0.08 o
-9 1 6 0.23 0.18 0.08 <
-8 1 6 6.00 6.00 0.16 o
-7 1 6 1.29 1.32 0.06 o
-6 1 6 0.75 0.68 0.04 o
-5 1 6 0.01 0.09 0.03 o
-4 1 6 13.16 14.19 0.36 o
-3 1 6 55.64 49.80 1.59 o
-2 1 6 65.87 58.58 1.62 o
-1 1 6 51.94 49.80 1.37 o
0 1 6 12.20 12.90 0.36 o
1 1 6 97.39 105.13 4.16 o
2 1 6 0.22 0.17 0.03 o
3 1 6 0.04 0.21 0.04 o
4 1 6 5.18 5.36 0.23 o
5 1 6 8.29 8.37 0.35 o
6 1 6 1.55 1.67 0.15 o
7 1 6 0.03 0.10 0.06 <
8 1 6 4.48 3.70 0.26 o
-10 2 6 0.31 0.14 0.08 <
-9 2 6 6.10 6.29 0.19 o
-8 2 6 13.88 14.35 0.41 o
-7 2 6 19.29 20.41 0.57 o
-6 2 6 38.22 38.50 0.96 o
-5 2 6 91.23 87.54 2.42 o
-4 2 6 6.25 5.60 0.13 o
-2 2 6 67.89 58.75 1.45 o
-1 2 6 103.06 101.05 2.79 o
1 2 6 111.50 117.03 3.76 o
2 2 6 17.70 17.08 0.55 o
3 2 6 5.49 5.98 0.20 o
4 2 6 4.56 4.51 0.20 o
6 2 6 0.03 0.03 0.07 <
7 2 6 0.40 0.12 0.10 <
8 2 6 0.00 0.14 0.14 <
-10 3 6 1.23 1.18 0.13 o
-9 3 6 1.83 1.86 0.08 o
-8 3 6 1.53 1.51 0.07 o
-7 3 6 24.81 25.40 0.71 o
-6 3 6 35.82 35.77 0.99 o
-5 3 6 27.39 26.47 0.74 o
-4 3 6 6.98 5.42 0.12 o
-3 3 6 136.83 127.96 5.00 o
-2 3 6 1.49 1.23 0.03 o
-1 3 6 0.40 0.67 0.02 o
0 3 6 4.29 5.00 0.13 o
1 3 6 1.84 2.18 0.06 o
2 3 6 22.40 23.18 0.74 o
3 3 6 3.20 3.50 0.13 o
4 3 6 0.88 1.36 0.13 o
5 3 6 1.40 1.26 0.14 o
7 3 6 1.04 1.16 0.14 o
-10 4 6 4.76 5.18 0.24 o
-9 4 6 0.68 0.58 0.08 o
-8 4 6 5.29 5.21 0.17 o
-7 4 6 2.55 2.91 0.10 o
-6 4 6 3.37 3.23 0.09 o
-5 4 6 31.79 33.12 0.83 o
-4 4 6 13.40 11.88 0.27 o
-3 4 6 6.06 6.14 0.14 o
-2 4 6 59.18 48.37 1.20 o
-1 4 6 88.60 84.10 1.90 o
0 4 6 12.79 13.73 0.34 o
1 4 6 12.64 13.54 0.34 o
2 4 6 182.39 182.53 10.36 o
3 4 6 6.14 6.45 0.27 o
4 4 6 10.59 10.64 0.62 o
6 4 6 3.13 3.32 0.24 o
-10 5 6 0.39 -0.10 0.12 <
-9 5 6 40.87 45.04 1.78 o
-8 5 6 0.08 -0.05 0.08 <
-7 5 6 7.58 8.19 0.24 o
-6 5 6 36.74 37.76 0.95 o
-5 5 6 7.15 8.95 0.26 o
-4 5 6 3.06 3.30 0.08 o
-3 5 6 0.65 0.88 0.03 o
-2 5 6 31.73 25.39 0.63 o
-1 5 6 26.73 25.16 0.63 o
0 5 6 4.58 4.40 0.12 o
1 5 6 1.97 1.66 0.06 o
2 5 6 14.80 15.27 0.50 o
3 5 6 0.53 0.68 0.11 o
4 5 6 1.39 1.25 0.14 o
5 5 6 0.85 0.78 0.13 o
-10 6 6 0.40 0.27 0.12 <
-9 6 6 0.31 0.24 0.12 <
-8 6 6 0.00 -0.20 0.09 <
-7 6 6 0.92 0.67 0.07 o
-6 6 6 2.33 2.32 0.10 o
-5 6 6 0.39 0.10 0.06 <
-4 6 6 88.97 89.14 2.84 o
-3 6 6 34.90 33.58 0.84 o
-2 6 6 7.23 7.26 0.19 o
-1 6 6 11.34 12.65 0.32 o
0 6 6 29.03 30.96 0.86 o
1 6 6 0.09 0.15 0.04 o
2 6 6 1.05 1.07 0.08 o
-10 7 6 1.71 1.67 0.17 o
-9 7 6 3.48 3.84 0.19 o
-8 7 6 17.14 17.87 0.72 o
-7 7 6 22.88 22.38 0.73 o
-6 7 6 18.74 19.38 0.64 o
-5 7 6 15.53 16.03 0.46 o
-3 7 6 5.76 5.63 0.17 o
-2 7 6 16.34 15.56 0.44 o
-1 7 6 24.42 25.98 0.73 o
0 7 6 13.25 13.76 0.45 o
1 7 6 5.25 5.45 0.24 o
2 7 6 2.98 3.29 0.23 o
-9 8 6 1.95 1.84 0.18 o
-8 8 6 4.86 5.72 0.26 o
-7 8 6 7.33 7.19 0.25 o
-6 8 6 8.12 8.53 0.29 o
-5 8 6 0.31 0.18 0.06 o
-4 8 6 9.85 9.46 0.32 o
-3 8 6 4.19 3.68 0.14 o
-2 8 6 0.86 0.71 0.08 o
-1 8 6 0.07 0.10 0.06 <
0 8 6 3.57 3.49 0.17 o
1 8 6 14.92 15.70 0.63 o
-8 9 6 0.82 1.09 0.14 o
-7 9 6 5.60 5.46 0.25 o
-6 9 6 14.39 15.58 0.63 o
-5 9 6 1.04 1.15 0.08 o
-4 9 6 0.71 0.60 0.08 o
-3 9 6 19.13 18.54 0.75 o
-2 9 6 11.43 10.79 0.45 o
-1 9 6 0.30 0.20 0.10 <
0 9 6 5.67 5.90 0.26 o
-7 10 6 5.58 4.98 0.32 o
-6 10 6 0.67 0.62 0.11 o
-5 10 6 0.22 -0.11 0.11 <
-4 10 6 0.28 0.36 0.08 o
-3 10 6 0.83 1.08 0.10 o
-2 10 6 0.62 0.56 0.12 o
-1 10 6 0.60 0.59 0.12 o
0 10 6 0.48 0.12 0.28 <
-5 11 6 34.80 33.94 1.90 o
-4 11 6 5.38 5.38 0.26 o
-3 11 6 0.73 0.61 0.14 o
0 -11 7 0.00 -0.13 0.15 <
1 -11 7 1.34 1.25 0.30 o
2 -11 7 4.59 5.15 0.33 o
3 -11 7 5.35 4.85 0.28 o
4 -11 7 1.01 1.17 0.14 o
-2 -10 7 16.20 15.86 0.65 o
-1 -10 7 0.58 0.87 0.14 o
0 -10 7 3.16 3.05 0.13 o
1 -10 7 1.42 1.58 0.09 o
2 -10 7 4.51 4.82 0.16 o
3 -10 7 3.55 3.31 0.12 o
4 -10 7 3.04 2.79 0.22 o
6 -10 7 2.79 2.42 0.20 o
-3 -9 7 4.27 4.39 0.29 o
-2 -9 7 0.09 0.04 0.06 <
-1 -9 7 0.12 0.08 0.06 <
0 -9 7 10.41 11.03 0.37 o
1 -9 7 0.56 0.33 0.06 o
2 -9 7 0.01 0.00 0.04 <
3 -9 7 3.19 3.26 0.11 o
4 -9 7 0.01 -0.08 0.05 <
5 -9 7 2.29 2.37 0.14 o
6 -9 7 7.63 7.68 0.33 o
7 -9 7 0.01 -0.08 0.09 <
8 -9 7 0.10 -0.10 0.10 <
-4 -8 7 25.62 27.68 1.56 o
-3 -8 7 11.39 11.66 0.34 o
-2 -8 7 7.14 7.31 0.22 o
-1 -8 7 43.53 46.24 1.49 o
0 -8 7 107.61 113.28 3.14 o
1 -8 7 0.43 0.32 0.05 o
2 -8 7 0.70 0.61 0.04 o
3 -8 7 15.58 16.14 0.41 o
4 -8 7 0.10 0.03 0.05 <
5 -8 7 9.45 9.93 0.34 o
6 -8 7 0.02 0.09 0.08 <
7 -8 7 3.39 3.63 0.18 o
8 -8 7 0.08 0.01 0.09 <
9 -8 7 0.36 0.09 0.20 <
-5 -7 7 0.01 -0.06 0.07 <
-4 -7 7 18.68 19.80 0.65 o
-3 -7 7 5.22 4.97 0.14 o
-2 -7 7 0.29 0.20 0.04 o
-1 -7 7 14.20 14.43 0.37 o
0 -7 7 0.80 1.13 0.05 o
1 -7 7 0.02 0.20 0.04 o
2 -7 7 2.17 2.14 0.06 o
3 -7 7 3.13 3.28 0.11 o
4 -7 7 3.91 3.88 0.15 o
5 -7 7 0.00 -0.13 0.05 <
6 -7 7 1.83 1.93 0.10 o
7 -7 7 4.74 4.93 0.23 o
8 -7 7 0.02 -0.31 0.08 <
9 -7 7 0.04 0.11 0.23 <
-7 -6 7 0.34 -0.20 0.19 <
-6 -6 7 32.81 31.39 1.76 o
-5 -6 7 1.13 1.27 0.08 o
-4 -6 7 1.83 2.01 0.07 o
-3 -6 7 23.28 25.64 0.65 o
-2 -6 7 5.06 6.59 0.17 o
-1 -6 7 0.20 0.37 0.03 o
0 -6 7 0.22 0.41 0.03 o
1 -6 7 20.08 17.92 0.41 o
2 -6 7 18.18 18.53 0.47 o
3 -6 7 0.03 0.10 0.03 <
4 -6 7 0.95 0.70 0.05 o
5 -6 7 1.50 1.55 0.07 o
6 -6 7 0.33 0.16 0.07 <
7 -6 7 0.13 -0.06 0.08 <
8 -6 7 1.43 1.30 0.11 o
9 -6 7 0.03 -0.20 0.09 <
-7 -5 7 23.38 25.17 1.01 o
-6 -5 7 76.18 78.71 2.19 o
-5 -5 7 1.26 1.13 0.06 o
-4 -5 7 0.16 0.11 0.04 <
-3 -5 7 56.26 58.99 1.47 o
-2 -5 7 0.71 0.35 0.03 o
-1 -5 7 38.55 39.11 0.98 o
0 -5 7 1.60 1.09 0.04 o
1 -5 7 0.44 0.49 0.03 o
2 -5 7 11.93 12.86 0.32 o
3 -5 7 11.20 11.48 0.38 o
4 -5 7 23.64 25.81 0.73 o
5 -5 7 32.33 33.19 0.93 o
6 -5 7 0.18 0.21 0.06 o
7 -5 7 0.79 0.83 0.09 o
8 -5 7 7.97 8.14 0.35 o
9 -5 7 1.00 0.74 0.13 o
-8 -4 7 1.35 1.48 0.14 o
-7 -4 7 0.63 0.50 0.08 o
-6 -4 7 1.55 1.54 0.07 o
-5 -4 7 10.76 11.05 0.29 o
-4 -4 7 13.74 14.00 0.36 o
-3 -4 7 6.43 6.47 0.17 o
-2 -4 7 8.77 8.80 0.23 o
-1 -4 7 103.22 102.81 2.55 o
0 -4 7 7.18 6.35 0.15 o
1 -4 7 0.16 0.16 0.02 o
2 -4 7 17.20 17.63 0.44 o
3 -4 7 2.04 2.09 0.07 o
4 -4 7 5.33 5.46 0.19 o
5 -4 7 6.05 5.59 0.20 o
6 -4 7 0.24 0.29 0.07 o
7 -4 7 0.00 -0.07 0.08 <
8 -4 7 0.26 0.11 0.08 <
9 -4 7 3.91 3.45 0.25 o
-9 -3 7 4.57 4.28 0.33 o
-8 -3 7 1.08 0.99 0.08 o
-7 -3 7 0.95 0.86 0.06 o
-6 -3 7 0.01 -0.02 0.05 <
-5 -3 7 74.33 74.58 2.07 o
-4 -3 7 36.14 35.31 0.88 o
-3 -3 7 1.62 1.69 0.06 o
-2 -3 7 119.98 120.76 6.65 o
-1 -3 7 165.52 177.79 5.66 o
0 -3 7 4.02 4.50 0.11 o
1 -3 7 10.93 11.77 0.27 o
2 -3 7 6.23 6.33 0.16 o
3 -3 7 2.41 2.94 0.09 o
4 -3 7 25.45 27.80 0.78 o
5 -3 7 0.18 0.34 0.06 o
6 -3 7 21.10 20.91 0.59 o
7 -3 7 0.10 0.05 0.06 <
8 -3 7 0.47 0.52 0.09 o
9 -3 7 14.54 13.40 0.78 o
-9 -2 7 2.24 2.08 0.14 o
-8 -2 7 1.03 1.14 0.10 o
-7 -2 7 0.89 0.97 0.07 o
-6 -2 7 1.90 1.49 0.06 o
-5 -2 7 13.74 13.13 0.33 o
-4 -2 7 5.55 6.34 0.21 o
-3 -2 7 0.73 0.27 0.03 o
-2 -2 7 3.37 3.27 0.11 o
-1 -2 7 1.64 1.88 0.06 o
0 -2 7 1.03 1.69 0.05 o
1 -2 7 0.07 0.08 0.02 o
2 -2 7 14.36 16.89 0.42 o
3 -2 7 0.22 0.24 0.02 o
4 -2 7 0.57 0.68 0.04 o
5 -2 7 4.81 4.61 0.14 o
6 -2 7 6.03 5.84 0.18 o
7 -2 7 0.45 0.42 0.07 o
8 -2 7 0.11 -0.09 0.11 <
-9 -1 7 7.81 7.60 0.33 o
-8 -1 7 14.44 14.09 0.57 o
-7 -1 7 120.18 112.44 3.60 o
-6 -1 7 0.66 0.90 0.04 o
-5 -1 7 1.32 1.39 0.05 o
-4 -1 7 96.00 73.32 2.03 o
-3 -1 7 12.83 6.96 0.23 o
-2 -1 7 29.41 25.11 0.70 o
-1 -1 7 9.92 11.03 0.31 o
0 -1 7 3.63 4.90 0.14 o
1 -1 7 36.01 38.41 1.24 o
2 -1 7 10.40 12.42 0.26 o
3 -1 7 10.50 10.97 0.28 o
4 -1 7 10.93 11.43 0.29 o
5 -1 7 1.28 1.49 0.06 o
6 -1 7 1.95 1.79 0.09 o
7 -1 7 9.77 8.96 0.31 o
8 -1 7 0.11 0.40 0.11 o
9 -1 7 0.05 0.28 0.20 <
-9 0 7 5.23 5.46 0.25 o
-8 0 7 34.26 34.47 1.12 o
-7 0 7 76.52 74.48 1.86 o
-6 0 7 2.23 2.07 0.07 o
-5 0 7 0.01 0.05 0.03 <
-4 0 7 38.35 31.42 0.88 o
-3 0 7 3.14 3.19 0.11 o
-2 0 7 96.01 94.34 2.63 o
-1 0 7 2.22 1.73 0.05 o
0 0 7 67.28 68.68 2.68 o
1 0 7 15.59 14.73 0.37 o
2 0 7 9.94 9.84 0.25 o
3 0 7 124.73 138.51 3.87 o
4 0 7 46.79 50.90 1.64 o
5 0 7 3.84 3.60 0.17 o
6 0 7 2.22 2.05 0.09 o
7 0 7 9.45 8.97 0.38 o
8 0 7 0.62 0.10 0.12 <
-10 1 7 0.01 -0.26 0.10 <
-9 1 7 4.79 4.74 0.18 o
-8 1 7 1.00 1.06 0.06 o
-7 1 7 2.50 2.59 0.08 o
-6 1 7 38.27 39.46 0.98 o
-5 1 7 7.65 8.66 0.25 o
-4 1 7 4.28 3.71 0.13 o
-3 1 7 82.87 73.77 2.36 o
-2 1 7 133.31 118.03 3.26 o
-1 1 7 3.41 3.16 0.08 o
0 1 7 0.08 0.26 0.02 o
1 1 7 8.82 8.74 0.29 o
2 1 7 0.49 0.62 0.04 o
3 1 7 0.09 0.25 0.05 o
4 1 7 0.50 0.54 0.06 o
5 1 7 3.20 3.67 0.17 o
6 1 7 0.06 0.06 0.07 <
7 1 7 0.00 0.08 0.07 <
-10 2 7 10.09 10.41 0.43 o
-9 2 7 0.62 0.73 0.07 o
-8 2 7 0.84 0.72 0.06 o
-7 2 7 1.68 2.06 0.08 o
-6 2 7 43.62 45.02 1.25 o
-5 2 7 32.10 31.58 0.88 o
-4 2 7 5.19 4.31 0.13 o
-3 2 7 21.24 19.18 0.40 o
-2 2 7 13.66 13.62 0.34 o
-1 2 7 0.80 0.69 0.03 o
0 2 7 21.34 22.00 0.61 o
1 2 7 12.00 13.12 0.42 o
2 2 7 1.15 1.52 0.06 o
3 2 7 8.49 9.05 0.30 o
4 2 7 1.27 1.63 0.10 o
5 2 7 21.68 23.53 0.94 o
6 2 7 0.05 0.10 0.07 <
7 2 7 0.08 0.15 0.11 <
8 2 7 11.12 8.87 0.58 o
-10 3 7 0.53 0.18 0.13 <
-9 3 7 0.05 -0.06 0.05 <
-8 3 7 6.24 6.47 0.20 o
-7 3 7 3.76 3.89 0.12 o
-6 3 7 0.06 0.08 0.04 <
-5 3 7 0.16 0.14 0.03 o
-4 3 7 1.65 1.84 0.05 o
-3 3 7 34.12 31.05 0.71 o
-2 3 7 0.20 0.27 0.02 o
-1 3 7 19.76 19.13 0.48 o
0 3 7 1.47 1.84 0.07 o
1 3 7 6.07 7.64 0.25 o
2 3 7 0.65 0.53 0.05 o
3 3 7 0.03 0.02 0.06 <
4 3 7 2.01 1.45 0.14 o
5 3 7 1.29 1.12 0.10 o
6 3 7 1.75 1.54 0.17 o
7 3 7 0.00 -0.27 0.18 <
-10 4 7 2.74 2.74 0.22 o
-9 4 7 36.52 39.86 1.28 o
-8 4 7 89.98 93.19 2.58 o
-7 4 7 0.29 0.02 0.04 <
-6 4 7 0.00 0.04 0.04 <
-5 4 7 46.20 47.57 1.18 o
-4 4 7 0.34 0.40 0.04 o
-3 4 7 45.01 42.77 0.97 o
-2 4 7 8.84 7.93 0.23 o
-1 4 7 5.43 5.49 0.13 o
0 4 7 5.99 6.33 0.16 o
1 4 7 10.38 10.89 0.28 o
2 4 7 40.18 41.94 1.34 o
3 4 7 28.51 28.48 1.13 o
4 4 7 1.85 2.30 0.18 o
7 4 7 0.04 0.13 0.33 <
-10 5 7 1.44 1.43 0.11 o
-9 5 7 7.60 8.22 0.35 o
-8 5 7 18.36 18.63 0.61 o
-7 5 7 0.22 0.22 0.06 o
-6 5 7 0.46 0.43 0.05 o
-5 5 7 0.90 0.87 0.05 o
-4 5 7 1.69 1.80 0.07 o
-3 5 7 3.89 3.01 0.10 o
-2 5 7 2.78 2.14 0.07 o
-1 5 7 36.42 34.68 0.86 o
0 5 7 0.95 1.02 0.05 o
1 5 7 0.35 0.16 0.04 o
2 5 7 60.57 59.39 1.66 o
4 5 7 2.26 2.10 0.19 o
-10 6 7 3.78 4.23 0.30 o
-9 6 7 1.18 1.16 0.10 o
-8 6 7 5.35 5.50 0.25 o
-7 6 7 28.18 27.58 0.90 o
-6 6 7 0.82 0.81 0.07 o
-5 6 7 0.57 0.37 0.04 o
-4 6 7 46.85 46.47 1.16 o
-3 6 7 12.14 12.94 0.37 o
-2 6 7 0.30 0.44 0.04 o
-1 6 7 0.05 0.08 0.04 <
0 6 7 0.50 0.62 0.04 o
1 6 7 0.54 0.62 0.05 o
2 6 7 0.24 0.42 0.09 o
-10 7 7 0.02 0.12 0.15 <
-9 7 7 2.27 2.60 0.15 o
-8 7 7 1.22 1.15 0.11 o
-7 7 7 2.34 2.26 0.11 o
-6 7 7 6.77 7.21 0.25 o
-5 7 7 5.14 5.29 0.23 o
-4 7 7 5.07 4.97 0.18 o
-3 7 7 5.78 5.87 0.18 o
-2 7 7 0.99 1.07 0.05 o
-1 7 7 6.99 7.14 0.21 o
0 7 7 13.98 14.92 0.49 o
1 7 7 0.00 0.04 0.06 <
-9 8 7 6.69 7.50 0.48 o
-8 8 7 0.93 1.24 0.11 o
-7 8 7 2.19 2.35 0.11 o
-6 8 7 1.11 1.20 0.09 o
-5 8 7 0.44 0.64 0.08 o
-4 8 7 6.93 6.88 0.24 o
-3 8 7 0.30 0.13 0.06 <
-2 8 7 5.10 5.24 0.23 o
-1 8 7 1.20 1.28 0.07 o
0 8 7 0.40 0.50 0.09 o
1 8 7 0.05 -0.04 0.11 <
-7 9 7 0.01 0.04 0.11 <
-6 9 7 3.51 3.71 0.18 o
-5 9 7 0.79 1.11 0.16 o
-4 9 7 12.55 13.19 0.54 o
-3 9 7 0.46 0.65 0.09 o
-2 9 7 7.46 7.42 0.32 o
-1 9 7 0.51 0.54 0.14 o
0 9 7 0.85 0.78 0.13 o
-7 10 7 0.87 0.60 0.12 o
-6 10 7 0.04 0.10 0.18 <
-5 10 7 4.33 3.66 0.25 o
-4 10 7 0.01 -0.03 0.10 <
-3 10 7 0.34 0.49 0.11 o
-2 10 7 7.23 7.34 0.32 o
-1 10 7 0.02 -0.06 0.16 <
-6 11 7 2.00 2.48 0.28 o
-5 11 7 3.89 3.20 0.23 o
-3 11 7 0.42 0.47 0.18 <
-2 11 7 0.12 -0.07 0.25 <
0 -11 8 0.04 -0.04 0.11 <
1 -11 8 0.51 0.52 0.16 o
2 -11 8 1.26 1.03 0.15 o
3 -11 8 4.55 3.89 0.29 o
4 -11 8 1.24 1.32 0.15 o
-2 -10 8 0.01 -0.51 0.13 <
-1 -10 8 1.02 0.77 0.10 o
0 -10 8 8.70 9.29 0.32 o
1 -10 8 5.64 5.33 0.20 o
2 -10 8 14.01 13.50 0.39 o
3 -10 8 15.85 15.54 0.51 o
4 -10 8 3.55 2.93 0.16 o
6 -10 8 38.63 35.59 2.00 o
-3 -9 8 1.38 1.35 0.20 o
-2 -9 8 0.03 0.25 0.07 o
-1 -9 8 0.06 -0.05 0.07 <
0 -9 8 0.42 0.25 0.11 <
1 -9 8 0.00 -0.16 0.06 <
2 -9 8 9.15 8.92 0.23 o
3 -9 8 0.78 0.64 0.07 o
4 -9 8 1.36 1.51 0.08 o
5 -9 8 2.01 1.87 0.12 o
6 -9 8 0.89 0.97 0.10 o
7 -9 8 0.33 0.04 0.15 <
-4 -8 8 0.98 0.95 0.09 o
-3 -8 8 1.35 1.30 0.07 o
-2 -8 8 22.73 24.16 0.79 o
-1 -8 8 5.28 5.23 0.17 o
0 -8 8 69.43 73.20 2.03 o
1 -8 8 22.84 24.05 0.60 o
2 -8 8 3.85 4.10 0.11 o
3 -8 8 12.56 13.36 0.34 o
4 -8 8 18.56 18.94 0.63 o
5 -8 8 0.19 0.07 0.06 <
6 -8 8 0.02 0.21 0.13 <
7 -8 8 4.23 3.97 0.20 o
8 -8 8 4.05 4.88 0.33 o
-5 -7 8 0.53 0.31 0.08 o
-4 -7 8 12.38 12.44 0.36 o
-3 -7 8 10.19 9.98 0.29 o
-2 -7 8 10.78 10.36 0.27 o
-1 -7 8 5.36 5.37 0.15 o
0 -7 8 107.08 112.99 2.80 o
1 -7 8 8.45 8.77 0.23 o
2 -7 8 0.32 0.42 0.04 o
3 -7 8 8.01 8.53 0.25 o
4 -7 8 2.91 2.90 0.12 o
5 -7 8 2.41 2.34 0.11 o
6 -7 8 0.03 -0.03 0.06 <
7 -7 8 3.64 3.76 0.19 o
8 -7 8 0.03 -0.04 0.09 <
9 -7 8 0.62 0.45 0.14 o
-6 -6 8 5.55 6.56 0.41 o
-5 -6 8 2.62 2.97 0.19 o
-4 -6 8 1.00 1.12 0.06 o
-3 -6 8 1.13 1.01 0.05 o
-2 -6 8 0.05 0.02 0.04 <
-1 -6 8 4.22 3.98 0.11 o
0 -6 8 14.33 13.75 0.32 o
1 -6 8 13.75 12.92 0.30 o
2 -6 8 51.44 51.69 1.44 o
3 -6 8 11.30 11.98 0.40 o
4 -6 8 0.02 -0.10 0.05 <
5 -6 8 103.80 105.71 3.41 o
6 -6 8 11.11 10.89 0.45 o
7 -6 8 3.90 4.56 0.22 o
8 -6 8 2.87 2.84 0.16 o
-7 -5 8 0.90 0.74 0.11 o
-6 -5 8 9.43 9.51 0.25 o
-5 -5 8 1.34 1.45 0.08 o
-4 -5 8 2.19 2.28 0.08 o
-3 -5 8 11.80 12.30 0.32 o
-2 -5 8 12.95 15.29 0.39 o
-1 -5 8 7.34 6.73 0.18 o
0 -5 8 7.31 7.24 0.17 o
1 -5 8 66.43 65.53 1.49 o
2 -5 8 53.85 56.49 1.57 o
3 -5 8 8.52 9.56 0.32 o
4 -5 8 13.28 13.34 0.45 o
5 -5 8 72.90 74.63 2.41 o
6 -5 8 1.72 1.66 0.09 o
7 -5 8 0.68 0.87 0.09 o
8 -5 8 0.28 -0.02 0.08 <
9 -5 8 0.10 -0.01 0.21 <
-8 -4 8 0.03 0.32 0.12 <
-7 -4 8 0.26 0.31 0.10 o
-6 -4 8 4.84 5.02 0.16 o
-5 -4 8 0.09 0.15 0.04 o
-4 -4 8 1.01 0.89 0.04 o
-3 -4 8 0.24 0.30 0.03 o
-2 -4 8 6.23 5.58 0.15 o
-1 -4 8 21.83 20.71 0.52 o
0 -4 8 14.74 14.74 0.34 o
1 -4 8 28.91 29.29 0.73 o
2 -4 8 1.73 2.04 0.06 o
3 -4 8 22.28 22.29 0.63 o
4 -4 8 0.80 0.70 0.04 o
5 -4 8 0.00 -0.11 0.06 <
6 -4 8 1.53 1.71 0.09 o
7 -4 8 5.63 5.97 0.26 o
8 -4 8 0.57 0.72 0.14 o
9 -4 8 0.12 0.20 0.12 <
-9 -3 8 1.35 1.13 0.16 o
-8 -3 8 2.25 2.03 0.09 o
-7 -3 8 9.69 9.57 0.28 o
-6 -3 8 24.68 23.82 0.67 o
-5 -3 8 15.70 14.95 0.43 o
-4 -3 8 32.73 32.96 0.82 o
-3 -3 8 99.54 92.33 2.56 o
-2 -3 8 0.29 0.31 0.03 o
0 -3 8 59.78 64.34 2.53 o
1 -3 8 35.63 39.01 0.97 o
2 -3 8 67.94 78.77 2.54 o
3 -3 8 49.28 52.55 1.47 o
4 -3 8 2.03 2.16 0.07 o
5 -3 8 0.79 0.98 0.05 o
6 -3 8 5.08 4.29 0.14 o
7 -3 8 3.52 3.71 0.15 o
8 -3 8 0.10 -0.02 0.13 <
-9 -2 8 0.00 -0.05 0.09 <
-8 -2 8 0.47 0.32 0.09 o
-7 -2 8 0.39 0.29 0.06 o
-6 -2 8 0.64 0.62 0.04 o
-5 -2 8 32.07 33.60 0.84 o
-4 -2 8 39.40 38.30 1.07 o
-3 -2 8 24.68 22.19 0.62 o
-2 -2 8 15.51 13.74 0.44 o
-1 -2 8 163.82 176.31 9.73 o
0 -2 8 2.36 2.62 0.09 o
1 -2 8 0.02 0.11 0.03 o
2 -2 8 4.89 5.54 0.16 o
3 -2 8 0.41 0.30 0.03 o
4 -2 8 15.11 16.71 0.47 o
5 -2 8 2.03 2.45 0.08 o
6 -2 8 2.29 2.15 0.08 o
7 -2 8 0.77 0.64 0.08 o
8 -2 8 1.58 1.30 0.15 o
-9 -1 8 4.73 4.41 0.21 o
-8 -1 8 7.98 7.33 0.26 o
-7 -1 8 0.05 -0.38 0.07 <
-6 -1 8 1.68 1.72 0.18 o
-5 -1 8 4.35 3.28 0.10 o
-4 -1 8 2.60 2.09 0.07 o
-3 -1 8 24.21 14.85 0.48 o
-2 -1 8 14.76 12.11 0.34 o
-1 -1 8 33.12 34.94 1.12 o
0 -1 8 68.04 80.82 4.49 o
1 -1 8 145.13 138.18 7.68 o
2 -1 8 21.60 24.70 0.56 o
3 -1 8 2.92 3.53 0.10 o
4 -1 8 181.83 198.13 6.43 o
5 -1 8 10.15 10.41 0.30 o
6 -1 8 6.74 7.08 0.25 o
7 -1 8 1.68 1.50 0.08 o
8 -1 8 2.43 1.95 0.18 o
-10 0 8 0.05 -0.40 0.21 <
-9 0 8 14.63 14.84 0.61 o
-8 0 8 0.02 0.03 0.06 <
-7 0 8 70.30 68.15 1.71 o
-6 0 8 1.18 1.29 0.05 o
-5 0 8 12.70 10.81 0.28 o
-4 0 8 57.08 43.23 1.39 o
-3 0 8 10.24 4.50 0.15 o
-2 0 8 0.72 0.61 0.03 o
-1 0 8 4.10 3.93 0.10 o
0 0 8 92.99 94.78 3.02 o
1 0 8 63.51 64.30 2.51 o
2 0 8 6.72 8.10 0.21 o
3 0 8 6.25 5.96 0.14 o
4 0 8 27.07 26.82 0.75 o
5 0 8 0.85 0.82 0.06 o
6 0 8 0.30 0.42 0.07 o
7 0 8 0.29 0.22 0.08 <
8 0 8 0.00 0.17 0.16 <
-10 1 8 3.51 3.61 0.26 o
-9 1 8 0.07 0.03 0.07 <
-8 1 8 0.21 0.14 0.06 <
-7 1 8 0.49 0.38 0.05 o
-6 1 8 0.04 -0.01 0.04 <
-5 1 8 2.25 2.64 0.09 o
-4 1 8 6.73 6.22 0.21 o
-3 1 8 10.51 10.49 0.34 o
-2 1 8 160.30 144.95 4.01 o
-1 1 8 66.00 63.11 1.75 o
0 1 8 27.33 29.15 0.93 o
1 1 8 18.78 20.38 0.65 o
2 1 8 47.45 48.79 1.57 o
3 1 8 0.08 0.08 0.03 <
4 1 8 0.04 0.04 0.05 <
5 1 8 2.59 2.44 0.10 o
6 1 8 3.26 2.99 0.15 o
7 1 8 0.40 0.18 0.09 <
8 1 8 0.12 0.13 0.13 <
-10 2 8 0.09 0.06 0.12 <
-9 2 8 0.03 0.01 0.10 <
-8 2 8 7.99 8.44 0.25 o
-7 2 8 19.36 19.93 0.56 o
-6 2 8 40.68 43.30 1.20 o
-5 2 8 70.85 73.77 2.36 o
-4 2 8 83.69 80.92 2.59 o
-3 2 8 16.85 14.83 0.31 o
-1 2 8 28.14 27.44 0.88 o
0 2 8 43.90 45.23 1.45 o
1 2 8 55.78 58.62 1.88 o
2 2 8 29.71 32.23 1.03 o
3 2 8 4.33 4.70 0.17 o
4 2 8 1.98 1.62 0.14 o
5 2 8 0.46 0.11 0.07 <
6 2 8 0.35 0.52 0.08 o
7 2 8 0.02 0.05 0.11 <
-10 3 8 0.66 0.83 0.11 o
-9 3 8 3.08 3.32 0.12 o
-8 3 8 4.16 3.99 0.13 o
-7 3 8 3.10 3.02 0.10 o
-6 3 8 19.00 19.18 0.54 o
-5 3 8 27.24 27.37 0.76 o
-4 3 8 20.02 19.65 0.45 o
-3 3 8 0.13 0.04 0.02 <
-2 3 8 32.50 31.76 0.72 o
-1 3 8 5.91 5.41 0.14 o
0 3 8 4.01 4.15 0.11 o
1 3 8 0.08 0.06 0.04 <
2 3 8 1.16 1.28 0.07 o
3 3 8 27.77 27.94 1.11 o
4 3 8 2.98 2.89 0.15 o
5 3 8 0.46 0.77 0.09 o
6 3 8 0.69 0.71 0.22 o
-10 4 8 6.32 7.62 0.47 o
-9 4 8 5.46 6.46 0.23 o
-8 4 8 17.91 19.07 0.54 o
-7 4 8 12.39 12.96 0.37 o
-6 4 8 5.02 5.34 0.16 o
-5 4 8 17.00 17.09 0.48 o
-4 4 8 40.90 44.04 1.22 o
-3 4 8 3.84 3.28 0.09 o
-2 4 8 0.89 1.02 0.04 o
-1 4 8 43.95 40.55 0.92 o
0 4 8 50.57 50.26 1.25 o
1 4 8 3.35 3.33 0.11 o
2 4 8 6.14 6.41 0.27 o
4 4 8 2.04 1.89 0.12 o
-10 5 8 7.04 8.06 0.49 o
-9 5 8 1.05 0.94 0.09 o
-8 5 8 59.07 64.05 2.52 o
-7 5 8 0.00 -0.11 0.08 <
-6 5 8 7.51 7.59 0.22 o
-5 5 8 28.19 29.19 0.82 o
-4 5 8 2.98 4.00 0.12 o
-3 5 8 0.93 0.96 0.04 o
-2 5 8 1.17 1.27 0.05 o
-1 5 8 9.56 8.30 0.21 o
0 5 8 5.52 5.33 0.16 o
1 5 8 2.12 2.00 0.09 o
2 5 8 0.05 0.09 0.12 <
3 5 8 0.90 0.86 0.18 o
-9 6 8 3.09 3.77 0.19 o
-8 6 8 0.57 0.60 0.13 o
-7 6 8 2.23 2.27 0.13 o
-6 6 8 6.71 6.58 0.23 o
-5 6 8 8.62 8.62 0.25 o
-4 6 8 0.53 0.39 0.06 o
-3 6 8 135.72 130.41 5.10 o
-2 6 8 25.33 25.90 0.72 o
-1 6 8 6.45 6.60 0.20 o
0 6 8 11.19 12.71 0.42 o
1 6 8 15.94 17.34 0.98 o
2 6 8 0.08 0.15 0.10 <
-9 7 8 0.69 0.87 0.13 o
-8 7 8 3.07 3.04 0.16 o
-7 7 8 21.94 22.78 0.75 o
-6 7 8 27.67 28.13 0.91 o
-5 7 8 11.62 11.69 0.48 o
-4 7 8 12.49 12.20 0.35 o
-3 7 8 131.62 137.05 4.37 o
-2 7 8 2.54 2.51 0.09 o
-1 7 8 7.54 7.22 0.21 o
0 7 8 6.19 6.40 0.19 o
-9 8 8 0.44 0.20 0.19 <
-8 8 8 4.35 4.76 0.22 o
-7 8 8 2.59 3.07 0.16 o
-6 8 8 2.58 2.60 0.14 o
-5 8 8 8.55 9.03 0.38 o
-4 8 8 2.27 2.09 0.10 o
-3 8 8 2.24 2.19 0.10 o
-2 8 8 7.29 7.02 0.24 o
-1 8 8 2.08 2.06 0.13 o
0 8 8 0.51 0.35 0.11 o
-8 9 8 4.98 5.69 0.36 o
-7 9 8 1.57 1.62 0.14 o
-6 9 8 9.86 10.20 0.43 o
-5 9 8 11.76 13.45 0.55 o
-4 9 8 0.03 -0.13 0.07 <
-3 9 8 1.32 1.44 0.11 o
-2 9 8 8.64 8.56 0.36 o
-1 9 8 5.56 5.49 0.25 o
-7 10 8 0.74 0.88 0.15 o
-6 10 8 2.24 1.98 0.18 o
-5 10 8 0.53 0.51 0.17 <
-4 10 8 0.39 0.04 0.20 <
-3 10 8 0.75 0.74 0.13 o
-2 10 8 0.05 0.20 0.15 <
-1 10 8 0.00 0.33 0.28 <
0 -11 9 0.71 0.92 0.28 o
1 -11 9 0.01 0.09 0.20 <
2 -11 9 0.52 0.40 0.15 <
-2 -10 9 0.27 0.37 0.22 <
-1 -10 9 14.24 13.79 0.57 o
0 -10 9 0.00 -0.03 0.08 <
1 -10 9 4.35 4.45 0.18 o
2 -10 9 0.94 1.01 0.13 o
3 -10 9 0.46 0.76 0.09 o
4 -10 9 1.07 1.12 0.12 o
5 -10 9 2.13 2.44 0.19 o
-3 -9 9 2.42 2.55 0.20 o
-2 -9 9 7.24 7.47 0.32 o
-1 -9 9 1.84 1.89 0.10 o
0 -9 9 0.17 0.29 0.07 o
1 -9 9 20.27 21.03 0.60 o
2 -9 9 0.95 0.75 0.06 o
3 -9 9 0.06 -0.06 0.07 <
4 -9 9 3.56 3.66 0.14 o
5 -9 9 0.12 -0.18 0.07 <
6 -9 9 0.82 0.64 0.16 o
7 -9 9 2.55 2.34 0.20 o
-3 -8 9 29.77 31.60 1.03 o
-2 -8 9 13.12 13.37 0.45 o
-1 -8 9 1.28 1.29 0.08 o
0 -8 9 38.92 40.81 1.14 o
1 -8 9 50.19 52.80 1.31 o
2 -8 9 0.67 0.64 0.05 o
3 -8 9 0.13 -0.05 0.06 <
4 -8 9 2.87 3.03 0.13 o
5 -8 9 0.77 0.63 0.07 o
6 -8 9 3.88 4.21 0.20 o
7 -8 9 0.04 -0.10 0.10 <
-5 -7 9 0.33 0.32 0.08 o
-4 -7 9 0.13 -0.04 0.06 <
-3 -7 9 10.36 10.86 0.32 o
-2 -7 9 2.07 1.82 0.07 o
-1 -7 9 0.71 0.61 0.04 o
0 -7 9 1.33 1.40 0.06 o
1 -7 9 2.21 2.15 0.07 o
2 -7 9 0.85 0.68 0.05 o
3 -7 9 2.32 2.06 0.09 o
4 -7 9 4.39 4.27 0.16 o
5 -7 9 1.29 1.14 0.08 o
6 -7 9 0.32 0.43 0.09 o
7 -7 9 1.42 1.58 0.12 o
-6 -6 9 3.53 3.77 0.16 o
-5 -6 9 71.81 76.84 2.48 o
-4 -6 9 1.03 1.11 0.06 o
-3 -6 9 1.10 1.30 0.06 o
-2 -6 9 38.76 42.82 1.07 o
-1 -6 9 4.25 5.67 0.15 o
0 -6 9 3.80 4.19 0.11 o
1 -6 9 0.23 0.02 0.03 <
2 -6 9 5.47 5.30 0.16 o
3 -6 9 8.93 9.27 0.31 o
4 -6 9 1.35 1.18 0.07 o
5 -6 9 0.43 0.56 0.07 o
6 -6 9 1.07 1.12 0.08 o
7 -6 9 0.28 0.32 0.08 o
8 -6 9 0.08 0.15 0.23 <
-7 -5 9 5.06 4.93 0.32 o
-6 -5 9 31.69 32.95 0.83 o
-5 -5 9 67.38 69.68 1.74 o
-4 -5 9 1.32 1.14 0.05 o
-3 -5 9 0.91 0.88 0.05 o
-2 -5 9 28.09 29.72 0.75 o
-1 -5 9 2.45 2.32 0.07 o
0 -5 9 19.35 19.72 0.45 o
1 -5 9 0.00 -0.08 0.03 <
2 -5 9 4.74 4.54 0.12 o
3 -5 9 2.15 2.32 0.10 o
4 -5 9 3.64 3.65 0.14 o
5 -5 9 22.79 23.02 0.75 o
6 -5 9 19.68 18.77 0.62 o
7 -5 9 0.18 0.32 0.08 o
8 -5 9 0.19 -0.20 0.14 <
-8 -4 9 0.06 0.02 0.10 <
-7 -4 9 1.79 2.01 0.12 o
-6 -4 9 0.17 0.08 0.06 <
-5 -4 9 0.00 0.00 0.05 <
-4 -4 9 27.02 27.30 0.63 o
-3 -4 9 19.00 19.93 0.50 o
-2 -4 9 9.65 10.04 0.26 o
-1 -4 9 21.48 20.59 0.47 o
0 -4 9 95.99 96.19 2.39 o
1 -4 9 3.29 3.03 0.08 o
2 -4 9 0.16 0.11 0.03 o
3 -4 9 6.32 6.22 0.18 o
4 -4 9 0.44 0.48 0.04 o
5 -4 9 0.64 0.44 0.06 o
6 -4 9 1.69 1.47 0.08 o
7 -4 9 1.25 1.51 0.08 o
8 -4 9 0.00 -0.09 0.08 <
-9 -3 9 0.02 0.12 0.17 <
-8 -3 9 13.15 13.85 0.46 o
-7 -3 9 0.87 0.87 0.07 o
-6 -3 9 0.15 0.05 0.05 <
-5 -3 9 0.12 0.22 0.04 o
-4 -3 9 54.79 56.38 1.57 o
-3 -3 9 39.21 37.53 0.94 o
-2 -3 9 2.07 1.94 0.06 o
-1 -3 9 39.58 37.59 0.94 o
0 -3 9 25.60 26.96 0.67 o
1 -3 9 0.64 0.82 0.03 o
2 -3 9 2.98 3.45 0.11 o
3 -3 9 1.15 1.20 0.05 o
4 -3 9 2.09 2.24 0.08 o
5 -3 9 4.76 5.01 0.15 o
6 -3 9 0.75 0.85 0.06 o
7 -3 9 9.39 8.88 0.53 o
8 -3 9 0.01 -0.07 0.11 <
-9 -2 9 0.72 0.86 0.12 o
-8 -2 9 0.84 1.00 0.10 o
-7 -2 9 0.82 0.76 0.07 o
-6 -2 9 6.16 5.89 0.16 o
-5 -2 9 4.03 3.78 0.11 o
-4 -2 9 3.50 2.95 0.11 o
-3 -2 9 0.06 0.22 0.03 o
-2 -2 9 1.03 0.34 0.03 o
-1 -2 9 12.60 11.64 0.29 o
0 -2 9 5.37 5.89 0.17 o
1 -2 9 6.09 6.88 0.28 o
2 -2 9 0.31 0.33 0.03 o
3 -2 9 7.23 7.56 0.22 o
4 -2 9 0.24 0.12 0.04 <
5 -2 9 0.12 0.02 0.04 <
6 -2 9 2.30 1.93 0.08 o
7 -2 9 1.13 0.98 0.09 o
8 -2 9 0.63 0.88 0.15 o
-9 -1 9 2.47 2.47 0.14 o
-8 -1 9 12.09 11.83 0.40 o
-7 -1 9 38.38 37.12 1.04 o
-6 -1 9 175.87 166.95 5.34 o
-5 -1 9 0.00 0.01 0.03 <
-4 -1 9 0.89 1.03 0.05 o
-3 -1 9 92.73 70.42 2.27 o
-2 -1 9 2.95 1.78 0.06 o
-1 -1 9 46.55 46.34 1.48 o
0 -1 9 5.40 5.77 0.19 o
1 -1 9 1.60 1.48 0.06 o
2 -1 9 10.56 10.92 0.36 o
3 -1 9 8.49 9.69 0.25 o
4 -1 9 21.42 22.90 0.64 o
5 -1 9 16.54 15.53 0.51 o
6 -1 9 1.30 1.32 0.08 o
7 -1 9 0.72 0.82 0.19 o
-10 0 9 16.50 16.18 0.93 o
-9 0 9 5.37 5.32 0.24 o
-8 0 9 3.22 3.28 0.13 o
-7 0 9 23.37 23.07 0.65 o
-6 0 9 44.39 42.31 1.06 o
-5 0 9 0.07 0.02 0.03 <
-4 0 9 0.00 -0.02 0.03 <
-3 0 9 6.78 6.20 0.21 o
-2 0 9 0.36 0.45 0.03 o
-1 0 9 18.53 17.85 0.44 o
0 0 9 4.80 4.39 0.11 o
1 0 9 36.19 37.49 1.04 o
2 0 9 1.50 1.51 0.06 o
3 0 9 1.28 1.16 0.05 o
4 0 9 50.81 53.59 1.72 o
5 0 9 17.36 16.90 0.55 o
6 0 9 0.88 0.97 0.07 o
7 0 9 0.41 0.34 0.09 o
8 0 9 2.11 2.06 0.23 o
-10 1 9 2.16 1.97 0.19 o
-9 1 9 1.03 1.05 0.08 o
-8 1 9 6.44 6.57 0.20 o
-7 1 9 2.41 2.69 0.09 o
-6 1 9 1.92 2.16 0.07 o
-5 1 9 54.27 56.49 1.57 o
-4 1 9 10.97 11.70 0.30 o
-3 1 9 0.91 1.00 0.04 o
-2 1 9 65.28 66.04 2.11 o
-1 1 9 59.19 56.05 1.79 o
0 1 9 0.35 0.45 0.03 o
1 1 9 0.05 -0.04 0.03 <
2 1 9 0.12 0.02 0.04 <
3 1 9 0.01 -0.13 0.04 <
4 1 9 0.07 0.13 0.05 <
5 1 9 0.39 0.10 0.07 <
6 1 9 3.47 3.60 0.17 o
7 1 9 0.01 -0.16 0.15 <
-10 2 9 0.02 0.06 0.10 <
-9 2 9 17.51 18.92 0.54 o
-8 2 9 0.04 -0.16 0.06 <
-7 2 9 5.73 5.74 0.17 o
-6 2 9 1.16 1.58 0.06 o
-5 2 9 14.95 15.09 0.38 o
-4 2 9 30.76 29.07 0.73 o
-3 2 9 11.91 10.66 0.25 o
-2 2 9 1.93 1.85 0.06 o
-1 2 9 2.10 2.03 0.07 o
0 2 9 1.65 1.71 0.07 o
1 2 9 7.23 7.86 0.26 o
2 2 9 17.12 17.37 0.69 o
3 2 9 0.32 0.42 0.07 o
4 2 9 0.62 0.77 0.11 o
5 2 9 1.16 0.79 0.14 o
6 2 9 6.73 6.27 0.23 o
7 2 9 0.02 0.15 0.16 <
-10 3 9 0.25 0.28 0.13 <
-9 3 9 0.01 -0.05 0.07 <
-8 3 9 2.63 2.53 0.09 o
-7 3 9 20.74 21.73 0.61 o
-6 3 9 4.18 4.61 0.14 o
-5 3 9 1.17 1.13 0.06 o
-4 3 9 1.83 2.09 0.07 o
-3 3 9 1.25 1.44 0.04 o
-2 3 9 17.10 16.73 0.42 o
-1 3 9 0.13 0.30 0.03 o
0 3 9 8.49 8.40 0.28 o
1 3 9 0.15 0.29 0.05 o
2 3 9 1.15 1.22 0.07 o
3 3 9 0.48 0.39 0.10 o
4 3 9 0.95 1.29 0.11 o
6 3 9 0.07 0.26 0.17 <
-10 4 9 1.81 2.10 0.20 o
-9 4 9 1.98 1.85 0.10 o
-8 4 9 52.69 56.03 1.80 o
-7 4 9 85.69 88.74 2.48 o
-6 4 9 1.26 0.94 0.06 o
-5 4 9 0.07 0.01 0.04 <
-4 4 9 25.28 26.58 0.74 o
-3 4 9 0.27 0.27 0.04 o
-2 4 9 38.09 36.10 0.90 o
-1 4 9 1.70 1.76 0.05 o
0 4 9 14.10 15.03 0.42 o
1 4 9 2.39 2.82 0.11 o
2 4 9 4.02 4.47 0.20 o
3 4 9 35.67 38.94 1.54 o
4 4 9 16.71 16.84 0.96 o
-10 5 9 2.52 2.93 0.22 o
-9 5 9 1.16 1.16 0.10 o
-8 5 9 0.72 0.88 0.10 o
-7 5 9 7.80 7.48 0.26 o
-6 5 9 4.54 4.54 0.14 o
-5 5 9 0.72 0.51 0.04 o
-4 5 9 0.42 0.65 0.04 o
-3 5 9 6.11 5.69 0.20 o
-2 5 9 0.01 0.09 0.06 <
-1 5 9 2.13 1.71 0.07 o
0 5 9 19.00 18.35 0.52 o
1 5 9 0.15 0.06 0.04 <
2 5 9 0.05 0.01 0.22 <
-9 6 9 3.42 4.16 0.20 o
-8 6 9 0.22 0.33 0.09 o
-7 6 9 6.23 6.53 0.28 o
-6 6 9 22.75 22.07 0.88 o
-5 6 9 2.06 2.03 0.09 o
-4 6 9 3.07 2.70 0.11 o
-3 6 9 16.47 16.60 0.47 o
-2 6 9 0.70 1.01 0.06 o
-1 6 9 0.10 0.00 0.05 <
0 6 9 0.23 0.21 0.06 o
1 6 9 2.67 2.14 0.16 o
2 6 9 0.43 0.52 0.11 o
-9 7 9 0.00 -0.38 0.12 <
-8 7 9 3.45 4.34 0.21 o
-7 7 9 0.22 0.30 0.10 <
-6 7 9 0.16 -0.03 0.08 <
-5 7 9 4.97 5.00 0.22 o
-4 7 9 3.38 3.73 0.14 o
-3 7 9 19.92 19.42 0.55 o
-2 7 9 8.37 8.66 0.25 o
-1 7 9 3.09 3.29 0.11 o
0 7 9 3.86 3.75 0.25 o
1 7 9 8.71 8.81 0.52 o
-8 8 9 11.65 12.21 0.71 o
-7 8 9 0.38 0.32 0.08 o
-6 8 9 2.99 3.19 0.16 o
-5 8 9 2.03 2.04 0.12 o
-4 8 9 0.01 0.05 0.08 <
-3 8 9 1.12 1.07 0.07 o
-2 8 9 0.17 0.02 0.06 <
-1 8 9 0.62 0.62 0.09 o
-8 9 9 7.74 8.11 0.49 o
-7 9 9 0.50 0.60 0.16 o
-6 9 9 0.13 0.01 0.09 <
-5 9 9 0.44 0.57 0.09 o
-4 9 9 0.63 1.07 0.19 o
-3 9 9 6.71 7.03 0.30 o
-2 9 9 0.02 -0.03 0.13 <
-1 9 9 7.85 7.86 0.47 o
-5 10 9 0.06 0.43 0.18 <
-4 10 9 4.92 4.14 0.29 o
0 -11 10 0.38 0.14 0.17 <
1 -11 10 0.54 0.43 0.21 <
3 -11 10 1.54 1.38 0.17 o
-2 -10 10 0.07 -0.28 0.22 <
-1 -10 10 0.39 0.35 0.12 <
0 -10 10 2.94 2.16 0.19 o
1 -10 10 4.56 4.31 0.29 o
2 -10 10 1.43 0.96 0.14 o
3 -10 10 10.97 10.32 0.43 o
4 -10 10 8.85 8.04 0.34 o
5 -10 10 0.92 0.71 0.14 o
-3 -9 10 0.21 0.26 0.11 <
-2 -9 10 0.35 0.26 0.10 <
-1 -9 10 0.36 0.51 0.09 o
0 -9 10 0.58 0.73 0.09 o
1 -9 10 2.27 2.22 0.13 o
2 -9 10 1.03 1.10 0.06 o
3 -9 10 5.02 4.85 0.22 o
4 -9 10 0.00 -0.23 0.07 <
5 -9 10 1.83 1.61 0.11 o
6 -9 10 0.37 0.28 0.14 <
-3 -8 10 3.25 2.77 0.11 o
-2 -8 10 7.25 7.10 0.22 o
-1 -8 10 23.60 25.08 0.71 o
0 -8 10 1.84 1.64 0.08 o
1 -8 10 94.88 97.64 2.71 o
2 -8 10 20.94 21.22 0.60 o
3 -8 10 3.31 3.37 0.12 o
4 -8 10 9.07 8.48 0.36 o
5 -8 10 10.02 9.74 0.33 o
6 -8 10 0.01 0.10 0.07 <
7 -8 10 0.03 0.03 0.11 <
-5 -7 10 0.22 -0.10 0.10 <
-4 -7 10 0.01 0.06 0.06 <
-3 -7 10 13.13 13.32 0.34 o
-2 -7 10 11.79 11.54 0.30 o
-1 -7 10 4.23 4.06 0.12 o
0 -7 10 5.15 5.43 0.15 o
1 -7 10 47.21 49.03 1.37 o
2 -7 10 4.05 4.18 0.13 o
3 -7 10 0.73 0.88 0.07 o
4 -7 10 1.44 1.54 0.09 o
5 -7 10 0.17 0.02 0.06 <
6 -7 10 4.30 3.92 0.16 o
7 -7 10 0.49 0.55 0.14 o
-6 -6 10 4.09 4.19 0.16 o
-5 -6 10 1.80 1.81 0.08 o
-4 -6 10 0.03 -0.09 0.05 <
-3 -6 10 0.98 1.15 0.05 o
-2 -6 10 0.01 -0.06 0.04 <
-1 -6 10 2.36 3.09 0.09 o
0 -6 10 5.94 5.94 0.16 o
1 -6 10 12.31 12.24 0.35 o
2 -6 10 15.89 15.92 0.40 o
3 -6 10 39.42 41.48 1.35 o
4 -6 10 5.32 5.74 0.20 o
5 -6 10 0.28 0.14 0.07 <
6 -6 10 48.90 49.18 1.60 o
7 -6 10 4.43 4.25 0.21 o
8 -6 10 1.08 1.12 0.15 o
-7 -5 10 12.32 12.93 0.53 o
-6 -5 10 0.51 0.20 0.08 <
-5 -5 10 33.13 34.68 0.87 o
-4 -5 10 3.54 3.80 0.11 o
-3 -5 10 4.73 4.62 0.14 o
-2 -5 10 16.45 16.94 0.43 o
-1 -5 10 11.63 13.35 0.34 o
0 -5 10 1.32 1.19 0.05 o
1 -5 10 1.21 1.26 0.05 o
2 -5 10 32.68 32.94 0.83 o
3 -5 10 19.35 21.41 0.70 o
4 -5 10 2.14 2.42 0.10 o
5 -5 10 4.46 4.32 0.16 o
6 -5 10 13.67 13.65 0.46 o
7 -5 10 0.47 0.72 0.09 o
8 -5 10 0.00 0.09 0.13 <
-8 -4 10 2.13 2.03 0.17 o
-7 -4 10 0.25 0.38 0.06 o
-6 -4 10 0.00 0.00 0.05 <
-5 -4 10 0.21 0.14 0.05 <
-4 -4 10 0.02 0.07 0.04 <
-3 -4 10 1.34 1.41 0.05 o
-2 -4 10 5.36 5.29 0.14 o
-1 -4 10 9.16 8.54 0.25 o
0 -4 10 59.84 59.69 1.48 o
1 -4 10 23.09 22.87 0.57 o
2 -4 10 14.74 15.03 0.43 o
3 -4 10 4.66 4.79 0.15 o
4 -4 10 14.86 14.37 0.41 o
5 -4 10 0.09 0.16 0.06 <
6 -4 10 0.05 0.16 0.06 <
7 -4 10 0.75 0.76 0.12 o
8 -4 10 2.05 1.87 0.25 o
-9 -3 10 0.00 0.20 0.23 <
-8 -3 10 0.76 0.69 0.07 o
-7 -3 10 0.94 0.78 0.07 o
-6 -3 10 13.22 13.47 0.39 o
-5 -3 10 30.01 30.07 0.75 o
-4 -3 10 29.99 30.09 0.84 o
-3 -3 10 55.90 56.47 1.41 o
-2 -3 10 73.23 68.14 1.69 o
-1 -3 10 1.96 1.56 0.05 o
1 -3 10 30.16 31.20 0.87 o
2 -3 10 15.00 16.38 0.47 o
3 -3 10 25.40 27.55 0.90 o
4 -3 10 15.45 16.76 0.48 o
5 -3 10 0.46 0.57 0.05 o
6 -3 10 0.31 0.31 0.05 o
7 -3 10 0.91 0.77 0.26 <
8 -3 10 0.40 0.03 0.32 <
-9 -2 10 2.41 2.70 0.24 o
-8 -2 10 0.13 0.13 0.07 <
-7 -2 10 1.27 1.40 0.09 o
-6 -2 10 2.71 2.49 0.08 o
-5 -2 10 0.61 0.67 0.04 o
-4 -2 10 24.48 24.02 0.78 o
-3 -2 10 28.08 26.95 0.87 o
-2 -2 10 12.96 11.23 0.32 o
-1 -2 10 3.82 3.93 0.10 o
0 -2 10 35.39 34.78 1.12 o
1 -2 10 3.67 3.62 0.12 o
2 -2 10 5.83 6.30 0.21 o
3 -2 10 0.01 0.06 0.03 <
4 -2 10 0.02 0.05 0.04 <
5 -2 10 17.48 18.54 0.53 o
6 -2 10 2.30 2.36 0.10 o
7 -2 10 0.67 0.45 0.09 o
-9 -1 10 1.34 1.41 0.13 o
-8 -1 10 13.40 13.96 0.57 o
-7 -1 10 12.27 12.19 0.32 o
-6 -1 10 12.38 11.82 0.31 o
-5 -1 10 9.76 10.04 0.29 o
-4 -1 10 7.74 5.54 0.19 o
-3 -1 10 14.63 11.99 0.39 o
-2 -1 10 33.72 25.14 0.81 o
-1 -1 10 5.72 5.30 0.15 o
0 -1 10 9.33 9.62 0.27 o
1 -1 10 43.53 43.09 1.69 o
2 -1 10 65.10 65.11 2.55 o
3 -1 10 5.21 5.55 0.19 o
4 -1 10 2.31 2.29 0.08 o
5 -1 10 53.22 50.48 2.80 o
6 -1 10 3.24 2.75 0.12 o
7 -1 10 1.54 1.46 0.11 o
-9 0 10 2.38 1.98 0.12 o
-8 0 10 17.15 16.65 0.48 o
-7 0 10 0.57 0.48 0.05 o
-6 0 10 99.95 100.22 2.49 o
-5 0 10 0.98 1.10 0.05 o
-4 0 10 11.49 9.84 0.33 o
-3 0 10 40.23 32.61 1.05 o
-2 0 10 3.92 2.61 0.08 o
-1 0 10 0.30 0.30 0.02 o
0 0 10 1.75 1.83 0.05 o
1 0 10 23.71 24.46 0.68 o
2 0 10 10.91 11.16 0.32 o
3 0 10 2.18 2.48 0.12 o
4 0 10 0.46 0.13 0.06 <
5 0 10 2.14 1.51 0.10 o
6 0 10 0.49 0.51 0.10 o
7 0 10 0.01 0.10 0.31 <
-9 1 10 5.43 5.77 0.21 o
-8 1 10 0.01 -0.11 0.06 <
-7 1 10 3.26 3.29 0.11 o
-6 1 10 2.51 2.58 0.08 o
-5 1 10 2.09 1.95 0.06 o
-4 1 10 16.53 17.38 0.49 o
-3 1 10 19.71 18.06 0.51 o
-2 1 10 2.51 2.64 0.08 o
-1 1 10 207.91 193.49 7.58 o
0 1 10 43.72 43.88 1.21 o
1 1 10 15.00 16.43 0.46 o
2 1 10 13.89 14.70 0.42 o
3 1 10 21.25 22.36 0.73 o
4 1 10 0.08 0.02 0.04 <
5 1 10 0.07 -0.06 0.08 <
6 1 10 0.60 0.40 0.09 o
-10 2 10 0.40 0.50 0.13 o
-9 2 10 0.42 0.37 0.11 o
-8 2 10 0.16 0.10 0.06 <
-7 2 10 4.53 5.15 0.16 o
-6 2 10 15.67 15.97 0.45 o
-5 2 10 49.52 50.99 1.42 o
-4 2 10 77.20 77.36 1.92 o
-3 2 10 44.07 39.47 1.10 o
-2 2 10 15.92 14.43 0.36 o
0 2 10 11.05 11.13 0.37 o
1 2 10 11.88 11.50 0.38 o
2 2 10 12.16 12.02 0.40 o
3 2 10 6.93 7.69 0.32 o
4 2 10 0.23 0.40 0.11 o
5 2 10 0.23 -0.03 0.12 <
6 2 10 0.00 -0.21 0.12 <
-9 3 10 0.40 0.24 0.09 <
-8 3 10 6.43 6.97 0.21 o
-7 3 10 2.44 2.41 0.09 o
-6 3 10 6.75 6.75 0.20 o
-5 3 10 10.99 10.94 0.36 o
-4 3 10 10.39 10.39 0.27 o
-3 3 10 15.33 15.15 0.35 o
-2 3 10 1.17 1.13 0.05 o
-1 3 10 4.21 4.20 0.13 o
0 3 10 9.47 9.10 0.30 o
1 3 10 8.13 8.09 0.27 o
2 3 10 0.97 1.07 0.08 o
3 3 10 0.78 0.78 0.12 o
6 3 10 0.20 -0.01 0.15 <
-9 4 10 14.03 16.35 0.66 o
-8 4 10 3.09 3.21 0.13 o
-7 4 10 62.70 65.15 2.09 o
-6 4 10 15.42 16.11 0.53 o
-5 4 10 8.38 8.66 0.25 o
-4 4 10 28.79 29.49 0.82 o
-3 4 10 33.99 36.04 1.01 o
-2 4 10 0.02 0.02 0.05 <
-1 4 10 0.06 0.08 0.05 <
0 4 10 20.60 19.72 0.64 o
1 4 10 20.93 21.94 0.87 o
2 4 10 0.39 0.14 0.07 <
3 4 10 1.13 1.04 0.10 o
-10 5 10 6.29 7.19 0.44 o
-9 5 10 6.70 7.58 0.33 o
-8 5 10 0.89 1.19 0.10 o
-7 5 10 50.00 53.24 1.72 o
-6 5 10 0.02 -0.11 0.05 <
-5 5 10 3.37 3.49 0.11 o
-4 5 10 10.89 11.39 0.38 o
-3 5 10 0.99 1.32 0.06 o
-2 5 10 0.81 0.83 0.05 o
-1 5 10 2.17 2.29 0.12 o
0 5 10 2.21 1.90 0.09 o
1 5 10 0.28 0.15 0.06 <
2 5 10 1.40 1.17 0.21 o
-10 6 10 1.99 2.56 0.27 o
-9 6 10 1.20 1.14 0.16 o
-8 6 10 6.86 7.41 0.32 o
-7 6 10 2.76 3.10 0.22 o
-6 6 10 9.03 8.37 0.28 o
-5 6 10 14.19 13.41 0.44 o
-4 6 10 10.44 10.56 0.35 o
-3 6 10 3.45 3.15 0.12 o
-2 6 10 121.51 122.04 4.77 o
-1 6 10 12.76 12.79 0.42 o
0 6 10 4.42 4.75 0.17 o
1 6 10 5.85 6.83 0.41 o
-9 7 10 0.12 0.27 0.14 <
-8 7 10 0.00 0.10 0.10 <
-7 7 10 1.95 1.62 0.16 o
-6 7 10 17.37 17.64 0.71 o
-5 7 10 22.47 22.38 0.90 o
-4 7 10 4.77 4.61 0.17 o
-3 7 10 4.69 4.43 0.16 o
-2 7 10 48.49 49.06 1.58 o
-1 7 10 1.75 1.87 0.11 o
0 7 10 2.03 1.97 0.11 o
-8 8 10 0.50 0.74 0.14 o
-7 8 10 6.80 7.27 0.44 o
-6 8 10 1.22 1.33 0.11 o
-5 8 10 0.06 0.01 0.08 <
-4 8 10 8.00 9.09 0.38 o
-3 8 10 2.30 2.38 0.14 o
-2 8 10 0.58 0.54 0.15 o
-1 8 10 6.27 5.65 0.34 o
-7 9 10 3.43 4.57 0.35 o
-6 9 10 2.09 1.96 0.22 o
-5 9 10 9.42 10.01 0.43 o
-3 9 10 0.65 0.66 0.29 <
-5 10 10 0.26 0.13 0.32 <
3 -11 11 0.04 -0.07 0.17 <
-1 -10 11 0.79 0.86 0.13 o
0 -10 11 7.19 6.21 0.39 o
1 -10 11 0.33 0.49 0.19 <
2 -10 11 2.35 2.19 0.19 o
3 -10 11 0.17 0.14 0.13 <
4 -10 11 0.06 0.11 0.14 <
-3 -9 11 0.34 0.47 0.22 <
-2 -9 11 5.57 5.81 0.37 o
-1 -9 11 8.39 8.37 0.36 o
0 -9 11 2.68 2.71 0.13 o
1 -9 11 1.63 1.58 0.11 o
2 -9 11 20.21 20.47 0.58 o
3 -9 11 0.71 0.53 0.09 o
4 -9 11 0.12 -0.23 0.08 <
5 -9 11 1.97 1.84 0.17 o
6 -9 11 0.07 0.05 0.18 <
-3 -8 11 0.01 0.15 0.06 <
-2 -8 11 22.34 23.43 0.76 o
-1 -8 11 11.12 11.73 0.34 o
0 -8 11 0.24 0.09 0.06 <
1 -8 11 19.53 19.83 0.56 o
2 -8 11 10.75 11.10 0.32 o
3 -8 11 0.27 0.16 0.07 <
4 -8 11 0.00 -0.02 0.05 <
5 -8 11 0.01 -0.04 0.07 <
-5 -7 11 1.16 1.13 0.14 o
-4 -7 11 1.99 2.46 0.10 o
-3 -7 11 0.60 0.44 0.08 o
-2 -7 11 3.69 3.91 0.13 o
-1 -7 11 0.04 0.14 0.04 o
0 -7 11 0.28 0.13 0.06 <
1 -7 11 0.22 -0.14 0.11 <
2 -7 11 4.47 4.33 0.14 o
3 -7 11 1.42 1.31 0.07 o
4 -7 11 1.44 1.38 0.08 o
5 -7 11 1.95 2.06 0.10 o
6 -7 11 0.48 0.27 0.09 o
7 -7 11 0.08 -0.22 0.12 <
-6 -6 11 11.69 11.81 0.49 o
-5 -6 11 12.42 13.33 0.39 o
-4 -6 11 100.78 111.78 3.14 o
-3 -6 11 0.33 0.29 0.05 o
-2 -6 11 0.46 0.45 0.04 o
-1 -6 11 37.79 41.07 1.03 o
0 -6 11 1.54 1.96 0.07 o
1 -6 11 8.33 8.88 0.26 o
2 -6 11 0.54 0.52 0.06 o
3 -6 11 0.11 0.12 0.06 <
4 -6 11 3.33 3.24 0.13 o
5 -6 11 2.01 1.92 0.10 o
6 -6 11 2.62 2.99 0.13 o
7 -6 11 3.13 4.00 0.28 o
-7 -5 11 4.08 4.26 0.29 o
-6 -5 11 2.06 2.00 0.10 o
-5 -5 11 25.70 28.15 0.79 o
-4 -5 11 34.71 38.12 1.07 o
-3 -5 11 0.17 0.02 0.04 <
-2 -5 11 2.27 2.27 0.07 o
-1 -5 11 5.36 5.36 0.16 o
0 -5 11 1.80 1.76 0.06 o
1 -5 11 2.85 2.92 0.09 o
2 -5 11 0.59 0.50 0.04 o
3 -5 11 5.79 6.29 0.22 o
4 -5 11 0.10 0.06 0.05 <
5 -5 11 0.60 0.54 0.06 o
6 -5 11 11.97 12.41 0.42 o
7 -5 11 7.67 8.08 0.35 o
-8 -4 11 2.83 2.80 0.20 o
-7 -4 11 0.56 0.55 0.07 o
-6 -4 11 2.65 2.72 0.09 o
-5 -4 11 1.22 1.34 0.07 o
-4 -4 11 0.16 0.18 0.06 o
-3 -4 11 36.52 35.82 0.90 o
-2 -4 11 18.99 20.45 0.52 o
-1 -4 11 3.94 3.99 0.12 o
0 -4 11 21.84 20.44 0.51 o
1 -4 11 47.00 48.68 1.22 o
2 -4 11 1.17 0.87 0.05 o
3 -4 11 0.12 0.19 0.04 o
4 -4 11 0.86 1.02 0.07 o
5 -4 11 0.01 -0.18 0.06 <
6 -4 11 0.02 -0.03 0.07 <
7 -4 11 0.56 0.30 0.09 o
-9 -3 11 0.25 0.02 0.15 <
-8 -3 11 0.01 -0.28 0.07 <
-7 -3 11 22.08 22.52 0.64 o
-6 -3 11 0.16 0.09 0.05 <
-5 -3 11 3.69 3.16 0.10 o
-4 -3 11 0.31 0.49 0.05 o
-3 -3 11 22.24 23.60 0.66 o
-2 -3 11 28.45 27.25 0.68 o
-1 -3 11 8.23 7.75 0.20 o
0 -3 11 2.40 2.10 0.07 o
1 -3 11 0.00 -0.04 0.03 <
2 -3 11 0.15 0.05 0.03 <
3 -3 11 0.63 0.85 0.05 o
4 -3 11 4.74 4.74 0.15 o
5 -3 11 0.98 0.79 0.05 o
6 -3 11 0.45 0.30 0.09 o
7 -3 11 0.70 0.49 0.20 <
-9 -2 11 0.11 0.09 0.11 <
-8 -2 11 1.76 1.92 0.14 o
-7 -2 11 0.09 0.23 0.06 o
-6 -2 11 0.00 -0.08 0.04 <
-5 -2 11 22.82 21.89 0.55 o
-4 -2 11 4.79 4.65 0.17 o
-3 -2 11 0.15 0.19 0.04 o
-2 -2 11 2.86 2.06 0.07 o
-1 -2 11 0.93 0.63 0.03 o
0 -2 11 8.50 8.09 0.23 o
1 -2 11 3.47 3.80 0.13 o
2 -2 11 3.84 3.98 0.17 o
3 -2 11 0.37 0.29 0.05 o
4 -2 11 1.46 1.44 0.07 o
5 -2 11 0.88 0.69 0.06 o
6 -2 11 0.19 0.25 0.09 <
7 -2 11 1.00 0.78 0.15 o
-9 -1 11 20.59 21.60 0.87 o
-8 -1 11 5.41 5.44 0.17 o
-7 -1 11 9.89 9.60 0.25 o
-6 -1 11 59.00 58.71 1.64 o
-5 -1 11 162.86 159.52 4.43 o
-4 -1 11 0.40 0.21 0.04 o
-3 -1 11 0.40 0.65 0.04 o
-2 -1 11 47.58 41.93 1.35 o
-1 -1 11 0.02 0.04 0.02 <
0 -1 11 33.25 34.18 0.95 o
1 -1 11 1.09 1.13 0.05 o
2 -1 11 7.24 7.85 0.26 o
3 -1 11 2.92 3.31 0.15 o
4 -1 11 3.89 3.92 0.18 o
5 -1 11 18.85 19.49 0.64 o
6 -1 11 10.70 9.01 0.54 o
-9 0 11 15.31 16.20 0.66 o
-8 0 11 6.68 6.62 0.23 o
-7 0 11 1.29 1.24 0.08 o
-6 0 11 6.15 5.97 0.18 o
-5 0 11 14.07 13.68 0.35 o
-4 0 11 2.65 2.43 0.10 o
-3 0 11 0.17 0.07 0.03 <
-2 0 11 0.05 -0.02 0.03 <
-1 0 11 0.59 0.58 0.03 o
0 0 11 0.15 0.12 0.03 o
1 0 11 3.49 3.38 0.09 o
2 0 11 15.76 16.36 0.46 o
3 0 11 0.07 -0.02 0.05 <
4 0 11 0.10 -0.02 0.07 <
5 0 11 15.48 14.77 0.60 o
6 0 11 5.11 4.27 0.20 o
-9 1 11 0.94 0.59 0.14 o
-8 1 11 6.43 6.86 0.24 o
-7 1 11 6.42 6.48 0.18 o
-6 1 11 0.74 0.95 0.05 o
-5 1 11 2.44 2.95 0.09 o
-4 1 11 43.56 44.54 1.24 o
-3 1 11 11.98 11.82 0.34 o
-2 1 11 0.58 0.60 0.04 o
-1 1 11 23.47 22.91 0.64 o
0 1 11 10.47 10.74 0.31 o
1 1 11 0.22 0.38 0.04 o
2 1 11 0.12 0.17 0.07 <
3 1 11 1.15 1.17 0.07 o
4 1 11 0.12 0.25 0.07 o
5 1 11 0.04 0.04 0.12 <
6 1 11 0.29 0.26 0.12 <
-9 2 11 0.09 0.04 0.11 <
-8 2 11 18.06 19.41 0.55 o
-7 2 11 0.13 0.10 0.06 <
-6 2 11 9.03 9.33 0.27 o
-5 2 11 0.19 0.13 0.04 o
-4 2 11 0.61 0.53 0.04 o
-3 2 11 18.21 16.82 0.55 o
-2 2 11 10.00 9.07 0.26 o
-1 2 11 19.90 19.17 0.54 o
0 2 11 10.47 11.03 0.31 o
1 2 11 4.02 4.07 0.13 o
2 2 11 2.43 2.72 0.14 o
3 2 11 10.50 10.91 0.45 o
4 2 11 0.11 0.17 0.08 <
5 2 11 0.01 -0.19 0.12 <
6 2 11 0.57 0.37 0.15 <
-10 3 11 2.58 2.97 0.23 o
-9 3 11 0.47 0.41 0.13 o
-8 3 11 0.81 0.88 0.07 o
-7 3 11 12.22 12.61 0.36 o
-6 3 11 38.39 39.66 1.28 o
-5 3 11 2.32 2.66 0.11 o
-4 3 11 2.57 2.48 0.09 o
-3 3 11 5.38 5.94 0.14 o
-2 3 11 0.34 0.40 0.04 o
-1 3 11 3.31 3.53 0.11 o
0 3 11 0.07 0.11 0.05 <
1 3 11 1.01 0.70 0.10 o
2 3 11 0.01 -0.02 0.07 <
3 3 11 0.03 0.20 0.07 <
4 3 11 2.44 2.63 0.15 o
5 3 11 1.62 1.69 0.17 o
-9 4 11 3.85 4.11 0.20 o
-8 4 11 0.32 0.04 0.07 <
-7 4 11 44.17 46.60 1.50 o
-6 4 11 49.83 51.98 1.67 o
-5 4 11 0.76 0.80 0.06 o
-4 4 11 0.26 0.14 0.04 o
-3 4 11 5.53 5.99 0.21 o
-2 4 11 0.58 0.51 0.05 o
-1 4 11 17.43 17.39 0.57 o
0 4 11 0.00 0.00 0.06 <
1 4 11 13.99 14.12 0.57 o
2 4 11 0.62 0.66 0.09 o
3 4 11 1.01 0.96 0.13 o
5 4 11 6.60 5.68 0.37 o
-9 5 11 1.81 1.56 0.12 o
-8 5 11 0.97 1.21 0.10 o
-7 5 11 1.10 1.01 0.07 o
-6 5 11 2.39 2.21 0.10 o
-5 5 11 11.11 11.05 0.32 o
-4 5 11 0.49 0.31 0.06 o
-3 5 11 1.19 1.51 0.08 o
-2 5 11 7.43 7.07 0.30 o
-1 5 11 0.60 0.51 0.07 o
0 5 11 1.00 0.89 0.13 o
1 5 11 6.85 7.06 0.25 o
-9 6 11 6.96 8.45 0.51 o
-8 6 11 1.70 2.29 0.13 o
-7 6 11 0.59 0.67 0.11 o
-6 6 11 5.27 4.81 0.21 o
-5 6 11 9.32 9.24 0.31 o
-4 6 11 3.18 3.25 0.13 o
-3 6 11 4.82 4.89 0.17 o
-2 6 11 0.70 0.33 0.10 o
-1 6 11 1.16 1.32 0.09 o
0 6 11 0.05 -0.24 0.07 <
1 6 11 0.52 0.52 0.08 o
-8 7 11 0.02 -0.12 0.10 <
-7 7 11 2.03 2.15 0.18 o
-6 7 11 0.02 0.15 0.09 <
-5 7 11 3.19 3.22 0.16 o
-4 7 11 1.97 1.92 0.09 o
-3 7 11 1.37 1.41 0.09 o
-2 7 11 20.89 19.82 0.79 o
-1 7 11 5.78 5.85 0.25 o
0 7 11 2.50 2.61 0.14 o
-8 8 11 17.26 18.31 1.04 o
-7 8 11 11.97 12.53 0.73 o
-6 8 11 0.02 0.09 0.10 <
-5 8 11 2.11 2.16 0.14 o
-4 8 11 1.46 1.62 0.19 o
-3 8 11 0.14 0.17 0.15 <
-2 8 11 0.01 0.06 0.11 <
-7 9 11 2.15 2.18 0.24 o
-6 9 11 0.03 -0.15 0.18 <
-5 9 11 0.49 0.30 0.17 <
-4 9 11 0.11 0.16 0.28 <
1 -11 12 0.00 -0.05 0.20 <
2 -11 12 0.97 0.99 0.24 o
-1 -10 12 0.31 0.13 0.23 <
0 -10 12 0.91 1.05 0.19 o
1 -10 12 2.75 3.11 0.23 o
2 -10 12 1.53 1.39 0.16 o
3 -10 12 0.20 -0.13 0.25 <
4 -10 12 6.05 4.99 0.32 o
-3 -9 12 0.03 0.05 0.22 <
-2 -9 12 0.15 0.24 0.15 <
-1 -9 12 0.19 0.20 0.09 <
0 -9 12 1.30 1.21 0.10 o
1 -9 12 1.81 1.86 0.12 o
2 -9 12 6.81 6.80 0.24 o
3 -9 12 2.94 2.92 0.16 o
4 -9 12 2.49 2.22 0.23 o
-3 -8 12 12.65 13.22 0.54 o
-2 -8 12 6.31 6.30 0.23 o
-1 -8 12 12.58 12.94 0.43 o
0 -8 12 15.72 15.91 0.53 o
1 -8 12 0.02 -0.23 0.05 <
2 -8 12 76.82 77.72 2.49 o
3 -8 12 11.93 11.93 0.40 o
4 -8 12 1.44 1.20 0.08 o
5 -8 12 4.19 4.30 0.21 o
-5 -7 12 0.03 0.00 0.09 <
-4 -7 12 0.16 0.05 0.06 <
-3 -7 12 0.04 -0.10 0.12 <
-2 -7 12 9.87 10.03 0.29 o
-1 -7 12 8.54 8.56 0.29 o
0 -7 12 1.33 1.42 0.08 o
1 -7 12 2.37 2.50 0.09 o
2 -7 12 11.87 12.19 0.41 o
3 -7 12 2.24 2.07 0.10 o
4 -7 12 2.72 2.63 0.12 o
5 -7 12 0.04 0.15 0.07 <
6 -7 12 0.00 -0.16 0.09 <
7 -7 12 3.86 3.77 0.26 o
-6 -6 12 8.69 9.22 0.60 o
-5 -6 12 8.00 7.90 0.34 o
-4 -6 12 0.87 0.60 0.09 o
-3 -6 12 2.32 2.64 0.10 o
-2 -6 12 1.65 1.83 0.08 o
-1 -6 12 1.49 1.49 0.07 o
0 -6 12 6.65 7.20 0.19 o
1 -6 12 3.61 3.58 0.12 o
2 -6 12 4.86 4.80 0.17 o
3 -6 12 11.68 10.52 0.43 o
4 -6 12 20.55 21.72 0.71 o
5 -6 12 1.41 1.48 0.09 o
6 -6 12 0.41 0.39 0.07 o
-7 -5 12 0.58 0.42 0.22 <
-6 -5 12 12.04 11.59 0.48 o
-5 -5 12 0.01 -0.22 0.05 <
-4 -5 12 49.36 54.17 1.52 o
-3 -5 12 3.54 3.99 0.12 o
-2 -5 12 4.03 4.24 0.12 o
-1 -5 12 12.28 12.13 0.35 o
0 -5 12 4.71 5.28 0.16 o
1 -5 12 0.49 0.43 0.04 o
2 -5 12 0.51 0.60 0.05 o
3 -5 12 12.63 11.23 0.37 o
4 -5 12 4.64 4.96 0.18 o
5 -5 12 0.75 0.80 0.07 o
6 -5 12 0.77 0.67 0.12 o
7 -5 12 1.40 1.62 0.16 o
-7 -4 12 3.59 3.85 0.14 o
-6 -4 12 0.88 0.88 0.06 o
-5 -4 12 1.05 0.99 0.07 o
-4 -4 12 2.77 2.94 0.09 o
-3 -4 12 1.06 0.95 0.06 o
-2 -4 12 10.56 10.70 0.31 o
-1 -4 12 11.50 11.27 0.32 o
0 -4 12 5.31 5.24 0.16 o
1 -4 12 80.64 77.64 2.50 o
2 -4 12 20.18 18.25 0.59 o
3 -4 12 7.04 6.71 0.23 o
4 -4 12 4.33 4.72 0.17 o
5 -4 12 7.49 7.68 0.27 o
6 -4 12 0.01 -0.11 0.07 <
7 -4 12 0.02 0.13 0.19 <
-8 -3 12 0.13 0.19 0.08 <
-7 -3 12 0.01 -0.14 0.05 <
-6 -3 12 0.01 -0.07 0.05 <
-5 -3 12 9.31 10.02 0.26 o
-4 -3 12 20.80 21.33 0.60 o
-3 -3 12 33.99 37.66 0.95 o
-2 -3 12 55.17 55.69 1.39 o
-1 -3 12 32.58 31.69 0.89 o
0 -3 12 4.84 4.52 0.14 o
1 -3 12 191.59 196.59 7.78 o
2 -3 12 12.34 11.32 0.46 o
3 -3 12 3.57 3.79 0.14 o
4 -3 12 6.47 6.11 0.21 o
5 -3 12 3.35 3.37 0.11 o
6 -3 12 0.00 0.00 0.13 <
7 -3 12 0.01 -0.05 0.12 <
-8 -2 12 3.40 3.56 0.15 o
-7 -2 12 0.05 0.02 0.06 <
-6 -2 12 3.92 4.14 0.12 o
-5 -2 12 2.49 2.33 0.08 o
-4 -2 12 1.84 1.67 0.08 o
-3 -2 12 14.79 14.47 0.47 o
-2 -2 12 10.87 10.29 0.29 o
-1 -2 12 7.99 6.62 0.19 o
0 -2 12 0.16 0.23 0.04 o
1 -2 12 4.04 4.12 0.15 o
2 -2 12 4.84 4.82 0.21 o
3 -2 12 8.63 8.87 0.36 o
4 -2 12 0.38 0.29 0.06 o
5 -2 12 0.01 0.01 0.07 <
6 -2 12 9.95 9.07 0.54 o
-9 -1 12 0.07 -0.12 0.15 <
-8 -1 12 0.01 -0.19 0.07 <
-7 -1 12 25.07 25.69 0.65 o
-6 -1 12 10.66 10.88 0.32 o
-5 -1 12 56.20 54.19 1.51 o
-4 -1 12 16.92 17.01 0.56 o
-3 -1 12 10.62 8.59 0.29 o
-2 -1 12 22.46 20.09 0.56 o
-1 -1 12 28.26 25.61 0.64 o
0 -1 12 0.72 0.72 0.04 o
1 -1 12 1.14 1.28 0.05 o
2 -1 12 19.65 18.39 0.73 o
3 -1 12 23.65 23.77 0.77 o
4 -1 12 0.73 0.63 0.08 o
5 -1 12 0.60 0.33 0.08 o
6 -1 12 10.15 8.45 0.51 o
-9 0 12 6.92 7.54 0.46 o
-8 0 12 7.88 8.25 0.28 o
-7 0 12 12.86 13.34 0.39 o
-6 0 12 1.01 1.30 0.06 o
-5 0 12 80.62 81.07 2.25 o
-4 0 12 0.75 0.81 0.04 o
-3 0 12 4.07 3.80 0.12 o
-2 0 12 14.80 13.79 0.39 o
-1 0 12 0.72 0.67 0.03 o
0 0 12 1.14 1.48 0.06 o
1 0 12 2.25 2.47 0.09 o
2 0 12 6.21 6.31 0.22 o
3 0 12 0.95 0.82 0.08 o
4 0 12 1.24 1.05 0.10 o
5 0 12 0.02 -0.07 0.08 <
6 0 12 0.01 -0.26 0.10 <
-9 1 12 0.97 1.30 0.11 o
-8 1 12 4.45 5.16 0.19 o
-7 1 12 0.15 0.22 0.07 o
-6 1 12 8.19 8.07 0.21 o
-5 1 12 9.49 10.01 0.29 o
-4 1 12 9.49 9.76 0.28 o
-3 1 12 31.18 31.58 0.89 o
-2 1 12 20.72 19.64 0.64 o
-1 1 12 0.00 -0.07 0.03 <
0 1 12 163.49 159.53 6.27 o
1 1 12 21.96 21.61 0.61 o
2 1 12 6.91 7.65 0.26 o
3 1 12 6.48 6.67 0.23 o
4 1 12 7.48 7.17 0.31 o
5 1 12 0.03 -0.04 0.09 <
6 1 12 0.03 0.28 0.12 <
-9 2 12 1.38 1.64 0.11 o
-8 2 12 2.95 2.89 0.13 o
-7 2 12 0.50 0.68 0.07 o
-6 2 12 0.53 0.82 0.06 o
-5 2 12 8.28 8.31 0.22 o
-4 2 12 37.45 37.65 1.05 o
-3 2 12 54.35 51.21 1.64 o
-2 2 12 14.37 13.71 0.39 o
-1 2 12 7.27 6.50 0.17 o
0 2 12 103.02 106.46 4.16 o
1 2 12 5.19 5.34 0.19 o
2 2 12 1.70 1.65 0.08 o
3 2 12 1.24 1.29 0.08 o
4 2 12 1.33 1.14 0.14 o
5 2 12 0.15 -0.02 0.11 <
-9 3 12 1.68 1.78 0.10 o
-8 3 12 0.04 0.16 0.07 <
-7 3 12 9.01 10.06 0.34 o
-6 3 12 0.14 0.18 0.06 o
-5 3 12 11.25 11.57 0.39 o
-4 3 12 6.02 6.08 0.18 o
-3 3 12 0.93 1.05 0.06 o
-2 3 12 12.36 11.65 0.39 o
-1 3 12 1.73 1.69 0.08 o
0 3 12 0.32 0.23 0.05 o
1 3 12 7.79 7.94 0.27 o
2 3 12 6.26 7.06 0.30 o
3 3 12 0.61 0.57 0.13 o
4 3 12 0.28 -0.12 0.11 <
-9 4 12 2.46 3.20 0.25 o
-8 4 12 19.37 21.14 0.69 o
-7 4 12 0.43 0.30 0.07 o
-6 4 12 101.43 106.89 3.42 o
-5 4 12 11.92 13.14 0.44 o
-4 4 12 8.86 9.14 0.31 o
-3 4 12 25.37 24.99 0.99 o
-2 4 12 18.64 19.58 0.64 o
-1 4 12 0.51 0.53 0.06 o
0 4 12 0.33 0.22 0.06 o
1 4 12 6.05 5.46 0.34 o
2 4 12 6.19 6.02 0.38 o
4 4 12 0.00 -0.42 0.14 <
-9 5 12 9.88 11.98 0.70 o
-8 5 12 4.57 5.11 0.23 o
-7 5 12 0.07 0.11 0.05 <
-6 5 12 24.87 26.84 0.87 o
-5 5 12 0.44 0.64 0.08 o
-4 5 12 0.25 0.26 0.06 o
-3 5 12 1.37 1.50 0.08 o
-2 5 12 0.55 0.56 0.07 o
-1 5 12 6.23 6.33 0.27 o
0 5 12 2.39 2.36 0.11 o
1 5 12 0.48 0.31 0.12 <
2 5 12 0.09 0.11 0.09 <
-8 6 12 2.26 2.70 0.21 o
-7 6 12 7.02 8.55 0.36 o
-6 6 12 3.05 3.10 0.16 o
-5 6 12 13.95 13.59 0.45 o
-4 6 12 16.46 16.23 0.54 o
-3 6 12 6.19 6.11 0.26 o
-2 6 12 4.45 4.09 0.19 o
-1 6 12 68.50 71.41 2.80 o
0 6 12 5.08 5.08 0.23 o
1 6 12 2.05 2.37 0.19 o
-8 7 12 0.01 0.08 0.18 <
-7 7 12 0.52 0.56 0.15 o
-6 7 12 1.23 1.26 0.15 o
-5 7 12 8.85 9.48 0.40 o
-4 7 12 12.22 11.14 0.47 o
-3 7 12 1.56 1.51 0.10 o
-2 7 12 0.52 0.17 0.11 <
-1 7 12 11.54 11.28 0.66 o
0 7 12 1.47 1.37 0.15 o
-7 8 12 5.90 6.10 0.39 o
-6 8 12 7.07 6.82 0.42 o
-5 8 12 0.69 0.84 0.13 o
-4 8 12 0.65 0.49 0.18 <
-2 8 12 0.84 0.88 0.13 o
-6 9 12 1.76 1.79 0.18 o
-1 -10 13 0.02 0.13 0.29 <
0 -10 13 1.38 1.40 0.18 o
1 -10 13 1.76 1.60 0.16 o
2 -10 13 0.53 0.77 0.13 o
3 -10 13 0.38 0.61 0.22 <
4 -10 13 0.01 -0.11 0.15 <
-2 -9 13 0.75 0.90 0.19 o
-1 -9 13 7.20 8.11 0.35 o
0 -9 13 6.97 7.00 0.43 o
1 -9 13 1.21 1.05 0.14 o
2 -9 13 2.66 1.84 0.17 o
3 -9 13 10.98 9.50 0.57 o
4 -9 13 0.35 0.34 0.12 <
5 -9 13 0.13 -0.43 0.23 <
-3 -8 13 0.30 0.31 0.11 <
-2 -8 13 0.09 0.16 0.08 <
-1 -8 13 10.48 11.06 0.37 o
0 -8 13 6.83 6.62 0.29 o
1 -8 13 1.89 1.99 0.10 o
2 -8 13 4.58 4.39 0.17 o
3 -8 13 0.27 0.30 0.08 o
4 -8 13 0.01 -0.03 0.08 <
5 -8 13 0.03 0.00 0.16 <
-5 -7 13 0.05 0.18 0.16 <
-4 -7 13 0.65 0.76 0.09 o
-3 -7 13 7.45 7.66 0.27 o
-2 -7 13 1.16 1.09 0.06 o
-1 -7 13 0.73 0.84 0.07 o
0 -7 13 0.81 0.96 0.07 o
1 -7 13 0.00 -0.07 0.06 <
2 -7 13 0.68 0.65 0.08 o
3 -7 13 2.84 2.86 0.12 o
4 -7 13 0.61 0.34 0.10 o
5 -7 13 0.62 0.47 0.11 o
6 -7 13 0.33 0.22 0.20 <
-6 -6 13 4.44 4.68 0.36 o
-5 -6 13 9.22 9.58 0.40 o
-4 -6 13 22.20 23.11 0.76 o
-3 -6 13 89.66 93.88 2.62 o
-2 -6 13 0.01 0.03 0.05 <
-1 -6 13 0.04 0.13 0.05 <
0 -6 13 21.70 22.35 0.63 o
1 -6 13 0.09 0.06 0.06 <
2 -6 13 7.28 7.58 0.26 o
3 -6 13 0.17 0.16 0.07 <
4 -6 13 0.69 0.73 0.10 o
5 -6 13 0.87 0.78 0.09 o
6 -6 13 1.04 0.89 0.13 o
-7 -5 13 12.86 14.08 0.81 o
-6 -5 13 4.54 4.69 0.18 o
-5 -5 13 0.29 0.25 0.06 o
-4 -5 13 11.15 11.70 0.39 o
-3 -5 13 8.95 9.98 0.29 o
-2 -5 13 0.56 0.46 0.05 o
-1 -5 13 3.11 3.11 0.11 o
0 -5 13 0.01 -0.02 0.05 <
1 -5 13 0.33 0.53 0.05 o
2 -5 13 0.04 0.06 0.05 <
3 -5 13 1.05 0.87 0.08 o
4 -5 13 3.79 3.77 0.18 o
5 -5 13 0.01 0.20 0.08 <
6 -5 13 0.04 0.04 0.10 <
-7 -4 13 1.59 1.71 0.13 o
-6 -4 13 4.39 4.86 0.14 o
-5 -4 13 3.24 3.57 0.11 o
-4 -4 13 0.59 0.69 0.05 o
-3 -4 13 0.02 0.05 0.05 <
-2 -4 13 28.00 28.46 0.80 o
-1 -4 13 14.32 14.65 0.42 o
0 -4 13 0.07 0.19 0.04 o
1 -4 13 10.41 9.74 0.28 o
2 -4 13 11.33 11.61 0.39 o
3 -4 13 0.58 0.54 0.06 o
4 -4 13 0.06 -0.12 0.06 <
5 -4 13 0.02 0.22 0.10 <
6 -4 13 0.02 -0.11 0.20 <
-8 -3 13 0.53 0.55 0.09 o
-7 -3 13 0.16 0.26 0.06 o
-6 -3 13 22.00 23.04 0.53 o
-5 -3 13 0.09 0.11 0.04 <
-4 -3 13 6.40 6.58 0.18 o
-3 -3 13 0.10 0.05 0.04 <
-2 -3 13 3.64 3.71 0.12 o
-1 -3 13 13.39 13.37 0.38 o
0 -3 13 7.59 7.40 0.22 o
1 -3 13 1.85 1.68 0.07 o
2 -3 13 4.48 4.31 0.16 o
3 -3 13 0.80 0.90 0.08 o
4 -3 13 0.12 0.34 0.06 o
5 -3 13 3.45 3.00 0.15 o
6 -3 13 0.38 0.13 0.18 <
-8 -2 13 2.14 2.07 0.13 o
-7 -2 13 3.08 3.20 0.10 o
-6 -2 13 2.18 2.35 0.08 o
-5 -2 13 2.59 2.48 0.08 o
-4 -2 13 42.76 40.22 1.30 o
-3 -2 13 3.32 3.55 0.13 o
-2 -2 13 0.20 0.17 0.03 o
-1 -2 13 6.22 5.42 0.16 o
0 -2 13 0.44 0.40 0.04 o
1 -2 13 2.27 2.12 0.09 o
2 -2 13 1.42 1.24 0.07 o
3 -2 13 0.47 0.56 0.07 o
4 -2 13 0.25 0.07 0.08 <
5 -2 13 0.05 0.09 0.07 <
6 -2 13 1.44 1.50 0.16 o
-9 -1 13 0.30 0.14 0.12 <
-8 -1 13 27.12 28.26 0.80 o
-7 -1 13 8.66 8.65 0.23 o
-6 -1 13 3.30 3.22 0.11 o
-5 -1 13 52.69 52.66 1.47 o
-4 -1 13 92.36 90.62 2.91 o
-3 -1 13 0.24 0.17 0.04 o
-2 -1 13 0.07 0.23 0.03 o
-1 -1 13 12.31 12.39 0.32 o
0 -1 13 0.28 0.35 0.04 o
1 -1 13 13.71 14.78 0.42 o
2 -1 13 0.00 -0.05 0.05 <
3 -1 13 7.86 8.54 0.36 o
4 -1 13 0.59 0.66 0.08 o
5 -1 13 1.06 0.93 0.09 o
6 -1 13 9.43 9.63 0.58 o
-9 0 13 1.19 1.38 0.26 o
-8 0 13 9.15 10.07 0.34 o
-7 0 13 4.69 4.81 0.16 o
-6 0 13 0.49 0.42 0.05 o
-5 0 13 0.00 -0.25 0.05 <
-4 0 13 1.94 1.94 0.08 o
-3 0 13 9.16 8.85 0.26 o
-2 0 13 0.47 0.55 0.04 o
-1 0 13 1.58 1.50 0.05 o
0 0 13 1.92 1.92 0.08 o
1 0 13 0.89 1.35 0.07 o
2 0 13 1.86 1.74 0.08 o
3 0 13 5.65 5.63 0.20 o
4 0 13 0.01 0.10 0.08 <
5 0 13 0.01 -0.06 0.11 <
-9 1 13 0.61 0.48 0.16 <
-8 1 13 0.19 0.38 0.08 o
-7 1 13 14.66 14.97 0.44 o
-6 1 13 3.95 4.14 0.12 o
-5 1 13 0.39 0.21 0.04 o
-4 1 13 2.66 2.92 0.10 o
-3 1 13 18.63 17.58 0.58 o
-2 1 13 9.84 9.56 0.32 o
-1 1 13 3.53 3.48 0.11 o
0 1 13 2.04 1.70 0.08 o
1 1 13 0.02 0.22 0.05 o
2 1 13 0.51 0.69 0.07 o
3 1 13 0.13 -0.02 0.06 <
4 1 13 2.16 2.24 0.14 o
5 1 13 0.09 -0.04 0.11 <
6 1 13 0.00 0.04 0.23 <
-9 2 13 0.42 0.49 0.09 o
-8 2 13 0.15 0.02 0.10 <
-7 2 13 10.42 10.96 0.33 o
-6 2 13 0.17 0.10 0.07 <
-5 2 13 5.20 5.42 0.17 o
-4 2 13 0.07 -0.02 0.05 <
-3 2 13 1.76 1.74 0.08 o
-2 2 13 6.25 5.77 0.20 o
-1 2 13 4.53 4.33 0.16 o
0 2 13 22.46 22.32 0.72 o
1 2 13 9.15 9.48 0.32 o
2 2 13 2.66 2.96 0.12 o
3 2 13 0.63 0.92 0.13 o
4 2 13 3.73 3.91 0.27 o
5 2 13 0.12 -0.38 0.12 <
-9 3 13 8.09 8.48 0.37 o
-8 3 13 0.80 0.93 0.10 o
-7 3 13 1.27 1.27 0.08 o
-6 3 13 23.80 24.70 0.80 o
-5 3 13 40.64 42.95 1.38 o
-4 3 13 0.66 0.77 0.06 o
-3 3 13 2.14 2.01 0.09 o
-2 3 13 4.48 4.49 0.16 o
-1 3 13 0.00 0.07 0.05 <
0 3 13 0.07 0.03 0.05 <
1 3 13 0.11 0.13 0.05 <
2 3 13 0.11 0.23 0.07 o
3 3 13 0.05 0.04 0.10 <
4 3 13 0.02 -0.01 0.12 <
-8 4 13 5.87 6.40 0.23 o
-7 4 13 0.17 0.28 0.06 o
-6 4 13 18.95 20.56 0.67 o
-5 4 13 16.15 16.99 0.56 o
-4 4 13 0.00 0.04 0.05 <
-3 4 13 0.43 0.38 0.06 o
-2 4 13 0.03 0.07 0.06 <
-1 4 13 0.15 0.21 0.07 o
0 4 13 4.44 4.66 0.15 o
1 4 13 0.23 0.21 0.08 <
2 4 13 8.09 8.41 0.36 o
3 4 13 0.08 0.48 0.12 o
-8 5 13 0.39 0.43 0.11 o
-7 5 13 0.79 1.06 0.08 o
-6 5 13 3.74 3.89 0.15 o
-5 5 13 0.70 0.38 0.06 o
-4 5 13 11.65 10.61 0.44 o
-3 5 13 0.09 0.21 0.06 o
-2 5 13 0.47 0.61 0.07 o
-1 5 13 3.82 3.99 0.19 o
0 5 13 0.23 0.11 0.10 <
1 5 13 0.43 0.02 0.07 <
2 5 13 1.68 1.48 0.12 o
3 5 13 0.15 -0.25 0.24 <
-8 6 13 8.48 10.33 0.61 o
-7 6 13 0.30 0.46 0.14 o
-6 6 13 3.28 3.05 0.15 o
-5 6 13 2.73 2.57 0.13 o
-4 6 13 1.11 0.61 0.07 o
-3 6 13 2.93 2.91 0.14 o
-2 6 13 3.70 3.80 0.26 o
-1 6 13 1.81 1.69 0.16 o
0 6 13 3.17 3.36 0.24 o
-8 7 13 0.86 0.79 0.22 o
-7 7 13 0.60 0.71 0.16 o
-5 7 13 0.21 0.10 0.11 <
-4 7 13 5.15 5.08 0.32 o
-3 7 13 0.31 0.29 0.07 o
-2 7 13 0.44 0.41 0.12 o
-7 8 13 16.26 15.33 0.92 o
-5 8 13 0.01 -0.05 0.14 <
-4 8 13 0.81 0.74 0.12 o
-5 9 13 0.17 -0.02 0.31 <
1 -10 14 0.85 0.71 0.14 o
3 -10 14 0.50 0.41 0.18 <
-1 -9 14 0.25 -0.11 0.23 <
0 -9 14 1.87 1.70 0.17 o
1 -9 14 2.00 1.98 0.17 o
2 -9 14 1.54 1.07 0.20 o
3 -9 14 10.04 8.08 0.49 o
4 -9 14 3.22 3.02 0.24 o
5 -9 14 1.02 0.86 0.20 o
-4 -8 14 0.18 0.14 0.26 <
-3 -8 14 5.29 6.43 0.40 o
-2 -8 14 7.72 8.05 0.36 o
-1 -8 14 7.51 7.04 0.30 o
0 -8 14 12.33 12.58 0.42 o
1 -8 14 6.57 6.12 0.27 o
2 -8 14 0.41 0.24 0.11 <
3 -8 14 39.31 34.96 1.96 o
4 -8 14 4.79 3.79 0.27 o
5 -8 14 0.23 0.79 0.20 o
-5 -7 14 0.17 0.01 0.22 <
-4 -7 14 0.52 0.29 0.08 o
-3 -7 14 0.54 0.41 0.07 o
-2 -7 14 0.00 -0.08 0.08 <
-1 -7 14 5.83 6.05 0.22 o
0 -7 14 3.85 3.67 0.15 o
1 -7 14 0.67 0.68 0.09 o
2 -7 14 0.50 0.56 0.09 o
3 -7 14 1.53 1.43 0.11 o
4 -7 14 1.38 1.29 0.14 o
5 -7 14 2.81 2.62 0.20 o
6 -7 14 0.02 -0.20 0.35 <
-6 -6 14 0.06 -0.15 0.13 <
-5 -6 14 13.25 14.43 0.48 o
-4 -6 14 8.43 9.13 0.31 o
-3 -6 14 11.84 12.32 0.42 o
-2 -6 14 6.65 6.92 0.21 o
-1 -6 14 2.36 2.40 0.09 o
0 -6 14 3.51 3.61 0.12 o
1 -6 14 7.39 8.28 0.28 o
2 -6 14 1.05 1.02 0.09 o
3 -6 14 1.01 0.78 0.09 o
4 -6 14 5.66 4.59 0.30 o
5 -6 14 7.61 6.41 0.40 o
6 -6 14 0.20 0.32 0.13 <
-7 -5 14 3.97 3.88 0.27 o
-6 -5 14 2.87 2.55 0.21 o
-5 -5 14 7.24 7.84 0.27 o
-4 -5 14 0.17 0.06 0.06 <
-3 -5 14 39.52 42.04 1.36 o
-2 -5 14 2.25 2.42 0.09 o
-1 -5 14 1.04 1.05 0.06 o
0 -5 14 4.81 4.66 0.15 o
1 -5 14 0.68 0.67 0.06 o
2 -5 14 1.19 0.96 0.07 o
3 -5 14 0.73 0.75 0.09 o
4 -5 14 3.99 3.38 0.24 o
5 -5 14 0.58 0.12 0.15 <
6 -5 14 0.39 0.12 0.23 <
-7 -4 14 0.54 0.53 0.15 o
-6 -4 14 3.32 3.71 0.13 o
-5 -4 14 0.62 0.48 0.08 o
-4 -4 14 3.43 3.43 0.12 o
-3 -4 14 8.52 8.71 0.30 o
-2 -4 14 3.76 3.65 0.12 o
-1 -4 14 18.51 19.03 0.54 o
0 -4 14 10.61 10.60 0.31 o
1 -4 14 1.17 1.08 0.07 o
2 -4 14 64.33 63.40 2.06 o
3 -4 14 11.48 11.73 0.48 o
4 -4 14 2.60 2.19 0.18 o
5 -4 14 2.16 2.28 0.19 o
-8 -3 14 0.19 0.34 0.19 <
-7 -3 14 0.85 1.00 0.09 o
-6 -3 14 0.62 0.59 0.06 o
-5 -3 14 0.37 0.31 0.07 o
-4 -3 14 2.84 3.18 0.12 o
-3 -3 14 8.99 8.95 0.26 o
-2 -3 14 25.06 26.63 0.75 o
-1 -3 14 36.15 38.39 1.08 o
0 -3 14 9.40 9.44 0.27 o
1 -3 14 3.55 2.97 0.12 o
2 -3 14 62.89 64.76 2.09 o
3 -3 14 4.64 4.07 0.19 o
4 -3 14 0.25 0.38 0.07 o
5 -3 14 0.89 0.83 0.08 o
-8 -2 14 1.15 1.28 0.15 o
-7 -2 14 2.19 2.44 0.09 o
-6 -2 14 0.24 0.32 0.05 o
-5 -2 14 7.62 7.95 0.21 o
-4 -2 14 0.01 -0.01 0.05 <
-3 -2 14 4.73 4.67 0.17 o
-2 -2 14 8.30 8.35 0.28 o
-1 -2 14 1.65 1.62 0.06 o
0 -2 14 6.02 5.47 0.17 o
1 -2 14 0.08 0.10 0.04 <
2 -2 14 0.14 -0.05 0.05 <
3 -2 14 3.67 4.02 0.19 o
4 -2 14 5.72 5.86 0.26 o
5 -2 14 0.27 0.01 0.11 <
-9 -1 14 5.48 5.92 0.44 o
-8 -1 14 1.35 1.36 0.09 o
-7 -1 14 2.48 2.58 0.09 o
-6 -1 14 30.03 30.23 0.85 o
-5 -1 14 4.70 4.74 0.15 o
-4 -1 14 93.48 90.00 2.90 o
-3 -1 14 15.55 15.95 0.52 o
-2 -1 14 9.12 8.24 0.24 o
-1 -1 14 18.25 17.52 0.49 o
0 -1 14 15.24 15.41 0.44 o
1 -1 14 0.00 -0.13 0.05 <
2 -1 14 0.04 0.17 0.07 <
3 -1 14 6.07 5.26 0.23 o
4 -1 14 6.47 6.20 0.27 o
5 -1 14 0.05 0.02 0.08 <
-9 0 14 0.26 0.20 0.16 <
-8 0 14 7.36 8.57 0.30 o
-7 0 14 12.42 13.25 0.38 o
-6 0 14 6.30 6.62 0.20 o
-5 0 14 0.40 0.46 0.05 o
-4 0 14 37.63 38.14 1.07 o
-3 0 14 1.06 1.01 0.05 o
-2 0 14 0.06 -0.07 0.04 <
-1 0 14 2.15 1.96 0.08 o
0 0 14 0.06 -0.04 0.05 <
1 0 14 5.83 5.79 0.20 o
2 0 14 2.46 2.57 0.12 o
3 0 14 1.60 1.54 0.11 o
4 0 14 0.00 -0.02 0.08 <
-9 1 14 0.01 0.11 0.09 <
-8 1 14 0.83 1.21 0.10 o
-7 1 14 1.45 1.45 0.09 o
-6 1 14 1.01 1.01 0.08 o
-5 1 14 8.75 9.22 0.27 o
-4 1 14 10.00 10.34 0.30 o
-3 1 14 14.80 14.57 0.48 o
-2 1 14 31.28 31.11 1.00 o
-1 1 14 11.37 10.80 0.36 o
0 1 14 0.83 0.78 0.06 o
1 1 14 84.60 84.06 2.72 o
2 1 14 8.84 8.09 0.34 o
3 1 14 2.21 2.54 0.14 o
-9 2 14 0.13 -0.04 0.13 <
-8 2 14 2.62 2.79 0.15 o
-7 2 14 5.37 5.42 0.20 o
-6 2 14 0.27 0.26 0.08 o
-5 2 14 0.17 0.15 0.05 <
-4 2 14 3.65 3.47 0.11 o
-3 2 14 18.97 18.35 0.60 o
-2 2 14 26.25 25.16 0.82 o
-1 2 14 3.40 3.18 0.12 o
0 2 14 1.48 1.39 0.07 o
1 2 14 22.76 22.52 0.73 o
2 2 14 2.69 3.05 0.16 o
3 2 14 0.03 -0.09 0.10 <
4 2 14 0.00 0.20 0.12 <
5 2 14 0.21 0.01 0.15 <
-9 3 14 0.95 1.08 0.13 o
-8 3 14 0.25 0.22 0.09 <
-7 3 14 1.80 1.83 0.10 o
-6 3 14 7.48 8.35 0.29 o
-5 3 14 8.25 8.49 0.29 o
-4 3 14 12.51 12.32 0.36 o
-3 3 14 3.64 3.36 0.14 o
-2 3 14 0.42 0.36 0.07 o
-1 3 14 8.67 8.68 0.30 o
0 3 14 0.72 0.62 0.06 o
1 3 14 0.03 0.00 0.07 <
2 3 14 3.65 3.48 0.17 o
3 3 14 2.91 3.06 0.23 o
4 3 14 0.13 -0.15 0.15 <
-8 4 14 7.07 8.01 0.28 o
-7 4 14 16.80 18.63 0.61 o
-6 4 14 0.11 0.11 0.05 <
-5 4 14 94.36 94.02 3.69 o
-4 4 14 6.71 6.67 0.28 o
-3 4 14 5.57 5.75 0.25 o
-2 4 14 12.88 12.74 0.43 o
-1 4 14 7.09 7.43 0.26 o
0 4 14 0.36 0.27 0.09 <
1 4 14 0.14 0.12 0.10 <
2 4 14 1.06 0.42 0.11 o
-8 5 14 9.58 12.04 0.50 o
-7 5 14 2.65 2.79 0.14 o
-6 5 14 0.39 0.51 0.09 o
-5 5 14 6.99 7.12 0.30 o
-4 5 14 1.79 1.52 0.10 o
-3 5 14 0.36 0.35 0.07 o
-2 5 14 0.03 -0.08 0.08 <
-1 5 14 0.56 0.65 0.08 o
0 5 14 8.78 10.32 0.61 o
1 5 14 1.64 1.74 0.17 o
-8 6 14 0.10 0.12 0.16 <
-7 6 14 2.91 3.77 0.26 o
-6 6 14 3.44 4.04 0.27 o
-5 6 14 1.51 1.49 0.09 o
-4 6 14 11.73 10.41 0.43 o
-3 6 14 12.41 11.28 0.66 o
-2 6 14 1.91 2.06 0.13 o
-1 6 14 2.44 2.01 0.18 o
0 6 14 24.99 26.63 1.50 o
-7 7 14 0.03 0.13 0.19 <
-6 7 14 0.46 0.49 0.12 o
-5 7 14 0.95 0.92 0.14 o
-4 7 14 3.00 2.89 0.22 o
-3 7 14 4.18 4.09 0.28 o
-2 7 14 0.56 0.44 0.14 o
-1 7 14 0.02 -0.30 0.20 <
-7 8 14 0.30 0.73 0.21 o
2 -10 15 0.11 -0.24 0.32 <
0 -9 15 5.48 5.23 0.34 o
1 -9 15 4.35 3.77 0.26 o
2 -9 15 0.08 0.13 0.13 <
3 -9 15 1.76 1.55 0.17 o
4 -9 15 3.10 2.72 0.33 o
-1 -8 15 0.11 0.04 0.10 <
0 -8 15 2.81 3.28 0.17 o
1 -8 15 2.84 2.74 0.21 o
2 -8 15 1.90 1.52 0.18 o
3 -8 15 0.19 0.01 0.11 <
4 -8 15 0.54 0.00 0.14 <
5 -8 15 0.01 -0.13 0.17 <
-4 -7 15 1.11 1.09 0.21 o
-3 -7 15 0.00 -0.24 0.12 <
-2 -7 15 13.90 15.47 0.51 o
-1 -7 15 1.14 1.25 0.10 o
0 -7 15 0.03 -0.03 0.09 <
1 -7 15 1.99 1.64 0.11 o
2 -7 15 0.03 -0.16 0.08 <
3 -7 15 0.26 0.13 0.08 <
4 -7 15 1.08 1.28 0.14 o
5 -7 15 0.04 -0.03 0.16 <
-5 -6 15 5.60 6.05 0.22 o
-4 -6 15 3.43 3.59 0.18 o
-3 -6 15 22.36 24.02 0.79 o
-2 -6 15 49.75 52.54 1.47 o
-1 -6 15 0.00 0.00 0.05 <
0 -6 15 0.04 0.12 0.05 <
1 -6 15 6.96 7.17 0.31 o
2 -6 15 0.06 0.28 0.11 <
3 -6 15 3.18 3.47 0.17 o
4 -6 15 0.00 -0.02 0.10 <
5 -6 15 1.25 1.46 0.19 o
-6 -5 15 7.98 8.59 0.37 o
-5 -5 15 2.94 2.78 0.12 o
-4 -5 15 0.00 0.09 0.08 <
-3 -5 15 1.91 2.13 0.10 o
-2 -5 15 0.64 0.69 0.06 o
-1 -5 15 2.50 2.38 0.09 o
0 -5 15 2.66 2.55 0.11 o
1 -5 15 0.48 0.33 0.06 o
2 -5 15 0.00 0.04 0.06 <
3 -5 15 0.62 0.61 0.08 o
4 -5 15 0.83 0.59 0.10 o
5 -5 15 1.68 1.49 0.15 o
6 -5 15 0.01 -0.11 0.20 <
-7 -4 15 0.58 0.50 0.10 o
-6 -4 15 0.63 0.67 0.09 o
-5 -4 15 10.10 11.00 0.32 o
-4 -4 15 2.49 2.68 0.11 o
-3 -4 15 0.05 -0.04 0.05 <
-2 -4 15 0.08 0.19 0.06 o
-1 -4 15 12.05 12.37 0.36 o
0 -4 15 8.45 8.63 0.25 o
1 -4 15 0.87 0.64 0.06 o
2 -4 15 1.75 1.41 0.08 o
3 -4 15 0.65 0.49 0.08 o
4 -4 15 0.40 0.36 0.08 o
5 -4 15 0.02 -0.18 0.11 <
-8 -3 15 21.22 22.80 1.29 o
-7 -3 15 0.44 0.45 0.14 o
-6 -3 15 0.53 0.50 0.07 o
-5 -3 15 12.44 13.17 0.34 o
-4 -3 15 0.43 0.56 0.06 o
-3 -3 15 3.50 3.60 0.14 o
-2 -3 15 0.02 -0.01 0.05 <
-1 -3 15 0.00 -0.07 0.04 <
0 -3 15 3.77 3.81 0.12 o
1 -3 15 3.46 3.35 0.13 o
2 -3 15 5.01 5.35 0.19 o
3 -3 15 4.94 4.80 0.18 o
4 -3 15 0.55 0.68 0.09 o
5 -3 15 0.01 0.00 0.12 <
-8 -2 15 0.03 0.11 0.12 <
-7 -2 15 7.00 7.27 0.20 o
-6 -2 15 3.99 4.42 0.13 o
-5 -2 15 3.50 3.64 0.11 o
-4 -2 15 8.86 8.40 0.29 o
-3 -2 15 44.09 43.66 1.41 o
-2 -2 15 1.54 1.61 0.08 o
-1 -2 15 0.56 0.45 0.05 o
0 -2 15 4.76 4.70 0.17 o
1 -2 15 0.08 -0.02 0.05 <
2 -2 15 0.17 0.12 0.10 <
3 -2 15 0.56 0.71 0.09 o
4 -2 15 0.07 0.03 0.09 <
5 -2 15 0.11 -0.05 0.08 <
-9 -1 15 0.49 -0.11 0.18 <
-8 -1 15 0.15 0.08 0.13 <
-7 -1 15 22.87 25.11 0.64 o
-6 -1 15 10.24 10.79 0.28 o
-5 -1 15 0.05 -0.06 0.05 <
-4 -1 15 26.03 25.27 0.84 o
-3 -1 15 30.26 30.90 1.00 o
-2 -1 15 0.03 -0.02 0.05 <
-1 -1 15 0.00 0.09 0.04 <
0 -1 15 0.93 0.89 0.06 o
1 -1 15 0.24 0.14 0.07 <
2 -1 15 3.25 3.26 0.16 o
3 -1 15 0.18 0.13 0.07 <
4 -1 15 4.59 5.33 0.34 o
5 -1 15 0.06 0.13 0.16 <
-9 0 15 0.90 0.91 0.13 o
-7 0 15 3.23 3.71 0.15 o
-6 0 15 1.27 1.48 0.08 o
-5 0 15 0.30 0.35 0.06 o
-4 0 15 1.58 1.44 0.08 o
-3 0 15 0.03 -0.15 0.06 <
-2 0 15 10.09 9.21 0.31 o
-1 0 15 0.62 0.64 0.05 o
0 0 15 0.90 0.78 0.06 o
1 0 15 1.22 1.37 0.08 o
2 0 15 0.54 0.62 0.07 o
3 0 15 0.90 0.34 0.11 o
4 0 15 1.55 1.45 0.11 o
5 0 15 0.05 -0.16 0.15 <
-9 1 15 31.04 34.74 1.94 o
-8 1 15 0.14 0.12 0.10 <
-7 1 15 0.00 0.15 0.09 <
-6 1 15 17.57 18.19 0.60 o
-5 1 15 1.19 1.18 0.08 o
-4 1 15 3.36 3.36 0.11 o
-3 1 15 1.65 1.47 0.07 o
-2 1 15 3.15 2.71 0.11 o
-1 1 15 5.98 6.21 0.22 o
0 1 15 3.97 4.37 0.14 o
1 1 15 0.68 1.03 0.10 o
2 1 15 1.54 1.68 0.09 o
3 1 15 0.59 0.78 0.22 o
4 1 15 0.08 0.22 0.12 <
-9 2 15 12.44 12.98 0.75 o
-8 2 15 0.00 0.26 0.08 o
-7 2 15 0.16 0.24 0.07 o
-6 2 15 2.84 3.24 0.14 o
-5 2 15 0.02 0.02 0.06 <
-4 2 15 0.69 0.67 0.07 o
-3 2 15 0.41 0.45 0.06 o
-2 2 15 4.44 4.48 0.16 o
-1 2 15 1.01 0.91 0.06 o
0 2 15 1.33 1.22 0.07 o
1 2 15 12.18 12.20 0.50 o
2 2 15 4.52 4.33 0.17 o
3 2 15 0.77 0.90 0.14 o
-9 3 15 0.48 0.12 0.16 <
-8 3 15 12.77 14.06 0.58 o
-7 3 15 1.29 1.38 0.10 o
-6 3 15 0.40 0.45 0.07 o
-5 3 15 24.15 24.86 0.81 o
-4 3 15 25.03 25.08 0.71 o
-3 3 15 0.16 0.28 0.07 o
-2 3 15 1.04 1.07 0.07 o
-1 3 15 1.46 1.69 0.10 o
0 3 15 0.07 0.09 0.08 <
1 3 15 0.09 0.16 0.07 <
2 3 15 0.16 -0.04 0.10 <
-8 4 15 8.31 10.18 0.60 o
-7 4 15 6.10 6.47 0.23 o
-6 4 15 1.03 1.22 0.08 o
-5 4 15 2.52 2.49 0.13 o
-4 4 15 2.16 1.88 0.11 o
-3 4 15 0.76 0.48 0.07 o
-2 4 15 0.39 0.39 0.06 o
-1 4 15 0.69 0.81 0.08 o
0 4 15 0.00 -0.08 0.07 <
1 4 15 0.57 0.85 0.13 o
-8 5 15 0.00 -0.07 0.16 <
-7 5 15 0.07 0.22 0.15 <
-6 5 15 0.44 0.52 0.07 o
-5 5 15 2.72 2.51 0.13 o
-4 5 15 0.24 0.11 0.09 <
-3 5 15 6.32 5.69 0.25 o
-2 5 15 0.01 -0.04 0.08 <
-1 5 15 0.02 -0.07 0.08 <
0 5 15 0.61 0.63 0.12 o
1 5 15 0.00 0.19 0.12 <
-6 6 15 0.00 0.14 0.10 <
-5 6 15 4.24 4.37 0.29 o
-4 6 15 0.72 0.72 0.08 o
-3 6 15 0.16 0.05 0.07 <
-2 6 15 1.57 1.65 0.12 o
-1 6 15 1.65 1.97 0.18 o
-7 7 15 0.09 0.35 0.16 <
-6 7 15 1.99 2.00 0.20 o
-5 7 15 0.07 -0.03 0.10 <
-3 7 15 3.98 3.75 0.31 o
-2 7 15 0.00 -0.14 0.15 <
0 -9 16 0.52 -0.02 0.12 <
2 -9 16 1.58 1.56 0.17 o
4 -9 16 8.27 6.96 0.47 o
-1 -8 16 2.89 3.16 0.31 o
0 -8 16 5.86 5.55 0.35 o
1 -8 16 8.01 7.27 0.44 o
2 -8 16 1.71 1.26 0.14 o
3 -8 16 0.62 0.72 0.13 o
4 -8 16 13.19 10.76 0.67 o
-4 -7 16 0.41 0.60 0.12 o
-3 -7 16 1.85 1.70 0.22 o
-2 -7 16 0.06 0.43 0.11 o
-1 -7 16 0.37 0.41 0.07 o
0 -7 16 3.06 3.12 0.18 o
1 -7 16 0.92 0.56 0.17 o
2 -7 16 0.64 0.64 0.11 o
3 -7 16 0.03 0.21 0.10 <
4 -7 16 0.06 -0.16 0.11 <
-5 -6 16 0.63 0.83 0.10 o
-4 -6 16 13.57 14.58 0.49 o
-3 -6 16 4.83 4.88 0.18 o
-2 -6 16 24.00 25.74 0.84 o
-1 -6 16 7.14 7.49 0.23 o
0 -6 16 1.99 2.07 0.12 o
1 -6 16 3.42 3.36 0.23 o
2 -6 16 4.27 4.25 0.20 o
3 -6 16 0.17 -0.02 0.08 <
-6 -5 16 4.01 4.42 0.34 o
-5 -5 16 4.84 5.22 0.19 o
-4 -5 16 2.55 2.84 0.12 o
-3 -5 16 0.26 0.31 0.06 o
-2 -5 16 17.96 19.54 0.64 o
-1 -5 16 1.36 1.44 0.07 o
0 -5 16 0.02 0.06 0.05 <
1 -5 16 0.79 0.82 0.07 o
2 -5 16 0.00 0.03 0.06 <
3 -5 16 2.28 2.28 0.14 o
4 -5 16 0.86 0.67 0.14 o
5 -5 16 1.01 0.49 0.16 o
-6 -4 16 0.43 0.46 0.10 o
-5 -4 16 1.54 1.55 0.09 o
-4 -4 16 0.02 -0.04 0.09 <
-3 -4 16 4.09 4.24 0.16 o
-2 -4 16 8.25 8.87 0.30 o
-1 -4 16 5.50 5.77 0.18 o
0 -4 16 17.06 17.36 0.50 o
1 -4 16 5.25 4.97 0.18 o
2 -4 16 0.02 -0.06 0.05 <
3 -4 16 32.51 35.33 1.41 o
4 -4 16 4.71 4.16 0.28 o
-7 -3 16 0.00 0.04 0.14 <
-6 -3 16 1.81 1.80 0.08 o
-5 -3 16 1.85 1.64 0.07 o
-4 -3 16 0.43 0.52 0.07 o
-3 -3 16 0.20 0.23 0.10 <
-2 -3 16 2.99 3.11 0.13 o
-1 -3 16 13.07 14.20 0.41 o
0 -3 16 16.68 16.92 0.56 o
1 -3 16 1.94 1.84 0.09 o
2 -3 16 1.21 1.06 0.09 o
3 -3 16 14.01 13.02 0.53 o
4 -3 16 1.69 1.58 0.17 o
5 -3 16 0.03 0.04 0.12 <
-8 -2 16 0.05 -0.02 0.13 <
-7 -2 16 0.62 0.45 0.07 o
-6 -2 16 0.29 0.32 0.06 o
-5 -2 16 2.05 2.11 0.08 o
-4 -2 16 8.32 8.62 0.26 o
-3 -2 16 3.76 3.43 0.14 o
-2 -2 16 6.83 6.05 0.21 o
-1 -2 16 4.58 4.46 0.17 o
0 -2 16 0.01 0.02 0.05 <
1 -2 16 4.20 3.68 0.17 o
2 -2 16 0.10 0.33 0.07 o
3 -2 16 0.00 -0.05 0.08 <
4 -2 16 1.65 1.30 0.11 o
5 -2 16 2.34 1.45 0.16 o
-8 -1 16 7.22 8.00 0.48 o
-7 -1 16 3.76 4.04 0.13 o
-6 -1 16 7.42 7.98 0.22 o
-5 -1 16 22.82 23.28 0.68 o
-4 -1 16 0.76 0.65 0.06 o
-3 -1 16 84.43 82.08 2.68 o
-2 -1 16 9.42 9.47 0.32 o
-1 -1 16 4.56 4.18 0.16 o
0 -1 16 8.91 8.73 0.26 o
1 -1 16 5.36 5.54 0.24 o
2 -1 16 0.01 -0.05 0.08 <
3 -1 16 0.00 -0.06 0.10 <
-8 0 16 0.18 0.33 0.17 <
-7 0 16 5.39 6.21 0.22 o
-6 0 16 11.77 12.59 0.42 o
-5 0 16 2.33 2.40 0.11 o
-4 0 16 0.00 0.02 0.06 <
-3 0 16 9.82 9.56 0.32 o
-2 0 16 1.80 1.68 0.08 o
-1 0 16 1.03 1.05 0.07 o
0 0 16 0.00 0.05 0.05 <
1 0 16 0.01 -0.09 0.07 <
2 0 16 7.31 7.82 0.27 o
3 0 16 1.73 1.77 0.16 o
4 0 16 0.35 0.17 0.08 <
-9 1 16 0.33 -0.02 0.27 <
-8 1 16 0.33 0.51 0.10 o
-7 1 16 1.05 1.21 0.10 o
-6 1 16 0.00 -0.09 0.10 <
-5 1 16 2.25 2.36 0.11 o
-4 1 16 4.52 4.64 0.15 o
-3 1 16 5.22 5.21 0.19 o
-2 1 16 12.30 11.34 0.38 o
-1 1 16 20.40 20.71 0.68 o
0 1 16 3.44 3.43 0.14 o
1 1 16 0.83 0.81 0.09 o
2 1 16 29.01 28.70 1.62 o
3 1 16 3.04 2.82 0.21 o
-8 2 16 0.11 0.15 0.08 <
-7 2 16 2.67 3.00 0.16 o
-6 2 16 4.41 4.27 0.17 o
-5 2 16 0.00 -0.09 0.06 <
-4 2 16 0.37 0.38 0.06 o
-3 2 16 1.88 1.65 0.09 o
-2 2 16 7.00 6.76 0.24 o
-1 2 16 8.57 8.69 0.30 o
0 2 16 0.80 0.87 0.08 o
1 2 16 0.06 0.13 0.06 <
2 2 16 3.27 2.91 0.22 o
-8 3 16 0.04 -0.07 0.10 <
-7 3 16 0.26 0.36 0.08 o
-6 3 16 4.66 5.37 0.20 o
-5 3 16 3.31 3.94 0.18 o
-4 3 16 20.79 20.41 0.82 o
-3 3 16 9.29 8.81 0.30 o
-2 3 16 2.15 2.25 0.11 o
-1 3 16 1.60 1.74 0.09 o
0 3 16 4.50 5.07 0.23 o
1 3 16 0.11 0.05 0.11 <
2 3 16 0.01 0.18 0.15 <
-7 4 16 10.13 9.71 0.57 o
-6 4 16 9.23 9.66 0.40 o
-5 4 16 0.50 0.62 0.07 o
-4 4 16 54.89 54.06 2.15 o
-3 4 16 3.37 3.37 0.17 o
-2 4 16 1.99 1.87 0.11 o
-1 4 16 3.70 3.97 0.19 o
0 4 16 2.04 2.46 0.20 o
1 4 16 0.01 -0.43 0.14 <
-5 5 16 1.32 1.18 0.09 o
-4 5 16 0.99 0.81 0.08 o
-3 5 16 2.80 2.69 0.14 o
-2 5 16 1.25 1.11 0.09 o
-1 5 16 0.32 0.18 0.11 <
-7 6 16 1.15 1.18 0.19 o
-5 6 16 0.66 0.40 0.08 o
-4 6 16 0.38 0.21 0.13 <
-3 6 16 6.04 5.60 0.35 o
-2 6 16 6.47 6.44 0.41 o
-6 7 16 0.08 0.25 0.35 <
0 -8 17 0.01 -0.30 0.22 <
1 -8 17 0.29 0.20 0.18 <
2 -8 17 0.68 0.80 0.14 o
3 -8 17 0.86 1.04 0.25 o
-1 -7 17 14.14 13.96 0.81 o
0 -7 17 0.71 0.90 0.10 o
1 -7 17 0.05 0.18 0.10 <
2 -7 17 1.63 1.48 0.15 o
3 -7 17 0.02 -0.59 0.12 <
4 -7 17 0.03 -0.17 0.20 <
-5 -6 17 11.56 11.69 0.76 o
-4 -6 17 5.30 5.32 0.37 o
-3 -6 17 0.26 0.46 0.11 o
-2 -6 17 12.97 13.69 0.46 o
-1 -6 17 16.53 20.03 0.82 o
0 -6 17 0.02 0.11 0.08 <
1 -6 17 0.17 -0.02 0.08 <
2 -6 17 1.03 0.84 0.19 o
3 -6 17 0.12 0.43 0.13 o
4 -6 17 0.71 0.64 0.16 o
5 -6 17 0.06 0.15 0.16 <
-5 -5 17 3.41 3.85 0.23 o
-4 -5 17 0.79 0.87 0.15 o
-3 -5 17 0.00 -0.14 0.06 <
-2 -5 17 0.01 -0.04 0.07 <
-1 -5 17 0.05 -0.18 0.07 <
0 -5 17 2.76 2.26 0.10 o
1 -5 17 1.61 1.49 0.10 o
2 -5 17 0.29 0.45 0.10 o
3 -5 17 0.05 0.31 0.13 <
4 -5 17 0.32 0.31 0.12 <
-6 -4 17 0.25 0.34 0.09 o
-5 -4 17 0.12 0.09 0.06 <
-4 -4 17 11.83 12.53 0.42 o
-3 -4 17 0.99 1.25 0.08 o
-2 -4 17 1.11 1.18 0.08 o
-1 -4 17 0.17 0.07 0.05 <
0 -4 17 2.51 2.00 0.11 o
1 -4 17 3.83 3.41 0.16 o
2 -4 17 1.47 1.24 0.10 o
3 -4 17 0.00 -0.30 0.08 <
4 -4 17 0.17 0.10 0.11 <
-7 -3 17 12.65 13.50 0.84 o
-6 -3 17 0.04 0.15 0.10 <
-5 -3 17 0.88 0.99 0.08 o
-4 -3 17 3.51 3.70 0.13 o
-3 -3 17 0.21 0.13 0.07 <
-2 -3 17 0.38 0.30 0.07 o
-1 -3 17 0.20 0.19 0.06 <
0 -3 17 0.79 0.90 0.07 o
1 -3 17 0.48 0.35 0.09 o
2 -3 17 0.94 0.83 0.08 o
3 -3 17 3.43 2.95 0.15 o
4 -3 17 2.51 1.82 0.17 o
-7 -2 17 0.03 0.07 0.10 <
-6 -2 17 10.69 11.32 0.30 o
-5 -2 17 4.10 4.49 0.14 o
-4 -2 17 1.77 1.84 0.09 o
-3 -2 17 11.04 10.84 0.32 o
-2 -2 17 26.46 25.75 0.86 o
-1 -2 17 0.65 0.39 0.06 o
0 -2 17 0.52 0.59 0.11 o
1 -2 17 1.71 1.65 0.11 o
2 -2 17 0.00 0.17 0.08 <
3 -2 17 0.00 0.15 0.15 <
4 -2 17 0.26 -0.13 0.10 <
-7 -1 17 0.06 0.06 0.11 <
-6 -1 17 12.17 13.37 0.36 o
-5 -1 17 8.64 8.49 0.29 o
-4 -1 17 0.69 0.61 0.11 o
-3 -1 17 5.91 5.27 0.24 o
-2 -1 17 4.76 4.46 0.22 o
-1 -1 17 0.59 0.02 0.10 <
0 -1 17 0.01 -0.03 0.10 <
1 -1 17 0.07 -0.01 0.10 <
2 -1 17 0.05 0.07 0.10 <
3 -1 17 0.39 0.37 0.12 o
-7 0 17 1.60 1.94 0.12 o
-6 0 17 0.47 0.43 0.08 o
-5 0 17 0.00 -0.08 0.07 <
-4 0 17 0.21 0.45 0.10 o
-3 0 17 1.67 1.15 0.09 o
-2 0 17 0.03 -0.05 0.06 <
-1 0 17 5.34 5.26 0.19 o
0 0 17 0.58 0.40 0.08 o
1 0 17 0.09 0.17 0.17 <
2 0 17 0.17 0.01 0.07 <
3 0 17 0.03 0.23 0.13 <
4 0 17 0.40 -0.24 0.26 <
-8 1 17 30.74 36.04 1.47 o
-7 1 17 0.00 -0.13 0.11 <
-6 1 17 0.05 0.06 0.08 <
-5 1 17 12.03 11.77 0.40 o
-4 1 17 0.10 0.08 0.07 <
-3 1 17 4.33 4.23 0.16 o
-2 1 17 0.48 0.36 0.08 o
-1 1 17 0.00 0.12 0.06 <
0 1 17 2.49 2.58 0.14 o
1 1 17 2.12 2.36 0.13 o
2 1 17 2.46 2.61 0.20 o
-7 2 17 0.65 0.66 0.08 o
-6 2 17 0.12 0.04 0.09 <
-5 2 17 0.19 -0.02 0.09 <
-4 2 17 0.77 0.63 0.06 o
-3 2 17 0.12 0.15 0.06 <
-2 2 17 0.45 0.54 0.08 o
-1 2 17 3.76 3.97 0.16 o
0 2 17 0.03 0.02 0.06 <
2 2 17 4.00 4.56 0.30 o
-6 3 17 1.80 1.82 0.16 o
-5 3 17 0.02 0.12 0.08 <
-4 3 17 13.21 13.15 0.54 o
-3 3 17 8.73 8.74 0.31 o
-2 3 17 0.12 0.16 0.09 <
-1 3 17 0.30 0.37 0.11 o
0 3 17 0.10 -0.05 0.07 <
1 3 17 0.07 -0.03 0.08 <
-6 4 17 4.05 3.75 0.25 o
-5 4 17 1.14 1.38 0.10 o
-4 4 17 0.14 -0.23 0.07 <
-3 4 17 0.00 -0.17 0.07 <
-2 4 17 1.39 1.28 0.10 o
-1 4 17 0.19 0.04 0.14 <
-6 5 17 0.77 0.70 0.15 o
-5 5 17 0.10 0.19 0.13 <
-4 5 17 0.68 1.07 0.12 o
-3 5 17 0.06 -0.05 0.08 <
-2 5 17 1.73 1.32 0.11 o
-6 6 17 2.34 1.98 0.22 o
-5 6 17 0.02 -0.13 0.16 <
-4 6 17 2.50 2.22 0.17 o
-3 6 17 0.05 0.01 0.18 <
0 -7 18 1.08 0.74 0.28 <
1 -7 18 1.47 1.37 0.18 o
2 -7 18 0.05 0.02 0.24 <
3 -7 18 0.56 0.36 0.19 <
4 -7 18 0.00 -0.33 0.21 <
0 -6 18 4.48 3.95 0.29 o
1 -6 18 0.87 0.69 0.16 o
2 -6 18 1.81 1.55 0.18 o
3 -6 18 1.42 1.30 0.15 o
4 -6 18 0.04 -0.09 0.23 <
-5 -5 18 2.87 3.31 0.21 o
-4 -5 18 4.66 4.83 0.19 o
-3 -5 18 0.54 0.71 0.13 o
-2 -5 18 0.07 -0.11 0.07 <
-1 -5 18 4.54 4.95 0.23 o
0 -5 18 0.98 0.98 0.09 o
1 -5 18 0.74 0.69 0.24 <
2 -5 18 0.01 -0.24 0.11 <
3 -5 18 0.02 -0.17 0.11 <
-6 -4 18 0.00 -0.01 0.16 <
-5 -4 18 0.55 0.47 0.12 o
-4 -4 18 0.19 0.11 0.09 <
-3 -4 18 0.26 0.15 0.09 <
-2 -4 18 2.33 2.45 0.11 o
-1 -4 18 4.11 4.31 0.20 o
0 -4 18 4.46 3.95 0.19 o
1 -4 18 10.15 9.94 0.34 o
2 -4 18 1.44 1.68 0.16 o
3 -4 18 0.04 -0.10 0.15 <
-6 -3 18 0.01 0.09 0.14 <
-5 -3 18 1.73 1.80 0.09 o
-4 -3 18 1.72 1.69 0.10 o
-3 -3 18 0.05 0.16 0.07 <
-2 -3 18 0.00 -0.03 0.08 <
-1 -3 18 1.14 1.08 0.09 o
0 -3 18 5.18 4.40 0.29 o
1 -3 18 5.38 4.95 0.22 o
2 -3 18 0.37 -0.09 0.11 <
3 -3 18 0.19 0.31 0.12 <
-7 -2 18 0.50 0.63 0.16 o
-6 -2 18 0.05 0.00 0.13 <
-5 -2 18 0.29 0.29 0.07 o
-4 -2 18 4.09 4.12 0.17 o
-3 -2 18 5.10 4.98 0.19 o
-2 -2 18 10.85 11.26 0.47 o
-1 -2 18 5.85 5.12 0.32 o
0 -2 18 2.21 1.78 0.16 o
1 -2 18 0.44 0.53 0.12 o
2 -2 18 2.14 2.02 0.17 o
3 -2 18 0.03 -0.11 0.11 <
-6 -1 18 5.00 4.88 0.19 o
-5 -1 18 9.93 10.16 0.35 o
-4 -1 18 10.97 10.14 0.43 o
-3 -1 18 0.00 0.01 0.14 <
-2 -1 18 46.82 40.80 2.72 o
-1 -1 18 4.46 3.93 0.19 o
0 -1 18 1.18 1.05 0.12 o
1 -1 18 2.57 2.52 0.22 o
2 -1 18 1.27 1.28 0.18 o
3 -1 18 0.02 0.30 0.16 <
-7 0 18 0.27 0.23 0.09 <
-6 0 18 3.05 3.50 0.15 o
-5 0 18 6.96 7.10 0.25 o
-4 0 18 0.95 0.96 0.07 o
-3 0 18 0.32 0.33 0.07 o
-2 0 18 1.22 1.05 0.10 o
-1 0 18 2.11 2.15 0.14 o
0 0 18 2.12 2.14 0.14 o
1 0 18 0.18 0.28 0.10 <
2 0 18 0.02 -0.04 0.14 <
-7 1 18 0.96 0.92 0.12 o
-6 1 18 1.34 1.34 0.12 o
-5 1 18 0.79 0.67 0.07 o
-4 1 18 2.32 2.00 0.10 o
-3 1 18 1.05 1.00 0.10 o
-2 1 18 1.62 1.66 0.10 o
-1 1 18 6.27 6.32 0.22 o
0 1 18 9.32 9.38 0.39 o
1 1 18 0.54 0.03 0.11 <
2 1 18 0.26 -0.04 0.24 <
-7 2 18 0.05 -0.13 0.14 <
-6 2 18 1.39 1.57 0.12 o
-5 2 18 1.62 1.64 0.15 o
-4 2 18 0.11 0.06 0.07 <
-3 2 18 0.00 0.05 0.08 <
-2 2 18 1.21 1.32 0.09 o
-1 2 18 2.03 1.82 0.11 o
0 2 18 1.72 1.96 0.14 o
1 2 18 0.26 0.32 0.11 <
-7 3 18 0.39 0.05 0.13 <
-6 3 18 1.71 1.41 0.13 o
-5 3 18 4.99 4.51 0.29 o
-4 3 18 0.61 0.52 0.09 o
-3 3 18 22.11 23.78 1.36 o
-2 3 18 4.92 4.25 0.44 o
-1 3 18 0.98 1.13 0.15 o
-6 4 18 9.08 7.84 0.35 o
-4 4 18 0.27 0.16 0.17 <
-3 4 18 20.85 20.46 0.86 o
-2 4 18 1.77 1.78 0.14 o
-1 4 18 0.34 -0.09 0.17 <
-5 5 18 1.12 0.92 0.11 o
-4 5 18 1.19 1.03 0.15 o
-3 5 18 0.05 0.36 0.17 <
1 -7 19 0.34 0.15 0.29 <
2 -7 19 0.12 -0.06 0.19 <
1 -6 19 0.11 0.33 0.26 <
2 -6 19 0.18 -0.16 0.23 <
3 -6 19 0.03 0.12 0.20 <
-3 -5 19 0.00 -0.06 0.12 <
-2 -5 19 0.00 0.15 0.14 <
1 -5 19 1.39 0.90 0.22 o
2 -5 19 0.76 0.35 0.14 <
3 -5 19 0.02 -0.10 0.33 <
-5 -4 19 0.06 -0.14 0.18 <
-4 -4 19 0.00 -0.01 0.12 <
-3 -4 19 7.93 8.85 0.40 o
-2 -4 19 0.15 0.32 0.10 o
-1 -4 19 1.49 1.14 0.13 o
0 -4 19 0.07 -0.01 0.13 <
1 -4 19 0.09 -0.06 0.11 <
2 -4 19 1.24 1.27 0.23 o
-6 -3 19 4.57 4.11 0.28 o
-5 -3 19 0.21 0.12 0.10 <
-4 -3 19 0.93 0.96 0.13 o
-3 -3 19 0.33 0.28 0.10 <
-2 -3 19 0.00 0.07 0.14 <
-1 -3 19 0.11 -0.02 0.11 <
0 -3 19 0.29 0.31 0.21 <
1 -3 19 1.03 0.84 0.09 o
2 -3 19 0.00 0.15 0.11 <
-6 -2 19 0.03 0.09 0.10 <
-5 -2 19 9.25 9.34 0.57 o
-4 -2 19 3.48 3.73 0.19 o
-3 -2 19 0.16 0.20 0.14 <
-2 -2 19 6.77 6.35 0.39 o
-1 -2 19 9.27 8.67 0.52 o
0 -2 19 0.36 0.05 0.12 <
1 -2 19 0.29 0.11 0.11 <
2 -2 19 0.25 0.16 0.13 <
-7 -1 19 0.26 0.04 0.34 <
-6 -1 19 0.05 -0.04 0.09 <
-5 -1 19 3.81 3.99 0.16 o
-4 -1 19 4.89 4.75 0.18 o
-3 -1 19 1.20 0.72 0.10 o
-2 -1 19 0.21 -0.16 0.10 <
-1 -1 19 0.11 0.21 0.10 <
0 -1 19 0.85 1.18 0.14 o
1 -1 19 0.01 -0.06 0.11 <
2 -1 19 0.27 0.43 0.19 <
-7 0 19 6.19 6.28 0.47 o
-6 0 19 0.97 1.18 0.14 o
-5 0 19 0.00 0.22 0.12 <
-4 0 19 0.70 0.50 0.08 o
-3 0 19 0.08 0.05 0.10 <
-2 0 19 0.50 0.42 0.12 o
-1 0 19 0.05 0.04 0.12 <
0 0 19 1.38 1.36 0.16 o
-6 1 19 0.00 0.00 0.09 <
-5 1 19 0.09 0.19 0.13 <
-4 1 19 4.70 4.71 0.35 o
-3 1 19 0.00 -0.22 0.12 <
-2 1 19 2.38 2.38 0.14 o
-1 1 19 0.03 -0.08 0.08 <
-6 2 19 2.00 1.16 0.22 o
-5 2 19 0.11 0.14 0.12 <
-4 2 19 0.01 0.00 0.19 <
-3 2 19 1.46 1.46 0.27 o
-2 2 19 0.59 0.52 0.15 o
-1 2 19 0.30 -0.04 0.17 <
-5 3 19 1.89 2.14 0.21 o
-4 3 19 0.48 0.49 0.20 <
-2 3 19 1.47 1.51 0.16 o
-4 4 19 0.65 0.49 0.14 o
-2 4 19 0.23 -0.17 0.26 <
-4 -4 20 0.69 0.40 0.21 <
-3 -4 20 0.05 -0.15 0.22 <
-2 -4 20 0.58 0.23 0.13 <
-5 -3 20 0.02 -0.06 0.15 <
-4 -3 20 0.75 0.59 0.24 <
-3 -3 20 0.65 0.53 0.24 <
-2 -3 20 0.04 -0.17 0.15 <
-1 -3 20 0.02 0.31 0.16 <
0 -3 20 0.61 0.59 0.22 <
-5 -2 20 0.13 0.23 0.11 <
-4 -2 20 1.59 1.30 0.19 o
-3 -2 20 3.79 3.32 0.27 o
-2 -2 20 1.73 1.46 0.21 o
-1 -2 20 11.53 11.37 0.67 o
0 -2 20 3.32 3.23 0.23 o
-6 -1 20 2.93 2.51 0.24 o
-5 -1 20 4.01 3.83 0.22 o
-4 -1 20 8.17 7.19 0.31 o
-3 -1 20 3.35 2.84 0.29 o
-2 -1 20 0.04 -0.22 0.16 <
-6 0 20 0.49 0.40 0.33 <
-5 0 20 1.54 1.39 0.16 o
-4 0 20 2.43 2.08 0.17 o
-3 0 20 0.55 0.50 0.11 o
-2 0 20 0.40 0.20 0.15 <
-1 0 20 0.03 0.13 0.17 <
-6 1 20 1.02 1.21 0.28 o
-5 1 20 1.20 1.29 0.17 o
-4 1 20 1.35 1.09 0.20 o
-3 1 20 1.29 1.24 0.19 o
-2 1 20 0.08 -0.28 0.17 <
-1 1 20 0.35 0.11 0.28 <
-6 2 20 0.00 0.15 0.29 <
-5 2 20 0.27 0.40 0.28 <
-4 2 20 0.15 -0.22 0.13 <
-3 2 20 0.13 -0.11 0.20 <
-3 3 20 0.01 -0.01 0.25 <
-3 -3 21 0.71 0.95 0.15 o
-2 -3 21 0.00 -0.34 0.11 <
-1 -3 21 0.15 0.24 0.24 <
-3 -2 21 2.39 1.73 0.23 o
-2 -2 21 0.09 -0.04 0.18 <
-5 -1 21 0.06 0.61 0.23 <
-4 -1 21 0.52 0.74 0.20 o
-3 -1 21 1.70 1.52 0.18 o
-2 -1 21 0.75 0.88 0.17 o
-5 0 21 0.42 0.27 0.24 <
-4 0 21 0.15 -0.41 0.27 <
-2 0 21 0.01 -0.10 0.15 <
-4 1 21 0.07 -0.33 0.44 <
loop_
_restr_angle_atom_site_label_1
_restr_angle_site_symmetry_1
_restr_angle_atom_site_label_2
_restr_angle_site_symmetry_2
_restr_angle_atom_site_label_3
_restr_angle_site_symmetry_3
_restr_angle_target
_restr_angle_target_weight_param
? ? ? ? ? ? ? ?
loop_
_restr_distance_atom_site_label_1
_restr_distance_site_symmetry_1
_restr_distance_atom_site_label_2
_restr_distance_site_symmetry_2
_restr_distance_target
_restr_distance_target_weight_param
? ? ? ? ? ?
loop_
_restr_equal_angle_atom_site_label_1
_restr_equal_angle_site_symmetry_1
_restr_equal_angle_atom_site_label_2
_restr_equal_angle_site_symmetry_2
_restr_equal_angle_atom_site_label_3
_restr_equal_angle_site_symmetry_3
_restr_equal_angle_class_class_id
_restr_equal_angle_class_target_weight_param
? ? ? ? ? ? ? ?
loop_
_restr_equal_distance_atom_site_label_1
_restr_equal_distance_site_symmetry_1
_restr_equal_distance_atom_site_label_2
_restr_equal_distance_site_symmetry_2
_restr_equal_distance_class_class_id
_restr_equal_distance_class_target_weight_param
? ? ? ? ? ?
loop_
_restr_equal_torsion_atom_site_label_1
_restr_equal_torsion_site_symmetry_1
_restr_equal_torsion_atom_site_label_2
_restr_equal_torsion_site_symmetry_2
_restr_equal_torsion_atom_site_label_3
_restr_equal_torsion_site_symmetry_3
_restr_equal_torsion_atom_site_label_4
_restr_equal_torsion_site_symmetry_4
_restr_equal_torsion_class_class_id
_restr_equal_torsion_class_target_weight_param
? ? ? ? ? ? ? ? ? ?
loop_
_restr_torsion_atom_site_label_1
_restr_torsion_site_symmetry_1
_restr_torsion_atom_site_label_2
_restr_torsion_site_symmetry_2
_restr_torsion_atom_site_label_3
_restr_torsion_site_symmetry_3
_restr_torsion_atom_site_label_4
_restr_torsion_site_symmetry_4
_restr_torsion_angle_target
_restr_torsion_weight_param
? ? ? ? ? ? ? ? ? ?
loop_
_twin_individual_id
_twin_individual_mass_fraction_refined
_twin_individual_twin_matrix_11
_twin_individual_twin_matrix_12
_twin_individual_twin_matrix_13
_twin_individual_twin_matrix_21
_twin_individual_twin_matrix_22
_twin_individual_twin_matrix_23
_twin_individual_twin_matrix_31
_twin_individual_twin_matrix_32
_twin_individual_twin_matrix_33
? ? ? ? ? ? ? ? ? ? ?
loop_
_twin_refln_datum_id
_twin_refln_individual_id
_twin_refln_index_h
_twin_refln_index_k
_twin_refln_index_l
_twin_refln_F_squared_calc
_twin_refln_F_squared_meas
_twin_refln_F_squared_sigma
_twin_refln_include_status
? ? ? ? ? ? ? ? ?
loop_
_jana_atom_site_adp_c_label
_jana_atom_site_adp_c_type_symbol
_jana_atom_site_adp_c_111
_jana_atom_site_adp_c_112
_jana_atom_site_adp_c_113
_jana_atom_site_adp_c_122
_jana_atom_site_adp_c_123
_jana_atom_site_adp_c_133
_jana_atom_site_adp_c_222
_jana_atom_site_adp_c_223
_jana_atom_site_adp_c_233
_jana_atom_site_adp_c_333
? ? ? ? ? ? ? ? ? ? ? ?
loop_
_jana_atom_site_adp_d_label
_jana_atom_site_adp_d_type_symbol
_jana_atom_site_adp_d_1111
_jana_atom_site_adp_d_1112
_jana_atom_site_adp_d_1113
_jana_atom_site_adp_d_1122
_jana_atom_site_adp_d_1123
_jana_atom_site_adp_d_1133
_jana_atom_site_adp_d_1222
_jana_atom_site_adp_d_1223
_jana_atom_site_adp_d_1233
_jana_atom_site_adp_d_1333
_jana_atom_site_adp_d_2222
_jana_atom_site_adp_d_2223
_jana_atom_site_adp_d_2233
_jana_atom_site_adp_d_2333
_jana_atom_site_adp_d_3333
? ? ? ? ? ? ? ? ? ? ? ? ? ? ? ? ?
loop_
_jana_atom_site_adp_e_label
_jana_atom_site_adp_e_type_symbol
_jana_atom_site_adp_e_11111
_jana_atom_site_adp_e_11112
_jana_atom_site_adp_e_11113
_jana_atom_site_adp_e_11122
_jana_atom_site_adp_e_11123
_jana_atom_site_adp_e_11133
_jana_atom_site_adp_e_11222
_jana_atom_site_adp_e_11223
_jana_atom_site_adp_e_11233
_jana_atom_site_adp_e_11333
_jana_atom_site_adp_e_12222
_jana_atom_site_adp_e_12223
_jana_atom_site_adp_e_12233
_jana_atom_site_adp_e_12333
_jana_atom_site_adp_e_13333
_jana_atom_site_adp_e_22222
_jana_atom_site_adp_e_22223
_jana_atom_site_adp_e_22233
_jana_atom_site_adp_e_22333
_jana_atom_site_adp_e_23333
_jana_atom_site_adp_e_33333
? ? ? ? ? ? ? ? ? ? ? ? ? ? ? ? ? ? ? ? ? ? ?
loop_
_jana_atom_site_adp_f_label
_jana_atom_site_adp_f_type_symbol
_jana_atom_site_adp_f_111111
_jana_atom_site_adp_f_111112
_jana_atom_site_adp_f_111113
_jana_atom_site_adp_f_111122
_jana_atom_site_adp_f_111123
_jana_atom_site_adp_f_111133
_jana_atom_site_adp_f_111222
_jana_atom_site_adp_f_111223
_jana_atom_site_adp_f_111233
_jana_atom_site_adp_f_111333
_jana_atom_site_adp_f_112222
_jana_atom_site_adp_f_112223
_jana_atom_site_adp_f_112233
_jana_atom_site_adp_f_112333
_jana_atom_site_adp_f_113333
_jana_atom_site_adp_f_122222
_jana_atom_site_adp_f_122223
_jana_atom_site_adp_f_122233
_jana_atom_site_adp_f_122333
_jana_atom_site_adp_f_123333
_jana_atom_site_adp_f_133333
_jana_atom_site_adp_f_222222
_jana_atom_site_adp_f_222223
_jana_atom_site_adp_f_222233
_jana_atom_site_adp_f_222333
_jana_atom_site_adp_f_223333
_jana_atom_site_adp_f_233333
_jana_atom_site_adp_f_333333
? ? ? ? ? ? ? ? ? ? ? ? ? ? ? ? ? ? ? ? ? ? ? ? ? ? ? ? ? ?
