#------------------------------------------------------------------------------
#$Date: 2022-09-02 04:49:51 +0300 (Fri, 02 Sep 2022) $
#$Revision: 277573 $
#$URL: file:///home/coder/svn-repositories/cod/cif/2/10/90/2109034.cif $
#------------------------------------------------------------------------------
#
# This file is available in the Crystallography Open Database (COD),
# http://www.crystallography.net/. The original data for this entry
# were provided by IUCr Journals, http://journals.iucr.org/.
#
# The file may be used within the scientific community so long as
# proper attribution is given to the journal article from which the
# data were obtained.
#
data_2109034
loop_
_publ_author_name
'Bogdanov, Nikita E.'
'Korabel'nikov, Dmitry V.'
'Fedorov, Igor A.'
'Zakharov, Boris A.'
'Boldyreva, Elena V.'
_publ_section_title
;
 The effect of hydrostatic compression on the crystal structure of
 glycinium phosphite
;
_journal_issue                   5
_journal_name_full               'Acta Crystallographica Section B'
_journal_page_first
;
;
_journal_paper_doi               10.1107/S2052520622008289
_journal_volume                  78
_journal_year                    2022
_chemical_formula_moiety         'C2 H6 N O2, H2 O3 P'
_chemical_formula_sum            'C2 H8 N O5 P'
_chemical_formula_weight         157.06
_space_group_crystal_system      monoclinic
_space_group_IT_number           14
_space_group_name_Hall           '-P 2yab'
_space_group_name_H-M_alt        'P 1 21/a 1'
_atom_sites_solution_hydrogens   geom
_atom_sites_solution_primary     direct
_atom_sites_solution_secondary   difmap
_audit_creation_method           SHELXL-2018/3
_cell_angle_alpha                90
_cell_angle_beta                 100.46(3)
_cell_angle_gamma                90
_cell_formula_units_Z            4
_cell_length_a                   9.4462(10)
_cell_length_b                   8.5075(6)
_cell_length_c                   7.057(7)
_cell_measurement_pressure       1940000
_cell_measurement_reflns_used    804
_cell_measurement_temperature    293(2)
_cell_measurement_theta_max      26.0070
_cell_measurement_theta_min      3.2380
_cell_volume                     557.7(6)
_computing_cell_refinement       'CrysAlisPro 1.171.40.53 (Rigaku OD, 2019)'
_computing_data_collection       'CrysAlisPro 1.171.40.53 (Rigaku OD, 2019)'
_computing_data_reduction        'CrysAlisPro 1.171.40.53 (Rigaku OD, 2019)'
_computing_structure_refinement  'SHELXL-2018/3 (Sheldrick, 2018)'
_diffrn_ambient_pressure         1940000
_diffrn_ambient_temperature      293(2)
_diffrn_detector                 'CCD plate'
_diffrn_detector_area_resol_mean 10.3457
_diffrn_detector_type            Ruby
_diffrn_measured_fraction_theta_full 0.358
_diffrn_measured_fraction_theta_max 0.321
_diffrn_measurement_device       'four-circle diffractometer'
_diffrn_measurement_device_type  'Xcalibur, Ruby, Gemini ultra'
_diffrn_radiation_monochromator  graphite
_diffrn_radiation_probe          x-ray
_diffrn_radiation_type           'Mo K\a'
_diffrn_radiation_wavelength     0.71073
_diffrn_reflns_av_R_equivalents  0.0994
_diffrn_reflns_av_unetI/netI     0.0658
_diffrn_reflns_Laue_measured_fraction_full 0.358
_diffrn_reflns_Laue_measured_fraction_max 0.321
_diffrn_reflns_limit_h_max       12
_diffrn_reflns_limit_h_min       -12
_diffrn_reflns_limit_k_max       11
_diffrn_reflns_limit_k_min       -11
_diffrn_reflns_limit_l_max       3
_diffrn_reflns_limit_l_min       -3
_diffrn_reflns_number            2883
_diffrn_reflns_point_group_measured_fraction_full 0.358
_diffrn_reflns_point_group_measured_fraction_max 0.321
_diffrn_reflns_theta_full        25.242
_diffrn_reflns_theta_max         28.009
_diffrn_reflns_theta_min         3.247
_diffrn_source                   'fine-focus sealed X-ray tube'
_diffrn_source_type              'Enhance (Mo) X-ray Source'
_exptl_absorpt_coefficient_mu    0.445
_exptl_absorpt_correction_T_max  1.00000
_exptl_absorpt_correction_T_min  0.21394
_exptl_absorpt_correction_type   multi-scan
_exptl_absorpt_process_details
;
CrysAlisPro 1.171.40.53 (Rigaku Oxford Diffraction, 2019)
Empirical absorption correction using spherical harmonics,
 implemented in SCALE3 ABSPACK scaling algorithm.
;
_exptl_crystal_colour            white
_exptl_crystal_density_diffrn    1.871
_exptl_crystal_description       plates
_exptl_crystal_F_000             328
_exptl_crystal_size_max          0.21
_exptl_crystal_size_mid          0.10
_exptl_crystal_size_min          0.05
_refine_diff_density_max         0.264
_refine_diff_density_min         -0.334
_refine_diff_density_rms         0.076
_refine_ls_extinction_method     none
_refine_ls_goodness_of_fit_ref   1.094
_refine_ls_hydrogen_treatment    constr
_refine_ls_matrix_type           full
_refine_ls_number_parameters     86
_refine_ls_number_reflns         434
_refine_ls_number_restraints     2
_refine_ls_restrained_S_all      1.091
_refine_ls_R_factor_all          0.0912
_refine_ls_R_factor_gt           0.0533
_refine_ls_shift/su_max          0.000
_refine_ls_shift/su_mean         0.000
_refine_ls_structure_factor_coef Fsqd
_refine_ls_weighting_details
'w=1/[\s^2^(Fo^2^)+(0.0857P)^2^+0.2054P] where P=(Fo^2^+2Fc^2^)/3'
_refine_ls_weighting_scheme      calc
_refine_ls_wR_factor_gt          0.1289
_refine_ls_wR_factor_ref         0.1522
_reflns_Friedel_coverage         0.000
_reflns_number_gt                311
_reflns_number_total             434
_reflns_threshold_expression     'I > 2\s(I)'
_cod_data_source_file            xk5096sup1.cif
_cod_data_source_block           1.94
_cod_original_cell_volume        557.7(5)
_cod_original_sg_symbol_H-M      'P 21/a'
_cod_database_code               2109034
_shelx_shelxl_version_number     2018/3
_shelx_space_group_comment
;
The symmetry employed for this shelxl refinement is uniquely defined
by the following loop, which should always be used as a source of
symmetry information in preference to the above space-group names.
They are only intended as comments.
;
_oxdiff_exptl_absorpt_empirical_full_min 0.593
_oxdiff_exptl_absorpt_empirical_full_max 3.106
_oxdiff_exptl_absorpt_empirical_details
;
Empirical correction (ABSPACK) includes:
- Absorption correction using spherical harmonics
- Frame scaling
;
_shelx_res_file
;
TITL GPI_1 in P2(1)/c
    1.94.res
    created by SHELXL-2018/3 at 17:58:15 on 10-Aug-2022
REM  transformed to space group : P21/a:b3
REM P2(1)/c (#14 in standard setting)
CELL   0.71073  9.4462  8.5075  7.0566   90.000  100.459   90.000
ZERR   4        0.0010  0.0006  0.0065    0.000    0.032    0.000
LATT    1
SYMM   1/2-X,1/2+Y,-Z
SFAC C H N O P
UNIT 8 32 4 20 4
LIST 4
PLAN 50
FMAP 2
L.S. 20
BOND
BOND $H
CONF
ACTA
EQIV $1 1-X, 1-Y,1-Z
EQIV $2 1/2+X, 3/2-Y,Z
EQIV $3 1-X, 2-Y, 2-Z
EQIV $4 1-X, 2-Y, 1-Z
EQIV $5 1/2+X, 1/2-Y, Z
HTAB N1 O2_$1
HTAB N1 O3_$2
HTAB N1 O2
HTAB O1 O1_$3
HTAB O3 O3_$4
HTAB O5 O2_$5
DFIX 1.66  H1 O1_$3
DFIX 1.70  H3 O3_$4
WGHT    0.085700    0.205400
FVAR       1.72709
C1    1    0.690769    0.297317    0.792773    11.00000    0.02256    0.02752 =
         0.05080    0.00617    0.00323    0.00661
AFIX  23
H1D   2    0.597976    0.247351    0.788805    11.00000   -1.20000
H1E   2    0.723777    0.337351    0.921946    11.00000   -1.20000
AFIX   0
C2    1    0.798416    0.178986    0.741058    11.00000    0.01195    0.02003 =
         0.07401   -0.00548    0.00468   -0.00603
N1    3    0.677490    0.427377    0.651896    11.00000    0.02276    0.01757 =
         0.04974    0.00384    0.00828    0.00074
AFIX 137
H1A   2    0.637763    0.391646    0.535863    11.00000   -1.20000
H1B   2    0.764396    0.466097    0.647714    11.00000   -1.20000
H1C   2    0.622313    0.502732    0.687251    11.00000   -1.20000
AFIX   0
O1    4    0.503479    0.862685    0.964875    11.00000    0.06412    0.02065 =
         0.11427   -0.00705    0.04256    0.00452
AFIX 147
H1    2    0.471227    0.952359    0.960587    10.50000   -1.20000
AFIX   0
O2    4    0.464015    0.643702    0.720829    11.00000    0.02897    0.01661 =
         0.02141   -0.00936   -0.00058   -0.00472
O3    4    0.439655    0.924986    0.611661    11.00000    0.03178    0.02567 =
         0.05630    0.02008    0.01330    0.00982
AFIX 147
H3    2    0.493706    0.950625    0.538279    10.50000   -1.20000
AFIX   0
O4    4    0.861856    0.192955    0.615608    11.00000    0.02722    0.02298 =
         0.05351    0.00119    0.01014    0.00353
O5    4    0.813687    0.060016    0.868555    11.00000    0.03939    0.01889 =
         0.10209    0.00968    0.02647    0.00820
AFIX 147
H5    2    0.868464   -0.006017    0.837529    11.00000   -1.20000
AFIX   0
P1    5    0.517261    0.809838    0.761992    11.00000    0.02066    0.01400 =
         0.05345    0.00302    0.00858   -0.00034
AFIX  13
H1P   2    0.619720    0.811803    0.753882    11.00000   -1.20000
AFIX   0
HKLF 4




REM  GPI_1 in P2(1)/c
REM wR2 = 0.1522, GooF = S = 1.094, Restrained GooF = 1.091 for all data
REM R1 = 0.0533 for 311 Fo > 4sig(Fo) and 0.0912 for all 434 data
REM 86 parameters refined using 2 restraints

END

WGHT      0.0856      0.2052

REM Highest difference peak  0.264,  deepest hole -0.334,  1-sigma level  0.076
Q1    1   0.8347  0.2963  1.0446  11.00000  0.05    0.26
Q2    1   1.0000  0.0000  1.0000  10.50000  0.05    0.25
Q3    1   0.8619  0.3835  0.8748  11.00000  0.05    0.25
Q4    1   0.8381  0.3322  0.7368  11.00000  0.05    0.22
Q5    1   0.7012  0.8324  0.7604  11.00000  0.05    0.22
Q6    1   0.8412  0.3448  0.7844  11.00000  0.05    0.22
Q7    1   0.6422  0.2270  0.6346  11.00000  0.05    0.21
Q8    1   0.6814  0.7259  0.6006  11.00000  0.05    0.21
Q9    1   0.6031  1.0280  0.6605  11.00000  0.05    0.21
Q10   1   0.4627  0.9456  1.1423  11.00000  0.05    0.21
Q11   1   0.4808  0.6547  0.8401  11.00000  0.05    0.21
Q12   1   0.4627  0.6922  0.6917  11.00000  0.05    0.20
Q13   1   0.5592  0.6360  0.8064  11.00000  0.05    0.20
Q14   1   0.8039  0.4010  1.0341  11.00000  0.05    0.20
Q15   1   0.5387  0.6782  0.6648  11.00000  0.05    0.19
Q16   1   0.3444  0.9558  0.5350  11.00000  0.05    0.19
Q17   1   0.8996 -0.0248  0.7057  11.00000  0.05    0.19
Q18   1   0.3930  0.7207  0.8486  11.00000  0.05    0.19
Q19   1   0.3546  0.8029  0.4560  11.00000  0.05    0.18
Q20   1   0.5130  0.5739  0.6255  11.00000  0.05    0.18
Q21   1   0.9157 -0.0253  0.7588  11.00000  0.05    0.18
Q22   1   0.2954  0.9003  0.4806  11.00000  0.05    0.18
Q23   1   0.2979  0.8346  0.6745  11.00000  0.05    0.17
Q24   1   0.7003 -0.0388  0.8297  11.00000  0.05    0.17
Q25   1   0.6638  0.3953  1.0249  11.00000  0.05    0.17
Q26   1   0.8051  0.3182  0.9180  11.00000  0.05    0.17
Q27   1   0.6432  0.2820  0.9773  11.00000  0.05    0.17
Q28   1   0.5353  0.8704  1.1142  11.00000  0.05    0.17
Q29   1   0.5000  1.0000  1.0000  10.50000  0.05    0.17
Q30   1   0.4001  1.0293  0.8065  11.00000  0.05    0.17
Q31   1   0.4862  0.1765  0.7118  11.00000  0.05    0.17
Q32   1   0.8253 -0.1083  0.9297  11.00000  0.05    0.17
Q33   1   0.4939  0.1722  0.7585  11.00000  0.05    0.17
Q34   1   0.2849  0.8382  0.6249  11.00000  0.05    0.16
Q35   1   0.6860  0.9673  0.7760  11.00000  0.05    0.16
Q36   1   0.7028  0.4983  0.8524  11.00000  0.05    0.16
Q37   1   0.9212 -0.0805  0.9837  11.00000  0.05    0.15
Q38   1   0.8849  0.1540  0.4554  11.00000  0.05    0.15
Q39   1   0.5210  0.3225  0.8805  11.00000  0.05    0.15
Q40   1   0.7421  0.2440  0.9010  11.00000  0.05    0.15
Q41   1   0.4012  0.6296  0.7866  11.00000  0.05    0.15
Q42   1   0.6048  0.1416  0.7388  11.00000  0.05    0.15
Q43   1   0.7580  0.1192  0.5558  11.00000  0.05    0.15
Q44   1   0.8971  0.1679  0.5318  11.00000  0.05    0.14
Q45   1   0.4964  0.8799  0.3714  11.00000  0.05    0.14
Q46   1   0.7459  0.2290  0.8450  11.00000  0.05    0.14
Q47   1   0.8033  0.5302  0.7339  11.00000  0.05    0.14
Q48   1   0.7152  0.4993  0.8915  11.00000  0.05    0.14
Q49   1   0.7368  0.2433  0.5813  11.00000  0.05    0.14
Q50   1   0.4201  0.8026  1.0421  11.00000  0.05    0.14
;
_shelx_res_checksum              38911
_shelx_hkl_file
;
  -1   0   0 8.18334 5.81927   7-0.03822-0.03822-0.01493 0.01493-0.98954 0.97569
   1   0   0 4.13357 3.98812   8 0.03816 0.03816 0.04167-0.04164 0.98878-0.97496
   2   0   0 7550.21 199.362   8 0.07634 0.07633 0.02709-0.02702 0.99404-0.96638
   2   0   0 8054.49 137.688   9 0.07632 0.07631-0.32102 0.32099 0.94228-0.91464
  -2   0   0 8221.74 139.016   4-0.07637-0.07633-0.30424 0.30407-0.94757 0.91996
  -2   0   0 7342.46 202.099   7-0.07641-0.07644-0.00793 0.00792-0.99439 0.96669
  -2   0   0 7910.79 138.325   6-0.07645-0.07644-0.30365 0.30365-0.94776 0.92006
  -3   0   0 7.99178 6.95434   4-0.11456-0.11452-0.21113 0.21090-0.97536 0.93390
  -3   0   0 13.7026 8.77739   6-0.11466-0.11465-0.21052 0.21050-0.97549 0.93395
  -3   0   0 -0.4285 9.61331   7-0.11461-0.11468-0.00090 0.00087-0.99773 0.95618
   3   0   0 0.03614 13.2763   8 0.11451 0.11448 0.01240-0.01231 0.99765-0.95616
   3   0   0 2.43939 5.44922   9 0.11448 0.11447-0.23277 0.23274 0.97059-0.92912
  -4   0   0 5461.35 158.673   4-0.15279-0.15271-0.11249 0.11223-0.99324 0.93793
   4   0   0 5613.26 251.985   8 0.15270 0.15264-0.00238 0.00250 0.99958-0.94427
  -4   0   0 5138.88 153.670   6-0.15285-0.15283-0.11196 0.11195-0.99330 0.93792
  -4   0   0 5553.23 261.026   7-0.15280-0.15292 0.00617-0.00621-0.99957 0.94416
   4   0   0 5658.67 121.145   1 0.15272 0.15272 0.20999-0.21008 0.97733-0.92197
   5   0   0 0.26302 7.09094   1 0.19088 0.19090 0.00769-0.00778 0.99992-0.93075
  -5   0   0 -14.582 18.1597   6-0.19101-0.19099-0.00728 0.00729-0.99992 0.93071
   5   0   0 -15.656 24.4515   8 0.19087 0.19079-0.01726 0.01740 0.99981-0.93067
  -5   0   0 55.1341 39.0674   7-0.19097-0.19116 0.01327-0.01332-0.99987 0.93059
  -6   0   0 10937.2 479.815   7-0.22915-0.22942 0.02041-0.02047-0.99859 0.91545
  -6   0   0 10817.6 271.873   6-0.22916-0.22913 0.10464-0.10461-0.99328 0.91026
   6   0   0 9971.34 437.246   8 0.22906 0.22894-0.03224 0.03241 0.99829-0.91533
   7   0   0 68.9938 62.7985   8 0.26725 0.26709-0.04733 0.04751 0.99497-0.89819
  -7   0   0 58.5153 56.5131   7-0.26731-0.26768 0.02757-0.02766-0.99571 0.89868
   7   0   0 -12.071 37.2579   2 0.26709 0.26681 0.05833-0.05843 0.99436-0.89770
  -8   0   0 66.7762 60.1861   3-0.30575-0.30597-0.08869 0.08871-0.98765 0.87675
   8   0   0 37.7097 33.9495   2 0.30531 0.30494 0.10554-0.10560 0.98601-0.87556
  -8   0   0 30.5117 73.6138   7-0.30546-0.30593 0.03478-0.03489-0.99117 0.88025
   8   0   0 69.4001 60.7508   8 0.30544 0.30524-0.06251 0.06271 0.98979-0.87920
  -9   0   0 -96.767 58.3414   7-0.34362-0.34420 0.04203-0.04216-0.98491 0.86008
   9   0   0 -174.07 94.6373   8 0.34364 0.34338-0.07782 0.07803 0.98266-0.85827
  -9   0   0 2.80168 59.6106   3-0.34394-0.34421-0.12260 0.12264-0.97783 0.85304
  10   0   0 557.574 158.557   8 0.38184 0.38153-0.09324 0.09346 0.97350-0.83530
 -10   0   0 396.750 155.448   7-0.38176-0.38247 0.04931-0.04947-0.97685 0.83809
 -10   0   0 369.413 101.733   3-0.38212-0.38245-0.15705 0.15712-0.96479 0.82612
 -11   0   0 -94.593 91.2005   7-0.41989-0.42073 0.05663-0.05683-0.96690 0.81421
  11   0   0 40.0767 66.1518   8 0.42004 0.41967-0.10877 0.10901 0.96218-0.81019
  11   0   0 -93.773 97.0724   5 0.41989 0.41924 0.14449-0.14393 0.95721-0.80556
  12   0   0 61.2827 58.9852   8 0.45825 0.45781-0.12444 0.12469 0.94856-0.78278
   0  -1   0 1.76805 2.80413   1 0.19895-0.19894-0.04169-0.04169 0.99897-0.99895
   0  -1   0 1.69387 3.89490   9 0.19037-0.19036-0.04168-0.04167 0.99910-0.99908
   0   1   0 4.38534 4.59124   4-0.20819 0.20821 0.04173 0.04172-0.99876 0.99873
   0   1   0 -1.7096 3.04553   6-0.20804 0.20808 0.04170 0.04170-0.99876 0.99874
  -1  -1   0 358.121 27.8529   7-0.07478-0.00164-0.00823-0.07523-0.99421 0.98038
  -1  -1   0 383.652 32.3193   1 0.23200-0.30832-0.28904 0.20568 0.95552-0.96932
   1  -1   0 358.092 27.3160   9 0.26221-0.18589 0.16345-0.24676 0.98279-0.96895
   1   1   0 389.082 30.0311   7 0.13415-0.05767-0.04609 0.12957-0.94919 0.96302
  -1   1   0 337.623 32.7786   7-0.08973 0.01334-0.00548 0.08894-0.99572 0.98186
  -1   1   0 401.716 29.7483   9 0.32512-0.40145 0.37423-0.29093 0.91291-0.92673
  -1  -1   0 332.036 37.2003   9 0.12995-0.20625-0.19558 0.11221 0.97955-0.99335
  -1   1   0 338.714 35.8658   8-0.01578-0.06052 0.06213 0.02115 0.97855-0.99240
   1   1   0 397.541 29.2512   6-0.30411 0.38054 0.35526-0.27198-0.92448 0.93826
   1  -1   0 345.401 35.5010   8 0.10228-0.02597 0.01711-0.10039 0.99667-0.98283
  -1  -1   0 362.546 27.4371   6-0.24235 0.16594 0.14536-0.22868-0.98731 0.97350
  -1   1   0 340.800 37.1048   6-0.16635 0.08994-0.07568 0.15912-0.99701 0.98314
   1  -1   0 362.909 36.8748   1 0.17717-0.10080 0.08554-0.16897 0.99631-0.98245
  -1  -1   0 361.302 27.2309   4-0.24242 0.16593 0.14520-0.22873-0.98733 0.97349
  -1   1   0 380.384 37.5326   1 0.15158-0.22794 0.21545-0.13204 0.97612-0.98998
  -1   1   0 382.426 39.6110   4-0.16645 0.09009-0.07578 0.15911-0.99700 0.98315
   1   1   0 388.013 32.1376   1 0.21017-0.13384-0.11581 0.19917 0.99282-0.97902
   1  -1   0 351.529 34.3097   7 0.04997 0.02645-0.03096-0.05249-0.97269 0.98656
   2  -1   0 471.266 45.5732   1 0.16914-0.01641 0.12819-0.21163 0.99166-0.96396
  -2   1   0 362.043 43.2928   6-0.15588 0.00303-0.10387 0.18732-0.99426 0.96654
   2  -1   0 422.235 48.1265   4-0.07230 0.22503-0.31384 0.23064-0.94407 0.97170
  -2   1   0 345.399 45.7626   7-0.10103-0.05181-0.00340 0.08686-0.99672 0.96900
  -2  -1   0 381.402 44.2715   9 0.07629-0.22893-0.32109 0.23773 0.94226-0.96989
  -2  -1   0 377.070 44.4235   7-0.09692-0.05592-0.00416-0.07931-0.99637 0.96870
   2   1   0 371.388 30.1395   1 0.22543-0.07277-0.23137 0.31471 0.97163-0.94400
   2  -1   0 417.591 53.0688   8 0.10732 0.04532 0.01517-0.09841 0.99710-0.96942
   2   1   0 419.017 41.6173   8 0.08644 0.06626 0.02321 0.06016 0.99516-0.96751
   3  -1   0 18713.2 419.516   8 0.13173 0.09724 0.00575-0.08895 0.99873-0.95723
  -3  -1   0 17936.9 387.803   7-0.13054-0.09873 0.00205-0.08554-0.99868 0.95716
  -3   1   0 19772.9 427.326   7-0.12913-0.10014 0.00179 0.08168-0.99861 0.95704
  -3  -1   0 19531.7 353.400   9 0.02657-0.25555-0.42908 0.34571 0.89286-0.93432
   3   1   0 19004.4 365.060   8 0.12694 0.10210 0.00760 0.07580 0.99846-0.95699
   3  -1   0 20040.2 374.313   4-0.02435 0.25341-0.42297 0.33990-0.89513 0.93651
  -3   1   0 19462.4 354.555   6-0.16181-0.06746-0.08797 0.17140-0.99592 0.95435
  -4  -1   0 348.467 58.9411   9-0.02074-0.28459-0.52476 0.44142 0.83330-0.88857
   4   1   0 371.747 62.3212   8 0.16618 0.13920-0.00763 0.09104 0.99986-0.94455
   4  -1   0 364.215 65.7729   8 0.16236 0.14295-0.00614-0.07704 0.99980-0.94448
   4  -1   0 340.069 56.4138   4 0.02179 0.28359-0.52084 0.43788-0.83517 0.89028
  -4   1   0 341.304 64.8286   7-0.16202-0.14368 0.00788 0.07557-0.99978 0.94435
  -4   1   0 354.807 53.8810   6-0.17694-0.12873-0.04667 0.13009-0.99889 0.94348
  -4  -1   0 383.653 66.9321   7-0.16657-0.13913 0.00873-0.09224-0.99985 0.94447
   5  -1   0 476.729 35.4012   9 0.19133 0.19016-0.03912-0.04423 0.99919-0.93006
  -5   1   0 489.311 95.8235   7-0.19693-0.18521 0.01438 0.06907-0.99977 0.93047
   5  -1   0 509.434 95.0943   8 0.19576 0.18588-0.01917-0.06398 0.99971-0.93056
   5   1   0 525.268 89.4815   8 0.20498 0.17674-0.02278 0.10622 0.99945-0.93032
  -5   1   0 517.981 72.5349   6-0.19761-0.18442 0.01149 0.07192-0.99980 0.93056
  -5  -1   0 635.340 98.4236   7-0.20350-0.17862 0.01561-0.09914-0.99962 0.93037
  -5  -1   0 -24.130 48.1892   9-0.06648-0.31518-0.61082 0.52749 0.76404-0.83312
  -6   1   0 83.0622 57.2935   7-0.23289-0.22567 0.02111 0.06233-0.99838 0.91521
  -6   1   0 64.0979 29.1503   6-0.22178-0.23658 0.08234 0.00105-0.99574 0.91267
   6  -1   0 43.5750 40.8093   8 0.23063 0.22734-0.03286-0.05027 0.99819-0.91522
   6   1   0 4.24208 29.9199   8 0.24358 0.21447-0.03796 0.12142 0.99724-0.91429
  -6  -1   0 50.2513 49.7392   7-0.24085-0.21768 0.02260-0.10616-0.99788 0.91476
   6  -1   0 53.3096 14.1607   9 0.27145 0.18627 0.19212-0.27540 0.97660-0.89368
  -7   1   0 111.281 76.0803   7-0.26944-0.26555 0.02797 0.05544-0.99550 0.89845
   7  -1   0 98.4620 35.3366   2 0.28647 0.24756 0.08214-0.16556 0.99064-0.89393
  -7   1   0 112.348 52.5878   6-0.24826-0.28640 0.16397-0.08059-0.98394 0.88705
  -7  -1   0 69.2536 61.2528   7-0.27844-0.25650 0.02967-0.11326-0.99456 0.89756
   7  -1   0 97.5207 62.7925   8 0.26639 0.26791-0.04699-0.03612 0.99506-0.89828
   7   1   0 138.294 62.3985   2 0.26489 0.26894 0.05564 0.02755 0.99472-0.89811
   7   1   0 109.867 38.1782   8 0.28208 0.25232-0.05321 0.13668 0.99318-0.89641
   8   1   0 456.179 112.352   8 0.32052 0.29023-0.06854 0.15202 0.98721-0.87663
  -8   1   0 505.546 138.220   7-0.30638-0.30503 0.03496 0.04845-0.99104 0.88009
   8   1   0 392.432 96.3643   2 0.29782 0.31231 0.09621-0.01298 0.98798-0.87758
  -8  -1   0 549.689 124.238   3-0.30004-0.31174-0.08367 0.00021-0.98886 0.87796
  -8  -1   0 294.068 93.8095   7-0.31618-0.29517 0.03682-0.12043-0.98959 0.87869
  -8   1   0 450.359 94.6197   3-0.32595-0.28568-0.10656 0.19003-0.98284 0.87194
   8  -1   0 414.262 117.879   8 0.30271 0.30793-0.06142-0.02166 0.99022-0.87963
   9   1   0 311.771 97.1948   2 0.33170 0.35477 0.13880-0.05551 0.97773-0.85357
   9  -1   0 112.496 85.3371   8 0.33943 0.34755-0.07613-0.00695 0.98355-0.85915
  -9  -1   0 154.386 73.5841   7-0.35401-0.33375 0.04401-0.12766-0.98290 0.85808
  -9   1   0 132.771 68.9018   7-0.34357-0.34426 0.04202 0.04136-0.98492 0.86006
  -9   1   0 162.207 66.1170   3-0.36626-0.32179-0.14268 0.22615-0.97061 0.84583
  -9  -1   0 99.2276 65.0637   3-0.33510-0.35312-0.11471 0.03128-0.98038 0.85559
   9   1   0 205.755 95.1380   8 0.35891 0.32817-0.08397 0.16746 0.97925-0.85486
 -10  -1   0 1314.87 228.826   3-0.37068-0.39398-0.14666 0.06327-0.96905 0.83037
 -10  -1   0 1190.17 224.949   7-0.39191-0.37226 0.05126-0.13493-0.97439 0.83566
  10  -1   0 1158.05 224.261   8 0.37642 0.38689-0.09103 0.00798 0.97493-0.83673
  10   1   0 828.184 165.184   8 0.39729 0.36614-0.09950 0.18301 0.96919-0.83100
 -10   1   0 1232.69 234.187   7-0.38094-0.38330 0.04915 0.03421-0.97704 0.83826
  11  -1   0 198.073 118.357   8 0.41361 0.42605-0.10614 0.02310 0.96425-0.81225
 -11  -1   0 57.8954 65.9680   7-0.42985-0.41073 0.05856-0.14227-0.96398 0.81131
 -11   1   0 166.953 145.429   7-0.41844-0.42222 0.05635 0.02698-0.96732 0.81459
  11   1   0 -22.167 59.7180   8 0.43564 0.40414-0.11516 0.19866 0.95691-0.80492
  11   1   0 -37.922 90.9289   5 0.41029 0.42888 0.13867-0.05486 0.96073-0.80905
 -11  -1   0 55.9881 73.0422   3-0.40664-0.43443-0.17949 0.09614-0.95458 0.80200
  12   1   0 108.336 63.3345   8 0.47399 0.44214-0.13094 0.21446 0.94224-0.77647
  12   1   0 241.693 111.963   5 0.44723 0.46821 0.16114-0.07725 0.94621-0.78081
   0  -2   0 4776.34 169.785   9 0.17456-0.17454-0.08336-0.08334 0.99652-0.99648
   0   2   0 5033.75 106.778   8-0.07211 0.07217 0.08330 0.08331 0.96438-0.96440
   0  -2   0 5104.17 105.237   8 0.35738-0.35742-0.08335-0.08334 0.97961-0.97956
   0   2   0 4897.25 151.438   2 0.28750-0.28744 0.08339 0.08336 0.99042-0.99047
   0  -2   0 5176.22 143.731   3-0.29974 0.29979-0.08341-0.08343-0.98892 0.98896
   0   2   0 4735.77 168.355   6-0.22213 0.22221 0.08339 0.08342-0.99563 0.99558
   1  -2   0 256.299 32.8551   7 0.12388-0.04742-0.04426-0.12266-0.95245 0.96635
  -1   2   0 218.134 39.3642   6-0.19727 0.12091 0.01053 0.15631-0.99981 0.98592
   1  -2   0 281.277 37.4245   8 0.18626-0.10995-0.01546-0.15115 0.99987-0.98600
  -1  -2   0 243.073 41.2679   9 0.14207-0.21835-0.16585-0.00087 0.98550-0.99928
  -1   2   0 260.230 28.3677   2 0.46184-0.53816 0.31228-0.14531 0.90003-0.91395
   1  -2   0 252.020 35.6427   9 0.20285-0.12653-0.00796-0.15872 0.99973-0.98586
  -1   2   0 269.768 32.5404   7-0.19124 0.11491 0.01332 0.15354-0.99986 0.98597
  -1  -2   0 274.062 37.3604   4-0.18854 0.11203-0.01467-0.15230-0.99986 0.98605
   1   2   0 236.654 37.1258   1 0.18982-0.11350 0.01394 0.15280 0.99986-0.98607
   1   2   0 254.585 36.6642   6-0.26641 0.34291 0.22289-0.05620-0.97054 0.98431
   2  -2   0 2019.61 90.3932   9 0.22454-0.07191 0.05235-0.21900 0.99762-0.96994
   2   2   0 1972.59 76.9785   8 0.18272-0.02996-0.01408 0.18077 0.99990-0.97227
  -2  -2   0 2162.36 98.5388   7-0.17968 0.02689 0.01117-0.17806-0.99994 0.97229
   2   2   0 2006.95 104.523   1 0.19656-0.04390-0.02671 0.19344 0.99953-0.97191
   2   2   0 2262.63 102.030   6-0.32935 0.48220 0.45500-0.28845-0.87345 0.90096
  -2  -2   0 2296.88 99.7653   6-0.20581 0.05299 0.03518-0.20187-0.99907 0.97145
  -2   2   0 2050.95 118.176   7-0.15940 0.00661 0.00739 0.15951-0.99973 0.97199
  -2  -2   0 2030.61 130.695   9 0.10677-0.25939-0.25097 0.08424 0.96558-0.99319
   2  -2   0 2066.48 123.757   8 0.16107-0.00844-0.00564-0.16092 0.99978-0.97208
  -2   2   0 2081.99 131.548   6-0.18719 0.03438-0.01809 0.18495-0.99981 0.97207
   2  -2   0 1913.46 127.444   4-0.10072 0.25348-0.24546 0.07882-0.96639 0.99407
  -2  -2   0 2211.95 96.8739   4-0.20587 0.05293 0.03498-0.20201-0.99908 0.97141
  -3   2   0 45.3132 24.9717   6-0.18761-0.04163-0.01691 0.18376-0.99983 0.95824
  -3  -2   0 68.0981 15.4934   4-0.21023-0.01915 0.04769-0.21474-0.99843 0.95691
   3  -2   0 61.7403 16.5234   9 0.23488-0.00598 0.08203-0.24867 0.99506-0.95356
  -3  -2   0 39.6504 18.4121   9 0.06958-0.29852-0.33611 0.16937 0.93640-0.97784
   3  -2   0 86.9432 31.5074   4-0.06530 0.29443-0.33024 0.16373-0.93780 0.97926
   3   2   0 66.1675 19.5613   8 0.18655 0.04255-0.01557 0.18229 0.99987-0.95841
  -3  -2   0 81.1837 28.5817   7-0.18405-0.04517 0.01198-0.17891-0.99993 0.95843
   3  -2   0 68.3112 28.8499   8 0.16880 0.06016-0.00865-0.15787 0.99989-0.95837
  -3   2   0 36.0951 20.0542   7-0.16867-0.06056 0.00912 0.15781-0.99988 0.95829
   3   2   0 65.0757 20.2215   1 0.19710 0.03191-0.03008 0.19679 0.99942-0.95798
  -3  -2   0 48.1610 14.2342   6-0.21020-0.01897 0.04801-0.21468-0.99842 0.95696
  -4  -2   0 1119.46 54.2464   4-0.18489-0.12084-0.02492-0.14215-0.99968 0.94433
  -4  -2   0 1144.62 54.4581   6-0.18479-0.12078-0.02480-0.14192-0.99968 0.94438
  -4   2   0 1185.14 125.490   6-0.19544-0.11021 0.00529 0.16155-0.99988 0.94445
   4  -2   0 1130.65 54.5715   9 0.22051 0.08468 0.04097-0.20762 0.99834-0.94301
   4   2   0 1091.95 108.457   8 0.21223 0.09322-0.02562 0.19235 0.99917-0.94388
   4  -2   0 1148.60 130.122   4-0.02821 0.33368-0.41445 0.24809-0.89958 0.95479
   4  -2   0 1050.61 133.587   8 0.18907 0.11622-0.01656-0.14992 0.99983-0.94450
  -4  -2   0 1151.13 122.400   7-0.20723-0.09840 0.01631-0.18327-0.99952 0.94416
   4   2   0 1179.87 80.7878   1 0.18947 0.11589 0.01598 0.15073 0.99983-0.94455
  -4   2   0 1301.85 145.065   7-0.19105-0.11460 0.01329 0.15366-0.99986 0.94441
  -4  -2   0 1127.11 119.906   9 0.03104-0.33633-0.41968 0.25295 0.89786-0.95313
   5   2   0 981.864 109.074   8 0.24397 0.13781-0.03812 0.20486 0.99721-0.92809
   5  -2   0 942.029 129.739   8 0.21545 0.16616-0.02689-0.13956 0.99903-0.92988
  -5  -2   0 887.370 113.563   7-0.23694-0.14510 0.02187-0.18887-0.99814 0.92891
  -5  -2   0 953.406 114.497   9-0.00849-0.37315-0.50065 0.33392 0.84988-0.91897
   5   2   0 900.802 61.8444   1 0.16744 0.21430 0.13697 0.02973 0.99046-0.92134
  -5   2   0 1027.28 133.347   7-0.21926-0.16282 0.01856 0.14839-0.99908 0.92975
  -5   2   0 904.284 107.164   6-0.20855-0.17348 0.04318 0.12364-0.99868 0.92941
   5  -2   0 915.135 117.049   4 0.01013 0.37166-0.49677 0.33054-0.85150 0.92042
   6  -2   0 1163.77 141.783   4 0.04946 0.40867-0.57621 0.41011-0.79319 0.87579
   6  -2   0 1090.46 83.5136   2 0.29165 0.16624 0.08854-0.25533 0.98947-0.90650
  -6   2   0 1153.09 131.857   6-0.22549-0.23290 0.09350 0.07328-0.99458 0.91147
   6   2   0 1168.15 139.363   2 0.24692 0.21060 0.03382 0.13264 0.99715-0.91438
   6  -2   0 1234.41 168.384   8 0.24526 0.21268-0.03862-0.12779 0.99710-0.91413
  -6   2   0 951.596 101.355   3-0.28542-0.17327-0.07086 0.23770-0.99165 0.90849
  -6   2   0 1091.22 156.804   7-0.25058-0.20794 0.02443 0.14251-0.99718 0.91398
  -6  -2   0 1844.17 221.087   9-0.04878-0.40922-0.57829 0.41156 0.79221-0.87512
  -6  -2   0 1110.50 142.696   7-0.26969-0.18877 0.02802-0.19505-0.99548 0.91238
   6   2   0 985.320 128.078   8 0.27827 0.17986-0.05170 0.21845 0.99367-0.91073
  -7   2   0 1115.92 186.154   7-0.28373-0.25122 0.03067 0.13626-0.99397 0.89688
  -7   2   0 1101.69 120.778   3-0.32702-0.20808-0.10751 0.27437-0.98256 0.88553
   7   2   0 1186.13 155.259   8 0.31386 0.22061-0.06587 0.23265 0.98839-0.89163
  -7   2   0 1293.50 149.451   6-0.24520-0.28952 0.15432 0.01243-0.98574 0.88879
   7   2   0 1132.43 156.654   2 0.27272 0.26106 0.06522 0.10126 0.99339-0.89684
  -7  -2   0 810.775 138.589   7-0.30408-0.23078 0.03452-0.20158-0.99137 0.89438
   7  -2   0 1137.05 173.764   8 0.27719 0.25709-0.05127-0.11513 0.99380-0.89701
  -8  -2   0 1043.57 174.336   3-0.30460-0.30722-0.08768-0.07925-0.98790 0.87700
   8  -2   0 1057.89 190.283   8 0.31052 0.30010-0.06454-0.10184 0.98896-0.87836
   8   2   0 944.937 145.590   8 0.35022 0.26060-0.08046 0.24724 0.98123-0.87066
  -8  -2   0 1009.37 164.774   7-0.33947-0.27180 0.04124-0.20834-0.98568 0.87480
  -8   2   0 1081.39 194.338   7-0.31806-0.29332 0.03717 0.12975-0.98930 0.87831
   8   2   0 1168.31 172.002   2 0.30075 0.30932 0.09987 0.06666 0.98723-0.87690
   9   2   0 929.695 167.015   2 0.33041 0.35597 0.13716 0.02941 0.97819-0.85409
  -9  -2   0 632.652 152.747   3-0.33614-0.35213-0.11564-0.05127-0.98009 0.85529
   9  -2   0 720.767 160.336   8 0.34481 0.34215-0.07829-0.08807 0.98242-0.85801
   9   2   0 775.659 148.462   8 0.38707 0.30010-0.09535 0.26214 0.97208-0.84770
  -9  -2   0 584.276 147.900   7-0.37551-0.31217 0.04811-0.21526-0.97830 0.85350
  -9   2   0 844.481 187.758   7-0.35318-0.33462 0.04385 0.12306-0.98306 0.85816
  10   2   0 213.444 77.1340   2 0.36129 0.40140 0.17676-0.01013 0.96581-0.82796
 -10   2   0 230.394 125.178   7-0.38887-0.37535 0.05067 0.11621-0.97514 0.83631
  10   2   0 56.0938 55.0209   8 0.42423 0.33928-0.11048 0.27728 0.96080-0.82261
  10  -2   0 124.913 109.277   8 0.37980 0.38348-0.09240-0.07394 0.97405-0.83585
 -10  -2   0 111.711 80.3831   7-0.41198-0.35209 0.05512-0.22229-0.96913 0.83041
 -10  -2   0 105.856 101.876   3-0.36873-0.39600-0.14490-0.02197-0.96975 0.83105
 -11  -2   0 416.469 166.621   3-0.40209-0.43906-0.17530 0.00848-0.95659 0.80400
  11   2   0 157.653 72.5961   8 0.46165 0.37823-0.12585 0.29264 0.94723-0.79526
  11  -2   0 185.131 129.132   8 0.41532 0.42431-0.10684-0.05948 0.96370-0.81171
 -11   2   0 298.076 147.045   7-0.42498-0.41566 0.05762 0.10925-0.96543 0.81265
 -11  -2   0 306.835 122.675   7-0.44878-0.39169 0.06222-0.22943-0.95804 0.80539
  11   2   0 497.919 154.198   5 0.40911 0.43011 0.13796 0.02913 0.96115-0.80945
   0  -3   0 -3.7121 6.40787   8 0.45969-0.45973-0.12504-0.12502 0.94800-0.94792
   0  -3   0 -3.2032 8.76103   3-0.34673 0.34684-0.12509-0.12514-0.97699 0.97703
   0  -3   0 1.87441 11.0419   9 0.15835-0.15831-0.12503-0.12501 0.99195-0.99188
   0  -3   0 17.6083 9.70776   4-0.14802 0.14791-0.12513-0.12518-0.99158 0.99164
   0   3   0 0.89988 10.4120   2 0.32089-0.32080 0.12512 0.12505 0.98138-0.98147
   0   3   0 4.12288 20.8060   6-0.23582 0.23595 0.12506 0.12513-0.99053 0.99044
   1   3   0 795.196 86.1443   1 0.17773-0.10142 0.08247 0.16766 0.99657-0.98281
   1   3   0 904.001 91.0737   2 0.26506-0.18870 0.05585 0.19416 0.99469-0.98096
  -1  -3   0 873.050 94.3365   9 0.13695-0.21322-0.17847-0.07160 0.98310-0.99686
  -1  -3   0 836.274 83.1452   4-0.16218 0.08564-0.08735-0.16304-0.99598 0.98219
   1   3   0 883.094 84.5462   6-0.26480 0.34136 0.21756 0.03252-0.97193 0.98566
   1  -3   0 928.125 87.1955   9 0.17454-0.09820-0.08342-0.16661 0.99652-0.98263
  -1   3   0 961.648 65.9039   7-0.32302 0.24678 0.03811 0.21211-0.98851 0.97458
  -1   3   0 895.990 67.1368   2 0.42988-0.50614 0.26798-0.01760 0.92575-0.93970
  -1   3   0 884.261 93.4344   6-0.21774 0.14142 0.07025 0.18000-0.99683 0.98291
   1  -3   0 943.893 63.2128   3-0.53256 0.60909-0.29940 0.04932-0.87498 0.88881
   1  -3   0 885.821 73.9463   8 0.27821-0.20191-0.05167-0.19828 0.99368-0.97978
   2  -3   0 2173.08 138.482   8 0.22849-0.07585-0.03201-0.21787 0.99832-0.97061
   2   3   0 2060.92 122.826   6-0.30479 0.45774 0.35779-0.10785-0.92337 0.95088
  -2   3   0 2039.72 126.235   7-0.24344 0.09076 0.02309 0.22723-0.99771 0.96994
   2  -3   0 1881.54 116.779   9 0.18365-0.03102-0.05952-0.19050 0.99824-0.97053
   2  -3   0 1896.76 149.609   4-0.10474 0.25749-0.23555-0.01453-0.96912 0.99684
  -2  -3   0 2047.55 123.150   4-0.16905 0.01609-0.06869-0.18175-0.99755 0.96991
  -2   3   0 2123.48 156.643   6-0.20889 0.05612 0.04417 0.20611-0.99863 0.97086
   2   3   0 2082.66 133.895   1 0.18165-0.02901 0.06077 0.18935 0.99814-0.97054
  -2  -3   0 2125.27 157.116   9 0.11155-0.26415-0.23970-0.01039 0.96873-0.99632
  -2  -3   0 1896.49 85.7180   7-0.35297 0.20027 0.04381-0.29401-0.98310 0.95548
  -3  -3   0 6342.32 211.539   7-0.28490 0.05578 0.03089-0.28120-0.99383 0.95235
   3   3   0 6682.33 234.989   1 0.18106 0.04794 0.06411 0.18599 0.99793-0.95650
  -3  -3   0 6395.22 282.523   9 0.08303-0.31195-0.30585 0.05576 0.94788-0.98930
   3  -3   0 6523.44 199.706   9 0.18239 0.04652-0.06284-0.18716 0.99804-0.95651
  -3  -3   0 6240.42 200.703   4-0.16532-0.06406-0.07887-0.17160-0.99674 0.95525
  -3   3   0 6311.63 284.554   6-0.20746-0.02174 0.04001 0.21028-0.99885 0.95723
   3  -3   0 5746.58 266.709   4-0.07774 0.30687-0.30098 0.05102-0.94873 0.99024
   3   3   0 6218.57 164.949   8 0.33007-0.10086-0.07236 0.32244 0.98542-0.94399
   3   3   0 8108.13 264.409   6-0.35056 0.57984 0.55105-0.30124-0.80839 0.84960
  -3   3   0 6805.45 272.020   7-0.22892-0.00020 0.02037 0.23001-0.99861 0.95698
   3  -3   0 6453.71 274.640   8 0.21969 0.00927-0.02855-0.22128 0.99882-0.95729
  -4  -3   0 2201.66 151.285   7-0.27970-0.02583 0.02991-0.28028-0.99442 0.93909
  -4   3   0 2253.76 181.974   7-0.23723-0.06833 0.02193 0.22848-0.99812 0.94264
   4  -3   0 2236.18 108.231   9 0.16361 0.14158-0.11162-0.13840 0.99364-0.93829
   4   3   0 1995.97 122.809   8 0.30675-0.00121-0.06303 0.31311 0.98958-0.93430
   4   3   0 2050.24 130.233   1 0.17487 0.13049 0.09796 0.15213 0.99515-0.93989
  -4   3   0 2179.72 176.510   6-0.21188-0.09375 0.05291 0.19734-0.99811 0.94265
   4  -3   0 1996.35 171.752   8 0.22867 0.07661-0.03208-0.21770 0.99831-0.94296
   4  -3   0 2243.46 182.133   4-0.04806 0.35357-0.36996 0.12015-0.92106 0.97633
  -4   3   0 2018.08 65.5391   3-0.38836 0.08269-0.16274 0.41286-0.96233 0.90689
  -4  -3   0 2005.33 167.863   9 0.05199-0.35725-0.37483 0.12471 0.91983-0.97508
  -4  -3   0 2280.20 112.906   4-0.14373-0.16198-0.13638-0.11408-0.98996 0.93464
   5  -3   0 1201.10 68.2446   9 0.10401 0.27748-0.25746 0.00737 0.96369-0.89453
   5  -3   0 1180.72 145.884   4-0.01619 0.39806-0.44076 0.19110-0.88544 0.95445
   5   3   0 1182.76 142.831   2 0.24893 0.13236 0.03625 0.21351 0.99692-0.92799
   5   3   0 1318.70 102.964   1 0.16070 0.22101 0.17107 0.07902 0.98505-0.91595
  -5   3   0 1137.14 147.876   7-0.25618-0.12583 0.02548 0.22493-0.99672 0.92737
  -5  -3   0 1134.22 137.354   9 0.01891-0.40052-0.44504 0.19492 0.88404-0.95312
  -5  -3   0 1117.33 123.955   7-0.29430-0.08764 0.03267-0.28309-0.99268 0.92347
  -5  -3   0 1284.88 73.6689   4-0.08115-0.30079-0.29285 0.04243-0.95156 0.88247
   5  -3   0 1070.13 138.721   8 0.24692 0.13469-0.03928-0.21047 0.99696-0.92780
   5   3   0 1036.25 107.919   8 0.31677 0.06512-0.06704 0.31711 0.98788-0.91878
  -5   3   0 1089.99 70.4322   3-0.36646-0.01565-0.14285 0.39302-0.97054 0.90124
  -5   3   0 1103.06 132.192   6-0.22083-0.16120 0.07950 0.17074-0.99601 0.92670
  -6   3   0 208.543 62.5888   7-0.28093-0.17752 0.03014 0.22028-0.99429 0.91105
  -6   3   0 213.680 39.3335   3-0.38421-0.07432-0.15895 0.40914-0.96398 0.88082
   6  -3   0 237.536 84.3399   4 0.01750 0.44070-0.51204 0.26253-0.84126 0.92398
  -6  -3   0 217.094 64.7306   7-0.31765-0.14069 0.03710-0.28756-0.98936 0.90628
  -6  -3   0 271.685 77.0844   9-0.01587-0.44208-0.51525 0.26513 0.83997-0.92288
   6   3   0 239.954 62.7878   8 0.33882 0.11941-0.07588 0.32595 0.98367-0.90075
  -6   3   0 307.352 79.7380   6-0.23333-0.22507 0.11741 0.13278-0.99161 0.90846
   6  -3   0 268.699 81.6140   8 0.27063 0.18730-0.04867-0.20105 0.99459-0.91161
   6   3   0 231.783 72.2307   2 0.26604 0.19149 0.05704 0.19271 0.99453-0.91182
  -7  -3   0 1661.02 251.279   9-0.05209-0.48222-0.58444 0.33433 0.78708-0.88380
   7   3   0 1314.37 176.460   2 0.28692 0.24687 0.08268 0.16708 0.99055-0.89405
  -7  -3   0 1107.06 171.209   3-0.29075-0.24460-0.07552-0.17492-0.99069 0.89366
  -7   3   0 1431.29 174.243   6-0.24860-0.28615 0.16508 0.08506-0.98372 0.88674
   7  -3   0 1347.91 193.765   8 0.29782 0.23645-0.05947-0.19021 0.99097-0.89418
   7  -3   0 1333.06 173.392   4 0.05277 0.48177-0.58269 0.33330-0.78784 0.88422
   7   3   0 1351.49 156.223   8 0.36658 0.16800-0.08706 0.33714 0.97741-0.88067
  -7   3   0 1354.30 198.938   7-0.30918-0.22570 0.03549 0.21494-0.99064 0.89351
  -7  -3   0 1123.70 155.541   7-0.34565-0.18910 0.04241-0.29293-0.98453 0.88756
   8  -3   0 609.925 140.180   8 0.32735 0.28325-0.07127-0.17839 0.98595-0.87535
   8   3   0 585.454 124.799   2 0.31056 0.29948 0.11212 0.13768 0.98453-0.87427
  -8   3   0 725.932 131.029   6-0.26600-0.34508 0.22150 0.02859-0.97091 0.86008
  -8  -3   0 630.934 146.288   3-0.31670-0.29513-0.09837-0.15206-0.98515 0.87424
   8   3   0 528.657 106.101   8 0.39750 0.21342-0.09959 0.34967 0.96913-0.85857
  -8   3   0 658.915 150.158   7-0.33972-0.27159 0.04128 0.20914-0.98563 0.87460
  -8  -3   0 587.716 132.477   7-0.37641-0.23474 0.04828-0.29885-0.97809 0.86722
   9   3   0 468.100 108.080   8 0.43037 0.25691-0.11300 0.36309 0.95873-0.83436
  -9  -3   0 418.095 126.553   3-0.34464-0.34366-0.12322-0.12717-0.97762 0.85282
   9  -3   0 377.989 122.577   8 0.35854 0.32839-0.08381-0.16583 0.97934-0.85494
   9   3   0 516.025 125.082   2 0.33632 0.35000 0.14468 0.10516 0.97606-0.85204
  -9   3   0 354.613 128.111   7-0.37183-0.31591 0.04742 0.20301-0.97913 0.85418
  -9  -3   0 395.779 122.968   7-0.40894-0.27860 0.05453-0.30513-0.96996 0.84518
  10  -3   0 8.63779 70.5272   8 0.39095 0.37232-0.09693-0.15270 0.97100-0.83281
 -10   3   0 79.8421 79.9486   7-0.40506-0.35912 0.05378 0.19664-0.97101 0.83213
 -10  -3   0 166.723 86.8455   3-0.37408-0.39068-0.14974-0.10062-0.96782 0.82911
  10   3   0 133.184 86.4900   2 0.36370 0.39891 0.17990 0.07001 0.96470-0.82693
 -10  -3   0 89.3243 75.6944   7-0.44268-0.32126 0.06104-0.31169-0.96001 0.82130
  11   3   0 411.900 140.730   2 0.39236 0.44656 0.21750 0.03249 0.94997-0.79847
  11  -3   0 620.142 202.139   8 0.42428 0.41534-0.11051-0.13910 0.96079-0.80880
  11   3   0 308.828 116.508   5 0.41507 0.42422 0.14158 0.10881 0.95900-0.80729
 -11  -3   0 376.833 136.415   3-0.40468-0.43653-0.17768-0.07264-0.95546 0.80284
 -11  -3   0 349.763 128.210   7-0.47727-0.36307 0.06775-0.31844-0.94813 0.79547
 -11   3   0 273.430 104.785   7-0.43912-0.40148 0.06035 0.19006-0.96114 0.80831
   0   4   0 3025.18 168.925   2 0.35361-0.35346 0.16685 0.16673 0.96918-0.96932
   0  -4   0 3028.77 115.495   8 0.55960-0.55963-0.16674-0.16671 0.89981-0.89971
   0  -4   0 2646.05 180.296   9 0.14171-0.14167-0.16672-0.16667 0.98534-0.98526
   0  -4   0 2848.22 152.645   3-0.39277 0.39295-0.16678-0.16686-0.96054 0.96057
   0   4   0 2880.61 126.278   5 0.45648-0.45651 0.16680 0.16686 0.94216-0.94222
   0   4   0 2941.54 193.663   1 0.16156-0.16162 0.16678 0.16676 0.98580-0.98589
   0  -4   0 2830.81 186.786   4-0.13201 0.13186-0.16683-0.16692-0.98481 0.98488
   0   4   0 2938.90 188.837   6-0.24912 0.24930 0.16673 0.16686-0.98340 0.98328
  -1   4   0 107.547 67.1621   6-0.23474 0.15846 0.12173 0.21192-0.99101 0.97705
  -1   4   0 20.1737 38.8554   2 0.43518-0.51137 0.27522 0.05857 0.92183-0.93584
  -1  -4   0 31.7987 39.7970   3-0.32086 0.24455-0.10205-0.23170-0.98414 0.97033
   1  -4   0 27.5215 30.1794   8 0.37351-0.29721-0.08986-0.24345 0.97568-0.96176
   1   4   0 122.906 56.1724   6-0.27078 0.34740 0.23748 0.09602-0.96657 0.98027
  -1  -4   0 77.8699 55.7809   9 0.12632-0.20258-0.20437-0.12905 0.97758-0.99133
  -1   4   0 77.7599 34.5950   7-0.47352 0.39737 0.06702 0.26648-0.94951 0.93551
   1   4   0 100.161 63.2642   1 0.16740-0.09111 0.13719 0.19634 0.99043-0.97670
   1  -4   0 85.4465 35.1925   3-0.53004 0.60663-0.29692-0.03655-0.87710 0.89092
  -1  -4   0 51.2691 41.4638   4-0.14107 0.06449-0.14333-0.19048-0.98888 0.97509
   1  -4   0 12.1408 42.6351   9 0.15218-0.07583-0.14062-0.19275 0.98972-0.97581
   1   4   0 80.7939 52.7503   2 0.30539-0.22896 0.10565 0.22775 0.98599-0.97230
  -2  -4   0 2715.96 183.626   3-0.28557 0.13276-0.07099-0.26283-0.99163 0.96397
   2  -4   0 2725.82 168.149   9 0.15636-0.00373-0.13007-0.20329 0.99126-0.96353
  -2   4   0 2741.62 166.220   2 0.55927-0.71193 0.45787-0.12387 0.78083-0.80875
  -2  -4   0 2714.47 200.193   9 0.10693-0.25951-0.25060-0.08284 0.96568-0.99325
   2  -4   0 2631.84 161.975   8 0.30447-0.15183-0.06212-0.27110 0.98994-0.96221
  -2   4   0 2597.53 147.162   7-0.34721 0.19465 0.04271 0.29096-0.98423 0.95641
   2   4   0 2548.04 174.830   1 0.16997-0.01734 0.12389 0.20962 0.99221-0.96465
   2   4   0 2566.53 162.120   6-0.29971 0.45275 0.33895-0.00559-0.93142 0.95890
  -2   4   0 2623.06 200.295   6-0.22691 0.07418 0.09781 0.23588-0.99409 0.96629
  -2  -4   0 2440.37 161.259   4-0.14386-0.00915-0.13605-0.19780-0.99001 0.96237
  -2  -4   0 3447.98 109.066   7-0.67319 0.52059 0.10665-0.44001-0.84162 0.81402
   3   4   0 1171.50 67.5483   8 0.66778-0.43845-0.21331 0.54685 0.82238-0.78102
   3   4   0 1138.27 110.483   6-0.33399 0.56339 0.47482-0.14162-0.86141 0.90260
   3  -4   0 1075.59 118.247   8 0.28047-0.05150-0.05257-0.28059 0.99339-0.95184
  -3   4   0 1094.42 135.455   6-0.22470-0.00448 0.09110 0.24259-0.99484 0.95319
   3  -4   0 1129.99 106.757   9 0.15207 0.07685-0.14090-0.19246 0.98967-0.94813
  -3   4   0 1030.32 108.998   7-0.30641 0.07742 0.03496 0.29880-0.99104 0.94938
  -3  -4   0 981.455 99.9030   4-0.13823-0.09118-0.15075-0.18311-0.98766 0.94618
   3  -4   0 1103.39 134.078   4-0.07850 0.30762-0.29919-0.03423-0.94936 0.99090
  -3  -4   0 1099.02 79.7752   7-0.44746 0.21848 0.06197-0.39554-0.95847 0.91701
   3   4   0 1017.88 109.850   1 0.16891 0.06007 0.12939 0.20410 0.99150-0.95011
  -3  -4   0 985.500 124.086   9 0.08422-0.31311-0.30315-0.03031 0.94884-0.99024
  -4  -4   0 854.055 88.2135   7-0.39046 0.08506 0.05098-0.38467-0.97475 0.91943
   4   4   0 905.114 72.3815   8 0.48087-0.17519-0.13379 0.46726 0.93934-0.88411
   4  -4   0 825.252 116.757   8 0.27814 0.02715-0.05165-0.28147 0.99368-0.93832
   4  -4   0 956.496 131.951   4-0.05418 0.35971-0.35598 0.02271-0.92720 0.98252
  -4  -4   0 998.687 133.223   9 0.05868-0.36392-0.36020 0.02672 0.92635-0.98158
   4   4   0 850.607 122.091   2 0.26879 0.03632 0.06039 0.27272 0.99408-0.93899
  -4  -4   0 902.079 89.9632   4-0.12027-0.18549-0.19677-0.13708-0.97868 0.92336
  -4   4   0 764.888 117.675   6-0.22717-0.07843 0.09860 0.23507-0.99400 0.93850
  -4   4   0 861.697 113.884   7-0.29831-0.00713 0.03343 0.30040-0.99215 0.93663
   4   4   0 909.564 107.135   1 0.16355 0.14178 0.15678 0.17670 0.98747-0.93224
   4  -4   0 987.308 92.9383   9 0.13525 0.16994-0.18263-0.15075 0.98227-0.92691
  -5   4   0 3800.31 274.959   6-0.23353-0.14850 0.11801 0.21563-0.99153 0.92218
  -5  -4   0 3567.82 271.310   3-0.27945-0.10290-0.06565-0.26828-0.99267 0.92341
   5   4   0 3829.72 215.624   1 0.15261 0.22909 0.21052 0.12295 0.97722-0.90815
   5  -4   0 4546.03 184.768   9 0.09676 0.28471-0.27434-0.05910 0.95852-0.88936
   5   4   0 3937.61 189.003   8 0.43803-0.05601-0.11613 0.44957 0.95607-0.88700
  -5  -4   0 3772.97 265.584   9 0.03076-0.41233-0.42028 0.08678 0.89755-0.96661
   5  -4   0 3989.20 285.383   4-0.02739 0.40930-0.41627 0.08315-0.89864 0.96770
  -5  -4   0 4048.29 223.833   7-0.37922-0.00258 0.04882-0.38261-0.97745 0.90825
  -5  -4   0 4271.46 188.316   4-0.08130-0.30074-0.29250-0.04131-0.95168 0.88256
   5  -4   0 4146.64 147.548   5 0.51269-0.13095 0.20160-0.53457 0.91359-0.84469
   5   4   0 4037.96 285.418   2 0.27599 0.10534 0.06921 0.26386 0.99279-0.92391
   5  -4   0 4290.58 293.479   8 0.28784 0.09377-0.05550-0.27757 0.99241-0.92323
  -5   4   0 4064.60 277.163   7-0.30608-0.07581 0.03490 0.29897-0.99108 0.92169
  -6   4   0 51.4625 42.2074   7-0.32274-0.13559 0.03806 0.29584-0.98855 0.90527
  -6  -4   0 65.2106 36.3207   3-0.29380-0.16503-0.07820-0.25573-0.99011 0.90696
   6  -4   0 63.8414 45.3650   4 0.00157 0.45671-0.47880 0.14584-0.86298 0.94576
   6   4   0 84.0495 32.5465   8 0.43378 0.02457-0.11440 0.44783 0.95756-0.87466
   6   4   0 112.169 59.7598   2 0.28861 0.16895 0.08478 0.24828 0.99017-0.90751
   6  -4   0 99.5632 76.5283   8 0.30490 0.15303-0.06230-0.27072 0.98987-0.90689
  -6   4   0 56.2565 33.4174   6-0.24307-0.21535 0.14762 0.18599-0.98692 0.90373
  -6  -4   0 152.574 67.8017   9 0.00073-0.45865-0.48218 0.14868 0.86183-0.94473
  -6  -4   0 82.6902 38.1271   7-0.38710-0.07110 0.05033-0.38419-0.97557 0.89250
  -7  -4   0 1907.80 237.282   9-0.03112-0.50315-0.54487 0.21137 0.81858-0.91530
   7   4   0 2071.76 231.193   2 0.30530 0.22849 0.10554 0.22753 0.98601-0.88958
  -7   4   0 1571.39 210.041   7-0.34490-0.18988 0.04227 0.29165-0.98467 0.88749
  -7  -4   0 1497.38 206.339   3-0.31252-0.22280-0.09468-0.23925-0.98613 0.88911
   7  -4   0 1898.82 220.798   4 0.03244 0.50218-0.54246 0.20965-0.81954 0.91601
  -7  -4   0 1829.47 194.675   7-0.40480-0.12980 0.05374-0.38765-0.97107 0.87411
   7  -4   0 1913.19 236.794   8 0.32678 0.20748-0.07105-0.26195 0.98605-0.88926
  -7   4   0 1698.03 212.453   6-0.25519-0.27959 0.18617 0.14738-0.97938 0.88234
  -8  -4   0 104.801 81.8817   3-0.33448-0.27735-0.11415-0.21976-0.98055 0.86963
  -8  -4   0 145.874 112.202   9-0.06462-0.54600-0.60744 0.27394 0.76708-0.87763
  -8   4   0 71.4741 60.0347   6-0.26939-0.34173 0.23283 0.10067-0.96787 0.85699
  -8   4   0 -34.392 58.6384   7-0.37066-0.24056 0.04719 0.28674-0.97939 0.86831
   8   4   0 76.3951 74.1650   2 0.32511 0.28494 0.13045 0.20264 0.98000-0.86981
   8  -4   0 -162.51 81.3186   8 0.35200 0.25860-0.08118-0.25178 0.98084-0.87024
  -8  -4   0 -8.4412 66.0054   7-0.42823-0.18277 0.05824-0.39221-0.96447 0.85360
   9   4   0 285.216 104.148   2 0.34735 0.33896 0.15879 0.17434 0.97179-0.84784
  -9  -4   0 353.111 121.632   3-0.35888-0.32942-0.13601-0.19787-0.97312 0.84830
   9  -4   0 513.848 144.498   8 0.37960 0.30733-0.09232-0.24061 0.97410-0.84970
  -9  -4   0 291.985 102.276   7-0.45526-0.23213 0.06347-0.39750-0.95589 0.83111
  -9   4   0 204.223 92.1598   7-0.39893-0.28873 0.05260 0.28133-0.97261 0.84761
 -10  -4   0 113.484 108.950   7-0.48473-0.27905 0.06921-0.40328-0.94533 0.80661
 -10   4   0 163.273 103.016   7-0.42900-0.33509 0.05839 0.27553-0.96424 0.82530
  10   4   0 86.2356 77.2878   2 0.37150 0.39107 0.19006 0.14312 0.96099-0.82330
  10  -4   0 -81.550 100.163   8 0.40898 0.35428-0.10426-0.22865 0.96569-0.82750
 -10  -4   0 74.4357 77.2858   3-0.38517-0.37960-0.15983-0.17402-0.96360 0.82487
 -11  -4   0 496.216 181.524   3-0.41296-0.42826-0.18532-0.14849-0.95171 0.79907
  11   4   0 252.698 216.533   2 0.39720 0.44166 0.22392 0.10934 0.94717-0.79577
   0  -5   0 -25.320 27.2122   9 0.12465-0.12461-0.20840-0.20833 0.97665-0.97655
   0  -5   0 -2.4631 21.9401   3-0.43786 0.43809-0.20845-0.20857-0.93935 0.93936
   0   5   0 -13.895 17.8456   5 0.52371-0.52377 0.20851 0.20860 0.90715-0.90721
   0   5   0 -16.300 30.3993   1 0.15304-0.15311 0.20849 0.20845 0.97766-0.97778
   0   5   0 3.54700 19.8716   6-0.26203 0.26226 0.20840 0.20859-0.97422 0.97405
   0  -5   0 -22.660 12.1992   8 0.65665-0.65667-0.20843-0.20839 0.83185-0.83174
   0   5   0 -5.4719 20.1188   2 0.38563-0.38542 0.20859 0.20841 0.95371-0.95391
  -1  -5   0 280.179 62.6246   3-0.37148 0.29524-0.14739-0.26976-0.96876 0.95494
  -1   5   0 270.414 71.7424   6-0.25002 0.17380 0.16960 0.24746-0.98284 0.96883
   1   5   0 350.434 78.3438   1 0.15756-0.08128 0.18661 0.23031 0.98217-0.96846
   1   5   0 323.217 59.7309   5 0.41246-0.33605 0.13998 0.27710 0.95995-0.94622
   1  -5   0 273.340 63.6858   9 0.13172-0.05538-0.19128-0.22545 0.98048-0.96656
  -1   5   0 -15.857 16.5639   1 0.14587-0.22228 0.24221 0.17475 0.96969-0.98364
   1   5   0 321.843 69.1191   6-0.27934 0.35601 0.26656 0.15034-0.95786 0.97151
  -1   5   0 360.165 59.0081   2 0.45190-0.52804 0.29836 0.11886 0.90858-0.92265
   1  -5   0 334.972 69.3639   4-0.10510 0.18135-0.23468-0.18242-0.96936 0.98326
   1  -5   0 341.391 54.5916   8 0.46990-0.39359-0.12926-0.28743 0.94392-0.92998
  -1  -5   0 272.478 71.7775   9 0.11308-0.18932-0.23610-0.18066 0.96970-0.98343
   1  -5   0 313.927 54.2795   3-0.54932 0.62597-0.31609-0.10077-0.86016 0.87395
  -1   5   0 369.031 46.1097   7-0.63516 0.55910 0.09897 0.31779-0.86844 0.85432
   2   5   0 84.8708 32.2553   6-0.30188 0.45499 0.34696 0.06981-0.92806 0.95548
   2  -5   0 227.951 56.8900   9 0.13324 0.01938-0.18755-0.22916 0.98126-0.95352
  -2   5   0 212.111 68.5567   6-0.24300 0.09030 0.14738 0.26971-0.98696 0.95912
   2   5   0 166.907 59.4721   2 0.31710-0.16438 0.12033 0.29631 0.98258-0.95513
  -2  -5   0 144.261 65.9127   9 0.09771-0.25028-0.27214-0.14465 0.95922-0.98677
   2  -5   0 200.103 63.4833   4-0.09082 0.24350-0.26961-0.14739-0.95919 0.98693
   2  -5   0 142.089 43.6322   8 0.38590-0.23324-0.09488-0.32171 0.97241-0.94465
   2   5   0 168.351 50.6909   1 0.15929-0.00667 0.17808 0.23882 0.98378-0.95624
  -2   5   0 165.376 41.4321   7-0.46612 0.31368 0.06558 0.35139-0.95216 0.92426
  -2   5   0 262.040 58.6598   2 0.54582-0.69838 0.43651-0.01907 0.80217-0.83016
  -2  -5   0 170.227 61.7091   3-0.33429 0.18153-0.11398-0.30327-0.98061 0.95294
  -3   5   0 2863.88 237.697   6-0.24040 0.01126 0.13927 0.27784-0.98832 0.94663
  -3  -5   0 2933.58 237.704   9 0.07910-0.30798-0.31474-0.10207 0.94463-0.98602
   3   5   0 3065.60 203.661   6-0.32861 0.55811 0.45190-0.03529-0.87527 0.91642
   3   5   0 2695.95 207.102   1 0.15797 0.07100 0.18457 0.23232 0.98256-0.94119
   3  -5   0 2826.47 191.468   9 0.12764 0.10126-0.20117-0.21555 0.97831-0.93675
  -3   5   0 2830.79 184.398   7-0.39827 0.16940 0.05248 0.36464-0.97278 0.93105
  -3  -5   0 2836.72 223.826   3-0.31604 0.08678-0.09778-0.31954-0.98531 0.94378
  -3  -5   0 2708.23 145.367   7-0.69625 0.46738 0.11136-0.52811-0.82355 0.78207
   3   5   0 2801.88 221.279   2 0.30427-0.07531 0.10424 0.31230 0.98629-0.94505
   3  -5   0 2646.50 230.795   4-0.07329 0.30240-0.31150-0.10537-0.94493 0.98648
   3  -5   0 2808.97 202.930   8 0.34839-0.11941-0.07973-0.33678 0.98164-0.94007
  -3  -5   0 3177.46 206.593   4-0.11582-0.11363-0.20798-0.20928-0.97611 0.93463
  -4   5   0 1.52064 34.4349   7-0.37232 0.06700 0.04751 0.36971-0.97902 0.92343
  -4  -5   0 -8.6872 31.6246   3-0.31055 0.00477-0.09293-0.32443-0.98659 0.93119
   4   5   0 8.51203 23.3173   1 0.15311 0.15221 0.20813 0.20875 0.97774-0.92254
  -4  -5   0 11.8387 28.0135   9 0.05766-0.36287-0.36245-0.05439 0.92537-0.98059
  -4  -5   0 10.4588 24.8737   4-0.09994-0.20587-0.24738-0.16985-0.96584 0.91052
  -4   5   0 11.6311 39.4181   6-0.24168-0.06390 0.14327 0.27382-0.98766 0.93212
   4   5   0 0.08932 19.5531   2 0.30082 0.00436 0.09994 0.31652 0.98721-0.93217
   4  -5   0 -2.3843 31.7212   8 0.33526-0.02995-0.07445-0.34200 0.98440-0.92902
   4  -5   0 83.1999 57.1458   4-0.05292 0.35845-0.35885-0.05787-0.92596 0.98129
   4  -5   0 -32.982 26.0895   9 0.11229 0.19289-0.23796-0.17877 0.96920-0.91383
   4   5   0 39.9378 33.7764   6-0.35653 0.66237 0.58150-0.16504-0.78391 0.83873
  -4  -5   0 -14.965 16.9183   7-0.54860 0.24337 0.08173-0.49864-0.91773 0.86240
  -5  -5   0 1263.80 126.377   4-0.06988-0.31224-0.31954-0.09765-0.94193 0.87278
  -5   5   0 1083.18 161.554   6-0.24628-0.13572 0.15773 0.25932-0.98511 0.91572
   5  -5   0 1136.53 165.653   8 0.33640 0.04522-0.07491-0.34148 0.98417-0.91498
   5  -5   0 1123.37 168.784   4-0.03003 0.41196-0.41043-0.00616-0.90165 0.97074
  -5  -5   0 1099.31 158.723   3-0.31395-0.06833-0.09594-0.32146-0.98580 0.91653
  -5  -5   0 975.791 155.156   9 0.03374-0.41528-0.41399-0.00287 0.90082-0.96987
  -5  -5   0 1072.07 112.034   7-0.49645 0.11481 0.07148-0.48854-0.94077 0.87157
   5   5   0 679.269 160.885   2 0.30442 0.07696 0.10443 0.31197 0.98625-0.91744
  -5   5   0 1177.68 155.974   7-0.36755-0.01419 0.04660 0.37069-0.98007 0.91061
  -6   5   0 -35.234 56.7239   7-0.37498-0.08321 0.04801 0.36932-0.97842 0.89508
  -6  -5   0 -40.038 30.2211   7-0.48095 0.02292 0.06847-0.48562-0.94676 0.86369
  -6  -5   0 -106.12 66.0842   9 0.00758-0.46547-0.46830 0.05144 0.87041-0.95329
  -6   5   0 -11.109 47.7361   6-0.25371-0.20471 0.18139 0.23562-0.98041 0.89716
   6  -5   0 82.4876 79.0508   4-0.00489 0.46320-0.46510 0.04867-0.87136 0.95418
   6   5   0 -5.9401 56.9318   2 0.31340 0.14420 0.11568 0.30069 0.98370-0.90111
  -6  -5   0 -51.436 44.3888   3-0.32378-0.13502-0.10463-0.31277-0.98340 0.90024
   6  -5   0 -128.69 83.1286   8 0.34659 0.11136-0.07900-0.33734 0.98203-0.89903
   7  -5   0 832.718 158.318   4 0.02231 0.51238-0.52191 0.10565-0.83442 0.93094
  -7   5   0 887.098 165.415   6-0.26351-0.27130 0.21328 0.20368-0.97301 0.87592
  -7  -5   0 934.757 168.586   3-0.33836-0.19693-0.11763-0.29978-0.97946 0.88241
   7   5   0 516.120 170.722   2 0.32656 0.20726 0.13228 0.28408 0.97952-0.88316
  -7   5   0 645.286 139.542   7-0.39004-0.14460 0.05090 0.36648-0.97486 0.87761
  -7  -5   0 861.135 161.651   9-0.02058-0.51367-0.52445 0.10757 0.83352-0.93023
   7  -5   0 1012.66 181.066   8 0.36286 0.17142-0.08556-0.33074 0.97832-0.88152
  -8   5   0 -40.343 57.4729   7-0.41020-0.20089 0.05477 0.36263-0.96962 0.85847
  -8  -5   0 23.9044 66.3852   3-0.35658-0.25521-0.13394-0.28345-0.97388 0.86294
   8  -5   0 -12.151 59.7279   4 0.05138 0.55966-0.57998 0.16386-0.79009 0.90027
   8  -5   0 128.645 80.1426   8 0.38342 0.22719-0.09387-0.32239 0.97308-0.86248
  -8   5   0 43.0476 43.7948   6-0.27527-0.33589 0.25264 0.16425-0.96216 0.85122
  -8  -5   0 29.7582 80.3793   9-0.05056-0.56004-0.58159 0.16470 0.78947-0.90000
   8   5   0 -22.205 51.1311   2 0.34301 0.26705 0.15323 0.26315 0.97352-0.86340
   9   5   0 12.9129 55.5040   2 0.36210 0.32420 0.17782 0.23859 0.96544-0.84158
   9  -5   0 13.5849 63.9929   8 0.40710 0.27984-0.10349-0.31274 0.96627-0.84187
  -9   5   0 207.966 96.3736   7-0.43392-0.25361 0.05934 0.35808-0.96275 0.83767
  -9  -5   0 209.811 108.907   3-0.37760-0.31068-0.15295-0.26443-0.96651 0.84167
  10   5   0 51.3846 78.5355   2 0.38331 0.37925 0.20553 0.21093 0.95495-0.81737
 -10   5   0 -34.900 96.7105   7-0.46023-0.30373 0.06443 0.35299-0.95420 0.81518
  10  -5   0 5.03939 87.6745   8 0.43314 0.33013-0.11413-0.30208 0.95778-0.81960
 -10  -5   0 62.7666 113.824   3-0.40085-0.36392-0.17417-0.24318-0.95713 0.81838
  10   5   0 104.599 95.3255   5 0.41759 0.34563 0.14310 0.27389 0.95807-0.82011
   0  -6   0 1220.09 127.664   3-0.48191 0.48219-0.25011-0.25028-0.91312 0.91309
   0   6   0 1056.74 145.811   6-0.27451 0.27480 0.25006 0.25033-0.96293 0.96270
   0   6   0 1435.48 119.223   5 0.58923-0.58932 0.25022 0.25034 0.86222-0.86226
   0  -6   0 1166.98 152.433   9 0.10715-0.10711-0.25009-0.24999 0.96583-0.96572
   0  -6   0 1085.39 141.417   4-0.09880 0.09855-0.25019-0.25041-0.96504 0.96509
   1  -6   0 222.953 67.8278   9 0.11192-0.03558-0.23884-0.26123 0.96896-0.95503
   1   6   0 202.056 51.7303   5 0.48200-0.40560 0.18251 0.31803 0.93005-0.91633
   1  -6   0 199.547 74.7379   4-0.09074 0.16693-0.26979-0.23074-0.95914 0.97303
   1   6   0 147.597 62.8736   1 0.14775-0.07149 0.23345 0.26685 0.97188-0.95820
  -1   6   0 226.385 80.1657   6-0.26420 0.18802 0.21557 0.28489-0.97243 0.95837
   1  -6   0 226.635 56.7993   3-0.57690 0.65361-0.34402-0.15621-0.83301 0.84674
  -1  -6   0 201.058 60.4040   9 0.09824-0.17449-0.27091-0.22920 0.95960-0.97332
  -1  -6   0 222.403 65.5185   4-0.10279 0.02610-0.24039-0.26026-0.96780 0.95401
  -1   6   0 248.380 56.7677   2 0.47323-0.54930 0.32842 0.17224 0.88956-0.90372
   1  -6   0 289.666 57.6749   8 0.56605-0.48970-0.16946-0.33060 0.89602-0.88206
   1   6   0 180.222 57.6897   2 0.37792-0.30136 0.19845 0.30176 0.95777-0.94421
  -1  -6   0 208.614 54.5209   3-0.42001 0.34383-0.19183-0.30872-0.94838 0.93453
   1   6   0 210.063 68.5321   6-0.28892 0.36566 0.29998 0.20031-0.94652 0.96009
   2  -6   0 1424.01 178.999   4-0.07919 0.23182-0.29753-0.20291-0.94995 0.97767
   2   6   0 1440.05 168.025   2 0.35286-0.20005 0.16587 0.33417 0.96950-0.94213
  -2  -6   0 1459.28 157.364   3-0.38191 0.22923-0.15686-0.34380-0.96487 0.93719
  -2   6   0 1676.11 128.941   7-0.59643 0.44411 0.09121 0.40903-0.89235 0.86432
   2  -6   0 1489.28 163.723   9 0.11173 0.04089-0.23929-0.26077 0.96884-0.94109
  -2  -6   0 1271.77 166.301   9 0.08579-0.23834-0.29957-0.20056 0.95011-0.97765
  -2   6   0 1351.82 175.653   6-0.25782 0.10518 0.19468 0.30582-0.97748 0.94958
  -2  -6   0 1422.88 157.470   4-0.10193-0.05119-0.24249-0.25816-0.96722 0.93957
   2   6   0 1299.16 163.749   1 0.14892 0.00369 0.22801 0.27228 0.97320-0.94569
  -2   6   0 1914.03 172.364   2 0.54879-0.70130 0.44120 0.05968 0.79761-0.82569
   2   6   0 1370.17 157.738   6-0.30727 0.46045 0.36716 0.13300-0.91918 0.94653
   2  -6   0 1590.13 143.808   8 0.47071-0.31803-0.12959-0.37037 0.94359-0.91582
  -3  -6   0 19.5991 30.0478   4-0.09508-0.13442-0.25926-0.24140-0.96237 0.92087
  -3  -6   0 67.0849 35.9837   3-0.36055 0.13136-0.13751-0.36323-0.97257 0.93102
   3   6   0 34.6455 47.3524   2 0.33863-0.10961 0.14762 0.35229 0.97520-0.93402
   3  -6   0 16.4394 41.6422   4-0.06456 0.29364-0.33197-0.16835-0.93711 0.97865
   3  -6   0 54.2807 43.3980   8 0.42148-0.19248-0.10936-0.39050 0.96171-0.92013
  -3  -6   0 97.9903 56.2302   9 0.07024-0.29910-0.33465-0.16551 0.93698-0.97835
   3   6   0 -0.8676 38.3553   1 0.14740 0.08155 0.23509 0.26519 0.97148-0.93014
  -3   6   0 54.8199 47.2693   6-0.25505 0.02595 0.18574 0.31477-0.97947 0.93773
   3  -6   0 -3.5118 44.6403   9 0.10538 0.12352-0.25426-0.24580 0.96463-0.92306
   3   6   0 10.2807 43.0925   6-0.32889 0.55848 0.45309 0.04692-0.87457 0.91566
  -3   6   0 44.6093 36.0140   7-0.50201 0.27330 0.07257 0.42785-0.93852 0.89669
  -4  -6   0 1215.97 164.053   3-0.35115 0.04544-0.12906-0.37174-0.97562 0.92021
   4  -6   0 1398.70 149.647   9 0.09095 0.21422-0.28775-0.21234 0.95415-0.89878
   4   6   0 1779.39 197.846   6-0.35200 0.65794 0.55819-0.05833-0.80283 0.85760
   4   6   0 820.375 162.286   2 0.33284-0.02759 0.14024 0.35958 0.97733-0.92236
  -4   6   0 1141.67 173.736   6-0.25554-0.05001 0.18731 0.31319-0.97913 0.92353
   4  -6   0 1322.00 161.416   8 0.39832-0.09300-0.09993-0.39986 0.96889-0.91350
  -4   6   0 1469.58 151.204   7-0.45752 0.15238 0.06391 0.43664-0.95513 0.89945
  -4  -6   0 1375.74 190.490   9 0.05193-0.35712-0.37496-0.12523 0.91977-0.97498
   4  -6   0 1252.01 188.619   4-0.04719 0.35270-0.37194-0.12827-0.92017 0.97550
  -5  -6   0 51.5506 49.5945   9 0.03115-0.41268-0.41944-0.08076 0.89799-0.96702
   5   6   0 21.2104 37.0129   2 0.33361 0.04783 0.14125 0.35850 0.97705-0.90830
  -5   6   0 129.172 74.7308   6-0.25891-0.12309 0.19820 0.30227-0.97666 0.90722
  -5  -6   0 19.2887 47.2703   3-0.35049-0.03174-0.12847-0.37237-0.97583 0.90654
  -5   6   0 93.5680 53.3866   7-0.43934 0.05776 0.06039 0.44027-0.96107 0.89153
   5  -6   0 24.1275 44.2696   4-0.02736 0.40928-0.41634-0.08370-0.89860 0.96770
   5  -6   0 116.458 68.0929   8 0.39117-0.00951-0.09702-0.40271 0.97094-0.90175
  -6   6   0 572.714 123.001   7-0.43666-0.02138 0.05987 0.44087-0.96191 0.87848
   6   6   0 152.097 110.060   2 0.33962 0.11803 0.14890 0.35081 0.97483-0.89231
   6  -6   0 601.501 136.651   8 0.39448 0.06351-0.09836-0.40131 0.97000-0.88700
   6  -6   0 358.237 120.996   4-0.00526 0.46360-0.46429-0.03561-0.87184 0.95468
  -6  -6   0 380.277 114.358   3-0.35637-0.10238-0.13375-0.36711-0.97395 0.89077
  -6   6   0 470.545 132.710   6-0.26476-0.19365 0.21742 0.28301-0.97196 0.88866
  -6  -6   0 486.545 125.300   9 0.00813-0.46600-0.46718-0.03305 0.87109-0.95396
   7  -6   0 79.3541 86.6497   4 0.01890 0.51582-0.51491 0.01518-0.83929 0.93584
  -7  -6   0 104.861 73.8982   3-0.36725-0.16800-0.14356-0.35732-0.97027 0.87320
  -7   6   0 59.4642 40.7161   7-0.44385-0.09062 0.06127 0.43953-0.95964 0.86232
  -7  -6   0 -13.792 60.5805   9-0.01695-0.51726-0.51735 0.01710 0.83851-0.93522
   7   6   0 32.1444 79.2436   2 0.34979 0.18409 0.16192 0.33776 0.97079-0.87452
   7  -6   0 -59.922 85.4510   8 0.40501 0.12930-0.10264-0.39698 0.96690-0.87010
  -7   6   0 131.426 81.4712   6-0.27278-0.26203 0.24420 0.25618-0.96465 0.86750
  -8  -6   0 749.153 176.325   3-0.38202-0.22974-0.15696-0.34392-0.96483 0.85386
   8   6   0 277.726 157.222   2 0.36332 0.24677 0.17940 0.32028 0.96488-0.85485
   8  -6   0 699.281 160.163   8 0.42072 0.18991-0.10904-0.39053 0.96196-0.85137
  -8   6   0 697.714 172.629   7-0.45772-0.15321 0.06395 0.43689-0.95506 0.84383
  -8  -6   0 894.196 230.322   9-0.04392-0.56663-0.56918 0.06892 0.79964-0.91017
   8  -6   0 665.868 165.558   4 0.04499 0.56611-0.56746 0.06788-0.80026 0.91049
  -8   6   0 735.944 180.190   6-0.28263-0.32855 0.27794 0.22237-0.95417 0.84316
  -9   6   0 -11.629 61.3426   7-0.47631-0.21107 0.06756 0.43332-0.94849 0.82332
  -9   6   0 32.4106 71.7529   6-0.29401-0.39353 0.31819 0.18203-0.93972 0.81485
   9   6   0 44.1709 59.7761   5 0.42047 0.26660 0.14484 0.35551 0.95699-0.83281
   9  -6   0 -51.753 74.6487   8 0.44027 0.24669-0.11705-0.38249 0.95527-0.83089
   9   6   0 0.64956 72.5002   2 0.37960 0.30673 0.20065 0.29905 0.95690-0.83315
  -9  -6   0 20.6817 106.749   3-0.39986-0.28839-0.17326-0.32759-0.95756 0.83268
 -10   6   0 316.709 160.016   7-0.49834-0.26547 0.07186 0.42904-0.94001 0.80089
   0  -7   0 56.9071 45.5083   3-0.52483 0.52519-0.29178-0.29200-0.88142 0.88132
   0  -7   0 2.73150 32.0498   9 0.08920-0.08915-0.29178-0.29164 0.95280-0.95268
   0   7   0 -14.943 37.9499   2 0.44739-0.44705 0.29209 0.29175 0.91229-0.91267
   0  -7   0 48.4461 58.4424   4-0.08157 0.08125-0.29186-0.29216-0.95191 0.95194
   0   7   0 42.5154 35.0326   6-0.28657 0.28692 0.29171 0.29208-0.94946 0.94915
  -1  -7   0 317.223 91.8978   4-0.08406 0.00729-0.28591-0.29814-0.95392 0.94010
  -1   7   0 183.549 69.3371   6-0.27755 0.20142 0.26041 0.32346-0.95980 0.94566
  -1  -7   0 272.201 75.4303   3-0.46679 0.39068-0.23570-0.34823-0.92278 0.90889
   1  -7   0 311.766 90.8739   9 0.09228-0.01595-0.28471-0.29871 0.95517-0.94123
  -1  -7   0 227.151 83.0882   9 0.08229-0.15853-0.30753-0.27591 0.94727-0.96098
   1   7   0 171.603 57.5403   2 0.41161-0.33499 0.24320 0.34043 0.93829-0.92482
  -1   7   0 301.772 85.7248   2 0.49656-0.57257 0.36207 0.22201 0.86569-0.87996
   1  -7   0 254.897 88.5881   4-0.07535 0.15147-0.30665-0.27732-0.94670 0.96058
   1   7   0 187.764 64.4943   6-0.29886 0.37566 0.33580 0.24789-0.93272 0.94621
   2   7   0 779.831 130.642   2 0.38722-0.23434 0.21069 0.37276 0.95284-0.92555
   2   7   0 990.484 156.509   6-0.31424 0.46749 0.39391 0.18966-0.90651 0.93377
  -2  -7   0 825.312 132.785   4-0.08216-0.07102-0.29045-0.29360-0.95239 0.92472
   2  -7   0 1036.28 157.949   9 0.09085 0.06176-0.28799-0.29542 0.95407-0.92632
  -2  -7   0 847.615 159.454   9 0.07205-0.22460-0.33059-0.25288 0.93859-0.96612
  -2   7   0 992.022 169.558   6-0.27172 0.11912 0.24061 0.34329-0.96568 0.93772
   2  -7   0 988.406 124.524   8 0.55740-0.40469-0.16580-0.41753 0.90109-0.87332
   2   7   0 1049.44 139.972   5 0.48580-0.33298 0.18487 0.39913 0.92812-0.90059
   2  -7   0 912.623 159.644   4-0.06586 0.21844-0.32894-0.25495-0.93831 0.96601
  -2  -7   0 817.009 136.149   3-0.42844 0.27584-0.19966-0.38439-0.94422 0.91649
  -3  -7   0 2820.10 279.405   9 0.05886-0.28772-0.35980-0.22370 0.92652-0.96788
  -3  -7   0 2941.85 256.416   3-0.40487 0.17576-0.17787-0.40630-0.95537 0.91379
  -3   7   0 3040.05 291.191   6-0.26889 0.03983 0.23115 0.35277-0.96833 0.92651
   3   7   0 2459.43 216.425   5 0.44755-0.21831 0.16133 0.42262 0.94607-0.90473
   3  -7   0 3257.02 240.839   8 0.49826-0.26923-0.14101-0.44222 0.93164-0.89005
  -3  -7   0 3071.71 258.071   4-0.07497-0.15461-0.30754-0.27650-0.94638 0.90486
   3   7   0 3451.04 275.908   6-0.33218 0.56185 0.46703 0.11639-0.86622 0.90722
   3  -7   0 3338.78 265.616   9 0.08395 0.14494-0.30376-0.27965 0.94863-0.90706
   3  -7   0 3347.39 316.961   4-0.05348 0.28251-0.35759-0.22619-0.92651 0.96803
  -4  -7   0 -65.905 54.2417   3-0.39240 0.08676-0.16643-0.41781-0.96069 0.90524
   4   7   0 31.6860 56.5647   2 0.36462-0.05929 0.18108 0.40211 0.96428-0.90940
  -4  -7   0 -66.860 52.8435   9 0.04304-0.34821-0.39416-0.18937 0.91074-0.96594
  -4   7   0 140.877 67.3789   6-0.26885-0.03669 0.23097 0.35294-0.96837 0.91271
   4   7   0 4.61319 35.9701   5 0.42674-0.12113 0.14865 0.43525 0.95459-0.89942
   4   7   0 -19.121 52.2050   6-0.35147 0.65751 0.55553 0.02773-0.80491 0.85960
  -4  -7   0 24.2953 54.3408   4-0.06112-0.24483-0.33996-0.24403-0.93390 0.87853
   4  -7   0 -28.965 43.5433   8 0.46599-0.16062-0.12764-0.45551 0.94551-0.89011
   4  -7   0 1.29527 59.2009   4-0.03847 0.34395-0.39161-0.19205-0.91098 0.96629
   4  -7   0 -107.73 61.8603   9 0.07009 0.23506-0.33497-0.24846 0.93685-0.88148
   5   7   0 5.24383 42.4092   2 0.36319 0.01834 0.17923 0.40387 0.96494-0.89628
   5   7   0 60.4834 52.1810   5 0.41813-0.03618 0.14343 0.44042 0.95787-0.88889
  -5   7   0 -36.255 81.7657   6-0.27129-0.11069 0.23917 0.34472-0.96610 0.89658
  -5  -7   0 144.202 69.0388   3-0.38836 0.00620-0.16273-0.42156-0.96233 0.89301
   5  -7   0 154.200 90.6009   4-0.02107 0.40299-0.43013-0.15340-0.89129 0.96038
   5  -7   0 233.368 99.0568   8 0.45095-0.06926-0.12143-0.46163 0.95135-0.88215
  -5  -7   0 58.1892 50.0832   9 0.02480-0.40629-0.43279-0.15078 0.89085-0.95987
   6   7   0 154.383 105.647   2 0.36674 0.09099 0.18385 0.39920 0.96328-0.88086
  -6  -7   0 322.901 121.522   9 0.00434-0.46218-0.47488-0.10869 0.86639-0.94924
   6   7   0 461.644 125.997   5 0.41832 0.03996 0.14354 0.44027 0.95780-0.87501
  -6  -7   0 282.266 96.9543   3-0.39082-0.06785-0.16499-0.41934-0.96134 0.87813
   6  -7   0 279.535 106.221   8 0.44754 0.01048-0.12004-0.46297 0.95262-0.86962
   6  -7   0 332.634 114.845   4-0.00148 0.45981-0.47235-0.11103-0.86697 0.94980
  -6   7   0 181.834 90.5788   6-0.27595-0.18245 0.25495 0.32889-0.96147 0.87810
   7  -7   0 60.8504 65.1173   4 0.02018 0.51457-0.51753-0.06569-0.83748 0.93403
   7   7   0 82.6323 117.560   2 0.37437 0.15956 0.19379 0.38921 0.95957-0.86340
  -7   7   0 -87.678 78.3006   6-0.28257-0.25224 0.27772 0.30607-0.95424 0.85701
   7  -7   0 -30.343 59.3643   8 0.45234 0.08200-0.12201-0.46094 0.95083-0.85403
  -7  -7   0 -116.15 71.0255   3-0.39839-0.13680-0.17191-0.41243-0.95818 0.86108
  -7  -7   0 -103.36 85.2961   9-0.01817-0.51601-0.51974-0.06387 0.83684-0.93354
  -7   7   0 100.348 89.2711   7-0.50561-0.02869 0.07328 0.51091-0.93704 0.83960
   7   7   0 -86.181 75.9126   5 0.42504 0.10955 0.14761 0.43617 0.95525-0.85866
  -8  -7   0 114.661 93.2897   3-0.41002-0.20169-0.18260-0.40174-0.95306 0.84205
   8   7   0 43.1412 89.8837   2 0.38535 0.22479 0.20823 0.37478 0.95385-0.84394
  -8  -7   0 432.662 182.669   9-0.04259-0.56793-0.56668-0.01694 0.80165-0.91217
   8   7   0 193.061 96.1894   5 0.43672 0.17416 0.15472 0.42904 0.95061-0.84023
  -8   7   0 123.221 82.9434   6-0.29088-0.32033 0.30697 0.27676-0.94396 0.83287
   8  -7   0 222.312 129.478   4 0.04376 0.56738-0.56503-0.01804-0.80220 0.91243
   8  -7   0 212.620 114.609   8 0.46313 0.14753-0.12646-0.45645 0.94665-0.83606
  -8   7   0 208.516 113.289   7-0.51264-0.09811 0.07466 0.50960-0.93410 0.82274
  -9   7   0 163.411 113.779   7-0.52559-0.16161 0.07719 0.50711-0.92845 0.80317
   9  -7   0 198.322 110.361   8 0.47842 0.20856-0.13278-0.45009 0.94038-0.81601
  -9   7   0 -13.566 58.0947   6-0.30062-0.38695 0.34232 0.24132-0.93002 0.80506
   0   8   0 5692.99 403.058   6-0.29819 0.29859 0.33337 0.33383-0.93371 0.93331
   0  -8   0 4778.88 364.777   4-0.06389 0.06351-0.33352-0.33391-0.93650 0.93649
   0   8   0 6393.69 388.142   2 0.47704-0.47663 0.33385 0.33342 0.88589-0.88640
   0  -8   0 5247.76 383.905   9 0.07077-0.07072-0.33347-0.33330 0.93745-0.93733
   1  -8   0 23.9784 48.5039   4-0.05911 0.13518-0.34459-0.32279-0.93200 0.94584
  -1  -8   0 -13.533 43.4159   3-0.51199 0.43596-0.27919-0.38812-0.89160 0.87762
  -1   8   0 -15.868 77.7261   6-0.29020 0.21412 0.30453 0.36274-0.94486 0.93064
  -1   8   0 72.3856 69.0508   2 0.52066-0.59661 0.39784 0.26967 0.83713-0.85152
  -1  -8   0 125.261 85.1964   9 0.06543-0.14167-0.34533-0.32147 0.93265-0.94635
   1   8   0 18.6962 54.3836   6-0.30884 0.38570 0.37309 0.29401-0.91646 0.92985
   1  -8   0 -31.910 40.3077   9 0.07253 0.00380-0.32954-0.33721 0.93900-0.92506
  -1  -8   0 65.3518 68.7789   4-0.06520-0.01163-0.33048-0.33697-0.93770 0.92384
   1   8   0 93.8513 66.9342   2 0.44399-0.36729 0.28737 0.37968 0.91502-0.90167
  -2  -8   0 68.5379 64.9694   4-0.06248-0.09077-0.33680-0.33065-0.93518 0.90747
   2   8   0 6.61984 70.9371   6-0.32196 0.47528 0.42455 0.24242-0.89067 0.91783
   2  -8   0 19.9446 43.9803   9 0.07013 0.08247-0.33489-0.33186 0.93689-0.90914
   2  -8   0 -43.559 45.1120   4-0.05128 0.20381-0.36262-0.30471-0.92432 0.95199
  -2  -8   0 89.4645 69.3881   9 0.05696-0.20950-0.36398-0.30283 0.92470-0.95222
  -2   8   0 -4.0887 59.4549   6-0.28484 0.13228 0.28565 0.38166-0.95156 0.92351
  -2  -8   0 -3.7450 34.3049   3-0.47387 0.32134-0.24244-0.42502-0.91834 0.89055
   2   8   0 33.3719 50.1779   2 0.42037-0.26742 0.25503 0.41183 0.93246-0.90528
   3   8   0 263.612 90.9197   2 0.40482-0.17562 0.23408 0.43262 0.94258-0.90160
  -3  -8   0 244.674 90.0864   9 0.04568-0.27453-0.38847-0.27838 0.91348-0.95483
  -3  -8   0 254.346 100.112   4-0.05499-0.17466-0.35411-0.31331-0.92800 0.88644
   3  -8   0 309.398 110.807   4-0.04070 0.26967-0.38662-0.28061-0.91336 0.95485
   3  -8   0 226.860 86.6551   9 0.06276 0.16611-0.35123-0.31553 0.93019-0.88862
  -3   8   0 205.763 87.5513   6-0.28203 0.05300 0.27586 0.39147-0.95485 0.91296
   3   8   0 236.380 92.3752   5 0.50795-0.27871 0.19864 0.46879 0.91627-0.87493
   3   8   0 378.987 115.426   6-0.33711 0.56685 0.48845 0.17837-0.85273 0.89362
  -3  -8   0 299.153 99.0682   3-0.44878 0.21974-0.21868-0.44888-0.93338 0.89175
   4   8   0 22.2264 41.0455   2 0.39601-0.09061 0.22234 0.44424 0.94787-0.89310
  -4  -8   0 151.348 81.0041   9 0.03186-0.33702-0.41794-0.24893 0.89877-0.95396
   4   8   0 183.090 79.7816   5 0.48245-0.17681 0.18279 0.48458 0.92982-0.87467
  -4   8   0 176.573 105.844   6-0.28161-0.02389 0.27437 0.39295-0.95534 0.89960
  -4  -8   0 187.340 66.0133   3-0.43389 0.12835-0.20475-0.46291-0.94143 0.88592
   4  -8   0 214.195 105.822   4-0.02760 0.33304-0.41580-0.25133-0.89888 0.95417
   5   8   0 65.0623 111.294   2 0.39283-0.01124 0.21812 0.44834 0.94970-0.88115
   5  -8   0 264.447 106.984   8 0.51475-0.13302-0.14788-0.51854 0.92382-0.85463
  -5  -8   0 275.939 135.125   9 0.01570-0.39718-0.45166-0.21526 0.88026-0.94928
  -5   8   0 230.874 125.968   6-0.28336-0.09859 0.28046 0.38683-0.95332 0.88372
   5   8   0 212.493 85.5107   5 0.46911-0.08710 0.17456 0.49277 0.93634-0.86737
  -5  -8   0 80.0444 53.9205   3-0.42705 0.04498-0.19836-0.46935-0.94492 0.87554
   5  -8   0 243.560 113.620   4-0.01220 0.39409-0.44939-0.21761-0.88056 0.94962
   6   8   0 701.937 221.415   2 0.39437 0.06344 0.22015 0.44624 0.94882-0.86651
   6   8   0 918.119 188.548   5 0.46480-0.00645 0.17191 0.49536 0.93836-0.85559
   6  -8   0 1126.26 202.331   8 0.50490-0.04686-0.14377-0.52258 0.92855-0.84556
  -6   8   0 1164.11 233.081   6-0.28709-0.17130 0.29354 0.37372-0.94882 0.86536
   6  -8   0 1073.65 228.348   4 0.00533 0.45298-0.48672-0.18013-0.85799 0.94080
  -6  -8   0 1231.64 227.513   9-0.00261-0.45520-0.48891-0.17802 0.85755-0.94040
  -6  -8   0 875.753 187.832   3-0.42658-0.03203-0.19793-0.46983-0.94516 0.86190
   7  -8   0 -19.337 107.495   4 0.02488 0.50986-0.52716-0.13955-0.83069 0.92723
   7   8   0 111.769 100.140   5 0.46738 0.06730 0.17349 0.49374 0.93716-0.84059
   7   8   0 -53.618 69.1833   2 0.39984 0.13417 0.22742 0.43892 0.94561-0.84956
  -7   8   0 -58.996 71.3476   6-0.29259-0.24222 0.31308 0.35413-0.94167 0.84436
  -7  -8   0 58.2724 83.7573   9-0.02296-0.51119-0.52910-0.13787 0.83019-0.92688
   7  -8   0 90.5178 99.9854   8 0.50407 0.03029-0.14343-0.52286 0.92894-0.83215
  -7  -8   0 70.2439 58.0954   3-0.43121-0.10391-0.20224-0.46555-0.94282 0.84565
   8  -8   0 46.9667 65.1910   8 0.50997 0.10072-0.14588-0.52036 0.92614-0.81557
  -8  -8   0 144.041 165.550   9-0.04521-0.56527-0.57161-0.09537 0.79768-0.90820
   8  -8   0 60.6225 91.8038   4 0.04634 0.56481-0.57012-0.09644-0.79813 0.90836
  -8   8   0 -24.119 78.5740   6-0.29964-0.31157 0.33867 0.32846-0.93154 0.82035
   8   8   0 58.5497 103.593   5 0.47525 0.13572 0.17835 0.48885 0.93338-0.82302
   0  -9   0 -32.517 71.5522   4-0.04576 0.04529-0.37518-0.37567-0.91869 0.91863
   0  -9   0 78.6655 73.3668   9 0.05183-0.05179-0.37516-0.37494 0.91968-0.91957
   0   9   0 32.9206 51.8888   6-0.30934 0.30980 0.37501 0.37558-0.91557 0.91505
   1  -9   0 -30.862 61.0820   4-0.04216 0.11816-0.38330-0.36753-0.91493 0.92872
  -1  -9   0 -78.388 72.4671   4-0.04609-0.03081-0.37443-0.37643-0.91903 0.90513
   1  -9   0 26.2340 47.9142   9 0.05250 0.02381-0.37371-0.37639 0.92034-0.90641
   1   9   0 99.9022 77.1755   2 0.47513-0.39836 0.33113 0.41935 0.88774-0.87454
  -1   9   0 92.7763 77.6593   6-0.30221 0.22618 0.34816 0.40252-0.92755 0.91322
   1   9   0 -83.393 73.2212   6-0.31867 0.39558 0.41132 0.33918-0.89768 0.91096
  -1  -9   0 27.0361 50.5233   9 0.04780-0.12404-0.38390-0.36622 0.91564-0.92934
   2  -9   0 87.1793 88.4453   4-0.03568 0.18814-0.39785-0.35291-0.90794 0.93556
  -2  -9   0 169.846 79.4128   4-0.04268-0.11064-0.38213-0.36871-0.91548 0.88771
  -2   9   0 42.6141 65.7439   6-0.29729 0.14477 0.33007 0.42065-0.93504 0.90689
  -2  -9   0 30.1120 40.5178   3-0.51813 0.36569-0.28520-0.46565-0.88681 0.85892
   2  -9   0 153.128 96.8988   9 0.04930 0.10329-0.38067-0.36943 0.91715-0.88940
   2   9   0 43.7221 54.9871   2 0.45238-0.29935 0.29904 0.45125 0.90817-0.88114
   2   9   0 117.738 68.0822   6-0.32999 0.48337 0.45770 0.29268-0.87185 0.89889
  -2  -9   0 179.853 111.972   9 0.04078-0.19332-0.39899-0.35117 0.90838-0.93591
   3   9   0 513.730 155.215   2 0.43662-0.20735 0.27721 0.47289 0.92074-0.87989
   3  -9   0 327.002 107.275   9 0.04150 0.18734-0.39744-0.35266 0.90914-0.86760
  -3  -9   0 470.753 140.282   9 0.03108-0.25993-0.41959-0.33060 0.89791-0.93926
   3   9   0 503.977 143.574   6-0.34292 0.57273 0.51464 0.23560-0.83511 0.87587
  -3   9   0 320.285 115.226   6-0.29454 0.06555 0.32008 0.43066-0.93899 0.89699
  -3  -9   0 398.893 122.637   3-0.49206 0.26312-0.25988-0.49109-0.90620 0.86448
  -3  -9   0 406.998 122.016   4-0.03489-0.19485-0.39963-0.35118-0.90707 0.86544
   3  -9   0 413.564 135.468   4-0.02658 0.25550-0.41806-0.33263-0.89771 0.93914
  -4   9   0 321.114 110.452   6-0.29385-0.01161 0.31759 0.43314-0.93995 0.88411
   4  -9   0 77.6153 103.223   4-0.01507 0.32045-0.44319-0.30739-0.88408 0.93931
  -4  -9   0 179.814 97.8072   9 0.01894-0.32408-0.44499-0.30523 0.88407-0.93925
  -4  -9   0 288.274 105.874   3-0.47534 0.16987-0.24383-0.50723-0.91741 0.86183
   4   9   0 114.426 112.608   2 0.42690-0.12142 0.26391 0.48606 0.92789-0.87325
   5   9   0 35.9307 113.734   2 0.42236-0.04066 0.25772 0.49213 0.93109-0.86268
   5  -9   0 120.525 95.8840   4-0.00135 0.38319-0.47262-0.27785-0.86680 0.93581
  -5   9   0 -62.443 73.5281   6-0.29507-0.08685 0.32203 0.42869-0.93823 0.86854
  -5  -9   0 -77.343 107.962   9 0.00452-0.38599-0.47453-0.27573 0.86661-0.93562
   5   9   0 28.8524 61.0082   5 0.52168-0.13962 0.20724 0.54357 0.90835-0.83941
  -5  -9   0 125.791 82.4395   3-0.46617 0.08419-0.23512-0.51602-0.92316 0.85371
   6  -9   0 173.211 143.126   4 0.01446 0.44383-0.50575-0.24459-0.84553 0.92829
   6   9   0 24.9692 59.4894   5 0.51334-0.05492 0.20200 0.54875 0.91322-0.83047
  -6  -9   0 188.058 109.514   9-0.01199-0.44579-0.50761-0.24267 0.84521-0.92806
  -6   9   0 37.1119 82.5519   6-0.29807-0.16030 0.33291 0.41777-0.93390 0.85035
   6   9   0 42.8082 114.634   2 0.42222 0.03566 0.25755 0.49221 0.93118-0.84902
  -6  -9   0 174.481 122.512   3-0.46319 0.00466-0.23228-0.51892-0.92498 0.84165
   7   9   0 -33.514 83.5970   5 0.51206 0.02269 0.20120 0.54949 0.91396-0.81740
   0 -10   0 228.490 91.8916   9 0.03238-0.03235-0.41686-0.41659 0.89934-0.89923
   0 -10   0 385.854 144.152   4-0.02713 0.02658-0.41684-0.41743-0.89834 0.89822
   0  10   0 104.379 53.7626   6-0.32000 0.32051 0.41666 0.41734-0.89488 0.89424
  -1  10   0 6.29355 76.7365   6-0.31361 0.23764 0.39144 0.44263-0.90772 0.89327
  -1 -10   0 155.945 124.419   9 0.02944-0.10569-0.42304-0.41042 0.89609-0.90980
   1 -10   0 -19.719 74.8295   9 0.03211 0.04419-0.41741-0.41602 0.89905-0.88513
   1 -10   0 45.6094 60.7626   4-0.02455 0.10046-0.42253-0.41172-0.89536 0.90908
   1  10   0 52.6876 88.8151   6-0.32820 0.40519 0.45020 0.38370-0.87626 0.88940
  -1 -10   0 36.8611 57.7769   4-0.02663-0.05036-0.41794-0.41631-0.89777 0.88379
   2 -10   0 162.515 117.374   4-0.01920 0.17158-0.43422-0.39998-0.88906 0.91661
  -2 -10   0 83.9175 73.8597   9 0.02366-0.17620-0.43517-0.39833 0.88954-0.91708
  -2 -10   0 171.038 101.822   4-0.02261-0.13080-0.42678-0.40746-0.89309 0.86526
   2 -10   0 127.430 79.5465   9 0.02819 0.12438-0.42567-0.40776 0.89469-0.86696
   2  10   0 -84.815 92.4724   6-0.33804 0.49148 0.49255 0.34124-0.85006 0.87695
  -2  10   0 51.0796 83.8177   6-0.30909 0.15663 0.37404 0.46008-0.91602 0.88775
   2  10   0 122.739 78.4387   2 0.48327-0.33017 0.34280 0.49091 0.87970-0.85283
   3 -10   0 -61.748 69.6153   4-0.01135 0.24020-0.45123-0.38291-0.87950 0.92087
  -3  10   0 210.716 118.285   6-0.30643 0.07748 0.36395 0.47020-0.92063 0.87852
   3  10   0 7.66134 77.2077   2 0.46753-0.23819 0.32033 0.51320 0.89488-0.85420
  -3 -10   0 240.338 145.475   9 0.01529-0.24413-0.45251-0.38102 0.87976-0.92112
  -4 -10   0 45.6543 78.4501   3-0.51644 0.21106-0.28355-0.55092-0.88814 0.83245
  -4 -10   0 7.58020 81.4168   9 0.00456-0.30971-0.47444-0.35912 0.86666-0.92185
  -4  10   0 2.07714 88.3497   6-0.30556 0.00014 0.36068 0.47346-0.92209 0.86613
   4  10   0 37.5410 79.4469   2 0.45718-0.15162 0.30575 0.52761 0.90409-0.84962
  -5 -10   0 -15.194 81.2679   3-0.50542 0.12352-0.27279-0.56175-0.89657 0.82702
   0 -11   0 -139.73 121.291   4-0.00797 0.00734-0.45849-0.45918-0.87528 0.87506
   0  11   0 152.491 79.5916   6-0.33013 0.33069 0.45830 0.45911-0.87149 0.87069
   0 -11   0 141.758 98.5350   9 0.01235-0.01234-0.45855-0.45824 0.87624-0.87615
   1 -11   0 362.990 134.504   9 0.01126 0.06503-0.46079-0.45598 0.87491-0.86102
  -1 -11   0 337.285 166.128   4-0.00672-0.07035-0.46116-0.45650-0.87370 0.85964
   1  11   0 425.567 172.440   6-0.33736 0.41440 0.48956 0.42774-0.85201 0.86498
  12   0  -1 353.646 137.739   8 0.54662 0.35124-0.16125 0.16144 0.90719-0.84340
  12   0  -1 397.149 135.246   5 0.54485 0.35257 0.22184-0.22119 0.89393-0.83028
  11   0  -1 258.882 135.046   8 0.51984 0.30170-0.15000 0.15019 0.92129-0.87130
  11   0  -1 -99.343 83.7732   5 0.51821 0.30296 0.20506-0.20449 0.91040-0.86046
 -11   0   1 130.312 128.343   7-0.52049-0.30094 0.07619-0.07653-0.93071 0.88033
 -10   0   1 16.7889 71.1727   7-0.49568-0.24932 0.07133-0.07164-0.94107 0.90463
 -10   0   1 149.267 70.3614   3-0.49153-0.25409-0.25936 0.25964-0.90657 0.87016
  10   0  -1 -29.014 52.5236   8 0.49503 0.25016-0.13967 0.13983 0.93311-0.89691
  10   0  -1 28.7660 48.1012   5 0.49351 0.25140 0.18965-0.18915 0.92413-0.88791
  -9   0   1 -47.303 81.3758   7-0.47354-0.19503 0.06702-0.06730-0.94950 0.92697
   9   0  -1 -41.228 57.7910   5 0.47141 0.19722 0.17598-0.17555 0.93524-0.91277
   9   0  -1 -146.80 78.1862   8 0.47287 0.19599-0.13048 0.13063 0.94271-0.92031
  -9   0   1 -30.736 50.8409   3-0.46972-0.19946-0.23848 0.23874-0.92097 0.89845
  -8   0   1 199.870 95.9122   7-0.45506-0.13708 0.06343-0.06369-0.95596 0.94733
   8   0  -1 174.618 72.1502   5 0.45291 0.13946 0.16461-0.16425 0.94374-0.93504
   8   0  -1 240.542 73.0839   2 0.44799 0.14455 0.29292-0.29253 0.91180-0.90336
   8   0  -1 173.672 77.6495   8 0.45435 0.13818-0.12284 0.12298 0.95006-0.94148
  -8   0   1 102.788 56.9772   3-0.45142-0.14132-0.22117 0.22140-0.93189 0.92326
  -7   0   1 21.7666 55.6534   7-0.44179-0.07391 0.06087-0.06110-0.96030 0.96554
  -7   0   1 9.23267 32.1903   3-0.43811-0.07818-0.20867 0.20889-0.93922 0.94446
   7   0  -1 -2.7952 34.5816   8 0.44099 0.07520-0.11735 0.11747 0.95501-0.96024
   7   0  -1 50.2149 43.6441   5 0.43950 0.07660 0.15641-0.15611 0.94947-0.95455
   7   0  -1 -58.667 43.6370   2 0.43473 0.08149 0.27463-0.27426 0.92216-0.92750
   6   0  -1 429.848 78.0697   5 0.43362 0.00621 0.15283-0.15259 0.95187-0.97075
   6   0  -1 504.419 66.4181   4 0.04231 0.39744-0.56217 0.56257-0.80445 0.78481
  -6   0   1 743.663 95.3326   9-0.04338-0.39617-0.56818 0.56830 0.80045-0.78116
   6   0  -1 476.306 92.3593   8 0.43527 0.00459-0.11500 0.11511 0.95704-0.97610
   6   0  -1 525.626 78.0217   2 0.42852 0.01140 0.26611-0.26578 0.92674-0.94588
  -5   0   1 -42.593 39.4230   7-0.44273 0.07988 0.06105-0.06124-0.96000 0.99294
   5   0  -1 -10.042 16.7910   4-0.06514 0.42872-0.33060 0.33086-0.93765 0.90435
  -5   0   1 0.84652 22.7590   3-0.43751 0.07412-0.20811 0.20830-0.93953 0.97249
  -5   0   1 -4.4070 12.6569   9 0.06300-0.42621-0.35069 0.35079 0.93041-0.89735
   5   0  -1 -4.3456 17.6082   5 0.43938-0.07584 0.15634-0.15615 0.94952-0.98222
   5   0  -1 -21.629 26.2762   8 0.44140-0.07788-0.11752 0.11760 0.95486-0.98776
   5   0  -1 -8.5161 24.8139   2 0.43300-0.06939 0.27224-0.27193 0.92346-0.95643
  -4   0   1 4969.73 215.511   3-0.46112 0.17418-0.23032 0.23050-0.92623 0.97301
   4   0  -1 4873.34 194.396   2 0.45428-0.16697 0.30169-0.30138 0.90658-0.95341
  -4   0   1 4742.91 139.668   9 0.18267-0.46950-0.06211 0.06218 0.99808-0.95124
   4   0  -1 4742.02 138.149   4-0.18337 0.47079-0.02917 0.02922-0.99956 0.95246
   4   0  -1 4802.71 212.510   5 0.46427-0.17702 0.17158-0.17144 0.93861-0.98515
   4   0  -1 5028.69 142.186   6-0.18293 0.47012-0.03000 0.03026-0.99954 0.95265
  -4   0   1 4958.36 237.511   7-0.46923 0.18278 0.06618-0.06637-0.95105 0.99781
   4   0  -1 5046.15 236.070   8 0.46715-0.17997-0.12812 0.12818 0.94504-0.99179
   3   0  -1 5.04071 7.63648   4-0.29810 0.50921 0.33266-0.33276-0.93398 0.87292
  -3   0   1 -3.2203 8.25975   3-0.51529 0.30480-0.28243 0.28259-0.88903 0.94962
   3   0  -1 3.49003 11.8879   2 0.50187-0.29090 0.36986-0.36957 0.85977-0.92050
   3   0  -1 0.34124 6.25735   6-0.29785 0.50850 0.33210-0.33189-0.93422 0.87360
  -3   0   1 -0.9688 4.86147   9 0.30311-0.51359 0.29578-0.29575 0.94574-0.88510
  -3   0   1 -3.2152 14.5259   7-0.53153 0.32147 0.07836-0.07853-0.92577 0.98630
   3   0  -1 -15.422 12.5069   5 0.52240-0.31147 0.20769-0.20760 0.90793-0.96833
   3   0  -1 11.6463 11.4901   8 0.52758-0.31674-0.15325 0.15328 0.91737-0.97798
  -2   0   1 2616.32 138.166   3-0.61751 0.48338-0.38645 0.38659-0.78553 0.85990
   2   0  -1 1994.28 119.089   5 0.63848-0.50392 0.28244-0.28240 0.81970-0.89400
  -2   0   1 2454.27 129.253   7-0.66098 0.52722 0.10418-0.10432-0.85062 0.92489
   2   0  -1 2314.58 132.867   8 0.65104-0.51659-0.20598 0.20600 0.83648-0.91098
   4   0   1 1403.23 139.002   8-0.12824 0.45176 0.10419-0.10403 0.94667-0.78951
  -4   0  -1 1567.28 170.393   7 0.12929-0.45421-0.04523 0.04533-0.95074 0.79271
  -5   0  -1 -1.3520 29.7204   7 0.03755-0.43892-0.02872 0.02880-0.97554 0.80367
   5   0   1 4.65002 32.5361   8-0.03739 0.43724 0.07028-0.07009 0.97354-0.80254
   6   0   1 448.684 102.590   8 0.03849 0.43769 0.04155-0.04133 0.98883-0.80400
  -6   0  -1 444.290 110.049   7-0.03872-0.43908-0.01484 0.01491-0.98961 0.80390
   7   0   1 -25.038 40.8377   8 0.10498 0.44753 0.01608-0.01584 0.99690-0.79824
  -7   0  -1 -66.140 70.9347   7-0.10536-0.44886-0.00260 0.00266-0.99706 0.79749
   8   0   1 580.782 135.542   8 0.16526 0.46360-0.00727 0.00752 0.99984-0.78736
  -8   0  -1 310.083 134.732   7-0.16565-0.46497 0.00856-0.00852-0.99984 0.78640
  12  -1  -1 156.296 92.1517   8 0.53670 0.36111-0.15708 0.07398 0.91258-0.84879
 -12  -1   1 113.157 82.2224   7-0.55811-0.33969 0.08360-0.16747-0.91302 0.84869
  12   1  -1 67.9259 57.9994   5 0.53033 0.36710 0.21267-0.12877 0.90313-0.83943
  12   1  -1 7.12644 92.1278   8 0.56466 0.33329-0.16888 0.25234 0.89684-0.83308
 -11   1   1 585.845 180.753   7-0.51728-0.30418 0.07557 0.00761-0.93211 0.88171
 -11  -1   1 279.149 129.993   7-0.53180-0.28957 0.07841-0.16225-0.92565 0.87527
  11   1  -1 288.668 125.449   5 0.50388 0.31730 0.19610-0.11227 0.91854-0.86855
  11   1  -1 275.444 119.285   8 0.53850 0.28311-0.15783 0.24130 0.91162-0.86165
 -11  -1   1 171.783 98.5130   3-0.49572-0.32643-0.26340 0.18028-0.90362 0.85332
  11  -1  -1 201.354 94.7037   8 0.51004 0.31143-0.14592 0.06281 0.92610-0.87609
  10   1  -1 67.0872 84.3037   5 0.47929 0.26562 0.18084-0.09708 0.93140-0.89515
 -10   1   1 56.5366 60.6448   7-0.49264-0.25237 0.07074 0.01245-0.94227 0.90581
 -10  -1   1 147.891 80.2904   3-0.47164-0.27408-0.24030 0.15715-0.91977 0.88338
  10   1  -1 121.899 92.5580   8 0.51452 0.23074-0.14778 0.23124 0.92393-0.88775
 -10  -1   1 -40.903 59.5990   7-0.50763-0.23732 0.07367-0.15748-0.93620 0.89976
  10  -1  -1 86.1183 66.1309   5 0.51861 0.22630 0.20531-0.28807 0.91017-0.87401
  10  -1  -1 -111.03 82.7745   8 0.48532 0.25982-0.13563 0.05251 0.93742-0.90121
  -9  -1   1 29.4313 47.2401   7-0.48633-0.18220 0.06952-0.15327-0.94472 0.92220
   9  -1  -1 87.7464 73.5450   8 0.46314 0.20567-0.12646 0.04332 0.94664-0.92423
   9   1  -1 131.135 75.1066   8 0.49350 0.17543-0.13903 0.22248 0.93380-0.91143
  -9   1   1 42.4111 71.6831   7-0.47067-0.19792 0.06646 0.01675-0.95054 0.92799
   9   1  -1 18.6214 48.6272   5 0.45718 0.21148 0.16722-0.08352 0.94184-0.91935
  -9  -1   1 7.03266 53.6532   3-0.44989-0.21937-0.21973 0.13655-0.93276 0.91027
   9  -1  -1 97.9082 71.6515   5 0.49781 0.17083 0.19233-0.27516 0.92184-0.89942
   9   1  -1 4.47797 41.4941   2 0.44008 0.22863 0.28197-0.19818 0.91809-0.89588
   8   1  -1 1250.94 168.564   5 0.43839 0.15400 0.15573-0.07209 0.94993-0.94121
   8  -1  -1 1209.22 178.329   8 0.44442 0.14806-0.11876 0.03560 0.95377-0.94517
   8   1  -1 1651.36 178.198   2 0.42184 0.17055 0.25703-0.17328 0.93145-0.92299
  -8  -1   1 1136.60 172.383   7-0.46899-0.12311 0.06614-0.14986-0.95114 0.94251
  -8   1   1 1428.27 164.582   3-0.48818-0.10446-0.25613 0.33977-0.90889 0.90020
   8  -1  -1 1326.94 163.845   5 0.48123 0.11115 0.18204-0.26495 0.93043-0.92177
  -8   1   1 1593.44 213.476   7-0.45230-0.13985 0.06290 0.02033-0.95689 0.94824
   8   1  -1 1434.33 183.325   8 0.47660 0.11600-0.13202 0.21546 0.94115-0.93259
  -8  -1   1 1417.32 184.747   3-0.43133-0.16148-0.20235 0.11915-0.94275 0.93416
  -7  -1   1 57.5727 40.1687   7-0.45731-0.05837 0.06387-0.14757-0.95520 0.96045
   7   1  -1 85.8584 46.5063   5 0.42423 0.09188 0.14712-0.06353 0.95556-0.96063
  -7  -1   1 86.3398 51.2375   3-0.41714-0.09922-0.18917 0.10596-0.94975 0.95503
   7  -1  -1 142.926 69.9616   8 0.43053 0.08561-0.11306 0.02988 0.95868-0.96389
  -7   1   1 149.635 50.4634   6-0.34352-0.17235 0.51739-0.43427-0.83318 0.83840
  -7   1   1 136.496 72.7405   7-0.43903-0.07667 0.06033 0.02291-0.96117 0.96640
   7  -1  -1 188.098 51.0115   2 0.48680 0.02960 0.34788-0.43094 0.87610-0.88149
   7  -1  -1 199.754 57.9389   4 0.02378 0.49242-0.52491 0.44206-0.83230 0.82643
   7   1  -1 48.9199 29.1525   8 0.46562 0.05064-0.12749 0.21092 0.94565-0.95092
   7  -1  -1 137.680 46.6460   5 0.47075 0.04537 0.17557-0.25855 0.93556-0.94067
  -7  -1   1 148.896 48.1377   9-0.02365-0.49223-0.53043 0.44716 0.82923-0.82377
   7   1  -1 101.352 42.6035   2 0.40766 0.10844 0.23789-0.15418 0.94081-0.94613
   6  -1  -1 1730.85 176.506   8 0.42365 0.01617-0.11025 0.02703 0.96100-0.98004
  -6  -1   1 1599.87 159.954   3-0.40915-0.03073-0.18180 0.09858-0.95346 0.97260
   6  -1  -1 1762.57 131.661   2 0.48827-0.04820 0.35001-0.43311 0.87457-0.89377
   6   1  -1 1608.27 148.588   2 0.39915 0.04066 0.22651-0.14282 0.94602-0.96514
  -6   1   1 1838.00 136.539   6-0.33450-0.10506 0.47699-0.39389-0.86005 0.87909
   6   1  -1 1574.29 157.100   5 0.41672 0.02312 0.14257-0.05902 0.95839-0.97727
  -6  -1   1 1698.98 130.018   9 0.04508-0.48460-0.38977 0.30648 0.91286-0.89361
   6   1  -1 1464.08 150.742   8 0.46357-0.02365-0.12664 0.21006 0.94647-0.96557
  -6   1   1 1381.20 130.600   3-0.47861 0.03884-0.24696 0.33054-0.91528 0.93434
   6  -1  -1 1633.96 146.813   5 0.46954-0.02969 0.17482-0.25788 0.93613-0.95505
   6  -1  -1 1749.68 133.101   4-0.04416 0.48412-0.37880 0.29578-0.91702 0.89750
  -6   1   1 1511.08 171.569   7-0.43324-0.00603 0.05921 0.02402-0.96296 0.98205
  -6  -1   1 1530.35 163.276   7-0.45408 0.01483 0.06324-0.14690-0.95629 0.97540
  -5  -1   1 -25.492 24.0250   7-0.46418 0.10135 0.06520-0.14882-0.95284 0.98578
   5   1  -1 40.7449 35.4455   2 0.39880-0.03528 0.22605-0.14235 0.94623-0.97917
   5  -1  -1 13.8960 13.1322   2 0.50602-0.14227 0.37597-0.45911 0.85500-0.88805
   5  -1  -1 9.48361 14.1682   4-0.11287 0.47659-0.21535 0.13213-0.97433 0.94107
  -5  -1   1 40.3676 23.9772   9 0.11526-0.47841-0.23091 0.14761 0.97108-0.93803
   5  -1  -1 38.1429 26.5935   8 0.42738-0.06390-0.11178 0.02854 0.95975-0.99262
  -5   1   1 26.3698 21.6600   7-0.43895 0.07610 0.06032 0.02293-0.96119 0.99412
  -5   1   1 19.1598 22.1452   6-0.32941-0.03382 0.45526-0.37217-0.87329 0.90617
   5   1  -1 -3.9512 26.8641   8 0.47571-0.11213-0.13165 0.21506 0.94152-0.97446
   5  -1  -1 4.55072 18.0961   5 0.48317-0.11960 0.18324-0.26636 0.92946-0.96219
   5   1  -1 31.0633 34.2281   5 0.41917-0.05561 0.14405-0.06054 0.95748-0.99018
  -5   1   1 54.6141 35.5557   3-0.49445 0.13111-0.26217 0.34573-0.90453 0.93742
   4  -1  -1 10686.0 295.767   5 0.52215-0.23488 0.20753-0.29072 0.90808-0.95466
   4  -1  -1 12451.4 292.947   2 0.54973-0.26235 0.44267-0.52588 0.79617-0.84309
   4   1  -1 10320.0 324.246   2 0.41050-0.12326 0.24170-0.15799 0.93900-0.98579
  -4   1   1 10421.8 281.732   6-0.32977 0.04288 0.45680-0.37371-0.87238 0.91909
   4   1  -1 10501.8 325.037   8 0.51195-0.22472-0.14671 0.23011 0.92518-0.97197
   4  -1  -1 10349.9 274.663   4-0.18140 0.46883-0.03467-0.04875-0.99939 0.95230
  -4  -1   1 10594.9 277.030   9 0.18602-0.47282-0.05326-0.03003 0.99858-0.95173
  -4  -1   1 10514.3 338.136   3-0.42534 0.13838-0.19678 0.11356-0.94578 0.99261
   4  -1  -1 10760.7 363.290   8 0.44814-0.16099-0.12028 0.03702 0.95240-0.99912
   4   1  -1 10899.2 342.780   5 0.43725-0.15000 0.15504-0.07157 0.95039-0.99693
  -4   1   1 11258.1 299.711   3-0.53696 0.25005-0.30376 0.38729-0.87120 0.91792
  -4   1   1 10267.7 351.771   7-0.46348 0.17706 0.06507 0.01817-0.95308 0.99982
  -4  -1   1 11003.8 345.832   7-0.49668 0.21025 0.07153-0.15511-0.94067 0.98742
  -4   1   1 10015.3 229.576   1 0.18434-0.47117 0.04562 0.03776 0.99894-0.95202
   3   1  -1 152.844 37.5978   2 0.44024-0.22930 0.28219-0.19846 0.91797-0.97863
   3  -1  -1 147.370 31.4309   5 0.60630-0.39534 0.26129-0.34455 0.84843-0.90891
  -3  -1   1 151.943 36.6593   7-0.56966 0.35960 0.08589-0.16941-0.90709 0.96761
  -3   1   1 166.785 30.3517   1 0.22343-0.43389-0.21488 0.29821 0.97554-0.91480
  -3   1   1 134.726 24.2074   2 0.36002-0.57091 0.17513-0.09190 0.96638-0.90576
  -3   1   1 157.661 35.1596   6-0.33695 0.12641 0.48775-0.40468-0.85318 0.91370
  -3  -1   1 95.2922 31.3833   3-0.46244 0.25194-0.23157 0.14836-0.92544 0.98608
   3  -1  -1 130.580 29.7976   4-0.24722 0.45827 0.16031-0.24390-0.98462 0.92364
  -3  -1   1 133.640 31.5638   9 0.25490-0.46536 0.14121-0.22450 0.98691-0.92626
  -3   1   1 180.470 36.5327   3-0.62365 0.41312-0.39303 0.47649-0.77742 0.83795
  -3   1   1 171.322 41.3991   7-0.52099 0.31096 0.07629 0.00693-0.93049 0.99101
   3   1  -1 158.220 38.8454   8 0.59173-0.38086-0.18039 0.26379 0.87995-0.94061
   3  -1  -1 185.423 43.7938   8 0.49789-0.28710-0.14086 0.05755 0.93181-0.99238
  -2   1   1 34928.9 499.768   6-0.35123 0.21702 0.55434-0.47128-0.80584 0.88016
   2  -1  -1 32745.4 496.373   8 0.59926-0.46484-0.18361 0.10027 0.87494-0.94939
  -2   1   1 31638.3 486.908   7-0.63928 0.50556 0.09978-0.01659-0.86571 0.93996
   2   1  -1 32933.1 484.212   2 0.49614-0.36157 0.36146-0.27770 0.86615-0.94074
  -2  -1   1 34080.3 476.178   9 0.31699-0.45112 0.34447-0.42776 0.92638-0.85193
  -2  -1   1 34314.7 470.991   7-0.71702 0.58323 0.11563-0.19909-0.80596 0.88022
   4  -1   1 3757.19 234.270   8-0.09541 0.41891 0.09200-0.17511 0.95746-0.80029
  -4  -1  -1 4143.01 273.979   7 0.13020-0.45511-0.04539-0.03804-0.95045 0.79246
  -4   1  -1 4236.50 276.965   7 0.10867-0.43358-0.04153 0.12518-0.95707 0.79902
  -5  -1  -1 304.293 81.9644   7 0.03478-0.43612-0.02821-0.05523-0.97615 0.80433
   5  -1   1 311.946 75.3915   8-0.01607 0.41588 0.06224-0.14533 0.97849-0.80748
   5   1   1 257.451 67.0824   8-0.04370 0.44358 0.07265 0.01081 0.97197-0.80097
  -5   1  -1 314.563 79.6982   7 0.02352-0.42489-0.02618 0.10980-0.97857 0.80668
   6   1   1 118.378 62.7309   8 0.03854 0.43767 0.04153 0.04196 0.98884-0.80400
   6  -1   1 105.167 52.0367   8 0.05218 0.42397 0.03632-0.11940 0.99090-0.80607
  -6  -1  -1 76.3006 47.6745   7-0.04361-0.43416-0.01395-0.06951-0.99032 0.80464
  -6   1  -1 85.0857 75.5718   7-0.04839-0.42940-0.01306 0.09668-0.99098 0.80524
  -7   1  -1 922.616 121.321   6-0.13738-0.41612-0.15258 0.23626-0.98735 0.78809
   7   1   1 1244.44 162.411   8 0.10919 0.44336 0.01445 0.06906 0.99725-0.79858
   7  -1   1 1429.47 185.892   8 0.11332 0.43916 0.01286-0.09590 0.99756-0.79890
  -7   1  -1 1178.82 202.351   7-0.11199-0.44223-0.00138 0.08498-0.99755 0.79795
  -7  -1  -1 1637.91 226.113   7-0.11153-0.44264-0.00146-0.08201-0.99752 0.79799
   8   1   1 704.849 125.949   8 0.17234 0.45657-0.01003 0.09355 0.99991-0.78742
   8  -1   1 663.669 137.624   8 0.16968 0.45915-0.00899-0.07403 0.99989-0.78741
  -8   1  -1 725.841 174.563   7-0.17005-0.46057 0.00938 0.07420-0.99989 0.78641
  -8  -1  -1 538.746 145.735   7-0.17266-0.45791 0.00986-0.09336-0.99992 0.78651
 -12  -2   1 248.932 115.700   7-0.57669-0.32103 0.08728-0.25463-0.90335 0.83901
 -12  -2   1 78.7348 124.629   3-0.50983-0.38884-0.27709 0.11055-0.89325 0.82903
 -11   2   1 335.206 160.819   7-0.52175-0.29970 0.07644 0.09025-0.93015 0.87971
 -11  -2   1 290.193 123.118   3-0.48496-0.33727-0.25304 0.08646-0.91107 0.86079
  11   2  -1 591.448 165.454   5 0.49797 0.32325 0.19242-0.02532 0.92175-0.87175
 -11  -2   1 217.984 112.717   7-0.55163-0.26966 0.08231-0.24963-0.91625 0.86585
  11   2  -1 136.441 79.3486   8 0.56703 0.25466-0.16988 0.33664 0.89543-0.84549
  11  -2  -1 383.802 154.884   8 0.50820 0.31323-0.14515-0.02125 0.92698-0.87697
 -10   2   1 -39.127 53.5467   7-0.49804-0.24697 0.07179 0.09491-0.94013 0.90363
 -10  -2   1 55.6740 86.1405   7-0.52901-0.21586 0.07786-0.24513-0.92692 0.89047
  10   2  -1 199.836 88.6626   8 0.54501 0.20034-0.16057 0.32734 0.90808-0.87193
  10   2  -1 131.618 86.0591   5 0.47424 0.27072 0.17772-0.01068 0.93388-0.89761
  10   2  -1 93.8487 76.2758   2 0.44689 0.29799 0.29139-0.12425 0.91270-0.87676
 -10  -2   1 57.8021 54.4383   3-0.46188-0.28390-0.23104 0.06444-0.92577 0.88940
  10  -2  -1 101.000 111.042   8 0.48429 0.26081-0.13520-0.03120 0.93787-0.90165
  -9   2   1 364.258 120.713   7-0.47710-0.19147 0.06772 0.09899-0.94819 0.92562
  -9  -2   1 228.950 75.7636   7-0.50965-0.15879 0.07407-0.24129-0.93536 0.91282
   9   2  -1 151.600 61.3823   5 0.45298 0.21571 0.16465 0.00234 0.94371-0.92121
   9  -2  -1 301.255 103.932   5 0.53903 0.12966 0.21816-0.38425 0.89769-0.87535
   9  -2  -1 264.226 113.778   8 0.46297 0.20581-0.12639-0.04004 0.94671-0.92429
   9   2  -1 241.190 87.3808   8 0.52655 0.14247-0.15282 0.31958 0.91790-0.89556
  -9  -2   1 241.816 94.3157   3-0.44112-0.22820-0.21150 0.04487-0.93760 0.91513
   9   2  -1 369.376 108.090   2 0.42687 0.24170 0.26388-0.09678 0.92791-0.90571
   8   2  -1 701.615 131.405   2 0.40967 0.18262 0.24059-0.07353 0.93954-0.93110
  -8   2   1 565.800 131.504   7-0.45992-0.13221 0.06437 0.10233-0.95431 0.94563
  -8  -2   1 528.757 112.965   7-0.49483-0.09720 0.07117-0.23834-0.94141 0.93276
   8  -2  -1 546.877 121.001   8 0.44512 0.14731-0.11904-0.04741 0.95351-0.94490
   8   2  -1 578.162 120.967   5 0.43502 0.15741 0.15368 0.01327 0.95130-0.94259
   8  -2  -1 446.119 95.5307   5 0.52672 0.06571 0.21040-0.37658 0.90533-0.89675
   8   2  -1 494.086 109.538   8 0.51308 0.07959-0.14719 0.31395 0.92463-0.91611
  -8  -2   1 537.232 120.736   3-0.42344-0.16942-0.19502 0.02836-0.94671 0.93813
  -7   2   1 3.47813 60.3981   7-0.44801-0.06768 0.06207 0.10464-0.95830 0.96349
  -7  -2   1 23.1108 37.5512   7-0.48653-0.02908 0.06956-0.23667-0.94465 0.94988
   7   2  -1 57.1616 51.3695   2 0.39617 0.11984 0.22256-0.05552 0.94777-0.95311
  -7  -2   1 74.1417 70.7925   3-0.40987-0.10652-0.18246 0.01581-0.95313 0.95843
   7  -2  -1 32.3049 47.8045   8 0.43207 0.08404-0.11369-0.05279 0.95815-0.96335
   7   2  -1 74.7018 64.8358   5 0.42153 0.09463 0.14548 0.02143 0.95659-0.96167
  -7  -2   1 42.7446 40.3111   9 0.02210-0.53793-0.43841 0.27174 0.88775-0.88232
  -7   2   1 -127.77 68.5103   3-0.54722 0.03109-0.31398 0.48092-0.86209 0.86722
   7  -2  -1 -76.538 68.3683   5 0.52242-0.00627 0.20770-0.37396 0.90792-0.91311
   7   2  -1 46.4659 37.8422   8 0.50693 0.00941-0.14462 0.31138 0.92759-0.93289
  -7   2   1 11.3549 25.6385   6-0.32207-0.19389 0.42500-0.25860-0.89042 0.89560
  -6   2   1 1618.00 132.903   3-0.56089 0.12119-0.32773 0.49463-0.84921 0.86820
  -6  -2   1 1494.48 165.927   3-0.40194-0.03797-0.17517 0.00850-0.95666 0.97582
   6   2  -1 1651.38 161.167   2 0.38769 0.05205 0.21132-0.04428 0.95258-0.97171
  -6  -2   1 1600.82 142.969   9 0.07541-0.51488-0.32308 0.15641 0.94150-0.92225
  -6   2   1 1556.00 144.799   6-0.31311-0.12653 0.38951-0.22313-0.90866 0.92768
   6  -2  -1 1629.74 141.854   5 0.53061-0.09071 0.21284-0.37919 0.90296-0.92196
   6   2  -1 1737.07 169.936   5 0.41429 0.02558 0.14109 0.02578 0.95928-0.97817
   6  -2  -1 1534.56 137.380   4-0.07256 0.51264-0.31323 0.14674-0.94429 0.92481
   6   2  -1 1505.21 147.849   8 0.51195-0.07196-0.14671 0.31347 0.92518-0.94432
   6  -2  -1 1654.73 178.098   8 0.42582 0.01397-0.11114-0.05539 0.96028-0.97930
  -6   2   1 1450.35 165.438   7-0.44372 0.00447 0.06124 0.10546-0.95968 0.97874
  -6  -2   1 1597.16 162.674   7-0.48803 0.04884 0.06984-0.23692-0.94407 0.96315
   5   2  -1 5623.88 274.962   2 0.38608-0.02260 0.20918-0.04213 0.95346-0.98641
  -5   2   1 5508.43 251.248   6-0.30751-0.05577 0.36807-0.20168-0.91876 0.95163
   5   2  -1 5526.30 283.920   5 0.41613-0.05256 0.14222 0.02463 0.95861-0.99132
   5  -2  -1 5872.16 236.596   5 0.55936-0.19575 0.23106-0.39748 0.88418-0.91701
   5   2  -1 5474.83 250.956   8 0.53509-0.17144-0.15640 0.32316 0.91344-0.94643
  -5   2   1 6200.55 235.087   3-0.59892 0.23561-0.36682 0.53366-0.80849 0.84132
   5  -2  -1 5723.00 301.705   8 0.42964-0.06619-0.11270-0.05385 0.95898-0.99184
  -5  -2   1 5356.02 246.740   9 0.12749-0.49061-0.20155 0.03489 0.97823-0.94517
   5  -2  -1 5050.36 242.628   4-0.12302 0.48679-0.18982 0.02312-0.98020 0.94695
  -5   2   1 5381.96 290.228   7-0.45100 0.08818 0.06265 0.10403-0.95732 0.99021
  -5  -2   1 5566.57 272.682   7-0.50504 0.14226 0.07317-0.24018-0.93728 0.97019
  -3   2   1 151.546 43.1246   7-0.53416 0.32415 0.07888 0.08773-0.92457 0.98505
  -3  -2   1 183.210 40.0095   7-0.63826 0.42819 0.09959-0.26644-0.86638 0.92687
   3   2  -1 168.051 26.0303   4-0.12579 0.33664-0.18276 0.34958-0.98168 0.92077
   3  -2  -1 130.440 35.8624   4-0.21678 0.42780 0.06704-0.23412-0.99709 0.93615
  -3   2   1 132.293 37.6514   6-0.31053 0.09997 0.37954-0.21316-0.91344 0.97397
   3  -2  -1 157.416 22.2833   3-0.34776 0.55840-0.12602-0.04089-0.97667 0.91603
  -3  -2   1 181.871 42.1297   9 0.22545-0.43590 0.05499-0.22162 0.99744-0.93676
   3   2  -1 207.150 48.5289   8 0.69847-0.48759-0.22688 0.39367 0.79410-0.85483
  -3   2   1 198.862 27.5595   9 0.14483-0.35538-0.15899 0.32583 0.98672-0.92607
  -3   2   1 165.842 37.0005   1 0.20527-0.41575-0.08256 0.24927 0.99629-0.93557
   3  -2  -1 201.242 44.9397   8 0.49406-0.28328-0.13926-0.02738 0.93355-0.99410
   3   2  -1 157.911 23.9409   6-0.12622 0.33715-0.18127 0.34850-0.98198 0.92109
   3   2  -1 206.160 51.8240   2 0.41554-0.20463 0.24850-0.08137 0.93571-0.99636
  -2   2   1 164.351 37.4284   7-0.64745 0.51377 0.10144 0.06511-0.86016 0.93436
  -2  -2   1 180.336 42.5190   9 0.26924-0.40336 0.18520-0.35180 0.97819-0.90372
  -2   2   1 189.788 39.8927   1 0.22452-0.35866-0.22382 0.39049 0.97346-0.89892
   2  -2  -1 118.208 33.1067   8 0.58245-0.44804-0.17644 0.00973 0.88593-0.96034
   2   2  -1 152.461 30.7017   6-0.05670 0.19117-0.34980 0.51712-0.92981 0.85498
   2  -2  -1 130.395 37.6354   4-0.25812 0.39267 0.19527-0.36247-0.97733 0.90249
  -2  -2   1 191.832 31.7319   8 0.60191-0.73635-0.18474 0.01796 0.87315-0.79858
   2   2  -1 167.196 39.0803   5 0.54102-0.40646 0.21942-0.05262 0.89641-0.97068
  -2   2   1 168.097 38.1539   6-0.32097 0.18680 0.42057-0.25422-0.89281 0.96714
   1   2  -1 8630.11 279.510   5 0.66663-0.60853 0.30126-0.13450 0.79121-0.87933
  -1  -2   1 7441.08 253.144   9 0.30763-0.36543 0.31136-0.47795 0.93990-0.85163
   1   2  -1 7990.06 256.630   6-0.02806 0.08605-0.41441 0.58174-0.89958 0.81086
  -1   2   1 7369.45 260.961   6-0.33759 0.27978 0.49058-0.32425-0.85135 0.93947
  -1  -2   1 7821.99 262.104   3-0.58893 0.53127-0.35643 0.18988-0.81995 0.90819
   0  -2  -1 26.2065 25.1603   9-0.05650 0.03804-0.59259 0.42574 0.78014-0.88230
   0   2   1 33.0631 19.9633   6-0.35819 0.37672 0.59028-0.42398-0.77646 0.87834
  -1  -2  -1 4842.94 290.860   9-0.05652-0.03827-0.59262 0.42578 0.78011-0.89610
  -3   2  -1 4502.58 269.055   6-0.05672-0.19119-0.34977 0.51703-0.92982 0.78575
   3  -2   1 4651.88 232.262   8-0.12933 0.37651 0.10460-0.27103 0.94629-0.80293
  -3   2  -1 4401.05 247.614   7 0.16428-0.41271-0.05147 0.21866-0.93899 0.79476
   4  -2   1 1506.62 148.752   8-0.04986 0.37335 0.07497-0.24137 0.97040-0.81321
  -4   2  -1 1509.99 155.907   6-0.07895-0.24541-0.29773 0.46497-0.94986 0.79197
  -4   2  -1 1444.53 154.026   7 0.07044-0.39531-0.03465 0.20184-0.96764 0.80959
  -4  -2  -1 1765.34 165.792   7 0.10856-0.43341-0.04151-0.12545-0.95711 0.79916
  -5   2  -1 1645.67 162.539   6-0.10403-0.29673-0.23694 0.40414-0.96874 0.79704
   5   2   1 1754.70 159.324   8-0.03098 0.43092 0.06787 0.09887 0.97508-0.80407
   5  -2   1 1449.72 164.705   8 0.01744 0.38238 0.04956-0.21593 0.98524-0.81421
  -5  -2  -1 1639.85 174.049   7 0.01313-0.41441-0.02428-0.14267-0.98069 0.80891
  -5   2  -1 1469.75 168.840   7-0.00569-0.39563-0.02086 0.18803-0.98425 0.81235
  -6   2  -1 660.387 105.592   6-0.13130-0.34584-0.16826 0.33543-0.98453 0.79904
   6   2   1 582.279 99.0483   8 0.05556 0.42071 0.03503 0.13173 0.99138-0.80654
  -6  -2  -1 767.556 127.670   7-0.06461-0.41310-0.01009-0.15687-0.99305 0.80743
   6  -2   1 456.897 99.6171   8 0.07728 0.39886 0.02673-0.19307 0.99415-0.80931
  -6   2  -1 572.450 127.690   7-0.07137-0.40638-0.00885 0.17600-0.99383 0.80808
  -7   2  -1 355.291 89.8960   6-0.16026-0.39323-0.09212 0.25925-0.99551 0.79622
   7   2   1 98.9365 48.3275   8 0.12855 0.42407 0.00697 0.15982 0.99856-0.79987
   7  -2   1 168.785 66.5931   8 0.13227 0.42020 0.00553-0.17185 0.99876-0.80009
  -7   2  -1 237.486 88.2144   7-0.13044-0.42375 0.00203 0.16510-0.99868 0.79905
  -7  -2  -1 230.784 79.8015   7-0.13173-0.42237 0.00227-0.16925-0.99874 0.79927
   8  -2   1 61.0007 41.2563   8 0.18395 0.44486-0.01456-0.15174 0.99989-0.78740
   8   2   1 111.252 56.9337   8 0.19303 0.43594-0.01810 0.18491 0.99977-0.78726
  -8   2  -1 33.5199 54.7651   7-0.18508-0.44552 0.01217 0.15494-0.99992 0.78641
  -8  -2  -1 201.734 97.8906   7-0.19206-0.43844 0.01347-0.18049-0.99985 0.78649
  -9  -2  -1 12.7886 70.5824   7-0.24779-0.45909 0.02391-0.19094-0.99739 0.77014
   9   2   1 15.2150 45.6343   8 0.25186 0.45347-0.04123 0.20805 0.99653-0.77020
 -12  -3   1 19.9540 76.4840   7-0.60336-0.29423 0.09259-0.34340-0.88831 0.82393
 -11   3   1 634.882 196.984   7-0.53349-0.28792 0.07875 0.17146-0.92487 0.87438
 -11  -3   1 888.597 185.271   7-0.58036-0.24081 0.08801-0.33877-0.90136 0.85094
  11   3  -1 1218.66 239.336   5 0.49927 0.32201 0.19323 0.05716 0.92105-0.87104
 -11  -3   1 415.932 152.627   3-0.48172-0.34056-0.24994-0.00011-0.91324 0.86296
  11   3  -1 916.325 202.745   2 0.46163 0.35942 0.31200-0.06150 0.90020-0.85060
  11  -3  -1 898.393 219.196   8 0.51348 0.30792-0.14735-0.10232 0.92443-0.87442
 -10   3   1 240.256 113.439   7-0.51133-0.23363 0.07440 0.17581-0.93465 0.89809
 -10  -3   1 544.918 149.633   7-0.56027-0.18449 0.08402-0.33473-0.91193 0.87544
  10   3  -1 428.032 137.746   5 0.47692 0.26811 0.17937 0.07097 0.93257-0.89631
  10  -3  -1 420.352 168.722   8 0.49094 0.25412-0.13796-0.11173 0.93495-0.89872
  10   3  -1 256.445 105.519   2 0.44109 0.30368 0.28336-0.03292 0.91730-0.88142
 -10  -3   1 246.610 108.066   3-0.46010-0.28573-0.22936-0.02072-0.92684 0.89047
  -9   3   1 1194.39 201.850   7-0.49220-0.17631 0.07065 0.17955-0.94245 0.91981
  -9  -3   1 1135.61 181.652   7-0.54407-0.12427 0.08083-0.33148-0.91991 0.89734
   9  -3  -1 1050.69 198.251   8 0.47116 0.19758-0.12977-0.11996 0.94341-0.92099
   9   3  -1 991.024 164.384   8 0.57370 0.09541-0.17271 0.42280 0.89138-0.86910
   9   3  -1 1217.25 193.800   5 0.45714 0.21162 0.16720 0.08311 0.94186-0.91938
  -9  -3   1 954.111 178.483   3-0.44086-0.22850-0.21125-0.03885-0.93774 0.91528
   9   3  -1 1120.19 186.635   2 0.42268 0.24581 0.25817-0.00777 0.93087-0.90871
   8   3  -1 53.2679 53.6849   2 0.40703 0.18519 0.23705 0.01332 0.94120-0.93280
   8  -3  -1 52.9925 60.4036   4 0.00425 0.58850-0.48444 0.23487-0.85944 0.86739
  -8   3   1 10.9142 45.2562   7-0.47714-0.11492 0.06772 0.18248-0.94818 0.93944
   8   3  -1 6.91985 39.9808   8 0.56598 0.02679-0.16943 0.41953 0.89606-0.88759
  -8   3   1 -5.6999 32.1674   6-0.32188-0.27048 0.42421-0.17450-0.89085 0.88215
  -8  -3   1 34.4811 37.0936   7-0.53331-0.05862 0.07871-0.32930-0.92496 0.91627
   8  -3  -1 -27.606 65.1904   8 0.45500 0.13742-0.12311-0.12665 0.94981-0.94119
   8   3  -1 -8.9932 46.3052   5 0.44071 0.15177 0.15716 0.09311 0.94896-0.94026
  -8  -3   1 56.1640 81.9165   3-0.42469-0.16820-0.19617-0.05395-0.94610 0.93753
  -8  -3   1 47.6776 60.4831   9-0.00277-0.58938-0.48923 0.23918 0.85734-0.86571
  -7   3   1 211.251 72.7772   7-0.46772-0.04791 0.06589 0.18429-0.95159 0.95673
   7  -3  -1 265.168 74.6811   4-0.03966 0.55611-0.38895 0.13918-0.91225 0.90653
  -7   3   1 229.718 64.9331   6-0.31160-0.20442 0.38370-0.13398-0.91147 0.91662
  -7  -3   1 207.772 67.6244   9 0.04229-0.55809-0.39576 0.14572 0.90996-0.90452
   7   3  -1 579.957 156.905   8 0.56776-0.05133-0.17019 0.42029 0.89499-0.90035
   7  -3  -1 240.690 60.0809   5 0.60023-0.08400 0.25735-0.50690 0.85344-0.85879
   7  -3  -1 186.911 70.6631   8 0.44377 0.07232-0.11849-0.13130 0.95400-0.95920
  -6   3   1 178.319 61.5571   7-0.46636 0.02717 0.06563 0.18452-0.95207 0.97107
  -6  -3   1 239.208 65.2110   7-0.53926 0.10013 0.07988-0.33032-0.92219 0.94124
   6  -3  -1 209.247 63.7093   4-0.08162 0.52175-0.29174 0.04177-0.95195 0.93249
  -6   3   1 189.227 51.9001   6-0.30359-0.13609 0.35332-0.10358-0.92532 0.94433
   6   3  -1 386.086 131.648   2 0.38744 0.05227 0.21098 0.03939 0.95272-0.97188
   6  -3  -1 279.840 56.6861   5 0.62469-0.18472 0.27332-0.52297 0.83248-0.85165
  -6  -3   1 215.703 61.2503   9 0.08559-0.52502-0.30003 0.04999 0.94994-0.93069
   6   3  -1 877.316 142.607   5 0.42298 0.01693 0.14636 0.10386 0.95604-0.97495
   6  -3  -1 237.481 70.6128   8 0.43941 0.00036-0.11670-0.13313 0.95558-0.97460
   6   3  -1 142.930 56.8539   8 0.58424-0.14416-0.17720 0.42731 0.88479-0.90400
  -6  -3   1 193.673 78.5313   3-0.40572-0.03420-0.17864-0.07148-0.95500 0.97418
  -5   3   1 377.379 77.7269   7-0.47703 0.11428 0.06770 0.18241-0.94822 0.98105
  -5  -3   1 165.741 29.2519   7-0.56681 0.20407 0.08532-0.33568-0.90858 0.94145
   5   3  -1 379.782 80.7455   2 0.38603-0.02257 0.20912 0.04127 0.95349-0.98646
   5  -3  -1 358.785 76.8273   4-0.12140 0.48519-0.19391-0.05626-0.97931 0.94608
  -5   3   1 324.468 65.4887   1 0.14711-0.51031 0.23646 0.01375 0.97114-0.93811
  -5  -3   1 343.415 72.5438   9 0.12688-0.48997-0.20302-0.04700 0.97789-0.94483
  -5   3   1 372.368 77.4374   6-0.29850-0.06483 0.33447-0.08473-0.93326 0.96611
   5  -3  -1 249.536 54.0753   5 0.67837-0.31471 0.30921-0.55897 0.77828-0.81132
   5   3  -1 369.305 66.7383   8 0.62465-0.26094-0.19453 0.44467 0.85700-0.89006
   5  -3  -1 317.207 68.4886   8 0.44494-0.08151-0.11897-0.13090 0.95358-0.98642
   5   3  -1 391.966 84.1962   5 0.42581-0.06220 0.14808 0.10214 0.95495-0.98769
  -5  -3   1 276.700 65.5737   3-0.40618 0.04275-0.17907-0.07104-0.95479 0.98783
  -4   3   1 487.341 83.3711   7-0.50652 0.22019 0.07346 0.17660-0.93667 0.98331
   4   3  -1 531.237 92.7071   2 0.39272-0.10553 0.21797 0.03246 0.94976-0.99657
   4   3  -1 555.626 52.4429   6-0.27561 0.56293 0.25380-0.00349-0.96182 0.91481
   4  -3  -1 590.269 90.1502   4-0.15867 0.44607-0.09677-0.15360-0.99504 0.94798
  -4   3   1 537.013 89.7909   6-0.29701 0.01007 0.32905-0.07931-0.93545 0.98215
  -4  -3   1 620.474 94.3303   9 0.16582-0.45257-0.10596-0.14404 0.99429-0.94741
   4   3  -1 755.595 106.854   8 0.70515-0.41783-0.22986 0.48004 0.78748-0.83441
   4  -3  -1 498.686 85.3554   8 0.46538-0.17828-0.12739-0.12253 0.94575-0.99243
  -4   3   1 592.929 88.5735   1 0.17195-0.45879 0.11350 0.13664 0.99347-0.94660
  -4  -3   1 614.161 85.5528   7-0.62555 0.33918 0.09703-0.34729-0.87468 0.92134
  -3   3   1 1031.26 112.585   1 0.19203-0.40252 0.00083 0.24927 0.99994-0.93924
   3   3  -1 1008.84 84.5568   6-0.19516 0.40611 0.00451 0.24607-0.99989 0.93902
  -3   3   1 1080.91 121.350   6-0.29984 0.08930 0.33945-0.08971-0.93121 0.99174
  -3  -3   1 1144.87 124.777   9 0.20197-0.41240-0.01036-0.23961 0.99972-0.93904
  -3  -3   1 947.909 120.234   3-0.44175 0.23128-0.21208-0.03795-0.93726 0.99797
   3  -3  -1 1131.73 123.132   4-0.19304 0.40401-0.00192-0.24862-0.99992 0.93901
   3  -3  -1 1134.13 119.820   8 0.50918-0.29842-0.14556-0.10442 0.92651-0.98704
   3   3  -1 1042.29 117.181   5 0.47541-0.26447 0.17845 0.07176 0.93331-0.99374
  -3   3   1 998.905 108.844   7-0.56697 0.35703 0.08535 0.16463-0.90849 0.96890
  -3  -3   1 1063.89 98.5229   7-0.73726 0.52716 0.11982-0.36996-0.78750 0.84795
   2  -3  -1 6873.47 296.419   4-0.22402 0.35854 0.08871-0.33938-0.99509 0.92029
  -2  -3   1 8116.38 308.403   9 0.23484-0.36894 0.08191-0.33185 0.99507-0.92058
  -2   3   1 7763.82 299.047   1 0.20768-0.34183-0.09872 0.34878 0.99475-0.92022
   2  -3  -1 8536.76 293.152   9-0.02570 0.15986-0.53443 0.28417 0.82633-0.90082
  -2  -3   1 7943.97 302.535   3-0.48724 0.35322-0.25522 0.00524-0.90953 0.98404
  -2  -3   1 8645.13 190.078   8 0.58445-0.71889-0.17728-0.07286 0.88466-0.81009
  -2   3   1 7816.07 301.172   6-0.30762 0.17346 0.36845-0.11875-0.91859 0.99293
   2   3  -1 7576.82 270.223   5 0.53859-0.40404 0.21788 0.03232 0.89796-0.97225
   2   3  -1 7567.42 248.448   6-0.14415 0.27865-0.13490 0.38563-0.99017 0.91540
  -2  -3   1 8087.81 283.371   4 0.02942-0.16388-0.53636 0.28640-0.82404 0.89860
   2  -3  -1 7268.81 266.103   8 0.59065-0.45625-0.17993-0.07012 0.88065-0.95505
  -2   3   1 8275.47 270.613   7-0.67948 0.54583 0.10793 0.14196-0.83684 0.91097
   1   3  -1 742.171 89.3532   2 0.49272-0.43446 0.35646-0.10579 0.86987-0.95834
   1   3  -1 725.781 82.0656   6-0.11435 0.17237-0.21129 0.46207-0.97531 0.88664
   1   3  -1 946.042 94.5077   5 0.64441-0.58631 0.28637-0.03621 0.81398-0.90210
  -1   3   1 749.241 93.0547   6-0.32056 0.26280 0.41892-0.16925-0.89369 0.98183
  -1  -3   1 736.826 89.5346   9 0.26388-0.32168 0.16857-0.41848 0.98176-0.89346
  -1  -3   1 772.478 89.2000   3-0.56080 0.50319-0.32764 0.07771-0.84930 0.93758
   1  -3  -1 837.213 92.5465   9-0.00893 0.06679-0.50153 0.25129 0.84929-0.93759
  -1  -3   1 821.680 94.8374   4 0.01295-0.07108-0.50262 0.25273-0.84763 0.93601
   0  -3   1 -14.878 10.4329   4 0.00915 0.00906-0.49471 0.24489-0.85284 0.95504
   0   3   1 22.1800 21.1349   6-0.33811 0.35672 0.49286-0.24325-0.84985 0.95175
   0   3  -1 2.34704 12.4292   6-0.09944 0.08097-0.24824 0.49904-0.96558 0.86304
   0  -3  -1 -4.0176 9.98312   4-0.27397 0.25547 0.24784-0.49867-0.96358 0.86100
   0   3  -1 1.98862 19.3919   2 0.56214-0.58035 0.46249-0.21175 0.77602-0.87844
   0  -3  -1 -6.4510 12.0574   9-0.00548-0.01298-0.49465 0.24442 0.85383-0.95595
   0  -3   1 -4.2579 17.8358   9 0.28857-0.27007 0.24702-0.49690 0.96195-0.85986
  -1   3  -1 8870.99 333.382   6-0.09515 0.00020-0.25872 0.50952-0.96252 0.84612
   1   3   1 8952.34 326.135   1 0.23289-0.13805-0.29748 0.54747 0.95284-0.83686
   1   3   1 7518.80 328.651   6-0.35808 0.45305 0.58971-0.34014-0.77695 0.89258
  -1  -3  -1 8918.63 332.789   9-0.01098-0.08378-0.50560 0.25539 0.84656-0.96251
   1  -3   1 9128.70 304.732   9 0.30850-0.21371 0.31441-0.56426 0.93871-0.82283
  -1  -3  -1 9311.14 314.425   4-0.29211 0.19709 0.31100-0.56186-0.94245 0.82597
  -2   3  -1 1769.30 158.044   6-0.09862-0.07280-0.25025 0.50103-0.96501 0.83476
   2  -3   1 1647.89 126.300   9 0.32338-0.15233 0.36779-0.61761 0.91593-0.78626
  -2  -3  -1 1664.89 157.146   9-0.02287-0.14823-0.52893 0.27873 0.83031-0.96009
   2  -3   1 1593.73 129.455   8-0.12854 0.29940 0.10430-0.35406 0.94657-0.81700
   2  -3   1 1871.37 166.553   4 0.02519 0.14575-0.52779 0.27815-0.83024 0.96004
  -2   3  -1 1620.18 133.809   7 0.19353-0.36541-0.05667 0.30738-0.92817 0.79780
  -3   3  -1 3537.29 239.560   6-0.10788-0.13999-0.22741 0.47817-0.97127 0.82720
  -3   3  -1 2908.95 198.719   7 0.09346-0.34182-0.03880 0.28951-0.96146 0.81726
   3  -3   1 2904.39 196.788   8-0.05560 0.30277 0.07712-0.32684 0.96890-0.82551
  -3  -3  -1 3951.29 281.609   9-0.03948-0.20794-0.56081 0.31061 0.80631-0.94992
  -3  -3  -1 2493.58 168.638   7 0.18270-0.43105-0.05474-0.19571-0.93228 0.78823
   3  -3   1 3376.85 239.621   4 0.04105 0.20626-0.55964 0.31009-0.80643 0.94999
  -4   3  -1 3.81231 23.0548   6-0.12157-0.20275-0.19310 0.44382-0.97948 0.82158
   4   3   1 45.1407 26.4832   8-0.10707 0.43072 0.09635 0.15365 0.95377-0.79659
  -4  -3  -1 63.7748 61.3206   9-0.05970-0.26406-0.59846 0.34827 0.77504-0.93248
   4  -3   1 -13.423 33.3641   8 0.00595 0.31754 0.05392-0.30361 0.98307-0.82585
  -4  -3  -1 -35.178 32.4762   7 0.06023-0.38502-0.03281-0.21763-0.97021 0.81234
  -4   3  -1 30.9731 47.1563   7 0.01622-0.34103-0.02484 0.27554-0.98007 0.82203
  -5   3  -1 1979.78 192.927   6-0.13869-0.26205-0.14917 0.39985-0.98792 0.81620
   5   3   1 1747.95 134.483   1 0.23090 0.16930-0.27895 0.52892 0.95861-0.78732
   5   3   1 1926.62 150.134   8 0.00690 0.39310 0.05356 0.19647 0.98325-0.81222
   5  -3   1 1887.08 187.200   8 0.06099 0.33882 0.03296-0.28262 0.99213-0.82109
  -5  -3  -1 1977.09 179.113   7-0.03021-0.37099-0.01640-0.23405-0.98834 0.81664
  -5   3  -1 1996.73 198.020   7-0.04881-0.35244-0.01299 0.26367-0.99103 0.81913
   6   3   1 1542.02 112.131   1 0.22255 0.25399-0.20790 0.45787 0.97711-0.79197
  -6   3  -1 1754.21 189.041   6-0.15851-0.31861-0.09681 0.34743-0.99503 0.80950
   6   3   1 1552.56 145.539   8 0.09420 0.38215 0.02023 0.22983 0.99594-0.81107
   6  -3   1 1576.09 186.247   8 0.11199 0.36415 0.01337-0.26301 0.99746-0.81260
  -6   3  -1 1718.54 203.423   7-0.10664-0.37105-0.00237 0.25304-0.99716 0.81139
  -6  -3  -1 1675.94 182.720   7-0.10375-0.37386-0.00290-0.24755-0.99694 0.81138
  -7   3  -1 2394.93 230.948   6-0.18052-0.37298-0.03674 0.28732-0.99931 0.79998
   7  -3   1 1946.41 220.334   8 0.16032 0.39215-0.00535-0.24426 0.99976-0.80108
   7   3   1 1849.80 170.316   8 0.16667 0.38604-0.00782 0.25790 0.99986-0.80117
  -7   3  -1 2370.97 266.720   7-0.15988-0.39423 0.00748 0.24317-0.99974 0.80010
  -7  -3  -1 2320.95 237.432   7-0.16747-0.38653 0.00889-0.25936-0.99987 0.80045
  -8   3  -1 135.363 73.5238   6-0.20426-0.42557 0.03067 0.21985-0.99926 0.78612
  -8  -3  -1 129.960 74.0280   7-0.22501-0.40537 0.01963-0.27013-0.99881 0.78551
  -8   3  -1 108.784 73.4983   7-0.21003-0.42050 0.01683 0.23381-0.99943 0.78589
   8  -3   1 140.870 57.3133   8 0.20679 0.42201-0.02349-0.22609 0.99939-0.78690
   8   3   1 79.9640 35.0302   8 0.23021 0.39886-0.03269 0.28279 0.99821-0.78569
 -11   4   1 117.707 70.0679   7-0.55206-0.26927 0.08240 0.25131-0.91603 0.86546
  11   4  -1 197.777 143.563   2 0.46045 0.36051 0.31033 0.02344 0.90125-0.85172
 -11  -4   1 158.690 118.927   3-0.48455-0.33777-0.25265-0.08088-0.91135 0.86105
 -10   4   1 60.0728 83.6245   7-0.53203-0.21286 0.07846 0.25525-0.92554 0.88891
 -10  -4   1 24.8038 55.3108   7-0.60184-0.14279 0.09229-0.42639-0.88920 0.85266
  10  -4  -1 9.22192 83.1856   8 0.50444 0.24063-0.14358-0.18942 0.92877-0.89255
  10   4  -1 17.9214 60.0530   5 0.48613 0.25896 0.18507 0.14859 0.92796-0.89172
  10   4  -1 100.236 87.8212   2 0.44164 0.30306 0.28413 0.04959 0.91687-0.88104
 -10  -4   1 27.3677 72.5590   3-0.46466-0.28121-0.23367-0.09989-0.92409 0.88772
   9  -4  -1 984.071 185.528   8 0.48669 0.18205-0.13620-0.19682 0.93682-0.91441
  -9  -4   1 1132.47 187.704   7-0.59012-0.07811 0.08995-0.42399-0.89595 0.87332
  -9   4   1 1153.75 201.996   7-0.51536-0.15308 0.07519 0.25851-0.93293 0.91022
  -9  -4   1 1256.40 210.399   3-0.44721-0.22217-0.21721-0.11638-0.93426 0.91180
   9   4  -1 1325.92 215.987   2 0.42502 0.24342 0.26134 0.07234 0.92923-0.90713
  -8   4   1 470.256 122.534   7-0.50320-0.08879 0.07281 0.26086-0.93803 0.92922
   8   4  -1 425.634 114.093   2 0.41112 0.18106 0.24254 0.09113 0.93860-0.93025
   8  -4  -1 318.771 98.9847   4-0.00929 0.60214-0.45565 0.12262-0.87694 0.88493
   8  -4  -1 421.821 128.520   8 0.47281 0.11960-0.13045-0.20261 0.94273-0.93412
   8   4  -1 443.364 118.547   5 0.45382 0.13873 0.16517 0.16845 0.94334-0.93466
  -8   4   1 382.898 109.884   6-0.31674-0.27569 0.40372-0.07067-0.90159 0.89285
  -8  -4   1 469.571 130.515   3-0.43286-0.16002-0.20379-0.12980-0.94196 0.93339
  -8  -4   1 532.397 116.156   7-0.58506-0.00676 0.08894-0.42290-0.89878 0.89004
  -8  -4   1 439.888 116.423   9 0.01144-0.60356-0.46042 0.12699 0.87513-0.88350
   7   4  -1 1746.24 198.956   2 0.40065 0.11528 0.22852 0.10514 0.94512-0.95055
  -7   4   1 2066.95 219.138   6-0.30774-0.20834 0.36894-0.03586-0.91837 0.92349
  -7  -4   1 1740.39 192.401   9 0.04984-0.56561-0.37948 0.04607 0.91770-0.91225
   7   4  -1 1925.30 213.246   5 0.44400 0.07226 0.15916 0.17445 0.94759-0.95271
   7  -4  -1 1678.95 208.393   8 0.46408 0.05200-0.12685-0.20625 0.94627-0.95147
   7  -4  -1 1927.26 203.905   4-0.04653 0.56305-0.37342 0.04018-0.91949 0.91379
  -7  -4   1 1729.27 214.994   3-0.42251-0.09389-0.19415-0.13944-0.94717 0.95248
  -7   4   1 1615.94 205.003   7-0.49720-0.01834 0.07163 0.26199-0.94047 0.94553
  -7  -4   1 1857.81 188.071   7-0.58962 0.07420 0.08985-0.42372-0.89623 0.90137
  -6   4   1 826.781 134.127   7-0.49988 0.06078 0.07215 0.26143-0.93939 0.95831
   6   4  -1 739.930 118.077   5 0.44029-0.00033 0.15689 0.17670 0.94914-0.96808
   6  -4  -1 712.682 121.373   4-0.08162 0.52179-0.29174-0.04171-0.95195 0.93250
   6   4  -1 1161.35 160.816   2 0.39451 0.04519 0.22034 0.11333 0.94874-0.96795
  -6   4   1 931.652 144.039   6-0.30082-0.13890 0.34301-0.00991-0.92972 0.94870
  -6  -4   1 884.871 151.313   3-0.41731-0.02259-0.18933-0.14425-0.94967 0.96886
  -6  -4   1 754.163 123.180   9 0.08620-0.52560-0.29864-0.03476 0.95043-0.93117
   6   4  -1 1383.08 155.218   8 0.68393-0.24378-0.22042 0.55395 0.80791-0.82720
   6  -4  -1 866.299 150.173   8 0.46242-0.02265-0.12617-0.20698 0.94693-0.96595
  -6  -4   1 1030.59 129.148   7-0.60862 0.16958 0.09363-0.42741-0.88517 0.90415
  -5   4   1 -72.452 44.9558   7-0.51528 0.15262 0.07517 0.25835-0.93297 0.96572
   5   4  -1 18.4694 28.0606   6-0.34376 0.70747 0.51850-0.18510-0.83240 0.79901
  -5  -4   1 -14.416 21.3239   7-0.65022 0.28754 0.10200-0.43566-0.85824 0.89104
   5  -4  -1 -24.187 38.4247   4-0.11438 0.47816-0.21159-0.12206-0.97525 0.94202
  -5   4   1 -0.8138 27.4563   6-0.29644-0.06691 0.32699 0.00613-0.93627 0.96910
   5   4  -1 15.9572 25.9747   5 0.44498-0.08132 0.15976 0.17385 0.94717-0.97995
   5   4  -1 86.8582 47.2530   2 0.39390-0.03044 0.21953 0.11419 0.94909-0.98210
  -5  -4   1 -45.697 36.2803   9 0.12032-0.48338-0.21883-0.11454 0.97415-0.94107
   5  -4  -1 -20.408 40.4032   8 0.47071-0.10728-0.12959-0.20361 0.94359-0.97643
  -5  -4   1 24.8807 42.2298   3-0.41893 0.05551-0.19083-0.14272-0.94890 0.98195
   4   4  -1 1110.62 137.795   2 0.40038-0.11318 0.22816 0.10562 0.94528-0.99213
   4   4  -1 1272.22 102.658   6-0.27998 0.56739 0.26878 0.06494-0.95716 0.91008
  -4   4   1 1251.50 146.167   6-0.29512 0.00818 0.32221 0.01092-0.93816 0.98484
  -4  -4   1 1218.16 148.549   3-0.42967 0.14276-0.20080-0.13271-0.94360 0.99049
   4  -4  -1 284.448 70.6885   9-0.05890 0.34564-0.59700 0.26334 0.77633-0.82320
   4   4  -1 1218.06 137.858   5 0.46143-0.17411 0.16983 0.16377 0.93992-0.98653
  -4  -4   1 1304.61 151.830   9 0.15197-0.43870-0.14115-0.19220 0.98964-0.94274
   4  -4  -1 1199.47 138.759   8 0.49350-0.20642-0.13903-0.19422 0.93380-0.98047
   4  -4  -1 1259.87 152.086   4-0.14461 0.43197-0.13410-0.19973-0.99030 0.94325
  -4   4   1 1373.15 144.738   7-0.55010 0.26384 0.08202 0.25142-0.91700 0.96355
  -4  -4   1 1487.68 133.563   7-0.72815 0.44177 0.11793-0.45146-0.79598 0.84258
  -3  -4   1 148.995 45.9397   4 0.02112-0.23199-0.51947 0.18610-0.83613 0.89687
  -3   4   1 126.660 43.3428   7-0.61560 0.40571 0.09503 0.23830-0.88092 0.94123
  -3  -4   1 154.910 58.7178   9 0.18089-0.39129-0.06681-0.26650 0.99778-0.93708
   3  -4  -1 94.5491 46.2921   4-0.17204 0.38296-0.06054-0.27345-0.99811 0.93722
   3   4  -1 127.908 40.5983   6-0.22787 0.43888 0.10073 0.23322-0.99375 0.93284
   3  -4  -1 167.943 47.5596   9-0.01664 0.22708-0.51675 0.18313 0.83893-0.89958
  -3   4   1 135.117 57.7612   6-0.29735 0.08681 0.33031 0.00281-0.93495 0.99546
  -3  -4   1 103.278 19.2043   8-0.01622-0.19455 0.06230-0.39565 0.97846-0.91785
   3  -4  -1 143.502 42.3378   8 0.53815-0.32740-0.15769-0.17563 0.91181-0.97233
  -3  -4   1 161.336 58.8389   3-0.45282 0.24238-0.22248-0.11098-0.93109 0.99181
  -3   4   1 101.765 20.5788   2 0.41359-0.62429 0.24587 0.08769 0.93699-0.87654
   3   4  -1 12.4000 17.8760   2 0.41599-0.20505 0.24910 0.08476 0.93541-0.99611
   2  -4  -1 1212.11 120.495   9 0.00567 0.12849-0.47220 0.13860 0.86804-0.94248
   2   4  -1 1330.53 122.222   6-0.18999 0.32454-0.01016 0.34426-0.99991 0.92513
  -2   4   1 1247.84 135.164   6-0.30355 0.16942 0.35315-0.02006-0.92540 0.99973
  -2  -4   1 1222.57 135.563   9 0.20677-0.34086 0.00276-0.33604 0.99966-0.92514
  -2  -4   1 1257.11 132.225   3-0.49281 0.35884-0.26059-0.07280-0.90568 0.98019
   2   4  -1 1273.23 122.353   5 0.55293-0.41838 0.22696 0.10665 0.88858-0.96289
   2  -4  -1 1268.59 120.287   8 0.61615-0.48176-0.19086-0.14255 0.86319-0.93757
  -2  -4   1 1372.68 135.160   4-0.00056-0.13400-0.47428 0.14095-0.86578 0.94036
   2   4  -1 1271.82 72.5913   7-0.27185 0.40580 0.02843 0.30523-0.99526 0.92067
  -2   4   1 1390.09 119.945   7-0.72930 0.59567 0.11817 0.21507-0.79492 0.86896
   1   4  -1 8786.57 311.274   5 0.64556-0.58748 0.28714 0.04646 0.81285-0.90098
  -1  -4   1 7451.37 322.978   4-0.01010-0.04809-0.45392 0.12063-0.87795 0.96638
   1   4  -1 7095.43 297.824   2 0.48469-0.42639 0.34484-0.01075 0.87826-0.96676
   1  -4  -1 7310.88 298.760   9 0.01511 0.04275-0.45288 0.11929 0.87955-0.96781
   1   4  -1 7102.74 297.597   6-0.16458 0.22265-0.08047 0.41466-0.99660 0.90795
  -1   4   1 7730.91 332.027   6-0.31393 0.25621 0.39268-0.05963-0.90711 0.99525
  -1  -4   1 7373.43 324.552   9 0.22930-0.28709 0.06596-0.39920 0.99657-0.90825
  -1  -4   1 7845.56 315.219   3-0.55492 0.49737-0.32171-0.01161-0.85494 0.94322
   1  -4   1 69.9680 29.4644   9 0.26298-0.16819 0.16582-0.49901 0.98232-0.86639
  -1   4  -1 58.2513 37.2485   6-0.14219 0.04729-0.14002 0.47427-0.98939 0.87300
  -1  -4  -1 56.0930 29.3533   4-0.24803 0.15301 0.16289-0.49722-0.98414 0.86774
  -1   4  -1 55.1560 19.0396   7 0.16977-0.26511-0.05245 0.38664-0.93703 0.82055
   1  -4   1 79.2771 34.0111   8-0.07250 0.16704 0.08344-0.41655 0.96427-0.84847
   1   4   1 95.6872 26.4694   6-0.34564 0.44070 0.52735-0.19443-0.82608 0.94174
  -1  -4  -1 21.6885 33.6329   9 0.00931-0.10408-0.46477 0.13119 0.87254-0.98845
   1   4   1 25.3467 24.5566   1 0.21589-0.12107-0.15674 0.49011 0.98696-0.87099
  -2   4  -1 18.0744 39.2010   6-0.14154-0.02983-0.14172 0.47595-0.98913 0.85889
  -2  -4  -1 39.5116 28.7902   4-0.25693 0.08541 0.19138-0.52574-0.97821 0.84795
  -2  -4  -1 -4.4753 33.8709   9-0.00204-0.16904-0.48776 0.15419 0.85828-0.98803
   2   4   1 8.48704 19.9914   1 0.21845-0.04728-0.17586 0.50922 0.98361-0.85382
   2  -4   1 -10.932 30.5696   9 0.27337-0.10230 0.19817-0.53133 0.97517-0.84544
   2  -4   1 -28.816 30.0674   8-0.02092 0.19177 0.06407-0.39714 0.97741-0.84779
  -2  -4  -1 -9.3801 15.8272   7 0.25746-0.42925-0.06795-0.26600-0.90128 0.77114
  -2   4  -1 20.0139 24.7939   7 0.07502-0.24682-0.03549 0.36967-0.96646 0.83614
   3   4   1 2144.00 179.146   1 0.21873 0.02877-0.17801 0.51137 0.98321-0.83959
  -3   4  -1 1741.64 182.694   6-0.14609-0.10175-0.12982 0.46403-0.99092 0.84684
   3  -4   1 2169.02 168.523   9 0.27876-0.03141 0.21524-0.54838 0.97089-0.82736
  -3  -4  -1 1948.30 196.642   9-0.01746-0.22996-0.51835 0.18477 0.83782-0.98140
   3  -4   1 1980.40 174.320   8 0.02583 0.22133 0.04637-0.37940 0.98673-0.84330
   3  -4   1 2082.80 209.904   4 0.01983 0.22749-0.51683 0.18389-0.83796 0.98160
  -3  -4  -1 2051.44 134.399   7 0.08502-0.33328-0.03729-0.29660-0.96379 0.81984
  -3   4  -1 1944.99 163.093   7 0.00546-0.25372-0.02289 0.35707-0.98218 0.83802
  -3  -4  -1 2019.01 161.742   4-0.26078 0.01278 0.20393-0.53828-0.97530 0.83118
   4   4   1 -6.4190 17.6562   8-0.02919 0.35292 0.06719 0.26611 0.97550-0.81830
  -4   4  -1 11.6965 37.0463   6-0.15482-0.16946-0.10670 0.44088-0.99393 0.83601
  -4  -4  -1 14.9211 25.8078   4-0.25852-0.06591 0.19657-0.53091-0.97703 0.81908
   4  -4   1 -2.0376 25.6180   9 0.27815 0.04547 0.21330-0.54642 0.97139-0.81405
  -4  -4  -1 15.2704 42.4801   9-0.03614-0.28759-0.55447 0.22090 0.81126-0.96867
   4   4   1 38.5256 23.8907   1 0.21655 0.10730-0.16160 0.49495 0.98615-0.82869
   4  -4   1 28.5892 27.3424   8 0.07011 0.25338 0.02947-0.36247 0.99330-0.83604
  -4  -4  -1 3.46723 20.2606   7-0.02097-0.30370-0.01808-0.31579-0.98687 0.82910
  -4   4  -1 50.2116 45.4775   7-0.05269-0.27201-0.01228 0.34646-0.99155 0.83353
   4  -4   1 46.6579 49.7611   4 0.03774 0.28596-0.55308 0.22023-0.81151 0.96891
   5   4   1 4853.77 249.477   1 0.21136 0.18884-0.12407 0.45742 0.99178-0.82050
  -5   4  -1 4550.98 321.874   6-0.16694-0.23377-0.07406 0.40819-0.99714 0.82539
   5  -4   1 5079.92 240.878   9 0.26962 0.13027 0.18640-0.51951 0.97792-0.80676
   5   4   1 4369.04 207.962   8 0.08039 0.31970 0.02553 0.30781 0.99450-0.82346
   5  -4   1 4141.86 290.736   8 0.11295 0.28687 0.01300-0.34596 0.99753-0.82647
  -5  -4  -1 2162.41 302.207   9-0.05755-0.34253-0.59451 0.26094 0.77848-0.94973
  -5  -4  -1 4792.89 265.847   7-0.09917-0.30190-0.00374-0.33013-0.99656 0.82494
  -5   4  -1 4782.23 314.023   7-0.10480-0.29634-0.00271 0.33688-0.99702 0.82512
  -5  -4  -1 5825.08 267.251   4-0.24805-0.15278 0.16296-0.49727-0.98412 0.81236
  -6   4  -1 139.138 50.1933   6-0.18184-0.29527-0.03303 0.36711-0.99945 0.81388
   6  -4   1 86.6416 62.9925   8 0.15489 0.32126-0.00323-0.32970 0.99964-0.81476
   6   4   1 56.6319 21.6603   8 0.16180 0.31465-0.00592 0.33929 0.99979-0.81491
  -6   4  -1 62.3876 66.5348   7-0.15334-0.32424 0.00627 0.32790-0.99958 0.81381
  -6  -4  -1 138.891 46.8637   7-0.16373-0.31373 0.00820-0.34210-0.99981 0.81433
  -7  -4  -1 490.648 116.696   7-0.22067-0.33317 0.01882-0.35274-0.99901 0.79966
  -7   4  -1 381.639 112.829   6-0.19904-0.35445 0.01560 0.31842-0.99972 0.80033
   7  -4   1 360.760 101.611   8 0.19622 0.35626-0.01935-0.31356 0.99970-0.80100
  -7   4  -1 390.626 111.687   7-0.19961-0.35439 0.01488 0.31928-0.99972 0.80006
  -8   4  -1 -69.607 71.1854   7-0.24434-0.38609 0.02326 0.31091-0.99764 0.78408
  -8  -4  -1 28.2270 61.2537   7-0.27301-0.35721 0.02865-0.36260-0.99514 0.78190
  -8   4  -1 63.2395 54.8622   6-0.21811-0.41173 0.07136 0.26257-0.99674 0.78355
   8  -4   1 57.0267 51.6520   8 0.23713 0.39168-0.03542-0.29746 0.99774-0.78524
  11   5  -1 362.531 125.550   2 0.46404 0.35687 0.31538 0.10167 0.89806-0.84861
 -10   5   1 32.0598 68.6247   7-0.55962-0.18517 0.08390 0.33329-0.91226 0.87552
  10   5  -1 66.6744 60.4630   5 0.50089 0.24428 0.19424 0.22277 0.92017-0.88395
  10  -5  -1 192.057 120.099   8 0.52396 0.22110-0.15174-0.26456 0.91922-0.88302
 -10  -5   1 -44.154 75.7931   3-0.47428-0.27158-0.24283-0.17422-0.91808 0.88169
  10   5  -1 186.767 144.472   2 0.44702 0.29764 0.29157 0.12544 0.91259-0.87684
  -9   5   1 926.728 191.349   7-0.54598-0.12236 0.08121 0.33596-0.91900 0.89618
   9  -5  -1 826.934 188.257   8 0.50862 0.16012-0.14532-0.27101 0.92678-0.90437
   9   5  -1 665.241 152.266   5 0.48513 0.18378 0.18445 0.23254 0.92847-0.90603
  -9  -5   1 641.664 165.490   3-0.45875-0.21062-0.22809-0.18897-0.92763 0.90515
   9   5  -1 433.498 141.334   2 0.43219 0.23622 0.27113 0.14584 0.92406-0.90204
   8  -5  -1 34.8025 38.3202   4-0.01416 0.60706-0.44516 0.02864-0.88297 0.89097
  -8   5   1 -2.2023 60.3825   7-0.53733-0.05454 0.07950 0.33762-0.92310 0.91418
  -8  -5   1 12.4087 44.1799   9 0.01672-0.60880-0.44955 0.03275 0.88146-0.88984
   8  -5  -1 -7.5487 54.9783   8 0.49741 0.09499-0.14066-0.27572 0.93203-0.92342
   8   5  -1 32.7955 52.4525   5 0.47302 0.11961 0.17697 0.24002 0.93447-0.92582
  -8   5   1 74.5233 62.4261   6-0.31576-0.27672 0.39985 0.01658-0.90355 0.89477
  -8  -5   1 -5.3508 61.5844   3-0.44638-0.14649-0.21644-0.20063-0.93472 0.92613
   8   5  -1 66.8620 98.5076   2 0.42006 0.17210 0.25462 0.16234 0.93267-0.92439
   7   5  -1 185.860 115.133   2 0.41126 0.10467 0.24273 0.17424 0.93851-0.94400
  -7   5   1 304.733 94.1129   7-0.53547 0.02002 0.07913 0.33793-0.92396 0.92892
   7  -5  -1 365.775 91.0755   4-0.04644 0.56299-0.37363-0.04310-0.91940 0.91370
  -7   5   1 437.098 113.621   6-0.30796-0.20817 0.36975 0.04672-0.91800 0.92308
  -7  -5   1 305.750 91.0558   9 0.05011-0.56584-0.37889-0.03789 0.91797-0.91252
   7  -5  -1 392.722 121.144   8 0.49165 0.02443-0.13826-0.27815 0.93463-0.93983
   7   5  -1 315.993 93.7003   5 0.46560 0.05074 0.17239 0.24458 0.93799-0.94315
  -7  -5   1 434.425 132.174   3-0.43798-0.07841-0.20855-0.20851-0.93929 0.94459
   6   5  -1 84.0698 93.5401   2 0.40656 0.03314 0.23642 0.18058 0.94150-0.96078
  -6   5   1 305.527 81.2492   7-0.54301 0.10401 0.08062 0.33637-0.92042 0.93923
  -6  -5   1 345.829 80.8555   7-0.69627 0.25729 0.11137-0.52842-0.82353 0.84242
   6  -5  -1 307.837 91.4138   4-0.07653 0.51670-0.30384-0.11309-0.94771 0.92826
  -6   5   1 276.883 84.4039   6-0.30204-0.13771 0.34755 0.06895-0.92781 0.94675
  -6  -5   1 348.464 105.254   9 0.08138-0.52075-0.30959-0.10717 0.94653-0.92726
   6  -5  -1 193.383 73.3723   8 0.49319-0.05344-0.13890-0.27756 0.93394-0.95295
   6   5  -1 300.196 84.4111   5 0.46434-0.02431 0.17162 0.24537 0.93857-0.95755
  -6  -5   1 299.864 88.9546   3-0.43457-0.00530-0.20538-0.21167-0.94108 0.96025
   5   5  -1 431.366 128.051   2 0.40694-0.04346 0.23692 0.18013 0.94126-0.97434
  -5   5   1 743.818 129.849   7-0.56407 0.20149 0.08478 0.33213-0.90999 0.94263
   5  -5  -1 691.379 127.397   8 0.50483-0.14139-0.14374-0.27278 0.92858-0.96143
  -5  -5   1 730.196 132.350   9 0.11037-0.47341-0.24250-0.17423 0.96796-0.93488
  -5  -5   1 488.922 89.9417   7-0.75433 0.39166 0.12338-0.54030-0.77083 0.80354
   5  -5  -1 671.819 132.865   4-0.10430 0.46807-0.23664-0.18048-0.96883 0.93560
  -5   5   1 803.647 134.391   6-0.29839-0.06497 0.33407 0.08245-0.93342 0.96622
   5   5  -1 773.328 125.075   5 0.47129-0.10759 0.17590 0.24111 0.93530-0.96811
  -5  -5   1 697.461 131.106   3-0.43762 0.07424-0.20822-0.20879-0.93948 0.97251
   4   5  -1 1361.60 168.374   2 0.41364-0.12640 0.24594 0.17120 0.93697-0.98387
   4   5  -1 1368.49 128.355   6-0.28861 0.57609 0.29890 0.11819-0.94691 0.89975
  -4   5   1 1462.37 175.150   6-0.29735 0.01041 0.33030 0.08622-0.93495 0.98160
  -4  -5   1 1225.36 160.609   9 0.13693-0.42363-0.17852-0.23817 0.98309-0.93619
   4  -5  -1 1857.42 181.854   9-0.02968 0.31640-0.54211 0.12512 0.82065-0.86748
   4  -5  -1 1308.15 154.679   8 0.53070-0.24361-0.15456-0.26203 0.91575-0.96242
  -4  -5   1 1420.07 172.132   3-0.44903 0.16215-0.21892-0.19804-0.93324 0.98012
   4   5  -1 1495.38 161.954   5 0.48943-0.20207 0.18712 0.22991 0.92626-0.97292
  -4   5   1 1372.58 168.008   1 0.15622-0.44309 0.19311 0.22380 0.98088-0.93406
  -4  -5   1 1645.65 169.490   4 0.03355-0.32082-0.54469 0.12792-0.81787 0.86477
   4  -5  -1 1184.19 157.307   4-0.12962 0.41695-0.17297-0.24433-0.98364 0.93659
  -4   5   1 1404.67 155.130   7-0.60514 0.31897 0.09295 0.32386-0.88725 0.93368
  -3   5   1 1231.53 86.3875   2 0.45412-0.66475 0.30146 0.11558 0.90671-0.84632
   3   5  -1 1203.39 152.162   2 0.42819-0.21722 0.26567 0.15156 0.92697-0.98772
   3   5  -1 1073.49 117.885   6-0.25038 0.46144 0.17074 0.24658-0.98261 0.92165
  -3   5   1 1061.08 142.128   6-0.29929 0.08877 0.33742 0.07910-0.93205 0.99254
  -3  -5   1 1122.99 147.306   3-0.47137 0.26098-0.24005-0.17684-0.91993 0.98063
   3  -5  -1 1165.18 131.490   9-0.00058 0.21102-0.48482 0.06787 0.86016-0.92077
   3   5  -1 1130.64 134.805   5 0.52303-0.31207 0.20809 0.20896 0.90755-0.96805
   3  -5  -1 1033.61 125.273   8 0.57719-0.36643-0.17419-0.24248 0.88923-0.94975
  -3  -5   1 992.882 147.225   9 0.16084-0.37123-0.11868-0.29798 0.99278-0.93206
  -3   5   1 1132.65 148.489   1 0.17000-0.38052 0.12372 0.29315 0.99223-0.93158
  -3  -5   1 1107.14 139.270   4 0.00564-0.21661-0.48736 0.07061-0.85758 0.91832
   3  -5  -1 962.678 140.196   4-0.15227 0.36315-0.11387-0.30358-0.99307 0.93219
  -3   5   1 1264.27 132.439   7-0.67644 0.46660 0.10731 0.30937-0.83916 0.89934
   2  -5  -1 -9.7582 15.8214   3-0.35711 0.49150-0.13442-0.28280-0.97371 0.89917
  -2  -5   1 -4.8142 32.4448   9 0.18191-0.31599-0.06411-0.35251 0.99796-0.92343
   2  -5  -1 -21.989 37.8510   4-0.17206 0.30647-0.06047-0.35709-0.99811 0.92338
  -2   5   1 10.1812 21.9151   1 0.18114-0.31532 0.06367 0.35315 0.99795-0.92347
   2   5  -1 53.8166 38.5919   6-0.22072 0.35532 0.07914 0.33833-0.99604 0.92123
  -2   5   1 13.7823 22.2309   6-0.30451 0.17041 0.35674 0.05975-0.92383 0.99814
  -2   5   1 26.2024 22.1865   2 0.31408-0.44833 0.11654 0.30012 0.98350-0.90935
   2  -5  -1 -6.5992 29.3649   9 0.01547 0.11868-0.45214 0.03521 0.87998-0.95439
  -2  -5   1 -36.143 33.9494   3-0.50794 0.37400-0.27524-0.14158-0.89468 0.96919
   2   5  -1 -35.795 41.3773   2 0.45238-0.31770 0.29904 0.11832 0.90817-0.98280
   2  -5  -1 21.8935 24.8643   8 0.65344-0.51905-0.20703-0.20973 0.83451-0.90889
   1   5  -1 86.7599 35.7612   6-0.19928 0.25741 0.01630 0.40128-0.99970 0.91103
   1  -5  -1 169.152 62.9459   4-0.18876 0.24669-0.01405-0.40362-0.99987 0.91126
  -1   5   1 125.076 45.9701   6-0.31313 0.25546 0.38961 0.02683-0.90862 0.99673
   1  -5  -1 50.3205 39.4251   9 0.02225 0.03561-0.43809 0.02117 0.88793-0.97616
   1   5  -1 102.646 41.6497   5 0.66159-0.60353 0.29786 0.11918 0.79657-0.88471
  -1  -5   1 138.231 51.2898   3-0.56238 0.50488-0.32924-0.08748-0.84776 0.93603
  -1   5   1 51.5294 25.8305   1 0.18981-0.24765 0.01402 0.40277 0.99986-0.91155
  -1  -5   1 91.4748 19.3164   8 0.17786-0.23598-0.01218-0.40443 0.99992-0.91162
  -1  -5   1 90.3596 37.8135   9 0.19987-0.25765-0.01609-0.40050 0.99969-0.91135
   0   5   1 2807.59 221.391   1 0.19616-0.17768-0.02429 0.44105 0.99959-0.89747
   0   5  -1 3462.49 235.303   2 0.53590-0.55395 0.42109-0.00346 0.81665-0.91913
   0   5  -1 2253.90 195.323   6-0.18515 0.16679-0.02381 0.44145-0.99970 0.89716
   0   5   1 3025.80 231.539   6-0.32508 0.34382 0.43724-0.02087-0.88367 0.98556
   0  -5   1 2873.79 222.191   9 0.21444-0.19592 0.02398-0.44053 0.99913-0.89698
   0  -5  -1 3003.18 221.256   9 0.02206-0.04050-0.43850 0.02158 0.88770-0.98976
   0  -5   1 3301.84 151.912   8 0.08711-0.06890 0.02295-0.43946 0.99523-0.89316
   0  -5   1 3245.26 242.887   4-0.01725 0.03537-0.43846 0.02183-0.88672 0.98900
   0   5  -1 3013.07 108.358   7-0.00946-0.00930-0.02018 0.43767-0.98492 0.88241
   0  -5  -1 2973.04 101.606   7-0.24627 0.22739 0.02362-0.44039-0.99750 0.89547
   0  -5  -1 2500.69 203.331   4-0.20208 0.18352 0.02398-0.44172-0.99949 0.89702
   1   5   1 1308.20 152.430   1 0.20032-0.10550-0.05035 0.46710 0.99855-0.88260
  -1   5  -1 1419.24 161.260   6-0.17729 0.08244-0.04570 0.46337-0.99894 0.88253
   1   5   1 1448.52 160.399   6-0.33978 0.43492 0.50035-0.08406-0.84488 0.96052
  -1  -5  -1 1285.85 154.729   9 0.01638-0.11114-0.45025 0.03332 0.88107-0.99695
   1  -5   1 1364.22 149.826   9 0.22527-0.13047 0.05446-0.47098 0.99747-0.88152
   1  -5   1 1438.61 124.706   8 0.07762 0.01691 0.02659-0.44305 0.99419-0.87832
   1  -5   1 1154.59 152.540   4-0.01217 0.10668-0.44947 0.03290-0.88051 0.99662
  -1   5  -1 1374.29 99.7528   7-0.03086-0.06435-0.01628 0.43381-0.98844 0.87206
   2   5   1 1738.46 174.974   1 0.20232-0.03117-0.06323 0.47997 0.99778-0.86800
  -2   5  -1 1885.37 191.281   6-0.17472 0.00340-0.05277 0.47043-0.99857 0.86832
   2   5   1 2319.79 218.290   6-0.35597 0.52748 0.57855-0.16234-0.78637 0.91572
   2  -5   1 1934.60 178.490   9 0.23190-0.06082 0.07342-0.48991 0.99591-0.86614
  -2  -5  -1 1841.22 193.457   9 0.00630-0.17737-0.47090 0.05396 0.86883-0.99855
   2  -5   1 2024.45 170.960   8 0.09063 0.08024 0.02160-0.43799 0.99559-0.86592
   2  -5   1 1808.05 200.414   4-0.00277 0.17368-0.46961 0.05313-0.86864 0.99855
  -2  -5  -1 1876.57 90.1080   7 0.02968-0.20140-0.02729-0.38994-0.97727 0.84729
  -2   5  -1 1883.74 141.332   7-0.06304-0.10862-0.01038 0.42796-0.99286 0.86260
   3  -5   1 334.702 91.7491   4 0.01024 0.23707-0.49698 0.08060-0.85135 0.99505
   3   5   1 359.800 85.3396   1 0.20211 0.04538-0.06185 0.47858 0.99787-0.85426
  -3  -5  -1 426.136 106.010   9-0.00742-0.23996-0.49853 0.08159 0.85128-0.99484
  -3   5  -1 327.002 90.9910   6-0.17663-0.07116-0.04751 0.46515-0.99885 0.85474
   3   5   1 371.653 37.1299   8-0.01219 0.25968 0.06079 0.35583 0.97933-0.83594
   3  -5   1 453.045 94.7015   8 0.11333 0.13385 0.01286-0.42921 0.99756-0.85408
   3  -5   1 459.564 93.8440   9 0.23363 0.01372 0.07841-0.49489 0.99543-0.85185
  -3  -5  -1 376.309 54.9877   7-0.07811-0.17000-0.00762-0.40958-0.99457 0.85077
  -3   5  -1 428.463 79.5475   7-0.09844-0.14967-0.00388 0.42147-0.99650 0.85237
   4  -5   1 111.434 61.9020   4 0.02628 0.29743-0.53001 0.11374-0.82865 0.98611
   4  -5   1 13.4341 32.5890   8 0.14115 0.18236 0.00210-0.41841 0.99917-0.84189
   4   5   1 9.01611 30.1895   1 0.19945 0.12439-0.04483 0.46156 0.99883-0.84140
  -4   5  -1 27.4672 35.7980   6-0.18229-0.14195-0.03179 0.44941-0.99949 0.84154
  -4  -5  -1 74.6303 44.3231   4-0.21216-0.11224 0.05337-0.47113-0.99808 0.84020
   4  -5   1 103.637 49.1853   9 0.22933 0.09430 0.06603-0.48251 0.99657-0.83918
  -4  -5  -1 6.14764 52.9677   9-0.02423-0.29949-0.53156 0.11461 0.82841-0.98581
  -4   5  -1 70.0986 37.6973   7-0.13525-0.18931 0.00292 0.41470-0.99891 0.84091
  -4  -5  -1 83.0183 34.8385   7-0.14542-0.17908 0.00480-0.42201-0.99933 0.84169
  -5   5  -1 -48.534 41.2022   6-0.19111-0.20957-0.00701 0.42458-0.99992 0.82814
  -5  -5  -1 -37.079 33.7974   4-0.19855-0.20224 0.01380-0.43152-0.99975 0.82806
   5  -5   1 3.25160 31.6425   9 0.21695 0.18293 0.03099-0.44748 0.99884-0.82763
  -5  -5  -1 25.0545 93.9160   9-0.04364-0.35641-0.56867 0.15171 0.80006-0.97129
   5  -5   1 -62.951 60.7346   8 0.17201 0.22783-0.00990-0.40638 0.99991-0.82881
   5   5   1 0.14190 29.0537   1 0.19386 0.20633-0.01018 0.42692 0.99987-0.82860
   5  -5   1 68.7479 60.3874   4 0.04495 0.35516-0.56736 0.15120-0.80034 0.97154
  -5   5  -1 84.6331 59.1594   7-0.17278-0.22821 0.00988 0.40775-0.99992 0.82803
  -5  -5  -1 -5.1422 27.5073   7-0.19972-0.20117 0.01490-0.43214-0.99971 0.82820
  -6  -5  -1 942.886 136.030   7-0.24835-0.22892 0.02401-0.44128-0.99735 0.81196
  -6   5  -1 843.450 153.046   6-0.20259-0.27450 0.02583 0.39168-0.99943 0.81383
  -6  -5  -1 -44.344 97.5413   9-0.06533-0.41106-0.60873 0.19178 0.76592-0.95098
   6  -5   1 919.839 145.594   8 0.20482 0.27135-0.02272-0.39351 0.99946-0.81455
  -6   5  -1 829.107 153.791   7-0.21076-0.26667 0.01697 0.40068-0.99940 0.81362
  -7   5  -1 349.662 114.330   7-0.24902-0.30484 0.02414 0.39352-0.99730 0.79762
  -7   5  -1 311.840 103.149   6-0.21630-0.33718 0.06600 0.35144-0.99718 0.79775
   7  -5   1 385.978 112.544   8 0.23896 0.31353-0.03614-0.38006 0.99760-0.79889
   7   5   1 185.980 111.370   2 0.24371 0.30803 0.02994 0.38589 0.99749-0.79951
   8   5   1 -4.4679 42.6922   2 0.26773 0.36025 0.05910 0.35675 0.99426-0.78251
   8  -5   1 -37.749 67.5029   8 0.27408 0.35475-0.05003-0.36615 0.99418-0.78167
 -10   6   1 7.05969 75.9897   7-0.59360-0.15107 0.09064 0.41001-0.89398 0.85712
  10   6  -1 -18.513 69.5641   2 0.45606 0.28857 0.30417 0.19612 0.90506-0.86942
   9  -6  -1 139.303 110.085   4 0.01706 0.65223-0.51113 0.01132-0.84189 0.86356
  -9   6   1 307.890 129.047   7-0.58342-0.08480 0.08861 0.41199-0.89969 0.87675
  -9   6   1 391.835 147.378   6-0.32566-0.34323 0.43964 0.06014-0.88232 0.85961
  -9  -6   1 38.7333 82.0697   9-0.01529-0.65310-0.51412 0.01393 0.84076-0.86294
   9   6  -1 125.118 99.5894   5 0.50689 0.16211 0.19797 0.30239 0.91687-0.89446
   9  -6  -1 182.708 76.7399   8 0.53614 0.13260-0.15684-0.34280 0.91288-0.89050
   9   6  -1 54.2033 112.688   2 0.44299 0.22542 0.28599 0.21429 0.91581-0.89389
  -9  -6   1 163.292 90.1308   3-0.47442-0.19494-0.24297-0.25758-0.91799 0.89547
   8  -6  -1 147.410 86.1479   4-0.01347 0.60640-0.44667-0.05334-0.88211 0.89012
  -8   6   1 158.422 90.4720   7-0.57878-0.01297 0.08770 0.41285-0.90222 0.89317
  -8   6   1 349.562 131.198   6-0.31750-0.27503 0.40671 0.09312-0.90006 0.89123
  -8  -6   1 54.4739 44.7409   9 0.01623-0.60828-0.45057-0.04961 0.88088-0.88925
   8   6  -1 89.5620 54.6431   5 0.49720 0.09550 0.19194 0.30843 0.92217-0.91356
   8  -6  -1 270.281 107.951   8 0.52788 0.06455-0.15338-0.34631 0.91721-0.90862
  -8  -6   1 273.640 101.133   3-0.46404-0.12881-0.23309-0.26745-0.92447 0.91585
   8   6  -1 56.5647 123.397   2 0.43257 0.15961 0.27165 0.22861 0.92378-0.91559
  -7   6   1 159.414 78.6035   7-0.58158 0.06626 0.08824 0.41222-0.90070 0.90553
   7  -6  -1 36.5197 40.5378   4-0.04191 0.55847-0.38388-0.11633-0.91466 0.90895
  -7   6   1 -44.131 79.8590   6-0.31077-0.20539 0.38045 0.11942-0.91301 0.91805
   7   6  -1 76.0943 49.5756   5 0.49233 0.02408 0.18892 0.31148 0.92475-0.92995
   7  -6  -1 149.138 93.4516   8 0.52534-0.00925-0.15232-0.34743 0.91851-0.92373
  -7  -6   1 43.3059 54.9495   9 0.04572-0.56142-0.38838-0.11176 0.91352-0.90807
  -7  -6   1 44.6916 63.7372   3-0.45758-0.05876-0.22698-0.27355-0.92833 0.93360
   7   6  -1 2.61005 60.5831   2 0.42537 0.09059 0.26181 0.23848 0.92898-0.93456
  -6   6   1 65.9677 54.7315   7-0.59452 0.15564 0.09082 0.40956-0.89345 0.91212
   6  -6  -1 89.3743 67.8183   4-0.06820 0.50836-0.32346-0.17695-0.94043 0.92097
  -6   6   1 67.8295 52.5339   6-0.30574-0.13403 0.36135 0.13855-0.92179 0.94068
  -6  -6   1 103.688 57.3801   9 0.07310-0.51245-0.32826-0.17185 0.93950-0.92022
   6   6  -1 24.1002 38.1136   5 0.49364-0.05355 0.18973 0.31068 0.92406-0.94308
   6  -6  -1 200.876 103.233   8 0.53037-0.09060-0.15442-0.34537 0.91592-0.93495
  -6  -6   1 38.8343 60.3902   3-0.45600 0.01616-0.22549-0.27501-0.92925 0.94840
   6   6  -1 22.3663 64.5001   2 0.42204 0.01769 0.25731 0.24303 0.93131-0.95066
  -5  -6   1 1949.12 224.435   3-0.46054 0.09721-0.22977-0.27068-0.92657 0.95958
  -5   6   1 1872.13 219.305   6-0.30272-0.06064 0.35005 0.14987-0.92674 0.95949
  -5  -6   1 1810.17 219.304   9 0.09823-0.46125-0.27094-0.22914 0.95959-0.92650
   5  -6  -1 2005.97 217.718   8 0.54559-0.18215-0.16082-0.33905 0.90776-0.94060
   5   6  -1 1756.96 202.233   5 0.50301-0.13926 0.19555 0.30488 0.91902-0.95187
   5  -6  -1 1618.31 215.415   4-0.09224 0.45598-0.26616-0.23444-0.96027 0.92702
  -5   6   1 1935.77 201.684   7-0.62172 0.25924 0.09626 0.40401-0.87711 0.90960
  -4   6   1 124.467 44.2839   7-0.66932 0.38322 0.10587 0.39427-0.84451 0.89078
   4  -6  -1 91.1744 54.6694   4-0.11391 0.40121-0.21276-0.28800-0.97496 0.92791
  -4  -6   1 -53.410 47.9645   9 0.12100-0.40769-0.21720-0.28284 0.97455-0.92763
  -4   6   1 52.1185 31.2822   1 0.14764-0.43451 0.23400 0.26629 0.97175-0.92495
   4   6  -1 81.3911 46.5527   6-0.29845 0.58600 0.33428 0.16619-0.93334 0.88609
  -4   6   1 163.417 66.9516   6-0.30198 0.01505 0.34733 0.15260-0.92790 0.97451
   4  -6  -1 122.205 65.3693   9-0.02107 0.30777-0.52542 0.02510 0.83283-0.87963
   4   6  -1 88.6822 65.3717   5 0.52303-0.23566 0.20808 0.29238 0.90755-0.95424
   4  -6  -1 118.391 58.5492   8 0.57479-0.28769-0.17317-0.32676 0.89071-0.93739
  -4  -6   1 83.7376 54.3219   3-0.47279 0.18596-0.24141-0.25899-0.91903 0.96588
   4   6  -1 42.2223 61.9613   2 0.43050-0.14323 0.26882 0.23166 0.92530-0.97228
  -3  -6   1 528.401 116.759   4 0.00313-0.21419-0.48208-0.01806-0.86093 0.92166
  -3   6   1 398.989 82.3338   7-0.74602 0.53621 0.12164 0.37836-0.77908 0.83910
   3  -6  -1 342.166 96.4967   4-0.13306 0.34389-0.16412-0.33677-0.98531 0.92443
   3  -6  -1 532.580 106.812   9 0.00182 0.20860-0.47998-0.02032 0.86322-0.92381
   3   6  -1 532.163 98.9928   6-0.26851 0.47964 0.22985 0.27084-0.96868 0.90764
  -3   6   1 509.519 116.973   6-0.30378 0.09329 0.35403 0.14589-0.92502 0.98546
  -3  -6   1 554.073 129.059   9 0.14124-0.35161-0.16790-0.33211 0.98512-0.92439
  -3   6   1 335.203 88.9591   1 0.15961-0.37015 0.17646 0.32380 0.98408-0.92345
   3   6  -1 509.238 103.390   5 0.55727-0.34631 0.22973 0.27076 0.88562-0.94615
  -3  -6   1 399.685 102.390   3-0.49480 0.28446-0.26250-0.23782-0.90428 0.96495
   3   6  -1 387.352 87.0154   2 0.44444-0.23342 0.28799 0.21261 0.91466-0.97549
   3  -6  -1 425.248 86.9903   8 0.62342-0.41267-0.19400-0.30603 0.85790-0.91842
  -2  -6   1 551.305 112.392   4-0.00974-0.12497-0.45471-0.04542-0.87749 0.95209
  -2   6   1 637.048 86.1822   2 0.37779-0.51198 0.19828 0.30187 0.95784-0.88374
   2  -6  -1 556.759 111.431   4-0.14951 0.28386-0.12119-0.37983-0.99212 0.91739
   2  -6  -1 585.139 68.0383   3-0.46029 0.59476-0.22954-0.27098-0.92672 0.85216
   2   6  -1 553.701 105.740   6-0.24434 0.37902 0.15160 0.34925-0.98622 0.91135
  -2   6   1 564.688 110.782   6-0.30832 0.17426 0.37114 0.12876-0.91736 0.99163
  -2  -6   1 586.769 120.288   9 0.15876-0.29283-0.12397-0.37599 0.99209-0.91754
   2  -6  -1 586.567 104.115   9 0.01493 0.11921-0.45325-0.04702 0.87934-0.95373
   2  -6  -1 766.049 128.407   8 0.69854-0.56415-0.22691-0.27320 0.79403-0.86841
   2   6  -1 619.291 113.568   2 0.46653-0.33180 0.31891 0.18183 0.89580-0.97050
  -2  -6   1 623.140 113.610   3-0.52901 0.39514-0.29590-0.20433-0.87796 0.95243
  -2   6   1 539.282 111.699   1 0.16934-0.30354 0.12717 0.37305 0.99179-0.91734
   1   6  -1 5173.00 315.998   2 0.49799-0.43959 0.36418 0.13672 0.86411-0.95272
   1   6  -1 4975.52 312.934   6-0.22605 0.28424 0.09519 0.40577-0.99439 0.90567
  -1   6   1 5034.12 327.462   6-0.31570 0.25807 0.39961 0.10024-0.90367 0.99174
   1  -6  -1 5276.93 235.419   3-0.33490 0.39288-0.11453-0.38624-0.98044 0.89202
   1  -6  -1 4249.38 283.902   9 0.02067 0.03718-0.44138-0.05889 0.88610-0.97431
  -1  -6   1 5044.85 305.458   3-0.57797 0.52053-0.34512-0.15500-0.83188 0.92011
  -1  -6   1 4905.79 326.581   9 0.17336-0.23114-0.08648-0.41346 0.99625-0.90789
  -1   6   1 3836.71 288.291   1 0.17692-0.23477 0.08691 0.41328 0.99619-0.90791
  -1  -6   1 4967.55 326.937   4-0.01560-0.04273-0.44205-0.05805-0.88472 0.97317
   1  -6  -1 4752.18 313.274   4-0.16305 0.22092-0.08499-0.41610-0.99620 0.90761
   0  -6   1 193.469 77.3401   4-0.01589 0.03395-0.44143-0.05862-0.88507 0.98736
   0   6  -1 153.554 52.3485   6-0.21326 0.19496 0.05698 0.44404-0.99784 0.89527
   0  -6  -1 184.660 63.3557   4-0.17343 0.15482-0.05672-0.44443-0.99835 0.89590
   0   6   1 139.568 60.7084   1 0.18244-0.16396 0.05644 0.44371 0.99839-0.89628
   0   6  -1 254.607 76.5561   2 0.53937-0.55736 0.42646 0.07459 0.81169-0.91423
   0   6   1 204.651 80.3122   6-0.32583 0.34463 0.44035 0.05942-0.88192 0.98377
   0  -6   1 230.794 39.1433   8 0.29433-0.27609-0.05808-0.44185 0.99149-0.88933
   0  -6  -1 222.722 70.5477   9 0.02061-0.03905-0.44151-0.05875 0.88602-0.98806
   0  -6   1 99.9325 54.5300   9 0.18477-0.16625-0.05657-0.44332 0.99841-0.89624
  -1  -6  -1 4266.70 306.215   9 0.01582-0.11056-0.45142-0.04886 0.88040-0.99626
   1  -6   1 3064.61 254.210   9 0.19263-0.09782-0.03563-0.46424 0.99930-0.88332
  -1   6  -1 4419.18 314.768   6-0.20542 0.11063 0.03403 0.46703-0.99912 0.88269
   1   6   1 4146.40 298.879   6-0.33835 0.43356 0.49395 0.00574-0.84913 0.96474
   1  -6   1 4771.86 230.181   8 0.22543-0.13085-0.03081-0.46901 0.99851-0.88257
   1  -6   1 4392.21 323.916   4-0.01160 0.10607-0.45070-0.04929-0.87981 0.99593
  -1   6  -1 4736.54 182.002   7-0.25994 0.16491 0.02618 0.47454-0.99640 0.88009
  -1  -6  -1 4065.07 276.271   4-0.18031 0.08522-0.03772-0.46347-0.99928 0.88297
   1   6   1 3876.48 288.883   1 0.18594-0.09113 0.03652 0.46363 0.99931-0.88338
   2  -6   1 143.808 55.8094   4-0.00347 0.17436-0.46811-0.03180-0.86954 0.99948
   2  -6   1 174.330 66.7903   9 0.19646-0.02539-0.02530-0.47455 0.99956-0.86977
  -2   6  -1 174.575 72.8081   6-0.20194 0.03068 0.02398 0.47710-0.99949 0.86921
  -2  -6  -1 78.8583 46.7315   4-0.18321 0.01166-0.02962-0.47158-0.99955 0.86939
   2  -6   1 119.305 58.2536   8 0.20485-0.03396-0.02273-0.47702 0.99946-0.86973
   2   6   1 195.635 69.2210   6-0.35244 0.52404 0.56039-0.06079-0.80110 0.93042
  -2  -6  -1 209.201 73.2452   9 0.00709-0.17815-0.46929-0.03100 0.86981-0.99951
   2   6   1 126.004 57.7733   1 0.18743-0.01629 0.02792 0.47221 0.99958-0.86983
  -2   6  -1 111.761 38.3624   7-0.21969 0.04822 0.01864 0.48223-0.99906 0.86885
   3  -6   1 17.6505 47.7940   4 0.00795 0.23935-0.49220-0.00762-0.85447 0.99820
  -3   6  -1 -74.864 63.9642   6-0.20229-0.04545 0.02498 0.47609-0.99946 0.85533
  -3  -6  -1 34.5775 37.9127   4-0.18146-0.06654-0.03450-0.46669-0.99940 0.85539
   3  -6   1 -20.751 41.4132   8 0.20561 0.04161-0.02303-0.47666 0.99943-0.85590
   3  -6   1 78.5525 71.3619   9 0.19560 0.05176-0.02765-0.47218 0.99952-0.85591
  -3  -6  -1 -21.042 46.4061   9-0.00498-0.24239-0.49365-0.00665 0.85448-0.99801
   3   6   1 12.6681 31.9960   1 0.18680 0.06068 0.03157 0.46856 0.99948-0.85589
  -3   6  -1 11.7130 28.0481   7-0.21730-0.03062 0.01819 0.48276-0.99916 0.85506
   4  -6   1 1154.46 191.843   4 0.02222 0.30150-0.52172 0.02199-0.83455 0.99206
  -4   6  -1 1311.47 208.979   6-0.20596-0.11825 0.03559 0.46545-0.99905 0.84107
   4  -6   1 1404.60 163.480   9 0.18891 0.13472-0.04558-0.45426 0.99894-0.84152
  -4  -6  -1 981.608 184.864   9-0.01995-0.30374-0.52323 0.02292 0.83438-0.99175
   4  -6   1 1049.81 153.882   8 0.21787 0.10567-0.02784-0.47180 0.99892-0.84159
  -4   6  -1 1225.41 167.696   7-0.23061-0.09377 0.02068 0.48032-0.99851 0.84052
  -4  -6  -1 1050.87 147.481   4-0.17397-0.15044-0.05523-0.44592-0.99843 0.84060
   4   6   1 1132.62 152.807   1 0.18381 0.14001 0.04862 0.45150 0.99880-0.84139
  -5   6  -1 2228.45 261.623   6-0.21248-0.18817 0.05467 0.44632-0.99800 0.82618
  -5  -6  -1 2825.83 332.285   9-0.03744-0.36258-0.55695 0.05663 0.80934-0.98054
   5  -6   1 2194.29 250.133   8 0.23708 0.16279-0.03540-0.46420 0.99774-0.82662
   5  -6   1 1989.39 261.819   4 0.03900 0.36113-0.55558 0.05597-0.80959 0.98084
  -5   6  -1 2605.63 257.713   7-0.25206-0.14875 0.02471 0.47634-0.99706 0.82516
  -6   6  -1 -62.213 73.2118   7-0.27830-0.19895 0.02965 0.47143-0.99458 0.80878
  -6   6  -1 -102.86 81.7950   6-0.22146-0.25560 0.08140 0.41954-0.99583 0.81017
  -6  -6  -1 114.344 126.939   9-0.05719-0.41917-0.59385 0.09353 0.77905-0.96410
   6   6   1 -56.903 70.9943   2 0.25806 0.21752 0.04732 0.45181 0.99574-0.81158
   6  -6   1 22.1349 39.8505   8 0.26083 0.21537-0.04478-0.45478 0.99565-0.81073
  -7   6  -1 224.032 114.201   7-0.30762-0.24607 0.03519 0.46591-0.99087 0.79115
  -7  -6  -1 225.862 92.9365   3-0.27921-0.27494-0.06545-0.43575-0.99271 0.79317
  -7   6  -1 204.824 96.1931   6-0.23259-0.32089 0.11509 0.38577-0.99193 0.79243
   7   6   1 130.062 95.6182   2 0.27540 0.27641 0.06849 0.43064 0.99290-0.79497
   7  -6   1 76.4488 55.4593   8 0.28771 0.26480-0.05545-0.44407 0.99243-0.79370
  -8  -6  -1 39.3969 95.6328   3-0.30239-0.32825-0.08575-0.41543-0.98837 0.77493
   8   6   1 43.3938 67.5075   2 0.29535 0.33268 0.09314 0.40601 0.98859-0.77691
   9  -7  -1 87.3549 56.2096   4 0.01851 0.65081-0.51412-0.06919-0.83984 0.86150
  -9   7   1 164.063 108.600   7-0.62706-0.04102 0.09733 0.48669-0.87371 0.85061
  -9  -7   1 0.87459 90.7401   9-0.01667-0.65170-0.51681-0.06675 0.83889-0.86109
  -9   7   1 43.4961 70.3185   6-0.32818-0.34074 0.45014 0.13305-0.87630 0.85352
   9   7  -1 314.391 137.029   5 0.53269 0.13638 0.21416 0.36961 0.90167-0.87930
   9  -7  -1 27.9640 102.872   8 0.56850 0.10026-0.17050-0.41246 0.89455-0.87218
   8  -7  -1 288.018 126.769   4-0.00892 0.60187-0.45645-0.12705-0.87647 0.88445
  -8   7   1 370.071 123.633   7-0.62679 0.03516 0.09728 0.48667-0.87388 0.86467
  -8   7   1 331.616 118.781   6-0.32106-0.27150 0.42092 0.16231-0.89262 0.88372
  -8  -7   1 382.292 142.728   9 0.01172-0.60374-0.45984-0.12369 0.87548-0.88385
   8   7  -1 502.614 140.459   5 0.52547 0.06730 0.20962 0.37417 0.90609-0.89751
   8  -7  -1 647.713 178.567   8 0.56333 0.02911-0.16831-0.41470 0.89763-0.88906
   8   7  -1 107.028 143.828   2 0.44769 0.14451 0.29251 0.29107 0.91204-0.90397
  -8  -7   1 462.972 145.651   3-0.48490-0.10792-0.25298-0.33102-0.91111 0.90245
   7  -7  -1 335.537 125.087   4-0.03432 0.55087-0.40090-0.18279-0.90644 0.90070
  -7   7   1 187.802 78.8861   7-0.63457 0.11938 0.09885 0.48500-0.86883 0.87349
  -7   7   1 256.593 109.566   6-0.31524-0.20093 0.39784 0.18543-0.90455 0.90952
  -7  -7   1 52.9012 55.5444   9 0.03810-0.55377-0.40472-0.17878 0.90553-0.90008
   7   7  -1 116.610 81.4839   5 0.52316-0.00670 0.20817 0.37565 0.90747-0.91271
   7  -7  -1 236.034 111.941   8 0.56415-0.04804-0.16866-0.41441 0.89714-0.90237
  -7  -7   1 106.741 75.8111   3-0.48033-0.03598-0.24861-0.33538-0.91416 0.91939
   7   7  -1 52.1602 91.4306   2 0.44197 0.07402 0.28458 0.29902 0.91661-0.92230
   6  -7  -1 348.418 115.149   4-0.05761 0.49775-0.34806-0.23583-0.93056 0.91107
  -6   7   1 394.326 129.020   6-0.31100-0.12878 0.38134 0.20198-0.91259 0.93143
  -6  -7   1 458.724 139.900   9 0.06238-0.50172-0.35206-0.23139 0.92984-0.91055
   6   7  -1 453.921 121.830   5 0.52703-0.08690 0.21059 0.37326 0.90515-0.92421
   6  -7  -1 383.732 111.634   8 0.57274-0.13295-0.17230-0.41083 0.89197-0.91102
  -6  -7   1 573.984 139.963   3-0.48049 0.04070-0.24876-0.33519-0.91405 0.93315
   6   7  -1 204.169 120.947   2 0.43993-0.00015 0.28176 0.30190 0.91821-0.93767
   5  -7  -1 -83.512 86.9254   4-0.07875 0.44244-0.29858-0.28548-0.94958 0.91631
  -5  -7   1 5.95606 43.7129   9 0.08450-0.44750-0.30250-0.28092 0.94907-0.91597
  -5   7   1 174.982 96.3954   6-0.30852-0.05482 0.37189 0.21145-0.91701 0.94971
   5   7  -1 -74.178 64.0806   5 0.53878-0.17500 0.21801 0.36589 0.89784-0.93073
  -5  -7   1 50.0845 62.6124   3-0.48645 0.12318-0.25447-0.32942-0.91006 0.94302
   5  -7  -1 56.1710 61.3797   8 0.59157-0.22812-0.18032-0.40289 0.88005-0.91292
   5   7  -1 12.0500 73.9944   2 0.44223-0.07869 0.28496 0.29879 0.91640-0.94966
   4  -7  -1 814.772 164.545   4-0.09760 0.38484-0.25312-0.33109-0.96419 0.91711
   4  -7  -1 1157.98 179.345   9-0.02249 0.30917-0.52819-0.05548 0.83085-0.87764
  -4   7   1 851.627 156.612   6-0.30805 0.02114 0.37011 0.21324-0.91783 0.96438
   4   7  -1 981.967 155.687   5 0.56067-0.27328 0.23189 0.35203 0.88327-0.93000
  -4  -7   1 853.890 165.637   9 0.10433-0.39100-0.25672-0.32666 0.96391-0.91698
  -4  -7   1 798.641 160.558   3-0.49955 0.21278-0.26711-0.31673-0.90088 0.94768
   4   7  -1 546.522 171.890   2 0.44970-0.16239 0.29530 0.28854 0.91040-0.95748
   4  -7  -1 834.985 140.352   8 0.62402-0.33691-0.19426-0.38904 0.85746-0.90415
   4   7  -1 824.856 135.641   6-0.30858 0.59622 0.37213 0.21175-0.91690 0.86955
  -4  -7   1 1060.59 177.311   4 0.02631-0.31379-0.53007-0.05347-0.82861 0.87546
  -3  -7   1 216.348 87.9725   4 0.00752-0.21867-0.49130-0.09224-0.85505 0.91576
   3  -7  -1 69.5337 40.0993   4-0.11404 0.32481-0.21243-0.37191-0.97504 0.91414
   3   7  -1 228.354 73.9612   6-0.28422 0.49542 0.28346 0.30060-0.95231 0.89118
  -3   7   1 147.959 74.5566   1 0.14925-0.35978 0.22647 0.35717 0.97357-0.91298
  -3   7   1 139.825 69.9572   6-0.30977 0.09930 0.37666 0.20668-0.91480 0.97518
  -3  -7   1 219.140 78.5696   9 0.12173-0.33209-0.21544-0.36791 0.97498-0.91424
   3  -7  -1 156.686 59.7937   9-0.00298 0.21339-0.48965-0.09398 0.85707-0.91766
   3   7  -1 256.514 86.1367   5 0.59563-0.38467 0.25436 0.32960 0.85716-0.91772
   3   7  -1 125.357 64.6495   2 0.46323-0.25217 0.31425 0.26973 0.89878-0.95971
  -3  -7   1 133.281 71.3645   3-0.52141 0.31113-0.28841-0.29533-0.88419 0.94481
   3  -7  -1 252.349 84.8311   8 0.67464-0.46387-0.21632-0.36706 0.81635-0.87688
   2   7  -1 1863.09 214.608   2 0.48376-0.34898 0.34350 0.24063 0.87921-0.95401
   2   7  -1 1796.25 202.646   6-0.26400 0.39874 0.21489 0.36933-0.97261 0.89766
  -2   7   1 1992.04 232.456   6-0.31382 0.17980 0.39226 0.19105-0.90732 0.98153
  -2  -7   1 1959.93 234.167   9 0.13654-0.27060-0.17946-0.40385 0.98291-0.90835
  -2  -7   1 1829.52 215.630   3-0.55386 0.42004-0.32064-0.26300-0.85594 0.93036
   2  -7  -1 1769.58 205.051   9 0.00859 0.12554-0.46624-0.11737 0.87166-0.94604
   2   7  -1 2115.55 218.682   5 0.64713-0.51264 0.28818 0.29578 0.81130-0.88566
  -2   7   1 1937.43 232.468   1 0.15786-0.29208 0.18507 0.39854 0.98246-0.90804
  -2  -7   1 2088.69 233.821   4-0.00382-0.13097-0.46737-0.11617-0.86999 0.94457
   2  -7  -1 1779.67 223.458   4-0.12793 0.26222-0.17729-0.40715-0.98279 0.90805
  -1  -7   1 264.964 97.2632   4-0.00925-0.04914-0.45575-0.12778-0.87688 0.96532
  -1  -7   1 205.377 73.3699   9 0.14857-0.20633-0.14968-0.43360 0.98829-0.89992
  -1   7   1 225.877 68.0875   2 0.36595-0.42376 0.18282 0.40052 0.96365-0.87585
   1  -7  -1 205.607 73.8036   4-0.13906 0.19687-0.14859-0.43593-0.98802 0.89944
   1   7  -1 211.709 72.7982   6-0.24818 0.30644 0.16374 0.42061-0.98398 0.89520
  -1   7   1 186.449 86.4823   6-0.32024 0.26267 0.41764 0.16562-0.89437 0.98238
   1   7  -1 359.883 104.765   2 0.51210-0.45364 0.38500 0.19930 0.84778-0.93648
   1  -7  -1 132.294 56.2286   9 0.01396 0.04389-0.45525-0.12836 0.87817-0.96637
  -1  -7   1 214.855 79.1255   3-0.59859 0.54120-0.36648-0.21706-0.80888 0.89706
  -1   7   1 196.626 74.9990   1 0.16456-0.22244 0.15170 0.43187 0.98828-0.90002
   0   7   1 58.9893 47.5024   1 0.16938-0.15092 0.12697 0.45658 0.99182-0.88974
   0  -7  -1 66.5849 42.0700   3-0.35233 0.33390-0.13012-0.45415-0.97525 0.87293
   0   7   1 104.852 62.7373   6-0.32898 0.34785 0.45346 0.12973-0.87435 0.97615
   0  -7   1 256.959 172.371   9 0.15754-0.13902-0.12707-0.45617 0.99167-0.88948
   0  -7  -1 123.179 56.9246   4-0.14719 0.12852-0.12730-0.45726-0.99128 0.88884
   0   7  -1 60.2543 120.328   6-0.23665 0.21841 0.12762 0.45681-0.99015 0.88752
   0   7   1 144.868 60.8771   2 0.32428-0.30583 0.12939 0.45371 0.98028-0.87871
   0   7  -1 190.104 90.5893   2 0.54849-0.56641 0.44071 0.14374 0.79808-0.90072
   0  -7  -1 142.131 77.5600   9 0.01429-0.03273-0.45456-0.12905 0.87857-0.98059
   1  -7   1 757.173 156.391   4-0.00639 0.10082-0.46186-0.12157-0.87329 0.98941
  -1  -7  -1 634.914 110.821   3-0.31263 0.21769-0.09477-0.48964-0.98611 0.86991
   1  -7   1 773.285 144.136   9 0.16314-0.06833-0.11282-0.47040 0.99350-0.87750
   1   7   1 618.530 127.737   1 0.17233-0.07754 0.11150 0.47204 0.99370-0.87780
  -1  -7  -1 747.722 128.456   4-0.15200 0.05686-0.11459-0.47001-0.99298 0.87668
  -1   7  -1 830.355 154.162   6-0.22912 0.13440 0.10451 0.47996-0.99329 0.87681
   1   7   1 672.652 141.575   6-0.33974 0.43503 0.50018 0.08292-0.84500 0.96055
  -1  -7  -1 844.562 161.425   9 0.01042-0.10516-0.46251-0.12111 0.87389-0.98974
   1   7   1 704.791 123.759   2 0.29798-0.20331 0.09641 0.48649 0.98794-0.87260
  -2   7  -1 3363.66 308.513   6-0.22524 0.05402 0.09273 0.49176-0.99466 0.86433
   2   7   1 3099.00 270.623   2 0.28316-0.11227 0.07805 0.50471 0.99135-0.86227
   2   7   1 3696.18 319.148   6-0.35194 0.52362 0.55788 0.02512-0.80308 0.93235
  -2  -7  -1 3241.86 259.271   3-0.29139 0.11993-0.07609-0.50841-0.99056 0.86047
   2  -7   1 3750.54 308.081   9 0.16490 0.00618-0.10832-0.47488 0.99402-0.86422
  -2  -7  -1 3558.28 314.197   9 0.00296-0.17400-0.47769-0.10594 0.86465-0.99432
   2  -7   1 3654.08 239.625   8 0.32087-0.14994-0.06868-0.51445 0.98715-0.85737
   2   7   1 3462.14 302.617   1 0.17337-0.00225 0.10597 0.47757 0.99432-0.86459
   2  -7   1 3401.38 321.198   4 0.00055 0.17030-0.47664-0.10673-0.86432 0.99427
  -2  -7  -1 3186.25 271.482   4-0.15304-0.01856-0.11182-0.47277-0.99332 0.86317
   3  -7   1 348.858 111.886   4 0.01054 0.23674-0.49760-0.08567-0.85094 0.99469
  -3  -7  -1 408.236 113.540   3-0.28276 0.03477-0.06854-0.51603-0.99212 0.84813
   3   7   1 387.177 107.774   1 0.17239 0.07507 0.11115 0.47238 0.99374-0.85018
  -3  -7  -1 502.161 113.009   4-0.14967-0.09837-0.12077-0.46381-0.99218 0.84819
  -3   7  -1 625.375 151.228   6-0.22462-0.02307 0.09087 0.49361-0.99486 0.85068
   3  -7   1 445.209 100.735   8 0.30167-0.05442-0.06101-0.52204 0.99038-0.84681
   3  -7   1 557.514 142.414   9 0.16215 0.08519-0.11534-0.46785 0.99319-0.84957
   3   7   1 481.518 123.451   2 0.27704-0.02995 0.07052 0.51214 0.99258-0.84974
  -3  -7  -1 531.416 143.742   9-0.00762-0.23973-0.49892-0.08473 0.85102-0.99454
   4  -7   1 898.401 182.821   4 0.02322 0.30049-0.52376-0.05942-0.83311 0.99064
  -4  -7  -1 708.931 156.884   3-0.28309-0.04143-0.06883-0.51579-0.99206 0.83418
  -4  -7  -1 808.244 140.689   4-0.14090-0.18354-0.14377-0.44074-0.98881 0.83099
  -4   7  -1 909.142 176.619   6-0.22691-0.09724 0.09781 0.48664-0.99409 0.83606
   4   7   1 415.406 167.827   2 0.27766 0.04562 0.07128 0.51129 0.99246-0.83587
  -4  -7  -1 697.683 164.815   9-0.02094-0.30274-0.52516-0.05851 0.83301-0.99037
   4  -7   1 779.082 145.521   8 0.29930 0.02428-0.06006-0.52293 0.99075-0.83339
   4  -7   1 772.617 137.688   9 0.15390 0.16972-0.13630-0.44690 0.99036-0.83293
   4   7   1 619.007 128.636   1 0.16918 0.15463 0.12801 0.45551 0.99168-0.83429
  -5  -7  -1 143.441 55.7714   3-0.29005-0.11100-0.07491-0.50974-0.99082 0.81904
  -5   7  -1 114.205 51.9709   6-0.23179-0.16882 0.11264 0.47176-0.99226 0.82038
  -5  -7  -1 275.822 114.507   9-0.03669-0.36331-0.55550-0.02817 0.81046-0.98165
   5   7   1 58.5148 89.1022   2 0.28359 0.11589 0.07858 0.50392 0.99126-0.82091
   5  -7   1 103.252 81.2123   8 0.30727 0.09262-0.06324-0.51970 0.98949-0.81834
   5   7   1 181.363 66.8596   1 0.16335 0.23681 0.15781 0.42571 0.98730-0.81608
   5  -7   1 252.420 94.3480   4 0.03830 0.36183-0.55419-0.02888-0.81066 0.98194
  -6  -7  -1 130.289 91.8892   3-0.30202-0.17554-0.08542-0.49924-0.98845 0.80278
   6   7   1 -1.6704 69.1995   2 0.29378 0.18190 0.09119 0.49128 0.98897-0.80487
  -6   7  -1 96.2942 80.1830   6-0.23892-0.23812 0.13465 0.44970-0.98907 0.80334
  -6  -7  -1 227.088 123.363   9-0.05464-0.42170-0.58915 0.00546 0.78309-0.96812
   6  -7   1 -17.675 93.2222   8 0.32211 0.15411-0.06917-0.51371 0.98692-0.80198
   6  -7   1 121.195 93.1333   4 0.05556 0.42098-0.58809 0.00514-0.78331 0.96831
  -7  -7  -1 238.238 147.076   3-0.31791-0.23617-0.09943-0.48523-0.98486 0.78529
  -7   7  -1 -26.079 70.2177   6-0.24804-0.30542 0.16328 0.42100-0.98407 0.78451
   7   7   1 19.7593 95.9600   2 0.30741 0.24448 0.10817 0.47428 0.98543-0.78758
   7  -7   1 25.1931 62.2255   8 0.34175 0.21080-0.07706-0.50580 0.98306-0.78433
   8  -8  -1 639.710 174.857   4-0.00155 0.59449-0.47220-0.19479-0.86706 0.87500
  -8   8   1 783.185 205.057   6-0.32584-0.26675 0.44037 0.22628-0.88191 0.87293
  -8  -8   1 820.494 202.395   9 0.00425-0.59623-0.47508-0.19180 0.86627-0.87464
   8   8  -1 727.748 182.318   5 0.55708 0.03576 0.22960 0.43761 0.88575-0.87722
   8  -8  -1 784.756 203.002   8 0.60300-0.01055-0.18521-0.48113 0.87240-0.86386
   7  -8  -1 84.5277 97.0088   4-0.02446 0.54098-0.42272-0.24447-0.89526 0.88948
  -7   8   1 180.619 112.716   6-0.32082-0.19536 0.41997 0.24672-0.89313 0.89802
  -7  -8   1 -100.66 102.682   9 0.02807-0.54371-0.42593-0.24091 0.89455-0.88910
   7   8  -1 -5.0816 49.3289   5 0.55726-0.04074 0.22972 0.43753 0.88563-0.89091
   7   8  -1 21.0859 54.7997   2 0.46037 0.05566 0.31022 0.35671 0.90132-0.90713
  -7  -8   1 -50.564 75.0828   3-0.50544-0.01081-0.27282-0.39463-0.89655 0.90172
   7  -8  -1 -3.8957 80.2408   8 0.60718-0.09105-0.18701-0.47941 0.86952-0.87478
   6  -8  -1 411.496 148.538   4-0.04534 0.48543-0.37613-0.29123-0.91826 0.89873
  -6   8   1 522.008 133.442   6-0.31723-0.12254 0.40562 0.26111-0.90062 0.91938
  -6  -8   1 371.618 134.308   9 0.04985-0.48916-0.37946-0.28734 0.91771-0.89842
   6   8  -1 521.089 157.748   5 0.56357-0.12340 0.23375 0.43355 0.88124-0.90034
   6   8  -1 238.365 136.433   2 0.45947-0.01965 0.30895 0.35805 0.90211-0.92170
  -6  -8   1 454.361 131.257   3-0.50721 0.06748-0.27454-0.39286-0.89523 0.91427
   6  -8  -1 541.035 144.103   8 0.61927-0.17946-0.19220-0.47428 0.86094-0.88001
   5  -8  -1 82.9729 76.2413   4-0.06412 0.42776-0.33299-0.33453-0.93671 0.90340
  -5  -8   1 84.5434 78.7855   9 0.06953-0.43252-0.33624-0.33054 0.93635-0.90325
   5   8  -1 84.3186 76.9063   5 0.57755-0.21376 0.24270 0.42465 0.87112-0.90404
   5   8  -1 -31.309 62.9996   2 0.46261-0.09900 0.31337 0.35374 0.89934-0.93273
  -5  -8   1 181.824 94.5905   3-0.51448 0.15125-0.28162-0.38573-0.88968 0.92257
   5  -8  -1 -29.875 63.7797   8 0.64152-0.27805-0.20184-0.46473 0.84411-0.87701
   4  -8  -1 178.825 72.6753   4-0.08072 0.36790-0.29388-0.37378-0.95121 0.90410
  -4   8   1 353.583 119.646   6-0.31498 0.02809 0.39679 0.26997-0.90508 0.95155
  -4  -8   1 272.367 94.8702   9 0.08699-0.37366-0.29682-0.36991 0.95106-0.90414
   4   8  -1 358.483 114.025   5 0.60114-0.31375 0.25793 0.40946 0.85271-0.89946
   4   8  -1 188.029 119.342   2 0.47042-0.18305 0.32442 0.34279 0.89221-0.93941
  -4  -8   1 384.149 123.655   3-0.52834 0.24162-0.29522-0.37203-0.87853 0.92526
  -3  -8   1 255.624 116.241   4 0.01611-0.22735-0.50917-0.15778-0.84322 0.90390
   3  -8  -1 186.537 84.1893   4-0.09501 0.30572-0.25944-0.40833-0.96231 0.90138
  -3  -8   1 142.178 92.7066   9 0.10213-0.31249-0.26187-0.40483 0.96238-0.90163
   3   8  -1 160.158 108.710   6-0.29834 0.50960 0.33390 0.33354-0.93349 0.87225
  -3   8   1 49.5011 55.1333   6-0.31664 0.10620 0.40331 0.26345-0.90180 0.96211
   3  -8  -1 187.898 77.9132   9-0.01215 0.22254-0.50792-0.15904 0.84499-0.90558
   3   8  -1 363.635 130.648   5 0.63666-0.42571 0.28123 0.38619 0.82143-0.88199
  -3  -8   1 172.141 85.4326   3-0.55007 0.33984-0.31685-0.35032-0.85947 0.92002
   3   8  -1 191.043 92.7058   2 0.48362-0.27249 0.34330 0.32406 0.87935-0.94041
  -2  -8   1 122.778 91.0973   4 0.00563-0.14050-0.48735-0.17960-0.85759 0.93213
   2  -8  -1 168.905 100.988   4-0.10685 0.24107-0.23035-0.43752-0.97051 0.89575
  -2  -8   1 90.4932 71.8727   9 0.11477-0.24883-0.23206-0.43459 0.97078-0.89621
  -2   8   1 79.1551 67.1070   1 0.14648-0.28071 0.23937 0.42763 0.97041-0.89602
   2   8  -1 14.7735 48.2076   6-0.28111 0.41590 0.27265 0.39494-0.95590 0.88086
  -2   8   1 44.1283 75.6492   6-0.32029 0.18631 0.41783 0.24890-0.89427 0.96840
   2  -8  -1 53.7832 64.3343   9-0.00141 0.13553-0.48650-0.18045 0.85909-0.93348
   2   8  -1 165.113 87.6726   2 0.50287-0.36803 0.37133 0.29619 0.85863-0.93355
  -2  -8   1 254.803 108.879   3-0.58103 0.44727-0.34827-0.31878-0.82861 0.90295
  -1  -8   1 544.422 130.319   4 0.00031-0.05878-0.47612-0.19082-0.86464 0.95305
   1  -8  -1 471.996 119.773   4-0.11606 0.17381-0.20736-0.46058-0.97625 0.88764
   1   8  -1 403.247 111.564   6-0.26729 0.32560 0.22578 0.44194-0.96978 0.88091
  -1   8   1 579.304 143.898   1 0.15246-0.21035 0.21125 0.45571 0.97706-0.88884
   1   8  -1 648.903 144.459   2 0.52870-0.47018 0.41004 0.25765 0.82658-0.91541
  -1   8   1 630.536 143.571   6-0.32597 0.26844 0.44091 0.22577-0.88160 0.96954
  -1  -8   1 544.619 130.232   9 0.12475-0.18251-0.20817-0.45845 0.97671-0.88833
  -1  -8   1 615.988 129.833   3-0.62227 0.56492-0.39154-0.27541-0.77927 0.86738
   1  -8  -1 590.501 133.912   9 0.00390 0.05394-0.47577-0.19117 0.86584-0.95403
  -1   8   1 651.215 130.945   2 0.41525-0.47297 0.24810 0.41872 0.93591-0.84819
   0  -8   1 176.294 78.4679   4-0.00071 0.01865-0.47397-0.19294-0.86597 0.96823
   0   8   1 242.161 85.9675   2 0.37504-0.35650 0.19468 0.47189 0.95924-0.85774
   0  -8  -1 215.228 84.6602   4-0.12243 0.10369-0.19132-0.47666-0.97988 0.87742
   0   8  -1 151.692 66.2398   2 0.56111-0.57897 0.46082 0.20705 0.77777-0.88052
   0   8  -1 285.516 108.487   6-0.25689 0.23872 0.19166 0.47616-0.97816 0.87546
   0   8   1 329.923 109.843   6-0.33358 0.35251 0.47304 0.19356-0.86251 0.96424
   0  -8   1 246.836 108.422   9 0.13181-0.11329-0.19106-0.47554 0.98052-0.87833
   0  -8  -1 112.782 55.3909   9 0.00472-0.02316-0.47412-0.19283 0.86686-0.96887
   0   8   1 383.964 116.382   1 0.15668-0.13824 0.19089 0.47606 0.98133-0.87928
  -1  -8  -1 282.291 73.8475   3-0.38143 0.28658-0.15641-0.51135-0.96506 0.84883
   1  -8   1 229.596 111.055   4 0.00197 0.09240-0.47963-0.18724-0.86246 0.97856
  -1  -8  -1 318.024 100.589   4-0.12561 0.03041-0.18321-0.48477-0.98159 0.86528
   1   8   1 426.467 111.664   2 0.34782-0.25305 0.15940 0.50696 0.97160-0.85633
  -1   8  -1 328.806 98.3339   6-0.24977 0.15511 0.16881 0.49904-0.98299 0.86644
   1   8   1 269.418 100.021   6-0.34291 0.43826 0.51459 0.15193-0.83514 0.95062
  -1  -8  -1 225.327 91.8816   9 0.00171-0.09644-0.48021-0.18675 0.86307-0.97891
   1   8   1 224.931 90.3606   1 0.15914-0.06438 0.17879 0.48814 0.98365-0.86777
   1  -8   1 310.605 122.304   9 0.13563-0.04082-0.18171-0.48485 0.98246-0.86645
  -2  -8  -1 210.665 85.7196   3-0.35511 0.18375-0.13263-0.53526-0.97436 0.84424
   2  -8   1 216.364 109.727   4 0.00785 0.16295-0.49200-0.17482-0.85460 0.98452
  -2  -8  -1 164.591 81.8147   4-0.12521-0.04644-0.18423-0.48375-0.98138 0.85122
   2   8   1 251.644 101.700   2 0.33080-0.15981 0.13765 0.52853 0.97805-0.84903
  -2   8  -1 202.027 100.370   6-0.24574 0.07458 0.15601 0.51187-0.98543 0.85503
   2   8   1 198.571 100.491   6-0.35348 0.52524 0.56563 0.10078-0.79692 0.92612
  -2  -8  -1 185.213 107.014   9-0.00462-0.16642-0.49293-0.17403 0.85495-0.98462
   2   8   1 126.743 88.3782   1 0.15980 0.01131 0.17555 0.49137 0.98424-0.85454
   2  -8   1 78.4331 73.4426   9 0.13577 0.03530-0.18136-0.48519 0.98253-0.85271
   3  -8   1 226.384 129.566   4 0.01658 0.23066-0.51014-0.15660-0.84256 0.98629
  -3  -8  -1 -44.573 46.0331   3-0.34117 0.09327-0.12012-0.54785-0.97865 0.83465
  -3  -8  -1 58.3133 38.7308   4-0.12062-0.12745-0.19586-0.47208-0.97888 0.83489
  -3   8  -1 -19.747 77.1574   6-0.24452-0.00312 0.15217 0.51571-0.98612 0.84188
   3   8   1 9.39774 53.5862   2 0.32183-0.07465 0.12630 0.53974 0.98108-0.83830
   3   8   1 -29.413 70.7460   1 0.15853 0.08892 0.18183 0.48510 0.98308-0.83955
  -3  -8  -1 0.16683 71.2441   9-0.01386-0.23347-0.51130-0.15568 0.84269-0.98619
   3  -8   1 -17.257 62.9835   9 0.13161 0.11573-0.19153-0.47503 0.98042-0.83679
  -4  -8  -1 487.560 136.044   3-0.33636 0.01193-0.11583-0.55221-0.98003 0.82213
  -4   8  -1 435.425 132.949   6-0.24586-0.07825 0.15640 0.51146-0.98536 0.82726
   4   8   1 93.2341 123.195   2 0.31933 0.00405 0.12314 0.54281 0.98188-0.82536
   4   8   1 401.991 104.713   1 0.15513 0.16867 0.19844 0.46847 0.97980-0.82244
  -4  -8  -1 538.399 167.870   9-0.02572-0.29793-0.53447-0.13254 0.82630-0.98364
   4  -8   1 339.358 120.425   4 0.02786 0.29582-0.53322-0.13343-0.82634 0.98386
  -5  -8  -1 13.7963 59.5515   3-0.33847-0.06248-0.11772-0.55036-0.97943 0.80763
  -5   8  -1 -15.692 70.9206   6-0.24950-0.15106 0.16796 0.49986-0.98316 0.81121
   5   8   1 -5.3486 62.0225   1 0.14925 0.25090 0.22645 0.44048 0.97357-0.80238
   5   8   1 -22.116 62.4655   2 0.32203 0.07754 0.12656 0.53932 0.98102-0.81074
   5  -8   1 -22.634 61.8769   8 0.38185 0.01809-0.09323-0.57306 0.97350-0.80232
  -5  -8  -1 96.5780 125.825   9-0.03992-0.36005-0.56165-0.10538 0.80565-0.97683
   5  -8   1 76.1648 99.8280   4 0.04145 0.35866-0.56045-0.10609-0.80580 0.97708
  -6  -8  -1 167.219 82.7012   3-0.34597-0.13150-0.12442-0.54368-0.97722 0.79152
   6   8   1 187.698 138.210   2 0.32902 0.14676 0.13539 0.53044 0.97868-0.79466
  -6   8  -1 403.485 154.226   6-0.25521-0.22179 0.18625 0.48151-0.97936 0.79357
  -6  -8  -1 153.057 151.157   9-0.05627-0.42004-0.59217-0.07488 0.78051-0.96553
   6  -8   1 229.172 130.216   8 0.38799 0.08829-0.09573-0.57052 0.97183-0.78687
  -7  -8  -1 279.572 212.064   3-0.35772-0.19628-0.13497-0.53314-0.97351 0.77390
   7   8   1 57.3456 86.9879   2 0.33953 0.21245 0.14878 0.51703 0.97486-0.77711
   7   9  -1 245.010 141.107   5 0.59389-0.07733 0.25324 0.49748 0.85855-0.86386
   6  -9  -1 162.230 105.402   4-0.03170 0.47175-0.40672-0.34411-0.90353 0.88394
  -6   9   1 167.381 117.349   6-0.32405-0.11571 0.43306 0.31711-0.88601 0.90468
  -6  -9   1 249.284 146.102   9 0.03586-0.47516-0.40948-0.34067 0.90313-0.88385
   6   9  -1 35.1344 59.1065   5 0.60248-0.16229 0.25880 0.49196 0.85161-0.87074
   6   9  -1 26.7479 77.5486   2 0.48012-0.04026 0.33828 0.41208 0.88286-0.90260
  -6  -9   1 -15.834 72.3764   3-0.53552 0.09585-0.30233-0.44851-0.87245 0.89140
   5  -9  -1 65.8587 94.5865   4-0.04855 0.41213-0.36884-0.38214-0.92156 0.88820
  -5  -9   1 -129.62 97.8075   9 0.05351-0.41649-0.37151-0.37860 0.92134-0.88824
  -5   9   1 71.5360 94.6434   6-0.32244-0.04088 0.42650 0.32369-0.88961 0.92214
   5   9  -1 33.4873 53.9870   5 0.61846-0.25465 0.26923 0.48159 0.83802-0.87097
  -5  -9   1 -61.816 51.4769   3-0.54392 0.18075-0.31068-0.44009-0.86507 0.89788
   5   9  -1 4.76950 77.4647   2 0.48397-0.12030 0.34379 0.40667 0.87900-0.91254
   4  -9  -1 729.269 174.128   4-0.06329 0.35040-0.33493-0.41617-0.93594 0.88877
  -4  -9   1 621.643 158.369   9 0.06904-0.35570-0.33734-0.41274 0.93591-0.88898
  -4   9   1 844.331 194.073   6-0.32239 0.03552 0.42627 0.32392-0.88973 0.93612
   4   9  -1 259.968 164.255   2 0.49206-0.20463 0.35551 0.39508 0.87057-0.91792
  -4  -9   1 600.757 159.077   3-0.55840 0.27174-0.32522-0.42547-0.85162 0.89827
   3  -9  -1 115.915 81.8176   4-0.07581 0.28644-0.30555-0.44566-0.94710 0.88612
  -3  -9   1 109.933 55.2226   9 0.08230-0.29265-0.30751-0.44252 0.94728-0.88654
   3   9  -1 3.04944 48.7811   6-0.31126 0.52259 0.38237 0.36845-0.91210 0.85072
  -3   9   1 99.8629 82.2677   6-0.32398 0.11359 0.43278 0.31740-0.88616 0.94638
   3   9  -1 45.3325 58.7176   2 0.50494-0.29376 0.37438 0.37636 0.85625-0.91745
   3  -9  -1 72.1852 61.2236   9-0.02428 0.23466-0.53167-0.21862 0.82834-0.88893
  -3  -9   1 -18.702 47.6137   3-0.57996 0.36978-0.34716-0.40342-0.82976 0.89022
  -3  -9   1 69.4012 65.0837   4 0.02754-0.23886-0.53256-0.21779-0.82681 0.88744
  -2  -9   1 1296.56 229.101   4 0.01753-0.15248-0.51209-0.23827-0.84123 0.91572
   2   9  -1 1754.77 267.884   2 0.52308-0.38818 0.40150 0.34942 0.83402-0.90908
   2   9  -1 1424.02 215.732   6-0.29640 0.43127 0.32685 0.42412-0.93633 0.86117
  -2   9   1 1405.02 232.528   6-0.32731 0.19337 0.44647 0.30367-0.87842 0.95246
  -2  -9   1 1167.96 214.303   9 0.09317-0.22722-0.28265-0.46735 0.95584-0.88128
   2  -9  -1 1292.90 215.791   9-0.01396 0.14808-0.51150-0.23878 0.84255-0.91694
  -2  -9   1 1290.54 207.848   3-0.60954 0.47582-0.37799-0.37248-0.79565 0.86990
   2  -9  -1 1373.75 223.292   4-0.08597 0.22013-0.28129-0.46999-0.95545 0.88064
  -1  -9   1 69.2222 49.3783   4 0.01215-0.07070-0.50096-0.24941-0.84873 0.93709
   1  -9  -1 181.605 96.2068   4-0.09362 0.15129-0.26281-0.48853-0.96129 0.87265
   1   9  -1 98.2273 84.2186   6-0.28423 0.34261 0.28351 0.46759-0.95229 0.86332
   1   9  -1 262.437 124.873   2 0.54677-0.48820 0.43800 0.31308 0.80072-0.88969
   1  -9  -1 190.766 100.727   9-0.00853 0.06637-0.50075-0.24953 0.84981-0.93801
  -1   9   1 289.011 123.094   6-0.33235 0.27487 0.46777 0.28233-0.86577 0.95361
  -1  -9   1 127.031 56.4997   9 0.10146-0.15922-0.26343-0.48654 0.96190-0.87353
   0  -9   1 -99.051 84.4274   4 0.01069 0.00718-0.49793-0.25242-0.85073 0.95295
   0  -9  -1 -17.859 61.8927   4-0.09853 0.07972-0.25085-0.50052-0.96485 0.86235
   0   9  -1 -56.586 69.1531   6-0.27484 0.25673 0.25119 0.49999-0.96260 0.85980
   0   9   1 22.3220 53.1817   6-0.33905 0.35802 0.49704 0.25299-0.84709 0.94871
   0  -9   1 -60.200 56.2670   9 0.10694-0.08843-0.25058-0.49936 0.96569-0.86350
   0  -9  -1 -65.808 73.0998   9-0.00721-0.01124-0.49811-0.25217 0.85156-0.95357
   1  -9   1 -59.023 97.7102   4 0.01264 0.08167-0.50198-0.24834-0.84805 0.96411
   1   9   1 120.255 70.9692   2 0.39342-0.29855 0.21890 0.53091 0.94936-0.83420
  -1  -9  -1 122.582 69.4820   4-0.10039 0.00512-0.24627-0.50511-0.96616 0.84982
   1   9   1 150.479 75.7048   1 0.14616-0.05140 0.24086 0.50946 0.97003-0.85419
  -1   9  -1 145.124 96.5648   6-0.26820 0.17359 0.22881 0.52243-0.96896 0.85232
   1   9   1 6.04544 67.2161   6-0.34716 0.44258 0.53455 0.21538-0.82083 0.93620
  -1  -9  -1 9.25838 69.2653   9-0.00942-0.08531-0.50251-0.24778 0.84864-0.96447
   1  -9   1 223.041 126.220   9 0.10931-0.01451-0.24500-0.50492 0.96727-0.85126
   2  -9   1 1515.49 251.410   4 0.01758 0.15316-0.51221-0.23806-0.84115 0.97104
   2  -9   1 1362.70 223.125   9 0.10814 0.06292-0.24775-0.50215 0.96649-0.83668
  -2  -9  -1 1295.60 226.670   4-0.09883-0.07288-0.25010-0.50126-0.96506 0.83488
   2   9   1 1406.47 225.673   2 0.37508-0.20398 0.19474 0.55489 0.95921-0.83028
   2   9   1 1363.80 243.927   1 0.14647 0.02462 0.23940 0.51092 0.97040-0.84073
  -2   9  -1 1369.60 232.998   6-0.26415 0.09305 0.21541 0.53587-0.97248 0.84199
   2   9   1 1434.84 253.000   6-0.35632 0.52816 0.58038 0.16946-0.78485 0.91394
  -2  -9  -1 1384.85 246.956   9-0.01474-0.15629-0.51303-0.23728 0.84151-0.97117
   3  -9   1 240.407 121.823   4 0.02521 0.22198-0.52783-0.22238-0.83022 0.97392
  -3  -9  -1 -44.922 79.3022   4-0.09329-0.15486-0.26362-0.48769-0.96105 0.81703
   3   9   1 16.6766 69.4628   2 0.36412-0.11683 0.18045 0.56903 0.96451-0.82182
  -3   9  -1 34.7541 101.761   6-0.26256 0.01497 0.21015 0.54113-0.97379 0.82945
   3  -9   1 3.41233 53.6336   9 0.10286 0.14446-0.26015-0.48976 0.96289-0.81927
  -3  -9  -1 68.2501 88.7772   9-0.02282-0.22450-0.52883-0.22150 0.83038-0.97388
  -3  -9  -1 -101.31 76.9671   3-0.39745 0.14965-0.17104-0.58032-0.95859 0.81454
   4   9   1 248.564 148.306   2 0.35923-0.03574 0.17411 0.57525 0.96673-0.81030
  -4   9  -1 635.716 191.784   6-0.26322-0.06085 0.21232 0.53895-0.97325 0.81507
  -4  -9  -1 704.132 224.829   9-0.03339-0.29025-0.54921-0.20114 0.81529-0.97262
  -4  -9  -1 546.547 164.927   3-0.38850 0.06417-0.16286-0.58857-0.96228 0.80434
   4  -9   1 285.553 110.248   4 0.03526 0.28838-0.54812-0.20199-0.81529 0.97278
   5   9   1 82.0507 118.701   2 0.35937 0.04032 0.17428 0.57499 0.96667-0.79649
  -5   9  -1 -8.6787 97.6150   6-0.26594-0.13459 0.22131 0.52992-0.97095 0.79892
  -5  -9  -1 296.083 200.645   9-0.04622-0.35374-0.57350-0.17687 0.79614-0.96731
   5  -9   1 127.357 127.086   4 0.04753 0.35256-0.57245-0.17757-0.79625 0.96750
  -5  -9  -1 58.3248 72.5858   3-0.38657-0.01428-0.16110-0.59039-0.96305 0.79121
   6   9   1 -11.365 79.1774   2 0.36370 0.11218 0.17990 0.56930 0.96470-0.78079
  -6  -9  -1 -112.80 104.471   9-0.06114-0.41515-0.60109-0.14930 0.77274-0.95774
   6   9   1 -71.550 60.5364   5 0.42229 0.05430 0.14595 0.60476 0.95630-0.77173
  -6  -9  -1 -162.97 184.318   3-0.39020-0.08718-0.16442-0.58711-0.96159 0.77584
  -5 -10   1 661.929 193.804   3-0.57423 0.21113-0.34130-0.49291-0.83579 0.86849
  -4  10   1 157.051 96.8364   6-0.33001 0.04316 0.45777 0.37585-0.87181 0.91808
   4  10  -1 -25.216 67.6689   2 0.51417-0.22669 0.38810 0.44586 0.84525-0.89278
  -4 -10   1 216.162 133.569   9 0.05045-0.33711-0.37815-0.45526 0.91831-0.87139
  -4 -10   1 187.787 113.110   3-0.58916 0.30256-0.35666-0.47745-0.81969 0.86622
   3 -10  -1 328.005 120.325   4-0.05635 0.26689-0.35101-0.48362-0.92932 0.86828
   3  10  -1 11.4032 60.1165   2 0.52671-0.31548 0.40700 0.42712 0.82925-0.89062
  -3  10   1 144.367 117.801   6-0.33154 0.12117 0.46430 0.36929-0.86788 0.92799
  -3 -10   1 264.311 132.842   9 0.06214-0.27250-0.35259-0.48078 0.92961-0.86887
   2 -10  -1 54.6763 61.3059   4-0.06510 0.19917-0.33070-0.50399-0.93761 0.86274
   2  10  -1 57.5780 88.2628   2 0.54381-0.40887 0.43336 0.40093 0.80518-0.88042
   2  10  -1 214.906 134.228   6-0.31029 0.44521 0.37863 0.45573-0.91387 0.83857
  -2 -10   1 -66.713 78.5557   9 0.07152-0.20557-0.33179-0.50154 0.93812-0.86356
   2 -10  -1 -2.9674 81.7203   9-0.02846 0.16255-0.53975-0.29386 0.82241-0.89681
  -2  10   1 197.882 116.827   6-0.33458 0.20067 0.47734 0.35623-0.85983 0.93375
  -2 -10   1 107.920 112.661   4 0.03128-0.16631-0.54012-0.29366-0.82127 0.89570
  -1 -10   1 614.717 168.684   4 0.02574-0.08436-0.52890-0.30489-0.82945 0.91774
   1 -10  -1 526.642 157.085   4-0.07143 0.12902-0.31588-0.51885-0.94330 0.85460
   1  10  -1 1574.13 281.396   6-0.29952 0.35796 0.33826 0.49622-0.93171 0.84260
  -1  10   1 586.992 157.124   6-0.33908 0.28165 0.49719 0.33633-0.84699 0.93471
  -1 -10   1 690.635 170.832   9 0.07839-0.13616-0.31636-0.51695 0.94404-0.85566
   1 -10  -1 717.706 194.180   9-0.02281 0.08063-0.52881-0.30479 0.83040-0.91860
   0 -10   1 137.590 83.4345   4 0.02383-0.00604-0.52502-0.30876-0.83222 0.93437
   0 -10  -1 22.1873 55.9178   4-0.07511 0.05622-0.30721-0.52755-0.94650 0.84396
   0  10  -1 16.7308 57.3298   6-0.29105 0.27300 0.30756 0.52701-0.94375 0.84082
   0  10   1 177.004 123.217   6-0.34496 0.36399 0.52416 0.30929-0.82837 0.92988
   0 -10   1 176.980 123.410   9 0.08254-0.06403-0.30696-0.52633 0.94748-0.84530
   0 -10  -1 123.127 85.6289   9-0.02098 0.00252-0.52523-0.30838 0.83296-0.93498
   1 -10   1 1445.35 269.903   4 0.02511 0.06913-0.52762-0.30614-0.83036 0.94636
  -1 -10  -1 971.825 210.393   4-0.07587-0.01948-0.30541-0.52934-0.94715 0.83076
  -1  10  -1 1064.41 228.828   6-0.28486 0.19031 0.28571 0.54891-0.95154 0.83479
   1 -10   1 1299.98 241.682   9 0.08368 0.01110-0.30437-0.52890 0.94841-0.83242
   1  10   1 985.442 221.730   6-0.35205 0.44752 0.55844 0.27492-0.80264 0.91789
  -1 -10  -1 1585.05 287.842   9-0.02245-0.07229-0.52811-0.30551 0.83090-0.94674
  -2 -10  -1 280.628 132.497   4-0.07333-0.09848-0.31142-0.52330-0.94496 0.81473
  -2  10  -1 234.952 129.586   6-0.28091 0.10987 0.27197 0.56269-0.95613 0.82553
   2 -10   1 70.1251 100.014   9 0.08141 0.08964-0.30952-0.52374 0.94655-0.81675
   2  10   1 26.4906 84.7518   6-0.35997 0.53188 0.60006 0.23321-0.76794 0.89691
  -2 -10  -1 271.906 157.840   9-0.02686-0.14416-0.53666-0.29699 0.82469-0.95435
   2  10   1 50.0453 61.9811   2 0.41660-0.24540 0.24992 0.58316 0.93501-0.80621
   2 -10   1 67.2450 97.8250   4 0.02921 0.14147-0.53594-0.29778-0.82435 0.95418
   3  10   1 -83.646 64.6674   2 0.40425-0.15684 0.23333 0.59960 0.94293-0.80037
  -3  10  -1 138.044 102.965   6-0.27908 0.03155 0.26568 0.56900-0.95814 0.81370
  -3 -10  -1 -12.112 99.1190   9-0.03390-0.21343-0.55019-0.28348 0.81455-0.95805
   3 -10   1 80.7250 118.614   4 0.03586 0.21129-0.54932-0.28435-0.81438 0.95803
   4  10   1 15.7758 122.004   2 0.39755-0.07394 0.22438 0.60840 0.94697-0.79066
  -4 -10  -1 80.7371 135.181   3-0.43950 0.11528-0.20998-0.62485-0.93847 0.78046
  -5 -10  -1 -8.1331 175.076   3-0.43419 0.03345-0.20502-0.62987-0.94127 0.76936
   1  11  -1 -15.380 82.8740   6-0.31345 0.37195 0.39084 0.52700-0.90801 0.81875
   1 -11  -1 -70.602 103.717   9-0.03858 0.09639-0.55912-0.35783 0.80764-0.89587
  -1 -11   1 19.8790 71.0942   4 0.04077-0.09947-0.55909-0.35812-0.80686 0.89507
   0  11  -1 220.208 96.8356   6-0.30580 0.28781 0.36160 0.55635-0.92168 0.81861
   0  11   1 385.427 185.676   6-0.35107 0.37015 0.55357 0.36331-0.80645 0.90780
   0 -11   1 -31.731 96.1760   9 0.05830-0.03981-0.36103-0.55560 0.92598-0.82382
   0 -11  -1 103.188 115.700   9-0.03623 0.01777-0.55465-0.36230 0.81112-0.91315
  -1 -11  -1 156.016 153.395   4-0.05167-0.04377-0.36173-0.55640-0.92471 0.80825
   1 -11   1 79.9399 79.8543   9 0.05837 0.03638-0.36088-0.55573 0.92605-0.81008
   1  11   1 103.978 116.407   6-0.35723 0.45276 0.58517 0.33162-0.78082 0.89592
  12   0  -2 365.015 159.011   5 0.62850 0.25092 0.27583-0.27520 0.82902-0.86717
  12   0  -2 241.023 120.585   8 0.63367 0.24599-0.19843 0.19857 0.85021-0.88850
 -11   0   2 57.9229 87.2043   7-0.62066-0.18161 0.09605-0.09652-0.87777 0.92955
  11   0  -2 61.3763 51.9697   5 0.61254 0.19062 0.26537-0.26481 0.84315-0.89502
  11   0  -2 -31.546 65.5536   8 0.61764 0.18569-0.19151 0.19163 0.86212-0.91420
 -10   0   2 1672.98 236.773   3-0.59089-0.13586-0.35845 0.35890-0.81775 0.88344
  10   0  -2 1677.19 236.965   5 0.60006 0.12685 0.25723-0.25674 0.85359-0.91921
  10   0  -2 1442.31 226.568   8 0.60522 0.12179-0.18616 0.18628 0.87088-0.93677
 -10   0   2 1855.20 267.084   7-0.60838-0.11745 0.09359-0.09404-0.88532 0.95100
  -9   0   2 -36.795 75.4758   7-0.60091-0.04848 0.09210-0.09252-0.88975 0.96931
  -9   0   2 92.0619 63.3921   3-0.58273-0.06757-0.35002 0.35044-0.82677 0.90635
   9   0  -2 -1.4293 48.9804   5 0.59208 0.05857 0.25206-0.25165 0.85999-0.93938
   9   0  -2 -125.12 86.1202   8 0.59748 0.05320-0.18284 0.18295 0.87614-0.95584
  -8   0   2 26.6228 56.9053   7-0.59984 0.02688 0.09189-0.09227-0.89038 0.98379
   8   0  -2 53.2626 67.5768   2 0.56222 0.01237 0.46262-0.46192 0.77588-0.86979
  -8   0   2 -9.9965 34.0808   3-0.58003 0.00617-0.34725 0.34764-0.82967 0.92311
   8   0  -2 78.3577 59.4461   5 0.59005-0.01567 0.25075-0.25041 0.86158-0.95477
   8   0  -2 5.46186 61.8499   8 0.59594-0.02161-0.18219 0.18228 0.87717-0.97070
  -7   0   2 -12.776 35.9510   7-0.60741 0.11086 0.09340-0.09376-0.88590 0.99314
   7   0  -2 -37.977 34.7267   2 0.56445-0.06620 0.46624-0.46559 0.77206-0.87979
  -7   0   2 18.5046 38.9323   3-0.58452 0.08708-0.35186 0.35223-0.82483 0.93212
   7   0  -2 -17.686 39.8417   5 0.59596-0.09786 0.25458-0.25429 0.85689-0.96390
   7   0  -2 -0.8895 39.3601   8 0.60274-0.10474-0.18509 0.18518 0.87258-0.97996
  -6   0   2 1775.79 82.7377   1 0.20684-0.62777-0.09306 0.09301 0.99532-0.87380
  -6   0   2 1766.21 114.706   9 0.20833-0.62936 0.00706-0.00694 0.99959-0.87825
   6   0  -2 1896.43 181.835   5 0.61254-0.19074 0.26537-0.26515 0.84315-0.96400
   6   0  -2 1994.87 199.078   8 0.62087-0.19922-0.19289 0.19296 0.85978-0.98101
  -6   0   2 1787.82 190.996   7-0.62684 0.20668 0.09729-0.09763-0.87385 0.99489
   6   0  -2 1877.97 117.948   4-0.20803 0.63006 0.04124-0.04129-0.99878 0.87678
  -5   0   2 62.7702 40.8348   7-0.66268 0.31886 0.10452-0.10483-0.84939 0.98419
   5   0  -2 13.5038 16.3568   4-0.29435 0.64006 0.31904-0.31921-0.93938 0.80336
  -5   0   2 11.4811 19.4773   9 0.29987-0.64453 0.28474-0.28467 0.94968-0.81456
  -5   0   2 8.09776 28.1296   3-0.62416 0.27953-0.39357 0.39388-0.77674 0.91168
   5   0  -2 -15.292 28.1773   5 0.64335-0.29789 0.28567-0.28552 0.81501-0.94972
   5   0  -2 -1.4348 32.5834   8 0.65443-0.30915-0.20746 0.20751 0.83370-0.96880
   4   0  -2 14330.7 521.694   8 0.70830-0.43942-0.23126 0.23131 0.78431-0.93330
  -4   0   2 15567.1 466.122   7-0.72065 0.45312 0.11638-0.11666-0.80275 0.95128
 -12  -1   2 171.807 105.370   7-0.64797-0.23068 0.10154-0.18552-0.85980 0.89762
  12   1  -2 166.276 117.370   5 0.61154 0.26788 0.26471-0.18083 0.84401-0.88209
  12  -1  -2 152.733 89.8892   8 0.62182 0.25779-0.19330 0.11015 0.85908-0.89734
  12   1  -2 152.096 94.8395   8 0.65290 0.22683-0.20679 0.29023 0.83496-0.87328
 -11   1   2 109.826 98.4938   7-0.61603-0.18625 0.09512-0.01210-0.88066 0.93243
 -11  -1   2 150.263 95.4708   7-0.63271-0.16951 0.09847-0.18242-0.87005 0.92181
 -11  -1   2 -64.067 107.357   3-0.57948-0.22379-0.34667 0.26376-0.83027 0.88213
  11   1  -2 22.1898 67.0837   5 0.59500 0.20817 0.25395-0.17013 0.85767-0.90948
  11  -1  -2 198.142 117.713   8 0.60537 0.19790-0.18622 0.10306 0.87077-0.92283
  11   1  -2 -122.21 96.7577   8 0.63799 0.16541-0.20030 0.28374 0.84688-0.89900
 -10   1   2 498.811 147.682   7-0.60355-0.12229 0.09263-0.00960-0.88819 0.95387
 -10  -1   2 473.854 131.819   7-0.62132-0.10447 0.09618-0.18009-0.87736 0.94302
 -10  -1   2 764.842 168.900   3-0.56613-0.16069-0.33304 0.25010-0.84405 0.90981
  10  -1  -2 852.125 173.125   5 0.62822 0.09870 0.27565-0.35844 0.82927-0.89498
  10   1  -2 570.058 138.016   5 0.58167 0.14524 0.24535-0.16159 0.86803-0.93360
  10  -1  -2 539.675 152.649   8 0.59233 0.13462-0.18065 0.09746 0.87955-0.94541
  10   1  -2 441.230 115.031   8 0.62697 0.10010-0.19553 0.27896 0.85527-0.92120
  -8   1   2 112.592 47.1925   7-0.59419 0.02123 0.09076-0.00770-0.89364 0.98705
  -8  -1   2 11.7128 52.6572   7-0.61540 0.04246 0.09499-0.17881-0.88105 0.97444
   8  -1  -2 244.877 82.0157   5 0.62359-0.04920 0.27260-0.35555 0.83347-0.92674
   8   1  -2 413.838 105.164   2 0.52880 0.04569 0.41020-0.32605 0.82644-0.92026
  -8   1   2 276.238 80.7681   3-0.62228 0.04844-0.39155 0.47528-0.77925 0.87261
  -8  -1   2 153.163 67.1629   3-0.55172-0.02220-0.31849 0.23551-0.85794 0.95145
   8   1  -2 181.602 73.7588   5 0.56872 0.00567 0.23704-0.15339 0.87758-0.97073
   8  -1  -2 126.298 54.8743   8 0.58088-0.00659-0.17576 0.09253 0.88692-0.98043
   8   1  -2 170.206 68.2467   8 0.62196-0.04757-0.19337 0.27679 0.85897-0.95256
   7   1  -2 1888.13 195.220   2 0.52819-0.03001 0.40926-0.32515 0.82727-0.93490
  -7  -1   2 1753.44 140.796   9 0.12942-0.62677-0.19686 0.11363 0.97927-0.87170
  -7  -1   2 1688.16 194.056   3-0.55323 0.05576-0.32001 0.23702-0.85653 0.96389
   7  -1  -2 1977.89 199.261   5 0.63362-0.13551 0.27922-0.36224 0.82429-0.93138
   7   1  -2 1728.39 187.421   5 0.57209-0.07399 0.23920-0.15560 0.87514-0.98211
   7  -1  -2 1418.25 184.926   8 0.58576-0.08781-0.17785 0.09459 0.88382-0.99116
   7   1  -2 1766.99 192.896   8 0.63203-0.13399-0.19771 0.28114 0.85146-0.95889
   7  -1  -2 1762.68 141.374   4-0.12781 0.62610-0.17761 0.09430-0.98273 0.87462
  -7   1   2 1624.30 196.004   7-0.60096 0.10442 0.09211-0.00905-0.88972 0.99695
  -7  -1   2 1582.43 190.638   7-0.62492 0.12838 0.09690-0.18068-0.87508 0.98230
  -6   1   2 15.8415 32.4408   7-0.61913 0.19898 0.09574-0.01268-0.87873 0.99976
  -6  -1   2 40.9131 41.3095   7-0.64695 0.22679 0.10134-0.18506-0.86050 0.98151
   6  -1  -2 39.2153 28.8538   4-0.19843 0.62047 0.01346-0.09700-0.99976 0.87777
   6   1  -2 31.3986 9.68600   4-0.20787 0.62986 0.04079 0.04265-0.99880 0.87681
   6   1  -2 25.5964 32.6138   2 0.53421-0.11235 0.41848-0.33439 0.81902-0.94049
  -6   1   2 31.3052 14.1720   9 0.19572-0.61677-0.02733 0.11083 0.99952-0.87818
  -6  -1   2 67.2217 31.1260   9 0.20247-0.62345-0.00902-0.07422 0.99973-0.87839
   6  -1  -2 37.5249 39.1817   5 0.65567-0.23386 0.29388-0.37700 0.80271-0.92364
  -6  -1   2 49.3798 29.8731   3-0.56294 0.14191-0.32981 0.24680-0.84721 0.96840
   6   1  -2 -61.435 49.7142   5 0.58500-0.16321 0.24749-0.16396 0.86549-0.98630
   6  -1  -2 17.0220 38.7777   8 0.60108-0.17948-0.18439 0.10111 0.87371-0.99490
   6   1  -2 30.2568 28.2832   8 0.65456-0.23287-0.20752 0.29093 0.83359-0.95488
  -6   1   2 16.4680 17.2228   1 0.19643-0.61737-0.02591 0.10925 0.99955-0.87804
  -5   1   2 158.956 48.6135   7-0.65301 0.30922 0.10256-0.01949-0.85629 0.99108
  -5  -1   2 121.565 41.8019   7-0.68618 0.34234 0.10930-0.19297-0.83163 0.96640
   5   1  -2 149.923 51.0285   2 0.54840-0.20290 0.44057-0.35650 0.79822-0.93357
   5  -1  -2 139.614 42.0864   4-0.26040 0.60608 0.20271-0.28643-0.97559 0.83964
  -5  -1   2 178.162 47.5115   9 0.26745-0.61209 0.17965-0.26290 0.97942-0.84430
  -5   1   2 181.266 40.1817   1 0.23183-0.57639-0.28751 0.37079 0.95600-0.82069
   5   1  -2 212.388 64.7877   5 0.61063-0.26517 0.26412-0.18063 0.84478-0.97945
   5  -1  -2 230.377 73.7140   8 0.63057-0.28533-0.19708 0.11379 0.85257-0.98763
   5   1  -2 200.878 62.5253   8 0.69386-0.34855-0.22483 0.30824 0.79857-0.93374
  -4  -1   2 560.956 86.3166   9 0.32138-0.58969 0.36040-0.44365 0.91933-0.77042
  -4  -1   2 756.401 115.734   3-0.61650 0.34829-0.38538 0.30234-0.78683 0.93563
   4   1  -2 815.459 123.506   5 0.65280-0.38370 0.29196-0.20853 0.80564-0.95418
   4  -1  -2 761.162 129.094   8 0.67893-0.41007-0.21822 0.13489 0.81249-0.96143
  -4   1   2 596.099 102.649   7-0.70816 0.44068 0.11380-0.03074-0.81362 0.96214
  -4  -1   2 569.152 93.0005   7-0.74817 0.48060 0.12209-0.20570-0.77697 0.92549
 -12  -2   2 215.805 121.977   7-0.66636-0.21223 0.10527-0.27271-0.84670 0.88449
 -12  -2   2 -101.15 146.419   3-0.58063-0.29917-0.34786 0.18154-0.82904 0.86701
 -11   2   2 -145.48 106.221   7-0.61849-0.18379 0.09561 0.07090-0.87913 0.93086
 -11  -2   2 112.213 83.5615   7-0.65245-0.14971 0.10245-0.26984-0.85668 0.90840
 -11  -2   2 -92.443 108.702   3-0.56434-0.23901-0.33122 0.16487-0.84583 0.89773
  11   2  -2 -227.15 113.948   5 0.58531 0.21790 0.24769-0.08059 0.86526-0.91704
  11  -2  -2 119.026 79.6451   8 0.60050 0.20274-0.18414 0.01767 0.87410-0.92614
  11   2  -2 -47.184 116.628   8 0.66702 0.13645-0.21298 0.37973 0.82304-0.87522
 -10   2   2 319.641 133.153   7-0.60646-0.11936 0.09321 0.07331-0.88647 0.95211
 -10  -2   2 257.476 108.976   7-0.64269-0.08304 0.10047-0.26782-0.86341 0.92902
  10   2  -2 187.070 88.7316   2 0.52485 0.20214 0.40417-0.23658 0.83171-0.89794
 -10  -2   2 363.406 122.887   3-0.55076-0.17613-0.31752 0.15116-0.85884 0.92464
  10   2  -2 317.518 109.733   5 0.57186 0.15507 0.23905-0.07201 0.87531-0.94085
  10  -2  -2 329.971 110.100   8 0.58752 0.13938-0.17859 0.01211 0.88269-0.94853
  10   2  -2 494.818 144.076   8 0.65834 0.06881-0.20916 0.37592 0.83044-0.89643
  -9   2   2 91.7856 82.9159   7-0.59911-0.05026 0.09174 0.07477-0.89080 0.97032
  -9  -2   2 250.255 91.4915   7-0.63837-0.01093 0.09961-0.26689-0.86631 0.94581
   9   2  -2 183.066 78.0525   2 0.51437 0.13633 0.38838-0.22083 0.84502-0.92500
   9  -2  -2 138.796 72.9619   5 0.66526-0.01459 0.30034-0.46649 0.79268-0.87229
  -9  -2   2 223.484 96.7870   3-0.54063-0.10978-0.30741 0.14103-0.86799 0.94769
   9   2  -2 191.325 79.4505   5 0.56235 0.08834 0.23297-0.06596 0.88210-0.96143
   9  -2  -2 132.877 61.2754   8 0.57881 0.07177-0.17488 0.00837 0.88822-0.96788
   9   2  -2 143.056 81.0886   8 0.65535-0.00455-0.20786 0.37462 0.83293-0.91275
  -8   2   2 244.459 82.1646   7-0.59791 0.02496 0.09150 0.07501-0.89150 0.98487
  -8  -2   2 254.462 92.3520   7-0.64128 0.06839 0.10019-0.26742-0.86436 0.95770
   8   2  -2 332.990 93.2001   2 0.50756 0.06684 0.37826-0.21073 0.85319-0.94695
   8  -2  -2 275.288 95.7446   5 0.67088-0.09647 0.30413-0.47037 0.78661-0.88002
  -8  -2   2 84.4685 61.8493   3-0.53491-0.03904-0.30173 0.13534-0.87297 0.96654
   8   2  -2 307.288 95.4744   5 0.55787 0.01653 0.23011-0.06316 0.88520-0.97834
   8  -2  -2 282.820 90.1796   8 0.57563-0.00138-0.17353 0.00700 0.89020-0.98368
   8   2  -2 213.370 86.7299   8 0.65996-0.08550-0.20987 0.37664 0.82908-0.92273
  -7  -2   2 909.746 142.776   7-0.65395 0.15744 0.10275-0.26991-0.85563 0.96280
   7   2  -2 1008.30 147.427   2 0.50541-0.00730 0.37508-0.20756 0.85571-0.96327
  -7  -2   2 1079.16 131.807   9 0.13659-0.63389-0.17935 0.01275 0.98293-0.87537
  -7  -2   2 968.805 157.294   3-0.53484 0.03735-0.30166 0.13526-0.87303 0.98045
   7   2  -2 1100.14 155.222   5 0.55999-0.06187 0.23146-0.06455 0.88374-0.99070
   7  -2  -2 39.5903 25.2379   5 0.68667-0.18856 0.31487-0.48121 0.76873-0.87595
  -7   2   2 979.514 103.469   1 0.14863-0.64597 0.22937-0.06260 0.97287-0.86522
   7   2  -2 967.859 153.320   8 0.67476-0.17667-0.21638 0.38315 0.81624-0.92374
   7  -2  -2 1025.68 159.102   8 0.57976-0.08184-0.17528 0.00872 0.88763-0.99494
   7  -2  -2 973.148 117.957   4-0.13288 0.63124-0.16458-0.00222-0.98523 0.87711
  -7   2   2 1013.18 165.126   7-0.60491 0.10839 0.09290 0.07360-0.88739 0.99459
  -6   2   2 623.963 123.370   7-0.62303 0.20291 0.09652 0.06995-0.87628 0.99728
  -6  -2   2 616.880 113.277   7-0.67990 0.25974 0.10802-0.27511-0.83651 0.95748
  -6  -2   2 708.647 105.352   9 0.19172-0.61267-0.03806-0.12853 0.99923-0.87788
   6   2  -2 674.839 114.107   2 0.50909-0.08728 0.38053-0.21301 0.85138-0.97280
  -6  -2   2 613.456 113.756   3-0.54203 0.12099-0.30881 0.14240-0.86675 0.98801
   6   2  -2 728.915 120.490   5 0.57077-0.14896 0.23835-0.07147 0.87610-0.99690
   6  -2  -2 612.330 117.524   8 0.59364-0.17207-0.18120 0.01460 0.87869-0.99985
   6   2  -2 518.676 112.214   8 0.70323-0.28150-0.22900 0.39578 0.78941-0.91077
   6  -2  -2 611.609 94.5968   4-0.18602 0.60807-0.02174-0.14529-0.99975 0.87777
  -6   2   2 582.824 79.1136   1 0.18780-0.60875 0.02577 0.14093 0.99964-0.87816
  -5   2   2 51.0900 41.6096   7-0.65631 0.31256 0.10323 0.06322-0.85396 0.98872
  -5  -2   2 26.7811 30.9116   7-0.72380 0.37994 0.11703-0.28403-0.79993 0.93467
  -5   2   2 24.1952 22.3079   1 0.21579-0.56038-0.15604 0.32269 0.98708-0.85178
   5  -2  -2 25.3261 23.2257   4-0.23392 0.57957 0.11884-0.28605-0.99141 0.85552
  -5  -2   2 19.3248 36.3922   9 0.24184-0.58645 0.10229-0.26888 0.99273-0.85759
   5   2  -2 15.0864 27.3212   2 0.51996-0.17447 0.39679-0.22927 0.83802-0.97330
  -5  -2   2 60.4224 46.7284   3-0.55850 0.21390-0.32531 0.15891-0.85153 0.98660
   5   2  -2 15.7337 26.3274   5 0.59299-0.24751 0.25265-0.08580 0.85927-0.99393
   5  -2  -2 24.9678 31.8608   8 0.62063-0.27542-0.19279 0.02615 0.85995-0.99497
  -4   2   2 166.656 54.6632   7-0.70994 0.44248 0.11417 0.05226-0.81210 0.96059
   4  -2  -2 166.870 53.1587   4-0.27568 0.54486 0.25364-0.42099-0.96185 0.81201
   4   2  -2 174.950 51.7476   2 0.53937-0.27025 0.42646-0.25894 0.81169-0.96086
  -4  -2   2 126.485 43.7099   9 0.28586-0.55414 0.23818-0.40475 0.96457-0.81565
   4  -2  -2 102.426 41.6013   8 0.66503-0.39618-0.21210 0.04542 0.82476-0.97366
 -12  -3   2 313.768 133.876   7-0.69194-0.18656 0.11048-0.36135-0.82704 0.86475
 -12  -3   2 337.912 152.317   3-0.57225-0.30762-0.33927 0.08950-0.83785 0.87585
 -11   3   2 -4.2233 96.4792   7-0.62768-0.17457 0.09746 0.15256-0.87331 0.92499
 -11  -3   2 164.078 97.8218   7-0.68004-0.12203 0.10805-0.35886-0.83640 0.88805
  11   3  -2 -26.031 77.8156   2 0.52625 0.27689 0.40630-0.15533 0.82986-0.88236
 -11  -3   2 20.1531 65.1957   3-0.55640-0.24701-0.32320 0.07341-0.85354 0.90547
  11   3  -2 93.3928 85.8586   5 0.58249 0.22075 0.24588 0.00452 0.86741-0.91918
  11  -3  -2 -10.571 88.3918   8 0.60234 0.20086-0.18492-0.06482 0.87285-0.92489
 -10   3   2 511.915 151.917   7-0.61667-0.10913 0.09525 0.15475-0.88026 0.94584
 -10  -3   2 505.788 133.460   7-0.67269-0.05298 0.10655-0.35729-0.84200 0.90755
  10   3  -2 517.139 140.450   2 0.51319 0.21368 0.38663-0.13570 0.84646-0.91267
 -10  -3   2 473.494 122.655   3-0.54316-0.18377-0.30993 0.06012-0.86575 0.93158
  10   3  -2 580.922 146.799   5 0.56950 0.15748 0.23754 0.01282 0.87702-0.94257
  10  -3  -2 582.251 154.353   8 0.58998 0.13689-0.17964-0.07014 0.88109-0.94693
  -9   3   2 274.300 106.498   7-0.61040-0.03894 0.09399 0.15599-0.88410 0.96356
  -9  -3   2 176.477 81.6116   7-0.67126 0.02201 0.10626-0.35694-0.84307 0.92250
   9   3  -2 3.17420 47.8077   2 0.50285 0.14775 0.37129-0.12039 0.85866-0.93862
  -9  -3   2 33.2251 53.9055   3-0.53320-0.11725-0.30004 0.05021-0.87443 0.95416
   9   3  -2 101.114 50.3181   5 0.56029 0.09042 0.23166 0.01866 0.88353-0.96287
   9  -3  -2 168.398 93.0991   8 0.58182 0.06873-0.17617-0.07365 0.88633-0.96598
   9   3  -2 228.747 98.4962   8 0.70094-0.05006-0.22798 0.47809 0.79167-0.87157
  -8   3   2 587.292 136.023   7-0.61033 0.03743 0.09399 0.15598-0.88414 0.97746
  -8  -3   2 554.815 125.328   7-0.67769 0.10483 0.10757-0.35816-0.83821 0.93149
   8  -3  -2 552.367 110.528   4-0.08320 0.65789-0.28796 0.03793-0.95323 0.85890
  -8  -3   2 472.749 103.987   9 0.08644-0.66008-0.29809 0.04811 0.95062-0.85686
  -8   3   2 3.77542 33.3260   6-0.36095-0.21279 0.60547-0.35606-0.76312 0.85640
   8   3  -2 673.124 135.524   2 0.49589 0.07844 0.36109-0.11020 0.86643-0.96017
   8   3  -2 583.987 127.326   5 0.55590 0.01853 0.22886 0.02142 0.88656-0.97970
  -8  -3   2 587.176 140.608   3-0.52735-0.04663-0.29425 0.04443-0.87935 0.97295
   8  -3  -2 420.834 112.167   8 0.57906-0.00484-0.17498-0.07486 0.88807-0.98154
   8   3  -2 631.017 138.682   8 0.71051-0.13599-0.23225 0.48238 0.78205-0.87578
  -7   3   2 689.188 139.633   7-0.61846 0.12197 0.09560 0.15432-0.87915 0.98629
  -7  -3   2 683.956 125.258   7-0.69461 0.19812 0.11103-0.36153-0.82488 0.93198
   7  -3  -2 547.686 99.7650   4-0.12949 0.62787-0.17330-0.07698-0.98358 0.87546
  -7  -3   2 696.945 121.656   9 0.13428-0.63156-0.18500-0.06496 0.98179-0.87422
  -7   3   2 742.436 141.944   6-0.35627-0.14115 0.58010-0.33069-0.78507 0.89220
   7   3  -2 597.052 121.036   2 0.49314 0.00491 0.35707-0.10619 0.86942-0.97696
   7   3  -2 638.923 129.080   5 0.55770-0.05956 0.23000 0.02026 0.88532-0.99230
  -7  -3   2 629.094 131.355   3-0.52667 0.02916-0.29359 0.04377-0.87990 0.98736
   7  -3  -2 359.305 107.824   8 0.58332-0.08544-0.17681-0.07308 0.88538-0.99267
   7   3  -2 -16.533 46.0648   8 0.73130-0.23316-0.24162 0.49177 0.75983-0.86741
  -6   3   2 789.594 133.092   7-0.63753 0.21745 0.09944 0.15045-0.86687 0.98780
  -6  -3   2 577.127 103.831   7-0.72559 0.30543 0.11740-0.36782-0.79831 0.91921
   6  -3  -2 650.270 106.449   4-0.17223 0.59426-0.06002-0.19049-0.99814 0.87618
  -6  -3   2 675.982 113.029   9 0.17872-0.59965-0.07250-0.17744 0.99739-0.87603
  -6   3   2 669.103 121.170   6-0.35326-0.06782 0.56456-0.31516-0.79778 0.91874
   6   3  -2 803.404 132.252   2 0.49557-0.07380 0.36063-0.10973 0.86678-0.98816
   6   3  -2 726.393 121.991   5 0.56752-0.14569 0.23627 0.01397 0.87844-0.99926
  -6  -3   2 784.858 134.667   3-0.53255 0.11150-0.29939 0.04957-0.87499 0.99629
   6  -3  -2 662.904 127.969   8 0.59686-0.17531-0.18258-0.06735 0.87655-0.99770
  -5   3   2 169.789 48.5508   7-0.67134 0.32762 0.10628 0.14356-0.84301 0.97770
   5   3  -2 153.883 33.0989   6-0.13733 0.48271-0.15271 0.40369-0.98733 0.85168
  -5   3   2 161.915 53.9664   1 0.20240-0.54699-0.06371 0.31374 0.99774-0.86246
   5  -3  -2 175.612 65.1233   4-0.21108 0.55669 0.05021-0.30091-0.99828 0.86243
  -5  -3   2 110.007 46.1896   9 0.21937-0.56396 0.03777-0.28769 0.99851-0.86336
  -5   3   2 205.227 71.0256   6-0.35234 0.00761 0.55993-0.31053-0.80147 0.93626
   5   3  -2 122.969 49.5455   2 0.50432-0.15887 0.37348-0.12256 0.85696-0.99220
  -5  -3   2 169.439 64.8103   3-0.54665 0.20206-0.31341 0.06361-0.86261 0.99772
   5   3  -2 154.478 57.8922   5 0.58776-0.24227 0.24927 0.00095 0.86337-0.99805
   5  -3  -2 180.433 61.1449   8 0.62266-0.27746-0.19367-0.05630 0.85846-0.99347
  -4   3   2 351.484 78.8521   7-0.72452 0.45709 0.11718 0.13262-0.79928 0.94770
   4   3  -2 498.339 78.2026   6-0.06209 0.33103-0.33735 0.58843-0.93495 0.78529
  -4   3   2 371.918 81.8258   1 0.21965-0.48789-0.18502 0.43501 0.98187-0.83277
   4  -3  -2 408.359 85.3230   4-0.24570 0.51485 0.15551-0.40637-0.98551 0.83574
  -4  -3   2 445.529 90.3552   9 0.25580-0.52406 0.14392-0.39382 0.98644-0.83751
   4   3  -2 407.095 92.4885   2 0.52058-0.25145 0.39773-0.14678 0.83723-0.98636
  -4   3   2 378.330 85.6181   6-0.35379 0.08542 0.56731-0.31792-0.79558 0.94419
   4   3  -2 381.326 85.9554   5 0.62136-0.35226 0.27114-0.02095 0.83545-0.98400
   4  -3  -2 407.265 94.4389   8 0.66450-0.39568-0.21186-0.03816 0.82522-0.97409
   3  -3  -2 292.798 79.3544   4-0.27574 0.46839 0.25388-0.50484-0.96178 0.79808
  -3  -3   2 218.687 59.9177   9 0.28761-0.47955 0.24388-0.49375 0.96289-0.80017
  -3   3   2 159.404 64.2040   6-0.35770 0.16567 0.58767-0.33830-0.77869 0.94112
  -3   3   2 237.328 70.5884   1 0.23203-0.42395-0.28936 0.53931 0.95542-0.79252
  -3  -3   2 158.175 58.0691   3-0.60722 0.41547-0.37554 0.12577-0.79851 0.96120
   3  -3  -2 33.8032 36.6236   8 0.72610-0.53368-0.23928-0.01079 0.76556-0.92831
 -11   4   2 231.652 111.590   7-0.64319-0.15901 0.10057 0.23292-0.86307 0.91466
  11   4  -2 278.293 139.818   2 0.52034 0.28270 0.39736-0.06309 0.83754-0.89005
 -11  -4   2 214.265 117.920   3-0.55447-0.24897-0.32126-0.01200-0.85536 0.90730
 -10  -4   2 62.4529 73.5757   7-0.71131-0.01428 0.11445-0.44857-0.81092 0.87638
  10   4  -2 -152.59 102.557   2 0.50796 0.21881 0.37886-0.04462 0.85272-0.91896
 -10  -4   2 -89.428 81.9877   3-0.54196-0.18500-0.30875-0.02453-0.86681 0.93266
  10   4  -2 -111.93 80.1704   5 0.57354 0.15350 0.24013 0.09355 0.87408-0.93964
  10  -4  -2 35.9014 70.1385   8 0.59894 0.12791-0.18347-0.14961 0.87516-0.94100
   9   4  -2 1569.96 236.383   2 0.49817 0.15236 0.36442-0.03020 0.86393-0.94390
  -9  -4   2 1752.17 266.345   3-0.53261-0.11787-0.29945-0.03383-0.87494 0.95468
   9   4  -2 1491.38 227.293   5 0.56513 0.08564 0.23474 0.09891 0.88014-0.95951
   9  -4  -2 1467.98 238.077   8 0.59183 0.05870-0.18043-0.15268 0.87988-0.95953
  -9   4   2 1642.91 243.610   7-0.62906-0.02023 0.09774 0.23571-0.87242 0.95180
  -9  -4   2 1517.13 206.441   7-0.71361 0.06440 0.11492-0.44895-0.80894 0.88827
  -8   4   2 76.7166 67.6545   7-0.63074 0.05790 0.09808 0.23533-0.87133 0.96456
  -8  -4   2 152.036 72.1151   7-0.72443 0.15161 0.11716-0.45109-0.79936 0.89254
   8  -4  -2 90.0657 53.8652   4-0.08294 0.65768-0.28857-0.04495-0.95302 0.85868
  -8  -4   2 115.982 62.7671   9 0.08688-0.66048-0.29707-0.03627 0.95098-0.85721
  -8   4   2 33.4965 72.9284   6-0.35301-0.22079 0.56330-0.23060-0.79879 0.89204
   8   4  -2 39.4850 53.8113   2 0.49154 0.08273 0.35475-0.02054 0.87113-0.96488
   8   4  -2 185.836 87.0129   5 0.56137 0.01312 0.23235 0.10129 0.88278-0.97596
  -8  -4   2 78.1040 65.4835   3-0.52714-0.04685-0.29405-0.03922-0.87951 0.97314
   8  -4  -2 -17.004 73.2800   8 0.59006-0.01586-0.17968-0.15348 0.88104-0.97450
   7   4  -2 1760.45 205.532   2 0.48877 0.00924 0.35074-0.01651 0.87404-0.98160
  -7   4   2 2198.95 246.217   6-0.34831-0.14916 0.54005-0.20734-0.81674 0.92386
  -7  -4   2 1734.95 205.402   9 0.12710-0.62435-0.20248-0.13084 0.97802-0.87045
  -7  -4   2 1745.99 218.985   3-0.52651 0.02900-0.29343-0.03984-0.88004 0.98752
   7   4  -2 1752.08 211.750   5 0.56351-0.06534 0.23372 0.09991 0.88128-0.98828
  -7   4   2 1649.13 177.827   1 0.14676-0.64408 0.23809 0.09545 0.97073-0.86314
   7  -4  -2 1503.21 203.714   8 0.59515-0.09728-0.18185-0.15136 0.87769-0.98499
   7  -4  -2 1634.10 191.057   4-0.12175 0.62015-0.19302-0.14074-0.97950 0.87138
  -7   4   2 1556.63 208.535   7-0.64069 0.14426 0.10007 0.23328-0.86476 0.97181
  -7  -4   2 1201.62 158.479   7-0.74646 0.24997 0.12173-0.45556-0.77865 0.88566
  -6   4   2 12.6425 26.0325   1 0.17091-0.59187 0.11896 0.21452 0.99283-0.87139
  -6   4   2 55.4400 50.4206   7-0.66151 0.24147 0.10429 0.22901-0.85024 0.97108
   6  -4  -2 0.66645 37.9884   4-0.15751 0.57952-0.09989-0.23411-0.99470 0.87275
  -6  -4   2 115.159 71.4648   9 0.16435-0.58526-0.10973-0.22356 0.99386-0.87250
  -6   4   2 6.48730 34.2066   6-0.34523-0.07587 0.52543-0.19273-0.82746 0.94843
   6   4  -2 18.0778 40.3903   2 0.49068-0.06895 0.35351-0.01926 0.87203-0.99341
   6   4  -2 -10.038 43.6498   5 0.57319-0.15134 0.23990 0.09371 0.87434-0.99519
  -6  -4   2 24.1936 51.2879   3-0.53186 0.11083-0.29871-0.03455-0.87557 0.99689
   6  -4  -2 28.1618 54.8965   8 0.60914-0.18760-0.18784-0.14541 0.86816-0.98930
  -5   4   2 73.0672 47.1809   7-0.69666 0.35297 0.11145 0.22179-0.82322 0.95782
   5   4  -2 174.315 45.3524   6-0.20254 0.54795 0.02570 0.30860-0.99944 0.86383
   5  -4  -2 163.664 54.8952   4-0.19009 0.53566-0.01030-0.32389-0.99990 0.86408
  -5  -4   2 183.751 70.5023   9 0.19844-0.54302-0.01995-0.31331 0.99965-0.86449
  -5   4   2 253.336 80.8314   6-0.34413-0.00060 0.52031-0.18760-0.83112 0.96593
   5   4  -2 89.8105 74.4481   2 0.49821-0.15274 0.36447-0.03018 0.86389-0.99912
  -5  -4   2 129.567 59.6192   3-0.54462 0.20005-0.31139-0.02184-0.86444 0.99958
   5   4  -2 252.845 76.5573   5 0.59246-0.24696 0.25231 0.08130 0.85968-0.99439
  -5   4   2 170.143 59.4209   1 0.19046-0.53506 0.01019 0.32323 0.99990-0.86464
   5  -4  -2 173.914 66.6724   8 0.63469-0.28951-0.19887-0.13444 0.84943-0.98442
  -4   4   2 149.350 56.3906   7-0.75008 0.48267 0.12249 0.21067-0.77508 0.92341
   4   4  -2 133.847 42.1171   6-0.14222 0.41119-0.13996 0.47445-0.98940 0.83984
   4  -4  -2 145.948 52.4811   4-0.21930 0.48840 0.07453-0.40887-0.99646 0.84674
  -4  -4   2 177.569 63.6393   9 0.22918-0.49743 0.06562-0.39885 0.99660-0.84765
  -4   4   2 163.285 66.5815   6-0.34526 0.07689 0.52557-0.19288-0.82736 0.97600
   4   4  -2 159.390 58.5355   2 0.51230-0.24316 0.38531-0.05096 0.84753-0.99666
  -4   4   2 175.856 68.4048   1 0.20594-0.47420-0.08697 0.42034 0.99590-0.84682
  -4  -4   2 150.925 57.6757   3-0.56639 0.29828-0.33331 0.00012-0.84379 0.99272
   4   4  -2 168.182 57.7135   5 0.62381-0.35470 0.27275 0.06085 0.83327-0.98184
   4  -4  -2 168.037 68.3309   8 0.67505-0.40624-0.21651-0.11686 0.81598-0.96484
   3   4  -2 153.768 47.8082   6-0.10316 0.29565-0.23908 0.57366-0.96815 0.80465
   3  -4  -2 281.671 80.7072   4-0.24500 0.43760 0.15330-0.48776-0.98591 0.82229
   3   4  -2 230.765 75.0024   2 0.53383-0.34102 0.41789-0.08348 0.81956-0.98261
  -3  -4   2 250.805 74.6205   9 0.25638-0.44831 0.14567-0.47887 0.98613-0.82339
  -3   4   2 137.250 56.1754   6-0.34873 0.15673 0.54209-0.20941-0.81522 0.97766
  -3  -4   2 128.506 56.6423   3-0.59873 0.40703-0.36662 0.03346-0.80871 0.97143
  -3   4   2 204.859 71.3165   1 0.21788-0.40981-0.17156 0.50489 0.98440-0.82151
   3  -4  -2 -13.716 43.3666   8 0.73333-0.54091-0.24254-0.09088 0.75756-0.92029
  -2  -4   2 -0.7292 27.7886   9 0.27989-0.39552 0.21888-0.55205 0.96993-0.79340
  -2   4   2 -1.1633 25.0620   6-0.35442 0.23879 0.57049-0.23782-0.79300 0.96924
  11   5  -2 42.6219 87.2506   2 0.51930 0.28366 0.39580 0.02177 0.83886-0.89142
 -10   5   2 81.0191 104.449   7-0.65697-0.06870 0.10336 0.31359-0.85349 0.91887
  10   5  -2 -23.080 64.4342   2 0.50781 0.21891 0.37862 0.03891 0.85290-0.91918
 -10  -5   2 30.5435 68.8836   3-0.54601-0.18097-0.31278-0.10397-0.86318 0.92903
  10   5  -2 112.711 107.838   5 0.58308 0.14402 0.24626 0.17076 0.86696-0.93255
  10  -5  -2 91.8767 93.4594   8 0.61366 0.11318-0.18979-0.22659 0.86497-0.93082
  -9   5   2 222.684 100.346   7-0.65444 0.00522 0.10285 0.31405-0.85529 0.93454
   9   5  -2 173.905 95.6573   2 0.49880 0.15168 0.36534 0.05219 0.86323-0.94325
   9   5  -2 353.692 136.876   5 0.57578 0.07504 0.24156 0.17545 0.87244-0.95183
  -9  -5   2 279.840 108.135   3-0.53754-0.11295-0.30433-0.11241-0.87070 0.95045
   9  -5  -2 272.103 128.661   8 0.60799 0.04253-0.18735-0.22908 0.86896-0.94862
  -8   5   2 74.7309 72.1792   7-0.65838 0.08560 0.10365 0.31319-0.85249 0.94560
   8  -5  -2 -80.522 74.1913   4-0.07792 0.65267-0.30055-0.11646-0.94888 0.85453
  -8   5   2 6.08261 59.5172   6-0.34846-0.22540 0.54076-0.12473-0.81621 0.90945
  -8  -5   2 34.2845 80.0895   9 0.08222-0.65579-0.30768-0.10902 0.94722-0.85345
   8   5  -2 -24.546 70.5909   2 0.49277 0.08147 0.35654 0.06099 0.86981-0.96360
   8   5  -2 -43.865 48.4921   5 0.57303 0.00149 0.23980 0.17720 0.87445-0.96766
  -8  -5   2 26.0088 68.1071   3-0.53279-0.04121-0.29963-0.11711-0.87478 0.96841
   8  -5  -2 38.5158 78.3023   8 0.60763-0.03343-0.18719-0.22927 0.86921-0.96268
  -7   5   2 586.926 142.352   7-0.67066 0.17430 0.10615 0.31063-0.84352 0.95045
   7  -5  -2 726.593 147.448   4-0.11136 0.60975-0.21913-0.19812-0.97340 0.86526
  -7  -5   2 497.840 125.363   9 0.11695-0.61418-0.22688-0.18980 0.97212-0.86456
  -7   5   2 665.503 144.374   6-0.34402-0.15349 0.51970-0.10366-0.83155 0.93865
   7   5  -2 285.833 128.493   2 0.49032 0.00767 0.35299 0.06457 0.87241-0.98000
   7   5  -2 624.653 138.841   5 0.57598-0.07777 0.24169 0.17531 0.87229-0.97933
  -7  -5   2 590.050 139.080   3-0.53259 0.03508-0.29943-0.11729-0.87495 0.98244
   7  -5  -2 639.568 148.925   8 0.61401-0.11615-0.18994-0.22659 0.86472-0.97202
  -6   5   2 -6.9292 34.5180   7-0.69374 0.27376 0.11085 0.30584-0.82559 0.94630
   6  -5  -2 -45.929 50.5016   4-0.14209 0.56408-0.14066-0.27681-0.98930 0.86734
  -6  -5   2 21.0535 54.4642   9 0.14901-0.56988-0.14858-0.26806 0.98847-0.86710
  -6   5   2 76.8448 73.1272   6-0.34110-0.08003 0.50634-0.09028-0.84083 0.96179
   6   5  -2 5.91072 50.6386   2 0.49215-0.07041 0.35563 0.06196 0.87048-0.99189
   6   5  -2 -1.4071 38.2601   5 0.58604-0.16416 0.24817 0.16885 0.86469-0.98558
  -6  -5   2 53.7116 64.0957   3-0.53793 0.11691-0.30472-0.11197-0.87036 0.99169
  -6   5   2 67.3366 56.1532   1 0.16216-0.58314 0.16380 0.25305 0.98631-0.86490
   6  -5  -2 -16.951 53.9090   8 0.62899-0.20747-0.19640-0.22018 0.85376-0.97490
  -5   5   2 1851.40 223.703   6-0.34001-0.00475 0.50135-0.08529-0.84421 0.97902
  -5  -5   2 1897.36 222.038   9 0.17828-0.52282-0.07365-0.34295 0.99730-0.86213
  -5  -5   2 1815.02 225.492   3-0.54999 0.20545-0.31677-0.09990-0.85954 0.99469
   5   5  -2 1741.71 206.254   5 0.60501-0.25950 0.26045 0.15656 0.84951-0.98425
   5  -5  -2 1782.74 218.483   8 0.65491-0.30974-0.20767-0.20897 0.83330-0.96829
  -5   5   2 1885.28 215.070   1 0.17923-0.52385 0.07423 0.34256 0.99722-0.86199
   5  -5  -2 1233.16 181.313   4-0.17005 0.51557-0.06600-0.35166-0.99774 0.86193
  -5   5   2 1829.98 199.277   7-0.73067 0.38701 0.11845 0.29815-0.79367 0.92814
   4   5  -2 484.282 91.2782   6-0.19149 0.46051-0.00593 0.42378-0.99993 0.85038
   4  -5  -2 460.683 114.526   4-0.19511 0.46416 0.00395-0.42176-0.99989 0.85021
  -4  -5   2 539.655 130.975   9 0.20466-0.47289-0.00303-0.41354 0.99971-0.85074
  -4   5   2 561.707 122.496   6-0.34090 0.07254 0.50545-0.08940-0.84144 0.99008
   4   5  -2 627.687 126.405   2 0.51164-0.24247 0.38433 0.03339 0.84833-0.99748
  -4  -5   2 521.483 119.438   3-0.57010 0.30201-0.33707-0.07954-0.84005 0.98900
   4   5  -2 504.377 110.936   5 0.63495-0.36585 0.28010 0.13691 0.82303-0.97163
  -4   5   2 543.571 123.542   1 0.19314-0.46143-0.00587 0.42263 0.99991-0.85085
   4  -5  -2 621.235 125.156   8 0.69452-0.42572-0.22512-0.19159 0.79793-0.94678
  -3   5   2 3033.48 274.025   1 0.20425-0.39621-0.07581 0.49252 0.99685-0.83397
   3   5  -2 2761.14 254.682   2 0.53079-0.33796 0.41323 0.00457 0.82375-0.98681
   3   5  -2 2949.34 226.362   6-0.15759 0.35013-0.09929 0.51727-0.99477 0.83130
  -3   5   2 3084.31 273.624   6-0.34394 0.15195 0.51933-0.10331-0.83181 0.99426
  -3  -5   2 2746.08 252.773   9 0.22804-0.41996 0.06236-0.47889 0.99687-0.83411
  -3  -5   2 2729.53 253.019   3-0.59949 0.40783-0.36741-0.04915-0.80782 0.97055
   3   5  -2 1655.46 198.461   5 0.67791-0.48524 0.30889 0.10811 0.77881-0.94126
   3  -5  -2 2724.86 261.655   4-0.21719 0.40976 0.06825-0.48619-0.99699 0.83342
  -2   5   2 63.0032 47.3441   1 0.21289-0.32852-0.13501 0.55169 0.99030-0.81360
   2   5  -2 67.0677 41.7757   6-0.13429 0.25033-0.16058 0.57863-0.98595 0.80858
   2  -5  -2 31.9849 37.9686   4-0.23624 0.35229 0.12597-0.54400-0.99038 0.81292
   2   5  -2 42.3223 29.8047   2 0.55671-0.44026 0.45376-0.03588 0.78506-0.96206
  -2  -5   2 38.6564 28.8670   9 0.24834-0.36395 0.12153-0.53803 0.99008-0.81352
  -2   5   2 -8.6173 36.2401   6-0.34904 0.23345 0.54359-0.12758-0.81409 0.99034
  -1   5   2 307.060 93.4679   1 0.21939-0.25869-0.18306 0.59972 0.98225-0.79173
   1   5  -2 275.111 79.4857   6-0.11949 0.15904-0.19835 0.61644-0.97832 0.78706
   1  -5  -2 278.279 96.4215   4-0.25218 0.29172 0.17613-0.59422-0.98150 0.79014
  -1  -5   2 212.793 74.7174   9 0.26547-0.30479 0.17349-0.58995 0.98074-0.79039
  -1   5   2 360.289 101.580   6-0.35596 0.31676 0.57849-0.16251-0.78642 0.97645
 -10   6   2 117.980 61.1315   7-0.68600-0.03958 0.10926 0.39113-0.83176 0.89699
  10   6  -2 53.3767 100.166   2 0.51166 0.21502 0.38435 0.11648 0.84831-0.91466
   9  -6  -2 209.560 114.319   4-0.03792 0.68904-0.39285-0.10742-0.91038 0.82973
  -9   6   2 213.132 103.018   7-0.68590 0.03675 0.10924 0.39109-0.83185 0.91095
  -9   6   2 1.82947 66.0062   6-0.35182-0.29844 0.55733-0.05795-0.80351 0.88285
  -9  -6   2 74.1690 64.5657   9 0.04120-0.69110-0.39808-0.10200 0.90883-0.82887
   9   6  -2 47.3035 105.705   2 0.50354 0.14690 0.37232 0.12851 0.85786-0.93795
  -9  -6   2 -133.78 117.751   3-0.54691-0.10358-0.31368-0.18655-0.86236 0.94209
   9   6  -2 76.6672 59.2932   5 0.59134 0.05954 0.25159 0.24880 0.86057-0.94000
   9  -6  -2 -20.900 59.4134   8 0.62948 0.02103-0.19661-0.30312 0.85339-0.93306
  -8   6   2 31.0931 52.0083   7-0.69241 0.11971 0.11058 0.38967-0.82666 0.91961
   8  -6  -2 155.346 98.8261   4-0.06977 0.64452-0.31979-0.18071-0.94183 0.84745
  -8   6   2 188.874 119.605   6-0.34660-0.22730 0.53189-0.03248-0.82279 0.91600
  -8  -6   2 247.955 117.570   9 0.07420-0.64774-0.32578-0.17428 0.94046-0.84670
   8   6  -2 76.1938 108.170   2 0.49825 0.07596 0.36456 0.13629 0.86382-0.95768
   8   6  -2 157.019 87.7715   5 0.58985-0.01527 0.25062 0.24977 0.86174-0.95499
  -8  -6   2 123.326 59.7107   3-0.54307-0.03092-0.30984-0.19037-0.86583 0.95944
   8  -6  -2 76.0921 75.1682   8 0.63082-0.05664-0.19719-0.30260 0.85238-0.94587
  -7   6   2 674.704 157.062   7-0.70735 0.21105 0.11363 0.38652-0.81431 0.92108
   7  -6  -2 580.966 139.751   4-0.09916 0.59752-0.24930-0.25144-0.96529 0.85714
  -7   6   2 915.708 196.681   6-0.34254-0.15500 0.51290-0.01349-0.83632 0.94340
  -7  -6   2 656.325 160.468   9 0.10477-0.60197-0.25569-0.24434 0.96421-0.85664
   7   6  -2 262.702 164.921   2 0.49632 0.00167 0.36171 0.13917 0.86596-0.97361
   7   6  -2 691.304 143.138   5 0.59385-0.09561 0.25321 0.24719 0.85858-0.96567
  -7  -6   2 798.962 169.767   3-0.54353 0.04604-0.31030-0.18989-0.86542 0.97289
   7  -6  -2 773.452 174.901   8 0.63880-0.14094-0.20066-0.29920 0.84625-0.95356
  -6   6   2 219.848 82.1524   7-0.73293 0.31299 0.11892 0.38114-0.79157 0.91213
   6  -6  -2 260.796 101.014   4-0.12608 0.54801-0.18202-0.31892-0.98183 0.85987
  -6   6   2 199.201 91.2095   1 0.15311-0.57408 0.20816 0.29208 0.97773-0.85636
  -6   6   2 257.224 96.8453   6-0.33990-0.08126 0.50087-0.00144-0.84453 0.96547
  -6  -6   2 248.979 99.1620   9 0.13287-0.55373-0.18846-0.31152 0.98107-0.85969
   6   6  -2 75.1138 107.424   2 0.49828-0.07655 0.36460 0.13633 0.86379-0.98526
   6   6  -2 224.085 90.8319   5 0.60463-0.18273 0.26020 0.24021 0.84983-0.97076
  -6  -6   2 187.195 75.0692   3-0.54915 0.12816-0.31592-0.18424-0.86032 0.98163
   6  -6  -2 265.893 97.5503   8 0.65509-0.23358-0.20775-0.29216 0.83315-0.95430
   5  -6  -2 189.870 87.4898   4-0.15046 0.49594-0.11866-0.38246-0.99245 0.85665
  -5  -6   2 -33.234 58.8907   9 0.15844-0.50296-0.12482-0.37513 0.99198-0.85680
  -5   6   2 -19.827 44.7102   6-0.33888-0.00588 0.49631 0.00312-0.84757 0.98236
   5   6  -2 25.9045 72.2887   2 0.50479-0.15932 0.37417 0.12684 0.85642-0.99174
  -5  -6   2 21.3723 50.2479   3-0.56091 0.21641-0.32776-0.17234-0.84919 0.98432
   5   6  -2 77.1223 59.0324   5 0.62370-0.27817 0.27268 0.22776 0.83337-0.96815
   5  -6  -2 115.943 75.6757   8 0.68174-0.33657-0.21945-0.28053 0.80993-0.94493
  -5   6   2 139.117 61.8670   1 0.16831-0.51295 0.13249 0.36769 0.99108-0.85588
  -4   6   2 117.572 60.3871   1 0.18092-0.44922 0.06491 0.43522 0.99787-0.84884
   4  -6  -2 38.9477 45.6389   4-0.17226 0.44127-0.05993-0.44134-0.99815 0.84848
   4   6  -2 84.8972 64.1846   6-0.22592 0.49499 0.09478 0.40642-0.99444 0.84485
  -4  -6   2 112.202 73.0310   9 0.18139-0.44961-0.06547-0.43443 0.99787-0.84889
  -4   6   2 142.239 79.0481   6-0.33967 0.07131 0.49982-0.00039-0.84524 0.99387
   4   6  -2 126.178 95.6283   2 0.51645-0.24727 0.39152 0.10957 0.84244-0.99163
  -4  -6   2 57.3188 72.8159   3-0.57990 0.31184-0.34710-0.15294-0.82983 0.97876
   4   6  -2 144.601 90.4581   5 0.65276-0.38366 0.29194 0.20850 0.80567-0.95431
   4  -6  -2 -31.226 47.4158   8 0.72094-0.45215-0.23694-0.26312 0.77114-0.91999
   3   6  -2 158.638 56.6833   6-0.19699 0.38958 0.00971 0.49165-0.99983 0.83635
   3  -6  -2 197.959 96.6380   4-0.19140 0.38390-0.00658-0.49481-0.99992 0.83639
   3   6  -2 78.8553 77.1333   2 0.53381-0.34094 0.41787 0.08331 0.81958-0.98268
  -3  -6   2 213.509 85.2201   9 0.20167-0.39357-0.01119-0.48868 0.99972-0.83694
  -3   6   2 112.068 59.3600   6-0.34233 0.15038 0.51193-0.01252-0.83699 0.99944
  -3  -6   2 181.933 78.4988   3-0.60705 0.41543-0.37536-0.12463-0.79872 0.96143
  -3   6   2 159.324 77.8364   1 0.19116-0.38313 0.00601 0.49408 0.99993-0.83707
  -2   6   2 1876.53 235.132   1 0.19928-0.31492-0.04375 0.54381 0.99888-0.82221
   2   6  -2 1705.88 220.957   2 0.55708-0.44059 0.45436 0.04692 0.78445-0.96148
   2   6  -2 1895.78 207.454   6-0.17577 0.29187-0.04988 0.55133-0.99873 0.82137
  -2   6   2 2098.10 248.562   6-0.34686 0.23132 0.53313-0.03375-0.82187 0.99812
  -2  -6   2 1824.53 214.481   9 0.21918-0.33478 0.03723-0.53707 0.99854-0.82196
   2  -6  -2 2091.36 248.781   4-0.20781 0.32381 0.04061-0.54210-0.99881 0.82139
   1   6  -2 566.623 124.571   6-0.16121 0.20082-0.08956 0.59107-0.99577 0.80452
   1  -6  -2 620.596 135.662   4-0.22141 0.26090 0.08085-0.58239-0.99588 0.80458
  -1  -6   2 404.286 93.2893   9 0.23383-0.27314 0.07899-0.57878 0.99537-0.80500
  -1   6   2 620.776 139.829   1 0.20548-0.24480-0.08395 0.58398 0.99617-0.80567
  -1   6   2 611.208 140.733   6-0.35310 0.31395 0.56372-0.06437-0.79845 0.98848
   1  -6  -2 1.09018 76.1775   9-0.06798 0.10736-0.61352 0.11310 0.76157-0.95200
   0   6   2 1794.04 233.998   1 0.20994-0.17292-0.11420 0.61422 0.99302-0.78870
   0   6  -2 2180.42 249.292   6-0.15235 0.11546-0.11327 0.61481-0.99314 0.78803
   0  -6   2 1515.62 186.630   9 0.24553-0.20855 0.11318-0.61295 0.99128-0.78711
   0  -6  -2 2319.53 284.476   4-0.23211 0.19508 0.11325-0.61485-0.99217 0.78700
  -1  -6  -2 -16.155 61.8469   4-0.23977 0.12624 0.13691-0.63851-0.98870 0.76967
  -1  -6  -2 22.8547 92.0016   9-0.06438-0.04885-0.60700 0.10659 0.76748-0.98555
   1   6   2 151.607 78.8301   1 0.21277-0.09943-0.13414 0.63416 0.99042-0.77228
   2   6   2 -25.484 55.6669   1 0.21405-0.02437-0.14334 0.64335 0.98908-0.75711
  -2  -6  -2 -43.228 73.1252   4-0.24418 0.05416 0.15071-0.65230-0.98637 0.75350
   9  -7  -2 -23.797 83.6684   4-0.03088 0.68200-0.40854-0.17522-0.90261 0.82191
  -9   7   2 13.7524 54.1124   7-0.72269 0.07363 0.11680 0.46695-0.80093 0.87985
  -9   7   2 44.0274 82.0439   6-0.35152-0.29880 0.55579 0.02697-0.80471 0.88400
  -9  -7   2 37.8283 89.2633   9 0.03420-0.68406-0.41300-0.17045 0.90133-0.82138
   9   7  -2 58.9307 74.7805   5 0.61100 0.03993 0.26436 0.31942 0.84447-0.92395
   9  -7  -2 6.71468 68.1638   8 0.65557-0.00507-0.20796-0.37510 0.83275-0.91245
   8  -7  -2 24.5269 61.5148   4-0.05938 0.63412-0.34399-0.24000-0.93225 0.83783
  -8   7   2 61.4493 48.3357   7-0.73197 0.15934 0.11872 0.46493-0.79246 0.88522
  -8   7   2 -43.085 73.4913   6-0.34679-0.22717 0.53277 0.05002-0.82213 0.91530
  -8  -7   2 80.4742 75.2390   9 0.06377-0.63729-0.34900-0.23442 0.93112-0.83736
   8   7  -2 -40.768 71.4536   2 0.50700 0.06722 0.37742 0.20673 0.85386-0.94781
  -8  -7   2 124.474 118.159   3-0.55702-0.01695-0.32382-0.25986-0.85295 0.94652
   8   7  -2 -75.492 78.5125   5 0.61088-0.03626 0.26429 0.31952 0.84457-0.93787
   8  -7  -2 -61.880 88.8153   8 0.65877-0.08458-0.20935-0.37376 0.83008-0.92360
  -7   7   2 1865.30 283.453   6-0.34315-0.15442 0.51569 0.06712-0.83437 0.94141
  -7  -7   2 1690.99 271.761   9 0.09106-0.58823-0.28750-0.29587 0.95424-0.84667
   7   7  -2 837.628 245.438   2 0.50563-0.00764 0.37541 0.20878 0.85545-0.96319
   7   7  -2 1677.56 238.804   5 0.61610-0.11781 0.26769 0.31614 0.84008-0.94722
  -7  -7   2 1519.68 241.662   3-0.55825 0.06078-0.32507-0.25858-0.85177 0.95920
   7  -7  -2 1593.51 265.816   8 0.66849-0.17063-0.21362-0.36957 0.82177-0.92910
   7  -7  -2 1456.71 247.085   4-0.08559 0.58392-0.28221-0.30199-0.95515 0.84696
  -7   7   2 1276.65 201.418   7-0.74965 0.25340 0.12240 0.46115-0.77550 0.88209
   6  -7  -2 688.154 171.106   4-0.10949 0.53138-0.22378-0.36061-0.97222 0.85023
  -6   7   2 558.956 156.433   6-0.34079-0.08037 0.50494 0.07789-0.84178 0.96269
  -6  -7   2 622.794 173.299   9 0.11603-0.53688-0.22907-0.35427 0.97156-0.85018
   6   7  -2 235.729 141.507   2 0.50788-0.08613 0.37872 0.20553 0.85282-0.97438
  -6  -7   2 465.503 130.143   3-0.56430 0.14334-0.33119-0.25242-0.84587 0.96714
   6   7  -2 392.203 118.845   5 0.62774-0.20583 0.27534 0.30851 0.82971-0.95069
   6  -7  -2 703.283 191.524   8 0.68623-0.26473-0.22144-0.36181 0.80578-0.92695
   5  -7  -2 858.120 179.610   4-0.13106 0.47647-0.16928-0.41530-0.98435 0.84853
  -5   7   2 853.646 170.370   6-0.33991-0.00485 0.50095 0.08189-0.84447 0.97923
  -5  -7   2 929.669 183.745   9 0.13866-0.48317-0.17427-0.40902 0.98392-0.84873
   5   7  -2 366.311 174.495   2 0.51423-0.16873 0.38818 0.19615 0.84519-0.98058
  -5   7   2 810.770 173.224   1 0.15746-0.50212 0.18706 0.39651 0.98208-0.84690
  -5  -7   2 653.052 160.073   3-0.57599 0.23152-0.34310-0.24045-0.83396 0.96906
   5   7  -2 874.205 177.943   5 0.64711-0.30159 0.28817 0.29571 0.81132-0.94614
   5  -7  -2 542.282 145.182   8 0.71370-0.36855-0.23369-0.34963 0.77876-0.91378
   4  -7  -2 281.550 104.563   4-0.15022 0.41917-0.11930-0.46542-0.99237 0.84271
   4   7  -2 294.989 95.3536   6-0.25238 0.52152 0.17713 0.40743-0.98131 0.83166
   4   7  -2 98.4281 112.928   2 0.52518-0.25596 0.40469 0.17975 0.83126-0.98053
  -4  -7   2 207.386 77.9376   9 0.15885-0.42705-0.12374-0.45951 0.99212-0.84313
  -4   7   2 166.787 83.0895   6-0.34063 0.07228 0.50417 0.07865-0.84230 0.99090
  -4  -7   2 84.4269 76.2618   3-0.59417 0.32616-0.36186-0.22162-0.81401 0.96291
   4   7  -2 112.847 65.2288   5 0.67556-0.40648 0.30730 0.27659 0.78144-0.93009
  -4   7   2 78.4968 77.2105   1 0.16898-0.43729 0.12905 0.45447 0.99154-0.84254
   3   7  -2 3043.02 284.088   6-0.22759 0.42025 0.09988 0.48484-0.99385 0.83034
  -3   7   2 2842.70 301.969   6-0.34301 0.15108 0.51506 0.06775-0.83481 0.99723
  -3  -7   2 2866.61 299.751   9 0.17657-0.36847-0.07812-0.50510 0.99696-0.83416
  -3  -7   2 2602.78 285.993   3-0.61955 0.42798-0.38863-0.19478-0.78286 0.94554
  -3   7   2 2673.55 305.919   1 0.17843-0.37041 0.07865 0.50483 0.99688-0.83405
   3  -7  -2 2637.84 306.254   4-0.16693 0.35938-0.07448-0.51036-0.99711 0.83358
   2   7  -2 -56.704 55.1974   6-0.20860 0.32477 0.04332 0.54152-0.99868 0.82129
   2  -7  -2 -128.06 87.6672   4-0.18111 0.29705-0.03548-0.54946-0.99936 0.82197
   2   7  -2 -25.972 44.7836   2 0.56225-0.44570 0.46267 0.12200 0.77583-0.95294
  -2  -7   2 30.4661 41.9221   9 0.19172-0.30732-0.03806-0.54511 0.99923-0.82264
  -2   7   2 82.4104 86.0704   1 0.18598-0.30163 0.03629 0.54716 0.99932-0.82266
  -2   7   2 -56.345 64.7274   6-0.34705 0.23154 0.53399 0.04879-0.82124 0.99746
  -1   7   2 3311.47 329.203   1 0.19177-0.23110 0.00236 0.58107 0.99994-0.80946
   1   7  -2 3168.48 307.864   6-0.19486 0.23453 0.00366 0.58125-0.99990 0.80864
  -1   7   2 3689.05 354.350   6-0.35261 0.31352 0.56124 0.02150-0.80043 0.99042
  -1  -7   2 3104.40 294.798   9 0.20419-0.24350-0.00430-0.57884 0.99972-0.80932
   1  -7  -2 3343.13 334.491   4-0.19266 0.23210-0.00300-0.58200-0.99993 0.80867
   0   7   2 50.8534 70.5195   1 0.19592-0.15891-0.02278 0.60620 0.99963-0.79533
   0   7  -2 53.1932 63.0150   6-0.18582 0.14898-0.02193 0.60689-0.99974 0.79461
   0  -7  -2 -45.856 65.0932   4-0.20146 0.16439 0.02218-0.60721-0.99955 0.79443
   0  -7   2 20.8101 62.3648   9 0.21387-0.17689 0.02239-0.60549 0.99919-0.79499
   0   7   2 6.94173 34.6790   6-0.35939 0.39671 0.59684-0.01414-0.77077 0.97452
   0  -7  -2 98.0214 78.0124   9-0.05991 0.02299-0.59885 0.01509 0.77470-0.97892
   1   7   2 527.432 144.607   1 0.19849-0.08515-0.03874 0.62213 0.99910-0.78098
  -1  -7  -2 369.931 144.441   4-0.20733 0.09375 0.03918-0.62423-0.99888 0.77991
   1  -7   2 399.923 99.7834   9 0.22056-0.10730 0.04112-0.62420 0.99833-0.78033
  -1  -7  -2 6.28699 97.2032   9-0.06070-0.05253-0.60029 0.01653 0.77344-0.99148
   8  -8  -2 352.235 160.730   4-0.04729 0.62199-0.37172-0.29575-0.92027 0.82579
  -8   8   2 144.528 107.188   6-0.34847-0.22551 0.54084 0.12535-0.81615 0.90926
  -8  -8   2 -28.177 86.5360   9 0.05149-0.62499-0.37590-0.29087 0.91934-0.82559
   8   8  -2 199.691 101.938   5 0.63536-0.06070 0.28037 0.38686 0.82266-0.91601
   8  -8  -2 234.269 138.297   8 0.69065-0.11647-0.22340-0.44305 0.80162-0.89517
   6  -8  -2 672.381 187.418   4-0.09237 0.51420-0.26584-0.40202-0.96037 0.83834
   6   8  -2 483.873 205.040   2 0.52000-0.09822 0.39684 0.27074 0.83798-0.95965
  -6   8   2 678.211 181.491   6-0.34319-0.07798 0.51591 0.15034-0.83422 0.95507
  -6  -8   2 779.323 193.140   9 0.09856-0.51939-0.27017-0.39651 0.95983-0.83845
  -6  -8   2 513.969 158.525   3-0.58242 0.16149-0.34970-0.31736-0.82711 0.94833
   6   8  -2 683.914 188.769   5 0.65436-0.23244 0.29301 0.37429 0.80405-0.92506
   6  -8  -2 123.766 117.088   8 0.72130-0.29979-0.23710-0.42949 0.77075-0.89196
   5  -8  -2 47.5064 82.3207   4-0.11163 0.45699-0.21847-0.44955-0.97356 0.83772
  -5   8   2 131.761 92.7143   1 0.14653-0.49118 0.23916 0.42779 0.97046-0.83532
   5   8  -2 24.9146 96.2303   2 0.52630-0.18076 0.40638 0.26131 0.82979-0.96531
  -5   8   2 -19.009 59.2251   6-0.34245-0.00230 0.51251 0.15374-0.83659 0.97130
  -5  -8   2 -12.978 65.3163   9 0.11877-0.46327-0.22253-0.44410 0.97323-0.83804
  -5  -8   2 -38.635 48.1524   3-0.59414 0.24970-0.36182-0.30516-0.81405 0.94909
   5   8  -2 39.8354 59.2727   5 0.67409-0.32857 0.30630 0.36103 0.78308-0.91793
  -4   8   2 3362.00 357.284   6-0.34314 0.07480 0.51564 0.15062-0.83441 0.98296
  -4  -8   2 2493.90 314.492   3-0.61169 0.34372-0.38026-0.28665-0.79296 0.94180
  -4  -8   2 2920.73 335.106   9 0.13670-0.40489-0.17908-0.48751 0.98298-0.83399
  -4   8   2 3535.96 378.763   1 0.15713-0.42546 0.18868 0.47823 0.98176-0.83279
   4  -8  -2 2575.62 325.883   4-0.12863 0.39750-0.17550-0.49266-0.98315 0.83347
   3  -8  -2 -100.45 94.2977   4-0.14332 0.33569-0.13748-0.53079-0.98979 0.82627
   3   8  -2 19.1084 67.2231   6-0.25268 0.44540 0.17809 0.48999-0.98111 0.81752
   3   8  -2 -84.307 81.5322   2 0.55153-0.35858 0.44551 0.22242 0.79336-0.95664
  -3  -8   2 60.3578 93.5554   9 0.15228-0.34417-0.14036-0.52619 0.98976-0.82696
  -3   8   2 34.9753 48.9344   6-0.34528 0.15339 0.52564 0.14058-0.82731 0.98968
  -3   8   2 108.560 102.670   1 0.16587-0.35788 0.14501 0.52185 0.98930-0.82650
  -2   8   2 872.487 192.152   1 0.17288-0.28855 0.10856 0.55828 0.99403-0.81741
   2  -8  -2 943.165 182.164   4-0.15560 0.27148-0.10499-0.56336-0.99413 0.81675
   2   8  -2 697.634 152.847   6-0.23573 0.35197 0.12478 0.54342-0.99057 0.81312
  -2  -8   2 655.166 155.778   9 0.16542-0.28101-0.10698-0.55954 0.99418-0.81757
  -2   8   2 783.902 169.652   6-0.34888 0.23343 0.54285 0.12335-0.81464 0.99082
  -1   8   2 470.458 129.244   1 0.17825-0.21759 0.07965 0.58716 0.99680-0.80635
   1  -8  -2 615.290 155.951   4-0.16539 0.20477-0.07867-0.58974-0.99676 0.80553
   1   8  -2 635.122 164.464   6-0.22300 0.26273 0.08599 0.58229-0.99537 0.80407
  -1  -8   2 426.834 124.832   9 0.17602-0.21532-0.07956-0.58692 0.99684-0.80643
  -1   8   2 451.495 138.797   6-0.35383 0.31480 0.56747 0.09869-0.79545 0.98540
   1  -8  -2 -24.542 60.3952   9-0.06460 0.10396-0.60739-0.05971 0.76712-0.95751
   0   8  -2 3007.02 344.142   6-0.21415 0.17738 0.05963 0.60871-0.99766 0.79249
   0   8   2 3301.16 298.321   2 0.26879-0.23218 0.06040 0.60549 0.99408-0.79086
   0  -8   2 2422.42 286.783   9 0.18391-0.14693-0.05883-0.60761 0.99828-0.79407
   0   8   2 575.852 160.460   6-0.35988 0.39727 0.59955 0.06655-0.76839 0.97210
   0  -8  -2 79.5607 119.148   9-0.06134 0.02442-0.60147-0.06563 0.77240-0.97659
   0   8   2 3064.35 353.777   1 0.18204-0.14505 0.05865 0.60815 0.99826-0.79398
   0  -8  -2 3138.57 379.935   4-0.17252 0.13540-0.05921-0.60923-0.99819 0.79311
  -1  -8  -2 125.278 85.9150   4-0.17680 0.06319-0.04742-0.62103-0.99885 0.77992
   1   8   2 -52.872 80.0708   1 0.18428-0.07097 0.04595 0.62084 0.99893-0.78082
   1  -8   2 63.5493 71.1205   9 0.18890-0.07564-0.04560-0.62081 0.99894-0.78093
  -1  -8  -2 -1.8803 101.818   9-0.06199-0.05123-0.60265-0.06445 0.77136-0.98938
   1   8   2 -73.913 73.9416   2 0.25149-0.13868 0.03935 0.62638 0.99661-0.77968
  -2  -8  -2 270.254 178.125   4-0.17794-0.01214-0.04426-0.62417-0.99900 0.76623
   2   8   2 96.5346 98.0543   1 0.18498 0.00467 0.04198 0.62480 0.99910-0.76717
  -2  -8  -2 195.869 147.876   9-0.06601-0.12351-0.60996-0.05715 0.76481-0.99666
   7   9  -2 314.232 160.717   5 0.67021-0.17188 0.30367 0.44704 0.78735-0.89458
   6  -9  -2 168.786 88.9784   4-0.07473 0.49649-0.30811-0.44320-0.94617 0.82409
   6   9  -2 42.0564 97.9587   2 0.53395-0.11214 0.41808 0.33284 0.81939-0.94120
  -6   9   2 261.893 159.953   6-0.34662-0.07456 0.53198 0.21768-0.82271 0.94350
  -6  -9   2 201.118 127.616   9 0.08046-0.50128-0.31167-0.43836 0.94577-0.82439
  -6  -9   2 295.516 122.781   3-0.60273 0.18185-0.37081-0.37970-0.80396 0.92510
   6   9  -2 -23.306 44.8402   5 0.68360-0.26167 0.31278 0.43798 0.77230-0.89335
   5  -9  -2 52.6079 120.716   4-0.09205 0.43734-0.26663-0.48484-0.96012 0.82424
   5   9  -2 111.998 158.815   2 0.54022-0.19466 0.42778 0.32325 0.81046-0.94610
  -5   9   2 34.8118 98.1862   6-0.34602 0.00128 0.52916 0.22052-0.82477 0.95941
  -5  -9   2 -150.88 113.379   9 0.09866-0.44315-0.26994-0.48004 0.95990-0.82472
  -5  -9   2 91.9797 107.280   3-0.61449 0.27009-0.38324-0.36720-0.78941 0.92436
   4  -9  -2 928.990 201.152   4-0.10723 0.37603-0.22940-0.52219-0.97076 0.82105
   4   9  -2 813.222 262.214   2 0.55019-0.28089 0.44338 0.30777 0.79546-0.94498
  -4  -9   2 1011.58 209.905   9 0.11468-0.38286-0.23229-0.51765 0.97072-0.82172
  -4   9   2 1092.08 233.877   6-0.34669 0.07838 0.53228 0.21739-0.82249 0.97097
   3  -9  -2 180.237 120.122   4-0.12021 0.31251-0.19693-0.55476-0.97864 0.81510
   3   9  -2 25.5009 64.0663   2 0.56401-0.37103 0.46552 0.28578 0.77282-0.93623
   3   9  -2 278.237 158.923   6-0.27401 0.46681 0.24836 0.50306-0.96344 0.79975
  -3   9   2 93.7982 84.0417   1 0.15336-0.34538 0.20692 0.54334 0.97800-0.81523
  -3  -9   2 73.7791 72.1297   9 0.12845-0.32033-0.19922-0.55068 0.97875-0.81594
  -3   9   2 57.1986 62.5693   6-0.34864 0.15677 0.54164 0.20802-0.81555 0.97785
   2  -9  -2 226.715 136.111   4-0.13088 0.24668-0.16973-0.58203-0.98426 0.80687
   2   9  -2 263.258 123.947   6-0.25889 0.37519 0.19815 0.55341-0.97668 0.79915
  -2  -9   2 253.310 104.581   9 0.13988-0.25546-0.17126-0.57861 0.98449-0.80788
  -2   9   2 234.876 123.772   6-0.35186 0.23643 0.55749 0.19214-0.80338 0.97948
  -2   9   2 207.349 121.638   1 0.15986-0.27555 0.17526 0.57497 0.98430-0.80770
   1  -9  -2 473.431 165.287   4-0.13913 0.17845-0.14839-0.60342-0.98806 0.79683
   1   9  -2 351.842 154.459   6-0.24719 0.28699 0.16059 0.59107-0.98458 0.79320
  -1  -9   2 355.814 136.018   9 0.14885-0.18814-0.14899-0.60084 0.98840-0.79799
  -1   9   2 403.298 133.738   6-0.35625 0.31727 0.57999 0.16958-0.78517 0.97505
  -1   9   2 518.827 170.764   1 0.16481-0.20417 0.15046 0.59975 0.98847-0.79805
   0  -9  -2 127.571 141.875   4-0.14483 0.10764-0.13352-0.61832-0.99039 0.78531
   0   9  -2 142.413 125.450   6-0.23873 0.20203 0.13407 0.61765-0.98916 0.78392
   0  -9   2 -2.4642 74.0557   9 0.15518-0.11820-0.13305-0.61674 0.99084-0.78662
   0   9   2 -10.589 77.3985   6-0.36161 0.39906 0.60921 0.14031-0.75976 0.96339
   0  -9  -2 38.7661 119.452   9-0.06662 0.02969-0.61106-0.13937 0.76381-0.96800
   0   9   2 126.704 125.068   1 0.16824-0.13127 0.13286 0.61733 0.99103-0.78679
   1   9   2 134.339 108.377   1 0.17017-0.05687 0.12283 0.62735 0.99235-0.77427
  -1  -9  -2 153.952 176.180   4-0.14773 0.03406-0.12588-0.62595-0.99148 0.77256
   1   9   2 -20.185 74.2051   2 0.30973-0.19680 0.11108 0.63811 0.98477-0.76787
  -1  -9  -2 8.60880 91.9400   9-0.06698-0.04623-0.61172-0.13872 0.76321-0.98122
   2   9   2 63.1498 107.872   1 0.17056 0.01908 0.12078 0.62940 0.99260-0.76070
  -2  -9  -2 -62.376 147.572   4-0.14755-0.04259-0.12636-0.62545-0.99141 0.75866
   2   9   2 64.5778 71.8836   2 0.29798-0.10887 0.09641 0.65262 0.98794-0.75731
  -2  -9  -2 -83.302 176.886   9-0.07048-0.11903-0.61802-0.13242 0.75743-0.98927
   4  10  -2 51.7855 115.751   2 0.56496-0.29563 0.46705 0.36746 0.77119-0.92087
   3 -10  -2 13.2392 74.0152   4-0.09734 0.28956-0.25375-0.58135-0.96400 0.80042
  -3  10   2 -58.985 72.0704   6-0.35269 0.16086 0.56167 0.27142-0.80009 0.96229
   2 -10  -2 741.812 219.373   4-0.10661 0.22234-0.23094-0.60423-0.97036 0.79294
  -2  10   2 759.351 228.287   1 0.14680-0.26251 0.23788 0.59574 0.97078-0.79422
   2  10  -2 483.319 161.041   6-0.27911 0.39548 0.26578 0.56913-0.95811 0.78047
  -2 -10   2 930.265 219.124   9 0.11476-0.23035-0.23210-0.60111 0.97077-0.79416
  -2  10   2 1040.18 248.358   6-0.35556 0.24019 0.57642 0.25664-0.78814 0.96414
   1 -10  -2 129.245 152.199   4-0.11354 0.15278-0.21368-0.62153-0.97474 0.78348
   1  10  -2 127.139 123.005   6-0.26842 0.30828 0.22954 0.60548-0.96876 0.77728
  -1  10   2 133.438 96.8429   1 0.15136-0.19073 0.21649 0.61711 0.97588-0.78550
  -1 -10   2 37.6651 73.1308   9 0.12230-0.16161-0.21406-0.61911 0.97531-0.78489
  -1  10   2 0.26366 71.7334   6-0.35945 0.32052 0.59719 0.23582-0.77046 0.96024
   0 -10  -2 -151.45 122.933   4-0.11797 0.08071-0.20258-0.63265-0.97737 0.77227
   0  10   2 316.990 120.424   1 0.15445-0.11749 0.20172 0.63186 0.97911-0.77490
  -1 -10  -2 -130.03 135.107   4-0.11966 0.00592-0.19830-0.63690-0.97834 0.75941
   1  10   2 58.5588 125.998   1 0.15605-0.04277 0.19392 0.63967 0.98072-0.76268
  12   0  -3 276.258 159.515   8 0.71432 0.14710-0.23396 0.23407 0.77812-0.91853
 -11   0   3 82.3562 79.7110   7-0.71436-0.06884 0.11508-0.11567-0.80828 0.96206
  11   0  -3 -45.680 78.1647   8 0.70711 0.07798-0.23073 0.23083 0.78551-0.93974
 -10   0   3 -74.433 78.3434   7-0.71209 0.00532 0.11461-0.11517-0.81025 0.97789
  10   0  -3 -182.18 106.112   8 0.70426 0.00449-0.22946 0.22955 0.78837-0.95643
  -9   0   3 -41.946 60.7592   7-0.71558 0.08521 0.11533-0.11586-0.80722 0.98870
   9   0  -3 44.5029 65.9066   8 0.70685-0.07444-0.23062 0.23069 0.78577-0.96767
  -7   0   3 103.986 71.7622   7-0.74571 0.26809 0.12158-0.12204-0.77938 0.98842
   7   0  -3 -165.88 82.9752   8 0.73362-0.25393-0.24267 0.24274 0.75723-0.96684
  12   1  -3 6.84426 59.1135   5 0.68599 0.17535 0.31441-0.23055 0.76951-0.90946
  12   1  -3 -79.340 134.668   8 0.73333 0.12815-0.24254 0.32597 0.75755-0.89802
 -11   1   3 126.853 102.446   7-0.70887-0.07434 0.11395-0.03108-0.81301 0.96679
 -11  -1   3 218.365 109.043   7-0.72632-0.05686 0.11755-0.20158-0.79765 0.95139
  11   1  -3 -13.454 74.1232   5 0.67758 0.10752 0.30867-0.22488 0.77917-0.93287
  11  -1  -3 18.7009 84.5904   8 0.69371 0.09133-0.22476 0.14155 0.79870-0.95289
  11   1  -3 -181.33 110.952   8 0.72731 0.05783-0.23982 0.32324 0.76424-0.91853
 -10   1   3 185.421 101.845   7-0.70623-0.00054 0.11340-0.03052-0.81526 0.98290
 -10  -1   3 58.1397 46.5145   7-0.72494 0.01817 0.11726-0.20125-0.79890 0.96651
  10   1  -3 -1.7076 59.8133   5 0.67301 0.03583 0.30557-0.22184 0.78427-0.95175
  10  -1  -3 86.4600 65.7650   8 0.68999 0.01872-0.22311 0.13989 0.80225-0.97025
  10   1  -3 45.7987 60.0666   8 0.72589-0.01709-0.23918 0.32259 0.76579-0.93390
  -9   1   3 322.788 115.669   7-0.70921 0.07885 0.11402-0.03112-0.81273 0.99420
  -9  -1   3 202.808 88.3038   7-0.72946 0.09911 0.11820-0.20214-0.79478 0.97621
   9   1  -3 255.121 120.913   5 0.67318-0.04061 0.30568-0.22202 0.78408-0.96537
   9  -1  -3 212.995 122.493   8 0.69146-0.05910-0.22376 0.14052 0.80085-0.98270
   9   1  -3 -140.05 85.0339   8 0.73017-0.09771-0.24111 0.32453 0.76108-0.94303
   8   1  -3 1230.59 205.128   5 0.67914-0.12287 0.30973-0.22613 0.77741-0.97253
   8  -1  -3 2709.62 315.600   8 0.69934-0.14331-0.22727 0.14400 0.79324-0.98894
  -8   1   3 2162.34 252.441   7-0.71918 0.16522 0.11607-0.03316-0.80405 0.99933
  -8  -1   3 2082.07 244.231   7-0.74134 0.18736 0.12066-0.20455-0.78362 0.97886
  -7   1   3 68.1596 55.1406   7-0.73781 0.26021 0.11993-0.03701-0.78698 0.99603
  -7  -1   3 24.6216 31.1862   7-0.76223 0.28458 0.12503-0.20886-0.76274 0.97175
   7  -1  -3 18.6966 30.3109   4-0.23960 0.71981 0.13638-0.22013-0.98878 0.77792
  -7  -1   3 110.327 56.0858   9 0.24514-0.72396 0.11201-0.19520 0.99144-0.78181
   7  -1  -3 114.369 75.9564   8 0.71507-0.23541-0.23430 0.15102 0.77733-0.98689
 -11   2   3 141.004 94.6320   7-0.70966-0.07355 0.11411 0.05224-0.81234 0.96610
 -11  -2   3 39.8118 57.7521   7-0.74484-0.03831 0.12139-0.28885-0.78023 0.93391
  11   2  -3 264.861 131.918   5 0.66570 0.11942 0.30064-0.13355 0.79221-0.94587
  11  -2  -3 515.799 182.050   8 0.68679 0.09820-0.22169 0.05517 0.80526-0.95941
 -10   2   3 338.994 129.006   7-0.70711 0.00035 0.11358 0.05276-0.81451 0.98213
 -10  -2   3 262.376 95.3406   7-0.74483 0.03810 0.12139-0.28879-0.78024 0.94778
 -10  -2   3 173.083 58.9243   3-0.62835-0.07973-0.39809 0.23191-0.77104 0.93891
  10   2  -3 502.303 152.587   5 0.66052 0.04834 0.29714-0.13011 0.79769-0.96514
  10  -2  -3 350.710 154.885   8 0.68270 0.02596-0.21988 0.05334 0.80905-0.97703
  -9   2   3 794.245 165.468   7-0.71010 0.07977 0.11420 0.05214-0.81196 0.99341
  -9  -2   3 464.529 125.444   7-0.75093 0.12058 0.12266-0.28999-0.77424 0.95561
  -9  -2   3 543.815 140.690   3-0.62589-0.00574-0.39543 0.22924-0.77441 0.95614
   9   2  -3 908.612 185.868   5 0.65982-0.02724 0.29667-0.12970 0.79842-0.97968
   9  -2  -3 863.381 202.035   8 0.68360-0.05126-0.22027 0.05371 0.80822-0.99004
  -8   2   3 929.088 172.785   7-0.71995 0.16601 0.11623 0.05009-0.80337 0.99862
  -8  -2   3 48.7435 38.1556   7-0.76455 0.21055 0.12552-0.29277-0.76032 0.95550
  -8  -2   3 501.113 125.667   3-0.62793 0.07275-0.39764 0.23143-0.77161 0.96719
   8   2  -3 1114.26 195.503   5 0.66460-0.10832 0.29989-0.13296 0.79339-0.98847
   8  -2  -3 1139.35 217.968   8 0.69063-0.13465-0.22339 0.05680 0.80164-0.99730
  -7   2   3 43.0225 37.5097   7-0.73827 0.26069 0.12002 0.04629-0.78655 0.99557
   7  -2  -3 -9.3945 40.1720   4-0.22084 0.70105 0.07914-0.24640-0.99604 0.78520
  -7  -2   3 8.70223 48.0574   9 0.22741-0.70622 0.06056-0.22709 0.99701-0.78738
   7   2  -3 160.131 67.2231   5 0.67602-0.19605 0.30761-0.14073 0.78093-0.98986
  -7   2   3 60.5883 39.4867   1 0.20964-0.68834-0.11214 0.27876 0.99326-0.78338
   7  -2  -3 104.914 55.2337   8 0.70519-0.22556-0.22987 0.06325 0.78745-0.99697
  -6   2   3 -1.7317 14.9347   7-0.76675 0.36548 0.12598 0.04033-0.75799 0.98076
   6  -2  -3 -44.783 49.8678   8 0.72874-0.32550-0.24047 0.07381 0.76266-0.98605
 -11   3   3 1151.99 233.316   7-0.71641-0.06677 0.11550 0.13432-0.80650 0.96019
 -11  -3   3 876.456 209.615   3-0.62387-0.16071-0.39326 0.14368-0.77713 0.93117
  11   3  -3 1600.11 297.787   5 0.65994 0.12522 0.29675-0.04637 0.79830-0.95194
  11  -3  -3 1605.96 303.520   8 0.68588 0.09908-0.22129-0.02853 0.80610-0.96025
 -10   3   3 89.7521 72.6364   7-0.71440 0.00766 0.11509 0.13472-0.80825 0.97581
 -10  -3   3 91.0395 99.1587   3-0.61737-0.09075-0.38630 0.13671-0.78571 0.95364
  10   3  -3 202.334 117.264   5 0.65460 0.05430 0.29317-0.04283 0.80381-0.97125
  10  -3  -3 262.541 141.211   8 0.68186 0.02677-0.21951-0.03034 0.80982-0.97779
  -9   3   3 256.610 110.641   7-0.71787 0.08756 0.11580 0.13398-0.80521 0.98660
  -9  -3   3 381.949 123.845   3-0.61439-0.01725-0.38313 0.13352-0.78954 0.97134
   9   3  -3 570.349 153.591   5 0.65353-0.02092 0.29246-0.04216 0.80489-0.98614
   9  -3  -3 578.871 183.408   8 0.68266-0.05036-0.21986-0.03002 0.80908-0.99087
  -8   3   3 300.110 113.589   7-0.72810 0.17418 0.11792 0.13184-0.79602 0.99122
   8  -3  -3 266.563 94.5498   4-0.15982 0.71637-0.09372-0.15682-0.99535 0.79845
  -8  -3   3 255.201 90.2033   9 0.16512-0.72024-0.10776-0.14213 0.99409-0.79822
  -8  -3   3 236.103 97.9777   3-0.61565 0.06047-0.38447 0.13486-0.78792 0.98357
   8   3  -3 249.241 94.8425   5 0.65767-0.10136 0.29523-0.04497 0.80065-0.99574
   8  -3  -3 302.328 125.843   8 0.68938-0.13342-0.22284-0.02708 0.80282-0.99846
  -7   3   3 806.129 150.143   7-0.74657 0.26901 0.12175 0.12797-0.77854 0.98750
  -7  -3   3 992.280 160.075   9 0.20991-0.68869 0.01140-0.26128 0.99950-0.78986
  -7  -3   3 920.986 171.192   3-0.62191 0.14317-0.39116 0.14155-0.77974 0.98921
   7   3  -3 1181.40 203.223   5 0.66806-0.18808 0.30223-0.05200 0.78967-0.99861
   7  -3  -3 998.273 199.023   8 0.70329-0.22369-0.22903-0.02093 0.78934-0.99883
   7  -3  -3 1190.57 185.412   4-0.20278 0.68296 0.02600-0.27676-0.99943 0.78861
 -11  -4   3 654.001 197.863   3-0.61858-0.16605-0.38759 0.05457-0.78414 0.93821
  -9   4   3 14.8786 61.4112   7-0.73203 0.10175 0.11874 0.21449-0.79241 0.97371
   9   4  -3 -17.767 79.7921   2 0.56106 0.07144 0.46074-0.12608 0.77785-0.96009
  -9  -4   3 13.5624 85.8960   3-0.60904-0.02262-0.37745 0.04442-0.79628 0.97812
   9   4  -3 86.4844 82.4620   5 0.65351-0.02085 0.29244 0.04120 0.80492-0.98619
   9  -4  -3 26.1439 126.334   8 0.68800-0.05573-0.22223-0.11097 0.80412-0.98591
  -8   4   3 179.640 84.8544   7-0.74302 0.18913 0.12101 0.21216-0.78200 0.97710
   8  -4  -3 303.404 103.316   4-0.14802 0.70457-0.12512-0.20890-0.99159 0.79467
   8   4  -3 99.4090 85.2838   2 0.55953-0.00330 0.45827-0.12361 0.78042-0.97647
  -8  -4   3 201.015 92.1274   9 0.15381-0.70892-0.13648-0.19676 0.99034-0.79447
  -8  -4   3 284.358 113.085   3-0.60992 0.05472-0.37839 0.04535-0.79518 0.99087
   8   4  -3 408.518 155.192   5 0.65743-0.10110 0.29507 0.03855 0.80090-0.99600
   8  -4  -3 192.978 121.693   8 0.69484-0.13891-0.22527-0.10798 0.79762-0.99325
  -7   4   3 49.4826 50.4098   7-0.76204 0.28452 0.12499 0.20813-0.76294 0.97181
   7  -4  -3 214.625 60.2514   4-0.18497 0.66513-0.02470-0.30956-0.99968 0.78888
   7   4  -3 192.570 85.6301   2 0.56152-0.08160 0.46149-0.12682 0.77707-0.98695
  -7  -4   3 296.116 96.0813   9 0.19234-0.67109-0.03641-0.29681 0.99928-0.78963
  -7  -4   3 313.277 111.722   3-0.61548 0.13675-0.38429 0.05127-0.78815 0.99767
  -7   4   3 363.651 99.1720   1 0.18747-0.66620 0.02766 0.30572 0.99959-0.78975
   7   4  -3 131.870 95.7975   5 0.66727-0.18728 0.30170 0.03190 0.79052-0.99948
   7  -4  -3 276.325 98.8089   8 0.70856-0.22897-0.23138-0.10190 0.78404-0.99352
   6  -4  -3 96.0823 88.0642   4-0.21796 0.62167 0.07055-0.40499-0.99680 0.77210
  -6  -4   3 -51.539 54.0061   9 0.22689-0.62931 0.05906-0.39226 0.99713-0.77371
  -6  -4   3 30.8512 53.6776   3-0.62642 0.22413-0.39600 0.06299-0.77369 0.99702
  -6   4   3 47.1611 43.6606   1 0.20599-0.60836-0.08732 0.42064 0.99586-0.77222
   6   4  -3 165.965 96.8223   5 0.68406-0.28042 0.31309 0.02048 0.77176-0.99459
   6  -4  -3 26.4367 52.6859   8 0.73042-0.32721-0.24123-0.09211 0.76080-0.98415
 -10   5   3 -47.876 54.9691   7-0.74646 0.03979 0.12173 0.29499-0.77865 0.94600
  10   5  -3 52.1008 140.449   2 0.56174 0.14697 0.46183-0.04383 0.77671-0.94518
 -10  -5   3 87.2829 103.740   3-0.61182-0.09634-0.38039-0.03608-0.79280 0.96079
  10   5  -3 1.83084 64.4068   5 0.65957 0.04940 0.29650 0.12051 0.79868-0.96615
  10  -5  -3 159.240 113.544   8 0.69718 0.01141-0.22631-0.19017 0.79535-0.96332
  -9   5   3 17.1848 60.6217   7-0.75197 0.12173 0.12288 0.29377-0.77320 0.95438
   9   5  -3 36.8469 119.628   2 0.55728 0.07518 0.45467-0.03666 0.78413-0.96637
  -9  -5   3 -25.255 53.5714   3-0.60889-0.02279-0.37730-0.03918-0.79646 0.97832
   9   5  -3 307.343 149.064   5 0.65891-0.02622 0.29605 0.12094 0.79937-0.98067
   9  -5  -3 143.328 103.666   8 0.69892-0.06667-0.22708-0.18943 0.79366-0.97544
  -8   5   3 23.9603 33.5638   7-0.76403 0.21017 0.12541 0.29118-0.76086 0.95585
   8  -5  -3 -62.791 84.7279   4-0.13476 0.69130-0.15974-0.25776-0.98611 0.78918
   8   5  -3 72.8186 118.920   2 0.55568 0.00051 0.45211-0.03410 0.78673-0.98278
  -8  -5   3 56.4856 64.2216   9 0.14077-0.69584-0.16906-0.24754 0.98491-0.78904
  -8  -5   3 82.0148 45.0551   3-0.60971 0.05451-0.37817-0.03831-0.79544 0.99115
   8   5  -3 2.83000 49.8838   5 0.66297-0.10661 0.29879 0.11820 0.79512-0.99026
   8  -5  -3 59.6162 90.6584   8 0.70621-0.15028-0.23033-0.18623 0.78642-0.98205
  -7   5   3 -7.8158 35.9836   1 0.17704-0.65577 0.08625 0.33050 0.99624-0.78644
   7  -5  -3 113.404 82.7905   4-0.16716 0.64729-0.07384-0.34389-0.99716 0.78637
   7   5  -3 21.3853 98.8068   2 0.55737-0.07746 0.45482-0.03678 0.78397-0.99385
  -7  -5   3 11.9302 56.1066   9 0.17456-0.65329-0.08338-0.33319 0.99652-0.78688
  -7  -5   3 148.002 89.3610   3-0.61490 0.13617-0.38367-0.03278-0.78889 0.99844
   7   5  -3 180.314 106.891   5 0.67262-0.19260 0.30531 0.11168 0.78470-0.99369
   7  -5  -3 44.4707 63.5062   8 0.72007-0.24051-0.23655-0.18007 0.77207-0.98154
   6   5  -3 35.9879 50.6213   2 0.56276-0.15915 0.46349-0.04542 0.77496-0.99871
   6  -5  -3 187.735 177.751   4-0.19632 0.59998 0.00741-0.42533-0.99986 0.77518
  -6  -5   3 19.1202 53.2628   9 0.20507-0.60748-0.00190-0.41465 0.99970-0.77627
  -6  -5   3 182.493 93.8382   3-0.62508 0.22281-0.39456-0.02187-0.77550 0.99886
   6   5  -3 80.0326 74.0436   5 0.68877-0.28513 0.31631 0.10065 0.76625-0.98910
  -6   5   3 82.5929 42.7570   1 0.19398-0.59637-0.01094 0.42765 0.99986-0.77623
   9   6  -3 265.599 170.235   2 0.55749 0.07492 0.45500 0.04632 0.78379-0.96606
  -9  -6   3 285.062 131.592   9 0.09345-0.72484-0.28201-0.21797 0.95605-0.77398
  -9  -6   3 726.558 199.102   3-0.61309-0.01859-0.38175-0.11819-0.79119 0.97305
   9   6  -3 766.999 200.244   5 0.66897-0.03626 0.30284 0.19754 0.78869-0.97003
   9  -6  -3 210.094 100.317   8 0.71472-0.08248-0.23414-0.26569 0.77770-0.95950
   8  -6  -3 372.399 147.928   4-0.12038 0.67688-0.19650-0.30448-0.97874 0.78179
   8   6  -3 126.427 117.915   2 0.55602 0.00015 0.45264 0.04871 0.78619-0.98227
  -8  -6   3 355.107 120.586   9 0.12639-0.68143-0.20420-0.29575 0.97762-0.78177
  -8  -6   3 638.987 174.816   3-0.61407 0.05888-0.38279-0.11714-0.78995 0.98566
   8   6  -3 611.454 171.952   5 0.67340-0.11701 0.30584 0.19454 0.78384-0.97902
   8  -6  -3 94.1047 84.6476   8 0.72267-0.16677-0.23773-0.26216 0.76928-0.96492
   7  -6  -3 279.280 130.831   4-0.14922 0.62930-0.12195-0.37925-0.99202 0.78123
   7   6  -3 245.629 168.502   2 0.55760-0.07770 0.45518 0.04621 0.78361-0.99351
  -7  -6   3 295.568 119.189   9 0.15648-0.63519-0.12976-0.37015 0.99130-0.78165
  -7  -6   3 488.028 152.956   3-0.61913 0.14042-0.38818-0.11172-0.78341 0.99296
   7   6  -3 240.253 114.808   5 0.68311-0.20308 0.31244 0.18794 0.77286-0.98190
  -7   6   3 206.014 97.5975   1 0.16664-0.64538 0.14112 0.35902 0.98987-0.78009
   7  -6  -3 -212.39 110.812   8 0.73691-0.25735-0.24417-0.25577 0.75350-0.96299
   6  -6  -3 -26.393 70.8443   4-0.17524 0.57886-0.05173-0.44966-0.99863 0.77398
   6   6  -3 -55.184 66.1136   2 0.56258-0.15897 0.46320 0.03823 0.77527-0.99903
  -6   6   3 105.279 98.3142   1 0.18225-0.58464 0.05750 0.44258 0.99833-0.77472
  -6  -6   3 206.530 100.607   9 0.18373-0.58611-0.05932-0.44056 0.99825-0.77481
  -6  -6   3 -66.322 101.049   3-0.62881 0.22656-0.39858-0.10128-0.77040 0.99376
   9  -7  -3 42.1211 102.858   4-0.07654 0.70941-0.30382-0.28039-0.94772 0.76452
   9  -7  -3 -201.07 126.863   8 0.73471-0.10248-0.24317-0.33998 0.75600-0.93784
   8  -7  -3 56.1851 65.5421   4-0.10507 0.66153-0.23476-0.34969-0.96934 0.77236
   8   7  -3 162.302 181.837   2 0.55970-0.00355 0.45855 0.12611 0.78013-0.97627
  -8  -7   3 446.847 152.415   9 0.11095-0.66597-0.24114-0.34216 0.96834-0.77248
  -8  -7   3 490.628 156.465   3-0.62216 0.06699-0.39143-0.19195-0.77941 0.97510
   8   7  -3 -78.246 89.6689   5 0.68792-0.13150 0.31572 0.26806 0.76726-0.96249
   7  -7  -3 -42.894 86.9897   4-0.13104 0.61106-0.16933-0.41533-0.98434 0.77354
   7   7  -3 66.7645 122.415   2 0.56130-0.08140 0.46113 0.12358 0.77745-0.98740
  -7  -7   3 218.411 114.021   9 0.13805-0.61673-0.17577-0.40749 0.98363-0.77398
  -7  -7   3 45.6618 52.5450   3-0.62726 0.14857-0.39691-0.18644-0.77253 0.98206
  -7   7   3 104.323 70.9773   1 0.15613-0.63489 0.19355 0.38998 0.98079-0.77105
   5  -7  -3 -10.892 107.033   4-0.17539 0.50247-0.05131-0.53369-0.99865 0.76013
  -5   7   3 156.030 107.800   1 0.18262-0.50871 0.05538 0.52804 0.99845-0.76104
  -5   7   3 -52.262 55.9312   6-0.36306 0.03684 0.61752-0.03510-0.75214 0.98886
   8  -8  -3 126.557 121.010   4-0.08895 0.64537-0.27413-0.39379-0.95777 0.76074
   7  -8  -3 85.8244 127.102   4-0.11253 0.59251-0.21620-0.45192-0.97412 0.76329
   6  -8  -3 20.6663 125.977   4-0.13380 0.53730-0.16222-0.50608-0.98566 0.76100
  -6   8   3 -73.983 66.3357   6-0.36317-0.03946 0.61816 0.04766-0.75155 0.97440
  -6   8   3 151.453 114.776   1 0.15893-0.56136 0.17990 0.48696 0.98344-0.75990
   0   0   0    0.00    0.00
   8   0  -3 81388.0 1851.19   8 0.71615-0.16008-0.23478 0.23486 0.77621-0.97196
  -4   2   1 270.614 81.7761   7-0.47680 0.19041 0.06766 0.09899-0.94831 0.99501
  -4  -2   1 152.739 37.0989   1 0.21457-0.50137-0.14708-0.01969 0.98851-0.94153
  -4  -2   1 256.106 69.6513   7-0.54826 0.26186 0.08166-0.24859-0.91789 0.96462
   4   2  -1 322.432 91.8023   2 0.39404-0.10684 0.21972-0.05264 0.94901-0.99579
  -4   2   1 146.276 57.9742   1 0.17884-0.46567 0.07642 0.09034 0.99705-0.95016
   4  -2  -1 302.319 76.6908   4-0.17138 0.45880-0.06236-0.10453-0.99799 0.95092
  -4   2   1 175.366 69.6822   6-0.30631 0.01938 0.36350-0.19711-0.92083 0.96753
  -4  -2   1 216.218 67.7045   9 0.17780-0.46457-0.07491-0.09173 0.99721-0.95034
   4  -2  -1 194.628 59.4739   5 0.62367-0.33636 0.27266-0.43917 0.83339-0.88010
   4  -2  -1 384.494 96.9030   8 0.44908-0.16196-0.12067-0.04593 0.95205-0.99875
   4   2  -1 208.853 75.2316   8 0.58938-0.30210-0.17939 0.34616 0.88148-0.92833
  -4  -2   1 172.443 82.2613   3-0.41358 0.12662-0.18589 0.01924-0.95142 0.99829
  -6   1   3 -1.5934 17.7843   7-0.76689 0.36560 0.12601-0.04308-0.75784 0.98064
   5  -6  -3 17.9181 70.4537   4-0.19846 0.52560 0.01357-0.51511-0.99976 0.76121
  -5   6   3 30.5063 63.4591   1 0.19499-0.52106-0.01708 0.51712 0.99976-0.76233
  -2  -2  -1 24.6085 27.1194   9-0.06590-0.10521-0.60975 0.44294 0.76500-0.89480
   9   3   1 67.7337 33.0091   2 0.25209 0.45210 0.04007 0.20926 0.99654-0.77087
   5  -5  -3 67.1765 74.6490   4-0.22222 0.54940 0.08326-0.50132-0.99564 0.75706
  -5   5   3 27.1776 45.4541   1 0.20746-0.53352-0.09722 0.51388 0.99490-0.75746
   6  -7  -3 -73.087 147.646   4-0.15447 0.55804-0.10802-0.47684-0.99378 0.76912
  -6   7   3 -118.53 77.4780   6-0.36308-0.03954 0.61763-0.03520-0.75204 0.97492
   6  -3  -3 12.7239 52.8051   4-0.24060 0.64434 0.13949-0.39042-0.98828 0.76354
   6   3  -3 60.6747 42.9049   5 0.68586-0.28223 0.31432-0.06413 0.76967-0.99248
   6  -3  -3 -46.827 62.9103   8 0.72580-0.32256-0.23913-0.01086 0.76590-0.98926
  -8  -7  -1 77.1156 134.821   3-0.33688-0.29371-0.11629-0.46837-0.97988 0.76641
   8   7   1 45.6175 58.8091   2 0.32389 0.30422 0.12889 0.45358 0.98041-0.76882
  -5   8   3 -26.753 83.9650   1 0.17026-0.49637 0.12235 0.54446 0.99241-0.75503
   5  -8  -3 -66.272 153.676   4-0.15274 0.47976-0.11261-0.55584-0.99322 0.75471
  -5   8   3 -89.331 70.8678   6-0.36315 0.03693 0.61806 0.04775-0.75164 0.98834
   0  -5  -2 -11.525 41.2077   4-0.26498 0.22798 0.21776-0.63587-0.97186 0.76662
   0   5   2 193.612 66.6704   1 0.22401-0.18698-0.21963 0.63628 0.97445-0.77011
   2   7   2 -52.015 66.2747   1 0.19948-0.00982-0.04505 0.62844 0.99882-0.76687
  -2  -7  -2 -109.59 112.401   9-0.06517-0.12436-0.60844 0.02468 0.76618-0.99805
   0  -4   1 308.642 90.0649   4-0.01100 0.02917-0.45199 0.11877-0.87907 0.98132
   0  -4  -1 223.780 43.3127   7-0.59654 0.57771 0.09123-0.42443-0.89229 0.79045
   0  -4  -1 372.970 98.0445   9 0.01554-0.03399-0.45199 0.11840 0.88007-0.98215
   0  -4  -1 272.403 76.7541   4-0.23471 0.21620 0.12127-0.45557-0.99107 0.88855
   0   4  -1 375.819 88.4463   2 0.54158-0.55970 0.42989-0.09569 0.80847-0.91091
   0   4   1 404.340 93.6123   6-0.32828 0.34696 0.45054-0.11756-0.87606 0.97798
   0   4  -1 513.949 101.987   6-0.14932 0.13091-0.12128 0.45552-0.99210 0.88957
   0  -4   1 369.193 88.3872   9 0.24816-0.22965 0.12099-0.45420 0.99016-0.88803
   0   4   1 235.930 67.0996   1 0.21104-0.19254-0.12185 0.45523 0.99207-0.88992
  -1   4   2 13.5655 15.3153   6-0.36190 0.32264 0.61088-0.27823-0.75825 0.94826
   9   1   1 123.424 66.3224   8 0.23038 0.47488-0.03276 0.11630 0.99820-0.77189
  -9   1   2 -20.178 54.7664   7-0.59577-0.05362 0.09107-0.00802-0.89273 0.97229
  -9  -1   2 -155.12 79.8474   7-0.61499-0.03436 0.09491-0.17878-0.88129 0.96084
   9   1  -2 2.69749 54.2839   2 0.53466 0.11614 0.41917-0.33499 0.81840-0.89843
  -9  -1   2 -14.679 43.3233   3-0.55650-0.09387-0.32331 0.24034-0.85344 0.93308
   9  -1  -2 -54.786 56.3361   5 0.62255 0.02811 0.27192-0.35478 0.83439-0.91387
   9   1  -2 202.101 90.4695   5 0.57249 0.07817 0.23945-0.15574 0.87485-0.95420
   9  -1  -2 -10.929 66.2163   8 0.58371 0.06691-0.17697 0.09377 0.88513-0.96480
   9   1  -2 -41.852 58.9195   8 0.62107 0.02967-0.19298 0.27640 0.85963-0.93938
   3  -2  -2 6.39866 18.1165   8 0.73097-0.53854-0.24147 0.07476 0.76020-0.92298
   2  -3  -2 -65.376 78.2384   4-0.30100 0.41709 0.34330-0.59432-0.92959 0.75196
   7  -8  -2 141.944 101.069   4-0.07092 0.56920-0.31708-0.35059-0.94286 0.83462
   7   8  -2 105.522 132.083   2 0.51744-0.01943 0.39299 0.27453 0.84121-0.94907
  -7   8   2 189.073 119.313   6-0.34524-0.15234 0.52547 0.14075-0.82743 0.93443
  -7  -8   2 209.438 109.942   9 0.07612-0.57327-0.32146-0.34526 0.94211-0.83455
  -7  -8   2 173.945 81.4230   3-0.57588 0.07845-0.34298-0.32414-0.83408 0.94145
   7   8  -2 197.784 113.071   5 0.64181-0.14350 0.28464 0.38261 0.81651-0.92369
   7  -8  -2 -58.639 82.4155   8 0.70214-0.20429-0.22851-0.43800 0.79048-0.89786
 -10   4   3 253.002 119.163   7-0.72768 0.02098 0.11783 0.21544-0.79641 0.96388
 -10  -4   3 154.798 79.1277   3-0.61212-0.09601-0.38072 0.04769-0.79241 0.96038
  10   4  -3 299.437 153.817   5 0.65452 0.05442 0.29312 0.04054 0.80389-0.97134
  10  -4  -3 54.3927 94.4734   8 0.68688 0.02172-0.22173-0.11142 0.80517-0.97313
;
_shelx_hkl_checksum              3200
loop_
_space_group_symop_operation_xyz
'x, y, z'
'-x+1/2, y+1/2, -z'
'-x, -y, -z'
'x-1/2, -y-1/2, z'
loop_
_atom_site_label
_atom_site_type_symbol
_atom_site_fract_x
_atom_site_fract_y
_atom_site_fract_z
_atom_site_U_iso_or_equiv
_atom_site_adp_type
_atom_site_occupancy
_atom_site_site_symmetry_order
_atom_site_calc_flag
_atom_site_refinement_flags_posn
_atom_site_refinement_flags_adp
_atom_site_refinement_flags_occupancy
_atom_site_disorder_assembly
_atom_site_disorder_group
C1 C 0.6908(7) 0.2973(7) 0.793(3) 0.034(12) Uani 1 1 d . . . . .
H1D H 0.597976 0.247351 0.788805 0.041 Uiso 1 1 calc R U . . .
H1E H 0.723777 0.337351 0.921946 0.041 Uiso 1 1 calc R U . . .
C2 C 0.7984(7) 0.1790(7) 0.741(3) 0.036(11) Uani 1 1 d . . . . .
N1 N 0.6775(5) 0.4274(5) 0.652(2) 0.030(10) Uani 1 1 d . . . . .
H1A H 0.637763 0.391646 0.535863 0.036 Uiso 1 1 calc R U . . .
H1B H 0.764396 0.466097 0.647714 0.036 Uiso 1 1 calc R U . . .
H1C H 0.622313 0.502732 0.687251 0.036 Uiso 1 1 calc R U . . .
O1 O 0.5035(7) 0.8627(6) 0.965(3) 0.063(12) Uani 1 1 d . . . . .
H1 H 0.471227 0.952359 0.960587 0.076 Uiso 0.5 1 calc DR U P . .
O2 O 0.4640(5) 0.6437(4) 0.7208(19) 0.023(8) Uani 1 1 d . . . . .
O3 O 0.4397(5) 0.9250(5) 0.6117(18) 0.037(9) Uani 1 1 d . . . . .
H3 H 0.493706 0.950625 0.538279 0.045 Uiso 0.5 1 calc DR U P . .
O4 O 0.8619(6) 0.1930(5) 0.6156(18) 0.034(8) Uani 1 1 d . . . . .
O5 O 0.8137(5) 0.0600(5) 0.8686(19) 0.052(9) Uani 1 1 d . . . . .
H5 H 0.868464 -0.006017 0.837529 0.062 Uiso 1 1 calc R U . . .
P1 P 0.5173(2) 0.8098(2) 0.7620(9) 0.029(4) Uani 1 1 d . . . . .
H1P H 0.619720 0.811803 0.753882 0.035 Uiso 1 1 calc R U . . .
loop_
_atom_site_aniso_label
_atom_site_aniso_U_11
_atom_site_aniso_U_22
_atom_site_aniso_U_33
_atom_site_aniso_U_23
_atom_site_aniso_U_13
_atom_site_aniso_U_12
C1 0.023(3) 0.028(3) 0.05(4) 0.006(7) 0.003(9) 0.007(3)
C2 0.012(3) 0.020(3) 0.07(4) -0.005(6) 0.005(9) -0.006(2)
N1 0.023(3) 0.018(2) 0.05(3) 0.004(5) 0.008(7) 0.001(2)
O1 0.064(4) 0.021(3) 0.11(4) -0.007(6) 0.043(10) 0.005(3)
O2 0.029(2) 0.017(2) 0.02(3) -0.009(4) -0.001(6) -0.0047(17)
O3 0.032(3) 0.026(2) 0.06(3) 0.020(5) 0.013(7) 0.010(2)
O4 0.027(3) 0.023(2) 0.05(3) 0.001(4) 0.010(7) 0.0035(18)
O5 0.039(3) 0.019(2) 0.10(3) 0.010(5) 0.026(7) 0.0082(19)
P1 0.0207(10) 0.0140(9) 0.053(12) 0.0030(18) 0.009(3) -0.0003(7)
loop_
_atom_type_symbol
_atom_type_description
_atom_type_scat_dispersion_real
_atom_type_scat_dispersion_imag
_atom_type_scat_source
C C 0.0033 0.0016 'International Tables Vol C Tables 4.2.6.8 and 6.1.1.4'
H H 0.0000 0.0000 'International Tables Vol C Tables 4.2.6.8 and 6.1.1.4'
N N 0.0061 0.0033 'International Tables Vol C Tables 4.2.6.8 and 6.1.1.4'
O O 0.0106 0.0060 'International Tables Vol C Tables 4.2.6.8 and 6.1.1.4'
P P 0.1023 0.0942 'International Tables Vol C Tables 4.2.6.8 and 6.1.1.4'
loop_
_geom_angle_atom_site_label_1
_geom_angle_atom_site_label_2
_geom_angle_atom_site_label_3
_geom_angle
_geom_angle_site_symmetry_1
_geom_angle_site_symmetry_3
_geom_angle_publ_flag
N1 C1 C2 108.2(12) . . ?
N1 C1 H1D 110.1 . . ?
C2 C1 H1D 110.1 . . ?
N1 C1 H1E 110.1 . . ?
C2 C1 H1E 110.1 . . ?
H1D C1 H1E 108.4 . . ?
O4 C2 O5 125.4(7) . . ?
O4 C2 C1 125.1(12) . . ?
O5 C2 C1 109.4(13) . . ?
C1 N1 H1A 109.5 . . ?
C1 N1 H1B 109.5 . . ?
H1A N1 H1B 109.5 . . ?
C1 N1 H1C 109.5 . . ?
H1A N1 H1C 109.5 . . ?
H1B N1 H1C 109.5 . . ?
P1 O1 H1 109.5 . . ?
P1 O3 H3 109.5 . . ?
C2 O5 H5 109.5 . . ?
O2 P1 O1 111.9(6) . . ?
O2 P1 O3 111.4(6) . . ?
O1 P1 O3 110.5(5) . . ?
O2 P1 H1P 107.6 . . ?
O1 P1 H1P 107.6 . . ?
O3 P1 H1P 107.6 . . ?
loop_
_geom_bond_atom_site_label_1
_geom_bond_atom_site_label_2
_geom_bond_distance
_geom_bond_site_symmetry_2
_geom_bond_publ_flag
C1 N1 1.478(15) . ?
C1 C2 1.522(12) . ?
C1 H1D 0.9700 . ?
C1 H1E 0.9700 . ?
C2 O4 1.162(17) . ?
C2 O5 1.344(16) . ?
N1 H1A 0.8900 . ?
N1 H1B 0.8900 . ?
N1 H1C 0.8900 . ?
O1 P1 1.529(18) . ?
O1 H1 0.8200 . ?
O2 P1 1.511(5) . ?
O3 P1 1.530(10) . ?
O3 H3 0.8200 . ?
O5 H5 0.8200 . ?
P1 H1P 0.9800 . ?
loop_
_geom_hbond_atom_site_label_D
_geom_hbond_atom_site_label_H
_geom_hbond_atom_site_label_A
_geom_hbond_distance_DH
_geom_hbond_distance_HA
_geom_hbond_distance_DA
_geom_hbond_angle_DHA
_geom_hbond_site_symmetry_A
_geom_hbond_publ_flag
N1 H1A O2 0.89 1.91 2.792(19) 168.5 3_666 yes
N1 H1B O3 0.89 1.95 2.837(7) 171.3 4_675 yes
N1 H1C O2 0.89 1.96 2.837(7) 166.1 . yes
O1 H1 O1 0.82 1.66 2.392(13) 146.9 3_677 yes
O3 H3 O3 0.82 1.70 2.463(16) 154.7 3_676 yes
O5 H5 O2 0.82 1.77 2.578(9) 167.7 4_665 yes
loop_
_geom_torsion_atom_site_label_1
_geom_torsion_atom_site_label_2
_geom_torsion_atom_site_label_3
_geom_torsion_atom_site_label_4
_geom_torsion
_geom_torsion_site_symmetry_1
_geom_torsion_site_symmetry_2
_geom_torsion_site_symmetry_3
_geom_torsion_site_symmetry_4
_geom_torsion_publ_flag
N1 C1 C2 O4 2.3(18) . . . . ?
N1 C1 C2 O5 179.3(9) . . . . ?

_cod_database_fobs_code 2109034
