#------------------------------------------------------------------------------
#$Date: 2022-09-02 04:49:51 +0300 (Fri, 02 Sep 2022) $
#$Revision: 277573 $
#$URL: file:///home/coder/svn-repositories/cod/cif/2/10/90/2109035.cif $
#------------------------------------------------------------------------------
#
# This file is available in the Crystallography Open Database (COD),
# http://www.crystallography.net/. The original data for this entry
# were provided by IUCr Journals, http://journals.iucr.org/.
#
# The file may be used within the scientific community so long as
# proper attribution is given to the journal article from which the
# data were obtained.
#
data_2109035
loop_
_publ_author_name
'Bogdanov, Nikita E.'
'Korabel'nikov, Dmitry V.'
'Fedorov, Igor A.'
'Zakharov, Boris A.'
'Boldyreva, Elena V.'
_publ_section_title
;
 The effect of hydrostatic compression on the crystal structure of
 glycinium phosphite
;
_journal_issue                   5
_journal_name_full               'Acta Crystallographica Section B'
_journal_page_first
;
;
_journal_paper_doi               10.1107/S2052520622008289
_journal_volume                  78
_journal_year                    2022
_chemical_formula_moiety         'C2 H6 N O2, H2 O3 P'
_chemical_formula_sum            'C2 H8 N O5 P'
_chemical_formula_weight         209.42
_space_group_crystal_system      monoclinic
_space_group_IT_number           14
_space_group_name_Hall           '-P 2yab'
_space_group_name_H-M_alt        'P 1 21/a 1'
_atom_sites_solution_hydrogens   geom
_atom_sites_solution_primary     direct
_atom_sites_solution_secondary   difmap
_audit_creation_method           SHELXL-2018/3
_cell_angle_alpha                90
_cell_angle_beta                 100.50(3)
_cell_angle_gamma                90
_cell_formula_units_Z            3
_cell_length_a                   9.3869(8)
_cell_length_b                   8.5115(4)
_cell_length_c                   6.980(5)
_cell_measurement_reflns_used    808
_cell_measurement_temperature    293(2)
_cell_measurement_theta_max      26.1900
_cell_measurement_theta_min      3.2480
_cell_volume                     548.3(4)
_computing_cell_refinement       'CrysAlisPro 1.171.40.53 (Rigaku OD, 2019)'
_computing_data_collection       'CrysAlisPro 1.171.40.53 (Rigaku OD, 2019)'
_computing_data_reduction        'CrysAlisPro 1.171.40.53 (Rigaku OD, 2019)'
_computing_structure_refinement  'SHELXL-2018/3 (Sheldrick, 2018)'
_diffrn_ambient_pressure         2460000
_diffrn_ambient_temperature      293(2)
_diffrn_detector                 'CCD plate'
_diffrn_detector_area_resol_mean 10.3457
_diffrn_detector_type            Ruby
_diffrn_measured_fraction_theta_full 0.361
_diffrn_measured_fraction_theta_max 0.316
_diffrn_measurement_device       'four-circle diffractometer'
_diffrn_measurement_device_type  'Xcalibur, Ruby, Gemini ultra'
_diffrn_radiation_monochromator  graphite
_diffrn_radiation_probe          x-ray
_diffrn_radiation_type           'Mo K\a'
_diffrn_radiation_wavelength     0.71073
_diffrn_reflns_av_R_equivalents  0.0866
_diffrn_reflns_av_unetI/netI     0.0636
_diffrn_reflns_Laue_measured_fraction_full 0.361
_diffrn_reflns_Laue_measured_fraction_max 0.316
_diffrn_reflns_limit_h_max       12
_diffrn_reflns_limit_h_min       -12
_diffrn_reflns_limit_k_max       11
_diffrn_reflns_limit_k_min       -11
_diffrn_reflns_limit_l_max       3
_diffrn_reflns_limit_l_min       -3
_diffrn_reflns_number            2837
_diffrn_reflns_point_group_measured_fraction_full 0.361
_diffrn_reflns_point_group_measured_fraction_max 0.316
_diffrn_reflns_theta_full        25.242
_diffrn_reflns_theta_max         28.187
_diffrn_reflns_theta_min         3.256
_diffrn_source                   'fine-focus sealed X-ray tube'
_diffrn_source_type              'Enhance (Mo) X-ray Source'
_exptl_absorpt_coefficient_mu    0.452
_exptl_absorpt_correction_T_max  1.00000
_exptl_absorpt_correction_T_min  0.07621
_exptl_absorpt_correction_type   multi-scan
_exptl_absorpt_process_details
;
CrysAlisPro 1.171.40.53 (Rigaku Oxford Diffraction, 2019)
Empirical absorption correction using spherical harmonics,
 implemented in SCALE3 ABSPACK scaling algorithm.
;
_exptl_crystal_colour            white
_exptl_crystal_density_diffrn    1.903
_exptl_crystal_description       plates
_exptl_crystal_F_000             328
_exptl_crystal_size_max          0.21
_exptl_crystal_size_mid          0.10
_exptl_crystal_size_min          0.05
_refine_diff_density_max         0.254
_refine_diff_density_min         -0.241
_refine_diff_density_rms         0.065
_refine_ls_extinction_method     none
_refine_ls_goodness_of_fit_ref   1.061
_refine_ls_hydrogen_treatment    constr
_refine_ls_matrix_type           full
_refine_ls_number_parameters     86
_refine_ls_number_reflns         429
_refine_ls_number_restraints     58
_refine_ls_restrained_S_all      0.988
_refine_ls_R_factor_all          0.0856
_refine_ls_R_factor_gt           0.0511
_refine_ls_shift/su_max          0.000
_refine_ls_shift/su_mean         0.000
_refine_ls_structure_factor_coef Fsqd
_refine_ls_weighting_details
'w=1/[\s^2^(Fo^2^)+(0.0731P)^2^+0.3859P] where P=(Fo^2^+2Fc^2^)/3'
_refine_ls_weighting_scheme      calc
_refine_ls_wR_factor_gt          0.1115
_refine_ls_wR_factor_ref         0.1325
_reflns_Friedel_coverage         0.000
_reflns_number_gt                312
_reflns_number_total             429
_reflns_threshold_expression     'I > 2\s(I)'
_cod_data_source_file            xk5096sup1.cif
_cod_data_source_block           2.46
_cod_original_sg_symbol_H-M      'P 21/a'
_cod_database_code               2109035
_shelx_shelxl_version_number     2018/3
_shelx_space_group_comment
;
The symmetry employed for this shelxl refinement is uniquely defined
by the following loop, which should always be used as a source of
symmetry information in preference to the above space-group names.
They are only intended as comments.
;
_oxdiff_exptl_absorpt_empirical_full_min 0.727
_oxdiff_exptl_absorpt_empirical_full_max 9.843
_oxdiff_exptl_absorpt_empirical_details
;
Empirical correction (ABSPACK) includes:
- Absorption correction using spherical harmonics
- Frame scaling
;
_shelx_res_file
;
TITL GPI_2 in P2(1)/c
    2.46.res
    created by SHELXL-2018/3 at 16:13:54 on 15-Aug-2022
REM  transformed to space group : P21/a:b3
REM P2(1)/c (#14 in standard setting)
CELL   0.71073  9.3869  8.5115  6.9795   90.000  100.503   90.000
ZERR   3        0.0008  0.0004  0.0050    0.000    0.025    0.000
LATT    1
SYMM   1/2-X,1/2+Y,-Z
SFAC C H N O P
UNIT 8 32 4 20 4
LIST 4 ! automatically inserted. Change 6 to 4 for CHECKCIF!!
PLAN 30
FMAP 2
L.S. 20
BOND
BOND $H
CONF
ACTA
EQIV $1 1-X, 1-Y,1-Z
EQIV $2 1/2+X, 3/2-Y,Z
EQIV $3 1-X, 2-Y, 2-Z
EQIV $4 1-X, 2-Y, 1-Z
EQIV $5 1/2+X, 1/2-Y, Z
HTAB N1 O2_$1
HTAB N1 O3_$2
HTAB N1 O2
HTAB O1 O1_$3
HTAB O3 O3_$4
HTAB O5 O2_$5
DFIX 1.66  H1 O1_$3
DFIX 1.70  H3 O3_$4
SIMU
DELU
WGHT    0.073100    0.385900
FVAR       1.73457
C1    1    0.687114    0.294384    0.790670    11.00000    0.02494    0.02369 =
         0.04416    0.00220    0.01070    0.00498
AFIX  23
H1D   2    0.593288    0.244165    0.780697    11.00000   -1.20000
H1E   2    0.717298    0.331499    0.923262    11.00000   -1.20000
AFIX   0
C2    1    0.796879    0.178173    0.739925    11.00000    0.01911    0.01454 =
         0.04651   -0.00087    0.00671   -0.00299
N1    3    0.677254    0.426507    0.654320    11.00000    0.02109    0.01643 =
         0.05190    0.00034    0.00860    0.00085
AFIX 137
H1A   2    0.634260    0.394912    0.536339    11.00000   -1.20000
H1B   2    0.765860    0.461412    0.649222    11.00000   -1.20000
H1C   2    0.625653    0.503453    0.694575    11.00000   -1.20000
AFIX   0
O1    4    0.510179    0.861814    0.967452    11.00000    0.05916    0.02028 =
         0.03497   -0.00394    0.02719    0.00637
AFIX 147
H1    2    0.476829    0.951027    0.963947    10.50000   -1.20000
AFIX   0
O2    4    0.463335    0.643975    0.721555    11.00000    0.02689    0.01752 =
         0.03009   -0.00630    0.00117   -0.00529
O3    4    0.441899    0.924755    0.617126    11.00000    0.02444    0.02448 =
         0.04340    0.01166    0.00359    0.00467
AFIX 147
H3    2    0.501186    0.973582    0.567545    10.50000   -1.20000
AFIX   0
O4    4    0.860481    0.190641    0.613438    11.00000    0.02479    0.02399 =
         0.03915   -0.00291    0.01171    0.00249
O5    4    0.812565    0.059169    0.872573    11.00000    0.03582    0.02081 =
         0.07204    0.01060    0.02130    0.00686
AFIX 147
H5    2    0.873123   -0.003417    0.847861    11.00000   -1.20000
AFIX   0
P1    5    0.519722    0.809269    0.762956    11.00000    0.02011    0.01238 =
         0.03691    0.00186    0.00727   -0.00027
AFIX  13
H1P   2    0.622213    0.809867    0.751401    11.00000   -1.20000
AFIX   0
HKLF 4




REM  GPI_2 in P2(1)/c
REM wR2 = 0.1325, GooF = S = 1.061, Restrained GooF = 0.988 for all data
REM R1 = 0.0511 for 312 Fo > 4sig(Fo) and 0.0856 for all 429 data
REM 86 parameters refined using 58 restraints

END

WGHT      0.0731      0.3859

REM Highest difference peak  0.254,  deepest hole -0.241,  1-sigma level  0.065
Q1    1   0.7003  0.8425  0.7304  11.00000  0.05    0.25
Q2    1   0.7352  0.2197  0.8116  11.00000  0.05    0.22
Q3    1   0.4773  0.6938  0.5870  11.00000  0.05    0.21
Q4    1   0.4948  1.0495  0.7486  11.00000  0.05    0.21
Q5    1   0.7463  0.2520  0.6900  11.00000  0.05    0.21
Q6    1   0.5760  0.1977  0.9141  11.00000  0.05    0.20
Q7    1   0.8444  0.2962  0.9878  11.00000  0.05    0.19
Q8    1   0.6789  0.7740  0.8077  11.00000  0.05    0.18
Q9    1   0.4960  0.5979  0.7169  11.00000  0.05    0.18
Q10   1   0.4397  0.6432  0.7567  11.00000  0.05    0.18
Q11   1   0.8611  0.4236  0.5582  11.00000  0.05    0.17
Q12   1   0.9021 -0.0557  1.0509  11.00000  0.05    0.17
Q13   1   0.5933  0.6572  0.8866  11.00000  0.05    0.16
Q14   1   0.9360  0.1019  0.7798  11.00000  0.05    0.16
Q15   1   0.7999  0.1797  0.9544  11.00000  0.05    0.16
Q16   1   0.4387  1.0234  0.9450  11.00000  0.05    0.15
Q17   1   0.8006  0.2570  0.4313  11.00000  0.05    0.15
Q18   1   0.5435  0.9758  1.0088  11.00000  0.05    0.15
Q19   1   0.6797  0.9732  0.6653  11.00000  0.05    0.15
Q20   1   0.4999  0.3239  0.7602  11.00000  0.05    0.15
Q21   1   0.5811  0.6693  0.8085  11.00000  0.05    0.15
Q22   1   0.6179  0.9196  0.9905  11.00000  0.05    0.14
Q23   1   0.6044  0.9203  0.9363  11.00000  0.05    0.14
Q24   1   0.6979 -0.0242  0.7190  11.00000  0.05    0.14
Q25   1   0.8843  0.1728  0.5163  11.00000  0.05    0.14
Q26   1   0.8990  0.3268  0.5054  11.00000  0.05    0.14
Q27   1   0.5000  1.0000  0.5000  10.50000  0.05    0.14
Q28   1   1.0151 -0.0283  0.9366  11.00000  0.05    0.14
Q29   1   0.5363  0.6750  1.0195  11.00000  0.05    0.14
Q30   1   0.8992 -0.0282  0.7235  11.00000  0.05    0.13
;
_shelx_res_checksum              8295
_shelx_hkl_file
;
   1   0   0 -0.7238 3.51019   8 0.03844 0.03844 0.04089-0.04086 0.98875-0.97477
  -1   0   0 3.96499 4.71558   7-0.03869-0.03814-0.01390 0.01387-0.98952 0.97556
   2   0   0 8110.18 122.943   9 0.07683 0.07687-0.32438 0.32433 0.94106-0.91311
  -2   0   0 8262.14 126.527   4-0.07689-0.07686-0.30274 0.30264-0.94809 0.92015
  -2   0   0 7864.67 194.442   7-0.07711-0.07657-0.00689 0.00683-0.99439 0.96647
  -2   0   0 8116.81 127.185   6-0.07688-0.07687-0.30213 0.30207-0.94828 0.92033
   2   0   0 7647.06 183.802   8 0.07686 0.07687 0.02621-0.02616 0.99405-0.96608
   3   0   0 -12.100 14.6363   8 0.11529 0.11532 0.01145-0.01136 0.99766-0.95571
   3   0   0 -1.0494 5.42078   9 0.11525 0.11530-0.23552 0.23544 0.96988-0.92796
  -3   0   0 19.4139 14.6591   7-0.11552-0.11500 0.00015-0.00024-0.99775 0.95587
  -3   0   0 2.20378 4.87264   4-0.11532-0.11527-0.20904 0.20891-0.97585 0.93393
  -3   0   0 11.0191 7.64137   6-0.11531-0.11530-0.20852 0.20843-0.97596 0.93402
  -4   0   0 5336.66 139.071   4-0.15376-0.15367-0.10981 0.10969-0.99357 0.93766
  -4   0   0 5036.80 136.091   6-0.15372-0.15370-0.10942 0.10932-0.99361 0.93770
   4   0   0 5385.14 218.045   8 0.15372 0.15377-0.00341 0.00353 0.99958-0.94364
  -4   0   0 5425.40 230.544   7-0.15394-0.15343 0.00723-0.00735-0.99957 0.94373
   4   0   0 5468.36 109.806   1 0.15366 0.15366 0.20743-0.20744 0.97793-0.92202
   5   0   0 -45.385 32.5214   8 0.19213 0.19221-0.01836 0.01852 0.99978-0.92984
   5   0   0 -1.8373 9.08309   1 0.19213 0.19213 0.00399-0.00402 0.99994-0.93003
  -5   0   0 -43.179 34.9377   7-0.19236-0.19186 0.01434-0.01449-0.99984 0.93003
  -5   0   0 7.10112 11.2659   6-0.19213-0.19209-0.00411 0.00402-0.99994 0.93004
  -6   0   0 8597.40 365.189   7-0.23055-0.23049 0.02144-0.02163-0.99853 0.91467
  -6   0   0 9026.91 210.532   6-0.23052-0.23046 0.10856-0.10865-0.99280 0.90894
   6   0   0 8364.66 337.418   8 0.23055 0.23067-0.03342 0.03361 0.99820-0.91426
  -7   0   0 -2.4975 43.4221   7-0.26898-0.26890 0.02863-0.02886-0.99559 0.89775
   7   0   0 2.12889 26.0892   2 0.26904 0.26911 0.05885-0.05890 0.99423-0.89630
   7   0   0 -22.196 44.2757   8 0.26897 0.26913-0.04857 0.04880 0.99481-0.89686
   8   0   0 127.104 43.3863   8 0.30738 0.30758-0.06382 0.06410 0.98952-0.87756
   8   0   0 162.347 56.9249   2 0.30747 0.30756 0.10651-0.10659 0.98573-0.87380
  -8   0   0 148.467 63.6735   3-0.30755-0.30747-0.08907 0.08890-0.98749 0.87564
  -8   0   0 74.9730 45.6663   7-0.30718-0.30749 0.03581-0.03605-0.99099 0.87906
   9   0   0 2.18314 63.6168   8 0.34579 0.34604-0.07919 0.07951 0.98227-0.85629
  -9   0   0 77.4962 56.1070   3-0.34599-0.34589-0.12327 0.12306-0.97752 0.85171
  -9   0   0 37.6485 50.3816   7-0.34555-0.34595 0.04305-0.04333-0.98464 0.85867
 -10   0   0 202.049 94.4908   3-0.38443-0.38431-0.15803 0.15779-0.96428 0.82451
  10   0   0 167.924 99.4308   8 0.38421 0.38450-0.09466 0.09504 0.97296-0.83295
 -10   0   0 -73.861 64.7369   7-0.38403-0.38432 0.05036-0.05067-0.97643 0.83651
  11   0   0 2.19286 102.713   8 0.42260 0.42296-0.11027 0.11069 0.96146-0.80741
  11   0   0 -6.6847 53.9281   5 0.42232 0.42268 0.14452-0.14437 0.95674-0.80287
 -11   0   0 -36.100 69.2577   7-0.42246-0.42272 0.05769-0.05806-0.96631 0.81240
  12   0   0 324.434 173.152   8 0.46102 0.46142-0.12600 0.12646 0.94762-0.77953
   0   1   0 2.61664 3.46247   6-0.20806 0.20811 0.04167 0.04167-0.99877 0.99877
   0  -1   0 6.47495 5.37289   9 0.19225-0.19221-0.04125-0.04206 0.99909-0.99906
   0   1   0 3.88569 4.24397   4-0.20818 0.20822 0.04167 0.04168-0.99877 0.99877
   0  -1   0 1.31334 3.82760   1 0.19962-0.19959-0.04167-0.04167 0.99897-0.99897
  -1   1   0 378.820 33.8279   1 0.15165-0.22851 0.21694-0.13363 0.97582-0.98980
  -1  -1   0 386.065 27.1032   7-0.07663-0.00024-0.00698-0.07639-0.99434 0.98040
   1   1   0 411.134 28.8095   7 0.13138-0.05451-0.04455 0.12790-0.94990 0.96384
  -1  -1   0 380.549 29.3157   1 0.23322-0.31006-0.29219 0.20881 0.95445-0.96844
   1  -1   0 364.729 32.9393   8 0.10167-0.02484 0.01669-0.10000 0.99657-0.98259
   1   1   0 363.958 27.8899   1 0.21117-0.13433-0.11763 0.20099 0.99257-0.97859
  -1  -1   0 352.781 24.0512   4-0.24306 0.16613 0.14704-0.23035-0.98703 0.97305
   1  -1   0 404.097 34.6095   7 0.05092 0.02588-0.03012-0.05317-0.97232 0.98630
  -1   1   0 384.664 35.1592   4-0.16626 0.08939-0.07622 0.15956-0.99697 0.98298
  -1   1   0 357.739 33.0825   8-0.01664-0.06020 0.06174 0.02157 0.97827-0.99225
   1  -1   0 379.294 25.6397   9 0.26526-0.18838 0.16846-0.25176 0.98176-0.96770
  -1   1   0 346.714 31.0179   7-0.08872 0.01192-0.00477 0.08807-0.99556 0.98159
  -1  -1   0 341.165 32.3820   9 0.13091-0.20772-0.19784 0.11455 0.97907-0.99304
  -1   1   0 351.375 33.7966   6-0.16613 0.08930-0.07612 0.15945-0.99698 0.98299
   1   1   0 388.739 25.9106   6-0.30524 0.38214 0.35859-0.27532-0.92300 0.93695
   1  -1   0 364.809 33.2412   1 0.17751-0.10065 0.08659-0.16991 0.99623-0.98225
  -1  -1   0 357.783 24.1486   6-0.24296 0.16607 0.14696-0.23025-0.98705 0.97308
  -2   1   0 461.296 45.1317   6-0.15578 0.00208-0.10393 0.18724-0.99425 0.96629
   2  -1   0 509.590 51.7544   8 0.10729 0.04640 0.01453-0.09781 0.99705-0.96909
   2  -1   0 547.349 50.0466   4-0.07152 0.22532-0.31540 0.23212-0.94347 0.97142
   2   1   0 522.429 42.6490   8 0.08748 0.06629 0.02214 0.06127 0.99521-0.96724
  -2  -1   0 539.714 49.2998   7-0.09824-0.05547-0.00302-0.08038-0.99642 0.96852
   2   1   0 520.098 31.8073   1 0.22666-0.07294-0.23461 0.31798 0.97077-0.94279
  -2   1   0 509.566 52.0643   7-0.10089-0.05275-0.00253 0.08581-0.99665 0.96871
   2  -1   0 519.512 43.4761   1 0.16945-0.01577 0.12914-0.21245 0.99156-0.96360
  -2  -1   0 502.375 44.4797   9 0.07664-0.23030-0.32480 0.24153 0.94090-0.96885
   3   1   0 18891.7 327.158   8 0.12802 0.10262 0.00653 0.07691 0.99849-0.95653
  -3   1   0 19752.9 319.901   6-0.16194-0.06862-0.08745 0.17073-0.99597 0.95403
   3  -1   0 20914.5 345.560   4-0.02324 0.25396-0.42505 0.34184-0.89398 0.93588
  -3  -1   0 18943.7 365.818   7-0.13186-0.09870 0.00316-0.08659-0.99871 0.95685
  -3  -1   0 20708.7 327.303   9 0.02641-0.25692-0.43373 0.35047 0.89045-0.93237
  -3   1   0 19701.2 389.333   7-0.12947-0.10102 0.00272 0.08053-0.99859 0.95669
   3  -1   0 19330.9 379.027   8 0.13211 0.09846 0.00495-0.08821 0.99872-0.95677
  -4   1   0 164.872 41.9293   7-0.16273-0.14461 0.00885 0.07437-0.99977 0.94391
   4  -1   0 128.518 35.8710   8 0.16306 0.14437-0.00704-0.07620 0.99979-0.94385
   4  -1   0 176.185 37.8204   4 0.02320 0.28444-0.52333 0.44021-0.83335 0.88917
  -4   1   0 128.015 29.6352   6-0.17732-0.13007-0.04551 0.12876-0.99895 0.94303
  -4  -1   0 208.972 40.5801   9-0.02133-0.28603-0.53004 0.44679 0.82970-0.88559
   4   1   0 192.855 43.1441   8 0.16740 0.14011-0.00873 0.09221 0.99985-0.94390
  -4  -1   0 145.992 37.5132   7-0.16800-0.13940 0.00983-0.09330-0.99985 0.94402
   5  -1   0 503.753 81.7043   8 0.19676 0.18754-0.02017-0.06303 0.99968-0.92975
  -5  -1   0 646.633 92.3947   7-0.20510-0.17914 0.01671-0.10021-0.99958 0.92979
  -5   1   0 422.726 59.0495   6-0.19825-0.18596 0.01332 0.06991-0.99977 0.92988
  -5   1   0 529.733 90.3379   7-0.19797-0.18622 0.01538 0.06781-0.99975 0.92993
  -5  -1   0 -3.2198 20.9956   9-0.06751-0.31671-0.61646 0.53321 0.75914-0.82901
   5   1   0 475.818 71.9927   8 0.20639 0.17799-0.02394 0.10746 0.99940-0.92945
   6   1   0 2.75987 24.0964   8 0.24519 0.21605-0.03918 0.12274 0.99713-0.91317
   6  -1   0 -4.8561 32.0694   8 0.23191 0.22927-0.03395-0.04922 0.99811-0.91418
  -6   1   0 -4.1393 16.8252   6-0.22269-0.23831 0.08490-0.00169-0.99549 0.91162
  -6  -1   0 7.06172 38.7710   7-0.24243-0.21864 0.02366-0.10718-0.99780 0.91394
   6  -1   0 -6.2671 8.50449   9 0.27158 0.18941 0.18817-0.27157 0.97749-0.89338
  -6   1   0 -22.246 31.2442   7-0.23401-0.22699 0.02209 0.06106-0.99834 0.91446
  -7   1   0 83.5937 37.3357   6-0.24943-0.28834 0.16735-0.08416-0.98329 0.88545
   7   1   0 15.2704 40.8446   2 0.26680 0.27135 0.05611 0.02720 0.99460-0.89667
  -7  -1   0 84.8412 46.3949   7-0.28007-0.25781 0.03071-0.11426-0.99443 0.89651
   7  -1   0 141.019 49.6852   2 0.28829 0.24987 0.08259-0.16599 0.99050-0.89256
   7   1   0 102.113 50.4738   8 0.28389 0.25422-0.05448 0.13809 0.99298-0.89502
   7  -1   0 68.2065 33.6778   8 0.26793 0.27012-0.04816-0.03498 0.99492-0.89699
  -7   1   0 -6.5074 39.3401   7-0.27088-0.26697 0.02898 0.05414-0.99540 0.89755
   8   1   0 502.553 99.8393   8 0.32252 0.29246-0.06987 0.15352 0.98690-0.87492
  -8   1   0 385.642 113.826   7-0.30789-0.30676 0.03594 0.04714-0.99089 0.87894
   8   1   0 603.421 104.292   2 0.29995 0.31508 0.09710-0.01382 0.98773-0.87581
   8  -1   0 626.360 123.924   8 0.30450 0.31042-0.06267-0.02042 0.98999-0.87804
  -8   1   0 439.152 86.7023   3-0.32767-0.28732-0.10689 0.19003-0.98267 0.87085
  -8  -1   0 557.269 119.281   7-0.31803-0.29667 0.03785-0.12144-0.98938 0.87745
  -8  -1   0 620.055 104.610   3-0.30183-0.31324-0.08404 0.00054-0.98871 0.87684
   9   1   0 73.7025 51.9949   8 0.36112 0.33073-0.08536 0.16906 0.97881-0.85280
  -9  -1   0 95.3943 96.7298   7-0.35605-0.33546 0.04504-0.12865-0.98258 0.85663
   9  -1   0 126.959 72.3770   8 0.34145 0.35034-0.07745-0.00561 0.98319-0.85724
  -9  -1   0 174.938 75.1217   3-0.33715-0.35479-0.11534 0.03183-0.98010 0.85426
   9   1   0 216.169 83.4898   2 0.33404 0.35788 0.14012-0.05687 0.97730-0.85137
  -9   1   0 77.4427 80.8643   7-0.34537-0.34612 0.04302 0.04003-0.98467 0.85872
  10   1   0 1468.51 210.165   8 0.39969 0.36902-0.10094 0.18470 0.96859-0.82855
 -10  -1   0 1357.08 188.932   3-0.37297-0.39582-0.14761 0.06406-0.96859 0.82879
 -10   1   0 1276.55 227.211   7-0.38306-0.38526 0.05018 0.03284-0.97666 0.83674
 -10  -1   0 1217.10 216.497   7-0.39430-0.37408 0.05232-0.13597-0.97392 0.83402
  10  -1   0 1261.07 197.832   8 0.37867 0.39000-0.09243 0.00942 0.97443-0.83445
  11   1   0 136.602 95.7183   8 0.43824 0.40735-0.11666 0.20046 0.95612-0.80204
 -11   1   0 -56.166 88.3550   7-0.42086-0.42430 0.05739 0.02559-0.96677 0.81286
  11   1   0 151.385 90.7921   5 0.41279 0.43235 0.13873-0.05521 0.96027-0.80633
  11  -1   0 163.096 124.307   8 0.41608 0.42947-0.10761 0.02465 0.96357-0.80955
 -11  -1   0 118.403 85.7936   3-0.40918-0.43646-0.18074 0.09717-0.95388 0.80012
 -11  -1   0 114.880 114.086   7-0.43250-0.41271 0.05962-0.14331-0.96333 0.80943
  12   1   0 285.642 140.006   8 0.47678 0.44567-0.13250 0.21635 0.94122-0.77309
  12   1   0 13.1259 77.4030   5 0.44990 0.47203 0.16138-0.07785 0.94557-0.77760
   0  -2   0 4760.23 118.521   3-0.30106 0.30109-0.08335-0.08336-0.98887 0.98887
   0   2   0 4833.89 93.3754   8-0.07420 0.07427 0.08335 0.08336 0.96367-0.96366
   0  -2   0 4834.35 89.7725   8 0.35606-0.35609-0.08332-0.08331 0.97999-0.97998
   0   2   0 4383.76 142.781   6-0.22217 0.22226 0.08332 0.08334-0.99565 0.99564
   0  -2   0 4685.22 145.183   9 0.17639-0.17631-0.08323-0.08338 0.99652-0.99650
   0   2   0 4835.61 132.654   2 0.28888-0.28889 0.08333 0.08332 0.99037-0.99037
  -1   2   0 248.513 24.6648   2 0.46487-0.54172 0.31547-0.14882 0.89803-0.91203
  -1  -2   0 209.302 34.3443   9 0.14344-0.22020-0.16706 0.00048 0.98528-0.99924
   1  -2   0 232.034 31.2648   9 0.20539-0.12847-0.00562-0.16098 0.99970-0.98560
   1   2   0 229.455 30.7570   6-0.26694 0.34391 0.22413-0.05751-0.97022 0.98417
  -1  -2   0 212.763 29.0071   4-0.18875 0.11181-0.01405-0.15263-0.99988 0.98590
  -1   2   0 201.114 34.5207   6-0.19714 0.12035 0.01013 0.15654-0.99983 0.98584
   1  -2   0 267.037 31.5487   7 0.12521-0.04843-0.04345-0.12320-0.95186 0.96585
   1  -2   0 196.922 27.4595   8 0.18514-0.10836-0.01564-0.15099 0.99987-0.98589
  -1   2   0 245.633 27.9799   7-0.18902 0.11227 0.01372 0.15291-0.99988 0.98588
   1   2   0 258.134 35.6414   1 0.19057-0.11375 0.01318 0.15352 0.99987-0.98590
  -2  -2   0 2306.22 88.9429   6-0.20604 0.05229 0.03578-0.20240-0.99906 0.97111
  -2   2   0 2157.12 109.495   7-0.15839 0.00479 0.00805 0.15856-0.99968 0.97173
   2  -2   0 2016.00 109.355   8 0.16055-0.00691-0.00607-0.16055 0.99975-0.97178
   2  -2   0 2163.83 85.1817   9 0.22763-0.07387 0.05661-0.22321 0.99729-0.96918
   2   2   0 2196.41 90.5450   6-0.33062 0.48443 0.45908-0.29254-0.87098 0.89885
   2  -2   0 1992.70 116.173   4-0.10017 0.25393-0.24662 0.07995-0.96605 0.99402
   2   2   0 2213.72 72.9869   8 0.18354-0.02978-0.01501 0.18178 0.99989-0.97191
  -2  -2   0 2019.82 112.427   9 0.10766-0.26127-0.25347 0.08689 0.96489-0.99284
  -2  -2   0 2267.60 92.3323   7-0.18111 0.02737 0.01225-0.17898-0.99993 0.97205
   2   2   0 2208.03 99.3711   1 0.19740-0.04371-0.02783 0.19454 0.99949-0.97153
  -2   2   0 2169.71 119.230   6-0.18708 0.03342-0.01835 0.18502-0.99982 0.97185
  -2  -2   0 2244.56 85.9568   4-0.20620 0.05240 0.03590-0.20254-0.99905 0.97109
   3  -2   0 280.387 27.1255   9 0.23861-0.00804 0.08834-0.25496 0.99436-0.95223
  -3  -2   0 300.551 29.2724   6-0.21022-0.02035 0.04797-0.21460-0.99843 0.95650
   3   2   0 245.643 35.7962   8 0.18756 0.04307-0.01658 0.18338 0.99985-0.95788
   3  -2   0 264.724 46.8101   8 0.16876 0.06175-0.00926-0.15734 0.99987-0.95792
  -3  -2   0 246.882 43.8781   9 0.07001-0.30047-0.33963 0.17307 0.93505-0.97698
  -3   2   0 319.643 51.4048   7-0.16836-0.06209 0.00989 0.15670-0.99986 0.95794
  -3   2   0 261.270 45.5143   6-0.18763-0.04290-0.01681 0.18344-0.99984 0.95789
   3  -2   0 319.005 52.0500   4-0.06443 0.29513-0.33199 0.16536-0.93708 0.97902
   3   2   0 262.161 34.2106   1 0.19790 0.03265-0.03097 0.19767 0.99939-0.95744
  -3  -2   0 289.389 44.1907   7-0.18546-0.04512 0.01306-0.17983-0.99991 0.95806
  -3  -2   0 268.199 26.4291   4-0.21040-0.02024 0.04816-0.21478-0.99841 0.95649
  -4  -2   0 1009.05 45.8099   4-0.18375-0.12369-0.02807-0.13858-0.99960 0.94370
  -4  -2   0 1017.32 46.4177   6-0.18340-0.12400-0.02865-0.13804-0.99959 0.94368
   4   2   0 807.502 58.2784   1 0.19004 0.11737 0.01629 0.15039 0.99983-0.94391
  -4  -2   0 920.836 103.662   9 0.03103-0.33834-0.42405 0.25750 0.89567-0.95157
   4   2   0 994.336 99.7033   8 0.21341 0.09411-0.02669 0.19353 0.99913-0.94316
   4  -2   0 1012.26 120.414   8 0.18943 0.11795-0.01731-0.14927 0.99982-0.94389
   4  -2   0 1099.13 112.692   4-0.02700 0.33463-0.41677 0.25019-0.89834 0.95424
   4  -2   0 897.947 43.0370   9 0.22525 0.08215 0.04983-0.21649 0.99777-0.94163
  -4   2   0 981.089 110.247   7-0.19125-0.11604 0.01413 0.15243-0.99986 0.94398
  -4  -2   0 1098.77 108.060   7-0.20866-0.09876 0.01737-0.18416-0.99948 0.94364
  -4   2   0 1027.85 105.502   6-0.19565-0.11172 0.00588 0.16071-0.99989 0.94396
  -5  -2   0 1379.87 122.283   9-0.00894-0.37522-0.50570 0.33915 0.84666-0.91654
  -5  -2   0 1215.46 120.894   7-0.23837-0.14588 0.02290-0.18973-0.99807 0.92821
  -5   2   0 1091.42 102.961   6-0.20898-0.17522 0.04435 0.12222-0.99863 0.92873
  -5   2   0 1128.79 125.526   7-0.21980-0.16433 0.01944 0.14709-0.99906 0.92919
   5   2   0 1174.05 61.5973   1 0.16721 0.21701 0.14065 0.02597 0.98997-0.92006
   5  -2   0 1115.77 114.528   4 0.01167 0.37291-0.49958 0.33308-0.84959 0.91940
   5   2   0 1162.13 104.345   8 0.24534 0.13904-0.03924 0.20613 0.99711-0.92715
   5  -2   0 1284.57 130.626   8 0.21616 0.16810-0.02777-0.13879 0.99900-0.92908
  -6   2   0 1028.68 108.842   6-0.22616-0.23485 0.09531 0.07122-0.99439 0.91051
  -6  -2   0 874.261 110.640   9-0.04966-0.41136-0.58385 0.41730 0.78781-0.87167
   6  -2   0 1485.89 150.297   4 0.05134 0.41019-0.57946 0.41305-0.79044 0.87415
  -6   2   0 1326.96 153.957   7-0.25137-0.20960 0.02533 0.14117-0.99714 0.91326
   6   2   0 1121.51 125.429   2 0.24849 0.21276 0.03381 0.13285 0.99710-0.91318
  -6   2   0 1081.85 94.3731   3-0.28613-0.17510-0.07025 0.23673-0.99172 0.90785
   6   2   0 961.729 108.872   8 0.27983 0.18142-0.05287 0.21981 0.99351-0.90954
  -6  -2   0 1032.97 122.443   7-0.27133-0.18975 0.02907-0.19593-0.99536 0.91152
   6  -2   0 1037.11 74.4158   2 0.29242 0.16883 0.08772-0.25447 0.98956-0.90561
   6  -2   0 985.607 129.135   8 0.24629 0.21484-0.03961-0.12692 0.99703-0.91311
   7  -2   0 1265.83 159.316   8 0.27850 0.25950-0.05235-0.11415 0.99367-0.89575
   7   2   0 1375.99 139.535   8 0.31562 0.22249-0.06711 0.23410 0.98814-0.89015
  -7   2   0 1462.45 123.556   3-0.32812-0.20997-0.10729 0.27374-0.98255 0.88473
  -7   2   0 1520.51 139.009   6-0.24611-0.29169 0.15684 0.00966-0.98529 0.88744
  -7  -2   0 1229.84 144.830   7-0.30576-0.23214 0.03554-0.20242-0.99119 0.89329
  -7   2   0 1411.81 179.313   7-0.28463-0.25315 0.03156 0.13488-0.99391 0.89593
   7   2   0 1521.80 155.592   2 0.27452 0.26361 0.06559 0.10106 0.99327-0.89536
   8   2   0 659.942 110.436   8 0.35218 0.26280-0.08176 0.24880 0.98087-0.86886
  -8   2   0 773.357 154.835   7-0.31923-0.29537 0.03808 0.12834-0.98919 0.87718
  -8  -2   0 775.317 131.446   7-0.34130-0.27343 0.04225-0.20915-0.98543 0.87348
   8  -2   0 742.052 128.160   8 0.31210 0.30279-0.06570-0.10076 0.98874-0.87681
  -8  -2   0 738.659 124.803   3-0.30633-0.30879-0.08800-0.07884-0.98776 0.87587
   8   2   0 819.146 126.135   2 0.30277 0.31225 0.10062 0.06601 0.98700-0.87509
  -9  -2   0 846.589 149.264   3-0.33811-0.35388-0.11622-0.05063-0.97982 0.85396
  -9  -2   0 714.019 136.508   7-0.37763-0.31392 0.04914-0.21608-0.97792 0.85200
   9   2   0 895.103 140.392   8 0.38921 0.30263-0.09670 0.26378 0.97158-0.84555
  -9   2   0 803.142 177.077   7-0.35477-0.33669 0.04480 0.12158-0.98284 0.85689
   9   2   0 813.200 133.825   2 0.33264 0.35927 0.13834 0.02828 0.97780-0.85188
   9  -2   0 868.762 165.652   8 0.34664 0.34511-0.07953-0.08690 0.98209-0.85615
  10  -2   0 98.8151 62.9149   8 0.38188 0.38675-0.09373-0.07265 0.97358-0.83361
 -10  -2   0 21.6968 60.7496   3-0.37094-0.39791-0.14577-0.02111-0.96932 0.82949
 -10   2   0 69.9096 105.341   7-0.39078-0.37751 0.05165 0.11470-0.97479 0.83485
 -10  -2   0 55.1562 67.5657   7-0.41440-0.35399 0.05616-0.22313-0.96859 0.82870
  10   2   0 61.1971 57.5098   2 0.36371 0.40508 0.17838-0.01178 0.96518-0.82526
  10   2   0 59.8141 78.7693   8 0.42658 0.34214-0.11189 0.27903 0.96013-0.82006
  11  -2   0 622.095 159.138   8 0.41763 0.42786-0.10824-0.05810 0.96307-0.80908
  11   2   0 544.704 151.085   5 0.41160 0.43365 0.13801 0.02892 0.96070-0.80670
  11   2   0 440.035 156.163   8 0.46419 0.38140-0.12730 0.29449 0.94637-0.79225
 -11  -2   0 333.182 118.504   3-0.40455-0.44115-0.17647 0.00959-0.95595 0.80215
 -11   2   0 101.546 85.4935   7-0.42724-0.41790 0.05861 0.10771-0.96491 0.81100
 -11  -2   0 456.186 188.556   7-0.45145-0.39375 0.06326-0.23028-0.95733 0.80343
   0   3   0 33.0037 22.8201   6-0.23589 0.23603 0.12498 0.12503-0.99055 0.99052
   0  -3   0 -0.8094 10.1074   3-0.34794 0.34799-0.12502-0.12506-0.97693 0.97693
   0  -3   0 -5.0274 6.32092   8 0.45849-0.45852-0.12496-0.12494 0.94860-0.94859
   0  -3   0 -9.0583 12.3588   4-0.14801 0.14792-0.12504-0.12500-0.99160 0.99161
   0  -3   0 -2.5790 10.9679   9 0.16024-0.16013-0.12486-0.12504 0.99197-0.99193
   0   3   0 0.31505 11.2351   2 0.32213-0.32213 0.12499 0.12499 0.98135-0.98136
  -1   3   0 935.907 59.1230   7-0.31934 0.24261 0.03810 0.21183-0.98917 0.97505
   1   3   0 835.956 77.4902   2 0.26592-0.18907 0.05504 0.19494 0.99474-0.98076
  -1   3   0 966.532 66.6034   2 0.43202-0.50887 0.26965-0.01968 0.92483-0.93883
   1   3   0 853.375 75.3434   6-0.26518 0.34221 0.21832 0.03165-0.97174 0.98568
   1   3   0 757.531 76.4168   1 0.17836-0.10158 0.08197 0.16806 0.99663-0.98265
  -1  -3   0 882.279 75.4200   4-0.16229 0.08533-0.08696-0.16305-0.99602 0.98205
   1  -3   0 873.284 64.3301   8 0.27680-0.20003-0.05167-0.19825 0.99388-0.97989
   1  -3   0 914.487 54.3502   3-0.53554 0.61254-0.30148 0.05151-0.87312 0.88703
  -1   3   0 795.543 81.5308   6-0.21765 0.14091 0.06987 0.18014-0.99688 0.98288
  -1  -3   0 902.669 83.3794   9 0.13849-0.21522-0.17928-0.07061 0.98295-0.99691
   1  -3   0 856.997 74.7877   9 0.17675-0.09980-0.08228-0.16763 0.99660-0.98257
  -2  -3   0 1821.11 103.598   4-0.16917 0.01536-0.06831-0.18168-0.99758 0.96963
   2   3   0 1864.11 115.210   1 0.18235-0.02869 0.06013 0.18992 0.99819-0.97023
  -2  -3   0 1637.71 71.6352   7-0.35222 0.19846 0.04432-0.29433-0.98335 0.95539
   2   3   0 1830.95 106.830   6-0.30565 0.45955 0.36014-0.11025-0.92232 0.95018
  -2  -3   0 1745.93 123.617   9 0.11273-0.26631-0.24149-0.00838 0.96827-0.99622
  -2   3   0 1900.88 131.146   6-0.20880 0.05519 0.04383 0.20618-0.99866 0.97069
  -2   3   0 1855.91 107.499   7-0.24154 0.08798 0.02349 0.22643-0.99786 0.96985
   2  -3   0 1730.02 126.722   4-0.10431 0.25804-0.23642-0.01362-0.96888 0.99686
   2  -3   0 1745.62 109.779   8 0.22758-0.07398-0.03225-0.21767 0.99839-0.97042
   2  -3   0 1724.57 98.8475   9 0.18616-0.03238-0.05750-0.19243 0.99834-0.97029
  -3  -3   0 6486.55 182.127   4-0.16522-0.06542-0.07904-0.17094-0.99673 0.95481
   3   3   0 6822.47 214.695   6-0.35188 0.58260 0.55575-0.30595-0.80467 0.84641
  -3  -3   0 6253.06 191.075   7-0.28535 0.05475 0.03170-0.28176-0.99383 0.95191
  -3  -3   0 6285.67 243.553   9 0.08383-0.31424-0.30855 0.05870 0.94696-0.98889
   3  -3   0 6450.88 178.113   9 0.18513 0.04547-0.06022-0.18974 0.99818-0.95613
   3   3   0 6230.82 147.327   8 0.32975-0.09916-0.07276 0.32291 0.98555-0.94357
   3   3   0 6379.09 212.501   1 0.18170 0.04883 0.06372 0.18631 0.99797-0.95602
   3  -3   0 5707.09 242.217   4-0.07703 0.30769-0.30241 0.05239-0.94821 0.99016
  -3   3   0 6695.65 243.628   7-0.22782-0.00258 0.02093 0.22898-0.99868 0.95670
  -3   3   0 6218.83 249.969   6-0.20746-0.02302 0.03991 0.21006-0.99886 0.95691
   3  -3   0 6069.30 235.904   8 0.21927 0.01119-0.02899-0.22093 0.99885-0.95690
  -4   3   0 2155.83 158.085   7-0.23672-0.07051 0.02259 0.22729-0.99817 0.94222
   4   3   0 2030.04 108.802   8 0.30729 0.00019-0.06378 0.31399 0.98954-0.93356
  -4   3   0 2158.75 154.991   6-0.21201-0.09533 0.05321 0.19674-0.99811 0.94217
  -4  -3   0 2074.72 133.390   7-0.28048-0.02695 0.03078-0.28088-0.99438 0.93846
  -4  -3   0 2086.71 152.240   9 0.05240-0.35967-0.37836 0.12851 0.91830-0.97420
  -4   3   0 2151.68 62.4375   3-0.38211 0.07460-0.15592 0.40570-0.96518 0.90931
   4  -3   0 2099.98 157.078   4-0.04704 0.35465-0.37194 0.12195-0.92014 0.97606
  -4  -3   0 2095.09 95.1913   4-0.14290-0.16454-0.13845-0.11159-0.98964 0.93376
   4  -3   0 2206.55 94.5974   9 0.16638 0.14107-0.10915-0.14085 0.99392-0.93791
   4  -3   0 2055.43 157.037   8 0.22867 0.07865-0.03268-0.21723 0.99832-0.94239
   4   3   0 2237.42 122.497   1 0.17532 0.13206 0.09836 0.15165 0.99513-0.93921
  -5  -3   0 1039.73 117.093   9 0.01891-0.40303-0.44932 0.19948 0.88172-0.95161
   5  -3   0 1028.87 124.052   8 0.24731 0.13689-0.04001-0.20988 0.99695-0.92703
  -5  -3   0 1125.94 58.6857   4-0.07732-0.30685-0.30170 0.05152-0.94846 0.87868
   5   3   0 1014.88 78.4644   1 0.16073 0.22348 0.17312 0.07683 0.98472-0.91481
   5  -3   0 1027.35 52.6558   9 0.10588 0.27844-0.25765 0.00758 0.96367-0.89374
  -5   3   0 1159.07 65.9208   3-0.36446-0.01991-0.13990 0.38965-0.97159 0.90174
   5   3   0 1147.00 127.465   2 0.25015 0.13420 0.03582 0.21417 0.99691-0.92698
  -5   3   0 964.866 112.046   6-0.22114-0.16304 0.08026 0.16964-0.99595 0.92604
   5  -3   0 990.858 117.156   4-0.01486 0.39941-0.44328 0.19336-0.88399 0.95385
   5   3   0 1030.22 93.2278   8 0.31771 0.06664-0.06794 0.31821 0.98777-0.91779
  -5   3   0 921.683 118.083   7-0.25618-0.12790 0.02623 0.22363-0.99676 0.92684
  -5  -3   0 1109.55 114.212   7-0.29539-0.08888 0.03358-0.28372-0.99259 0.92269
  -6   3   0 242.502 74.1231   7-0.28111-0.17980 0.03090 0.21891-0.99431 0.91031
  -6   3   0 287.327 44.1641   3-0.38360-0.07761-0.15727 0.40700-0.96460 0.88080
   6  -3   0 341.267 82.3479   8 0.27136 0.18970-0.04952-0.20036 0.99453-0.91062
  -6   3   0 282.064 70.4042   6-0.23385-0.22715 0.11872 0.13114-0.99144 0.90755
   6   3   0 188.919 61.4054   2 0.26748 0.19376 0.05694 0.19305 0.99449-0.91057
  -6  -3   0 171.713 53.3363   7-0.31908-0.14202 0.03805-0.28822-0.98921 0.90535
  -6  -3   0 172.142 59.8607   9-0.01628-0.44468-0.52017 0.27034 0.83671-0.92058
   6   3   0 257.497 57.5741   8 0.34005 0.12116-0.07689 0.32720 0.98348-0.89949
   6  -3   0 271.118 70.5218   4 0.01917 0.44233-0.51508 0.26521-0.83912 0.92291
   7   3   0 935.108 111.640   8 0.36807 0.17002-0.08816 0.33852 0.97713-0.87911
  -7  -3   0 486.404 91.0431   9-0.05292-0.48489-0.58990 0.34006 0.78269-0.88053
  -7  -3   0 899.726 122.574   7-0.34708-0.19083 0.04334-0.29352-0.98435 0.88638
   7   3   0 817.210 123.828   2 0.28857 0.24956 0.08293 0.16706 0.99044-0.89253
  -7   3   0 924.286 139.360   7-0.30975-0.22799 0.03629 0.21349-0.99062 0.89263
   7  -3   0 1200.53 156.903   4 0.05479 0.48366-0.58617 0.33638-0.78485 0.88253
   7  -3   0 985.123 148.888   8 0.29886 0.23908-0.06043-0.18941 0.99086-0.89295
  -7  -3   0 690.996 117.046   3-0.29217-0.24613-0.07554-0.17465-0.99062 0.89269
  -7   3   0 936.315 125.451   6-0.24932-0.28848 0.16701 0.08281-0.98336 0.88549
  -8   3   0 684.896 115.318   6-0.26694-0.34764 0.22412 0.02565-0.97022 0.85839
   8  -3   0 590.963 143.196   8 0.32868 0.28613-0.07233-0.17749 0.98575-0.87383
  -8  -3   0 566.184 119.905   3-0.31835-0.29683-0.09862-0.15157-0.98501 0.87310
  -8   3   0 744.524 147.089   7-0.34072-0.27387 0.04214 0.20762-0.98553 0.87358
   8   3   0 550.276 96.5816   8 0.39923 0.21573-0.10076 0.35117 0.96872-0.85668
   8   3   0 638.536 118.373   2 0.31243 0.30258 0.11274 0.13723 0.98432-0.87241
  -8  -3   0 510.916 108.862   7-0.37820-0.23654 0.04925-0.29947-0.97779 0.86587
   9  -3   0 275.740 114.644   8 0.36015 0.33154-0.08497-0.16482 0.97904-0.85311
   9   3   0 274.155 94.5054   8 0.43231 0.25951-0.11424 0.36470 0.95819-0.83211
   9   3   0 395.130 107.136   2 0.33840 0.35350 0.14570 0.10427 0.97570-0.84979
  -9   3   0 176.747 92.9730   7-0.37322-0.31822 0.04830 0.20143-0.97892 0.85301
  -9  -3   0 345.874 107.576   3-0.34651-0.34553-0.12374-0.12646-0.97737 0.85148
  -9  -3   0 319.724 94.8644   7-0.41103-0.28054 0.05552-0.30578-0.96952 0.84363
 -10  -3   0 238.186 112.548   7-0.44503-0.32337 0.06203-0.31233-0.95942 0.81952
 -10  -3   0 7.92186 66.7784   3-0.37619-0.39271-0.15053-0.09968-0.96741 0.82755
  10   3   0 85.0311 85.1149   2 0.36598 0.40279 0.18134 0.06861 0.96413-0.82421
 -10   3   0 28.0253 81.7334   7-0.40677-0.36150 0.05469 0.19500-0.97068 0.83076
  10  -3   0 252.125 103.431   8 0.39282 0.37574-0.09816-0.15159 0.97057-0.83062
 -11  -3   0 1.56263 110.982   7-0.47989-0.36533 0.06875-0.31908-0.94734 0.79345
 -11   3   0 197.503 121.182   7-0.44116-0.40395 0.06128 0.18838-0.96065 0.80674
  11  -3   0 321.012 130.555   8 0.42640 0.41904-0.11182-0.13790 0.96019-0.80622
 -11  -3   0 382.517 132.197   3-0.40703-0.43873-0.17876-0.07147-0.95485 0.80101
  11   3   0 457.233 147.747   5 0.41749 0.42784 0.14159 0.10877 0.95855-0.80448
   0   4   0 2917.59 152.241   2 0.35468-0.35469 0.16665 0.16664 0.96918-0.96919
   0  -4   0 2812.49 165.243   4-0.13199 0.13190-0.16671-0.16666-0.98483 0.98485
   0   4   0 2929.02 117.000   5 0.45839-0.45863 0.16660 0.16673 0.94182-0.94172
   0  -4   0 2857.51 136.777   3-0.39390 0.39398-0.16669-0.16675-0.96048 0.96046
   0   4   0 2694.34 168.108   1 0.16205-0.16214 0.16664 0.16671 0.98585-0.98586
   0  -4   0 2983.63 99.9599   8 0.55853-0.55856-0.16660-0.16657 0.90064-0.90062
   0   4   0 2737.07 164.375   6-0.24920 0.24941 0.16663 0.16671-0.98343 0.98339
   0  -4   0 2711.96 158.642   9 0.14366-0.14351-0.16653-0.16668 0.98538-0.98533
   2  -4   0 2614.36 144.484   8 0.30324-0.14967-0.06217-0.27104 0.99019-0.96221
  -2   4   0 2510.42 174.360   6-0.22685 0.07328 0.09743 0.23591-0.99415 0.96616
  -2  -4   0 2609.33 172.208   9 0.10830-0.26184-0.25196-0.08122 0.96532-0.99327
  -2   4   0 1506.83 97.4615   2 0.56158-0.71526 0.46113-0.12782 0.77771-0.80573
   2   4   0 2650.23 152.989   6-0.30038 0.45435 0.34057-0.00733-0.93074 0.95859
   2  -4   0 2507.51 143.856   9 0.15870-0.00489-0.12878-0.20447 0.99143-0.96341
  -2  -4   0 2657.81 159.634   3-0.28611 0.13230-0.07023-0.26329-0.99172 0.96373
   2   4   0 2563.42 161.280   1 0.17055-0.01691 0.12342 0.20994 0.99230-0.96434
  -2  -4   0 3159.16 91.0495   7-0.66816 0.51440 0.10585-0.43919-0.84572 0.81786
  -2   4   0 2384.95 128.602   7-0.34476 0.19124 0.04290 0.29035-0.98479 0.95675
  -2  -4   0 2618.63 151.456   4-0.14390-0.00991-0.13583-0.19749-0.99004 0.96210
  -3   4   0 1368.75 134.191   6-0.22469-0.00575 0.09090 0.24242-0.99487 0.95291
   3   4   0 1712.18 68.8095   8 0.65991-0.42944-0.21007 0.54354 0.82941-0.78732
   3   4   0 1376.52 117.241   1 0.16945 0.06106 0.12914 0.20421 0.99156-0.94962
   3   4   0 1116.55 120.042   2 0.26978-0.03920 0.05976 0.27355 0.99411-0.95216
   3  -4   0 1420.49 102.961   9 0.15448 0.07616-0.13946-0.19382 0.98989-0.94789
  -3   4   0 1430.68 116.403   7-0.30446 0.07411 0.03529 0.29792-0.99138 0.94930
   3  -4   0 1299.53 117.113   8 0.27970-0.04928-0.05282-0.28040 0.99352-0.95157
  -3  -4   0 1434.61 86.4440   7-0.44655 0.21594 0.06232-0.39570-0.95893 0.91704
   3  -4   0 1345.71 132.562   4-0.07790 0.30852-0.30034-0.03306-0.94894 0.99091
  -3  -4   0 1291.81 102.197   4-0.13807-0.09256-0.15101-0.18232-0.98762 0.94571
  -3  -4   0 1311.06 127.958   9 0.08526-0.31564-0.30529-0.02787 0.94813-0.99006
   3   4   0 1679.53 122.750   6-0.33506 0.56588 0.47810-0.14494-0.85931 0.90106
  -4   4   0 796.446 101.949   7-0.29702-0.01017 0.03389 0.29930-0.99238 0.93632
  -4   4   0 772.088 106.497   6-0.22727-0.08004 0.09870 0.23459-0.99400 0.93806
   4   4   0 826.011 111.204   2 0.26970 0.03775 0.05966 0.27366 0.99412-0.93819
   4  -4   0 741.593 97.8453   8 0.27780 0.02947-0.05207-0.28115 0.99376-0.93783
   4  -4   0 665.488 100.692   4-0.05332 0.36088-0.35766 0.02428-0.92646 0.98239
   4   4   0 763.356 85.6611   1 0.16395 0.14342 0.15713 0.17620 0.98744-0.93151
   4   4   0 826.715 65.8472   8 0.47919-0.17180-0.13349 0.46705 0.94021-0.88418
   4  -4   0 877.919 79.4622   9 0.13756 0.16993-0.18158-0.15174 0.98249-0.92653
  -4  -4   0 831.564 79.1099   4-0.11960-0.18781-0.19827-0.13509-0.97834 0.92247
  -4  -4   0 787.725 80.2089   7-0.39045 0.08299 0.05158-0.38498-0.97488 0.91896
  -4  -4   0 743.483 103.086   9 0.05940-0.36662-0.36310 0.02995 0.92516-0.98107
   5   4   0 4684.84 206.185   1 0.15270 0.23151 0.21198 0.12130 0.97693-0.90702
   5  -4   0 4749.50 162.268   9 0.09866 0.28568-0.27449-0.05889 0.95851-0.88857
  -5  -4   0 4184.10 259.354   3-0.28034-0.10422-0.06519-0.26837-0.99270 0.92273
  -5  -4   0 4396.88 265.156   9 0.03110-0.41517-0.42391 0.09076 0.89574-0.96563
   5   4   0 4265.96 264.252   2 0.27707 0.10726 0.06873 0.26460 0.99280-0.92288
   5  -4   0 4245.31 263.388   4-0.02622 0.41074-0.41849 0.08514-0.89745 0.96734
   5  -4   0 3939.98 246.818   8 0.28789 0.09624-0.05608-0.27714 0.99244-0.92252
  -5  -4   0 4535.55 222.123   7-0.37974-0.00454 0.04954-0.38298-0.97744 0.90752
   5  -4   0 4867.18 148.047   5 0.50744-0.12364 0.19706-0.52992 0.91716-0.84746
   5   4   0 4528.98 186.587   8 0.43776-0.05348-0.11647 0.45008 0.95628-0.88626
  -5   4   0 4273.63 256.714   6-0.23378-0.15038 0.11850 0.21474-0.99147 0.92155
  -5   4   0 4418.85 260.547   7-0.30536-0.07866 0.03546 0.29770-0.99125 0.92121
  -5  -4   0 4567.23 163.741   4-0.07935-0.30482-0.29690-0.03656-0.95015 0.88037
   6   4   0 63.8622 32.8279   8 0.43421 0.02696-0.11501 0.44869 0.95753-0.87349
  -6  -4   0 -7.0822 44.2528   3-0.29490-0.16656-0.07793-0.25563-0.99010 0.90614
  -6   4   0 99.7006 54.4818   6-0.24348-0.21751 0.14858 0.18462-0.98677 0.90286
   6  -4   0 74.4692 56.3313   8 0.30532 0.15568-0.06300-0.27019 0.98986-0.90595
   6  -4   0 83.1053 43.3381   4 0.00304 0.45843-0.48153 0.14824-0.86122 0.94505
   6   4   0 153.721 61.6754   2 0.28990 0.17133 0.08458 0.24875 0.99014-0.90623
  -6  -4   0 35.0198 39.6143   7-0.38801-0.07310 0.05112-0.38458-0.97547 0.89155
  -6   4   0 22.6217 40.8256   7-0.32243-0.13842 0.03868 0.29445-0.98868 0.90461
  -6  -4   0 19.9088 43.1777   9 0.00069-0.46161-0.48647 0.15334 0.85926-0.94313
   7   4   0 2062.35 202.324   2 0.30679 0.23131 0.10566 0.22766 0.98592-0.88801
   7  -4   0 2242.05 217.511   4 0.03425 0.50418-0.54568 0.21246-0.81706 0.91481
   7  -4   0 2124.63 215.544   8 0.32754 0.21034-0.07187-0.26130 0.98597-0.88806
  -7  -4   0 2125.75 211.448   3-0.31383-0.22450-0.09462-0.23893-0.98608 0.88813
  -7  -4   0 2314.07 195.646   7-0.40611-0.13182 0.05458-0.38808-0.97085 0.87296
  -7  -4   0 2610.98 240.456   9-0.03157-0.50620-0.54976 0.21662 0.81508-0.91293
  -7   4   0 2280.17 214.930   6-0.25579-0.28201 0.18768 0.14547-0.97906 0.88118
  -7   4   0 2171.77 224.598   7-0.34520-0.19252 0.04298 0.29014-0.98470 0.88674
  -8  -4   0 37.8825 58.2970   7-0.42984-0.18492 0.05911-0.39265-0.96413 0.85225
   8  -4   0 4.11761 63.1881   8 0.35306 0.26169-0.08211-0.25104 0.98067-0.86876
   8   4   0 -73.870 70.7704   2 0.32681 0.28818 0.13092 0.20240 0.97981-0.86790
  -8  -4   0 -104.63 52.2121   9-0.06549-0.54913-0.61282 0.27969 0.76248-0.87431
  -8  -4   0 8.30449 51.9949   3-0.33601-0.27920-0.11433-0.21922-0.98042 0.86849
  -8   4   0 -9.8046 70.7428   6-0.27019-0.34441 0.23495 0.09815-0.96728 0.85543
  -8   4   0 112.997 99.8148   7-0.37139-0.24316 0.04796 0.28515-0.97933 0.86740
  -9  -4   0 472.070 127.337   3-0.36064-0.33145-0.13645-0.19712-0.97288 0.84696
   9   4   0 429.994 119.433   2 0.34926 0.34262 0.15964 0.17366 0.97145-0.84555
  -9   4   0 464.224 124.779   7-0.40002-0.29138 0.05341 0.27967-0.97246 0.84652
  -9  -4   0 464.570 120.338   7-0.45717-0.23441 0.06436-0.39794-0.95542 0.82953
   9  -4   0 282.111 82.4095   8 0.38097 0.31066-0.09335-0.23977 0.97383-0.84790
 -10  -4   0 24.2885 61.8901   7-0.48694-0.28148 0.07011-0.40372-0.94468 0.80479
  10   4   0 56.7133 84.8895   2 0.37361 0.39515 0.19131 0.14199 0.96046-0.82055
 -10  -4   0 40.6090 83.5034   3-0.38717-0.38178-0.16053-0.17303-0.96321 0.82331
 -10   4   0 47.9074 69.6970   7-0.43045-0.33779 0.05922 0.27381-0.96395 0.82402
  10  -4   0 -85.180 105.806   8 0.41062 0.35787-0.10539-0.22772 0.96529-0.82535
  11   4   0 117.017 87.0320   2 0.39950 0.44616 0.22559 0.10769 0.94639-0.79246
 -11  -4   0 380.652 155.503   3-0.41521-0.43061-0.18631-0.14727-0.95112 0.79725
   0   5   0 -6.3844 36.1583   1 0.15348-0.15360 0.20829 0.20839 0.97774-0.97774
   0  -5   0 14.7354 20.0805   9 0.12661-0.12644-0.20827-0.20824 0.97670-0.97668
   0  -5   0 -0.0283 10.6791   8 0.65575-0.65575-0.20826-0.20821 0.83288-0.83288
   0  -5   0 -1.1262 22.7592   3-0.43887 0.43899-0.20835-0.20846-0.93931 0.93926
   0   5   0 -11.971 13.1144   5 0.52520-0.52556 0.20823 0.20842 0.90688-0.90669
   0   5   0 5.50749 35.1956   6-0.26213 0.26239 0.20828 0.20840-0.97426 0.97419
   0   5   0 12.7053 25.4837   2 0.38652-0.38652 0.20831 0.20830 0.95377-0.95378
  -1  -5   0 347.509 61.8976   3-0.37210 0.29527-0.14682-0.27006-0.96890 0.95489
  -1   5   0 411.492 79.2849   6-0.25003 0.17339 0.16924 0.24746-0.98292 0.96889
   1  -5   0 274.586 69.2474   4-0.10496 0.18172-0.23483-0.18190-0.96931 0.98332
  -1   5   0 -32.812 21.6124   1 0.14621-0.22318 0.24234 0.17432 0.96970-0.98367
   1  -5   0 353.095 67.7536   9 0.13386-0.05685-0.19066-0.22588 0.98062-0.96660
   1   5   0 277.839 65.5245   1 0.15806-0.08131 0.18622 0.23048 0.98228-0.96830
   1  -5   0 376.069 52.3260   3-0.55116 0.62825-0.31710-0.09961-0.85918 0.87303
   1   5   0 348.195 54.1683   5 0.41347-0.33691 0.13915 0.27771 0.96002-0.94594
   1   5   0 346.641 70.1168   6-0.27964 0.35678 0.26695 0.14970-0.95774 0.97163
  -1   5   0 321.034 40.5350   7-0.63211 0.55544 0.09863 0.31791-0.87075 0.85661
  -1  -5   0 287.308 65.6677   9 0.11483-0.19150-0.23651-0.17998 0.96962-0.98358
  -1   5   0 346.222 57.3507   2 0.45319-0.53003 0.29901 0.11760 0.90819-0.92220
   1  -5   0 372.463 54.1635   8 0.46820-0.39147-0.12896-0.28751 0.94475-0.93074
  -2   5   0 313.553 51.5040   7-0.46324 0.30977 0.06553 0.35101-0.95334 0.92524
  -2  -5   0 280.325 59.7999   3-0.33479 0.18099-0.11324-0.30367-0.98076 0.95276
   2  -5   0 267.399 51.3260   8 0.38441-0.23088-0.09475-0.32174 0.97290-0.94492
   2  -5   0 292.537 55.1735   9 0.13549 0.01835-0.18665-0.22991 0.98146-0.95345
   2   5   0 265.759 65.7390   2 0.31773-0.16403 0.11942 0.29720 0.98273-0.95478
  -2   5   0 321.653 52.6323   2 0.54759-0.70127 0.43873-0.02212 0.80022-0.82824
   2   5   0 301.161 60.0867   6-0.30245 0.45648 0.34820 0.06839-0.92752 0.95534
  -2   5   0 283.240 74.7992   6-0.24297 0.08944 0.14698 0.26971-0.98704 0.95904
   2  -5   0 353.003 77.3707   4-0.09051 0.24418-0.27012-0.14662-0.95902 0.98701
  -2  -5   0 265.931 63.5241   9 0.09922-0.25273-0.27318-0.14329 0.95893-0.98687
   2   5   0 273.683 65.6980   1 0.15981-0.00618 0.17767 0.23903 0.98389-0.95592
   3   5   0 2837.06 196.004   1 0.15844 0.07205 0.18438 0.23232 0.98263-0.94068
   3   5   0 2838.57 207.152   2 0.30493-0.07437 0.10333 0.31330 0.98642-0.94448
  -3   5   0 3162.52 182.790   7-0.39605 0.16576 0.05265 0.36388-0.97347 0.93142
   3   5   0 3251.80 196.614   6-0.32950 0.56040 0.45438-0.03787-0.87378 0.91550
  -3  -5   0 3018.16 183.101   4-0.11563-0.11499-0.20826-0.20840-0.97604 0.93414
  -3  -5   0 2876.39 206.880   9 0.08034-0.31068-0.31646-0.10000 0.94405-0.98598
   3  -5   0 2798.14 182.591   8 0.34730-0.11694-0.07980-0.33671 0.98195-0.93999
  -3   5   0 2738.61 211.014   6-0.24041 0.01000 0.13899 0.27768-0.98838 0.94640
   3  -5   0 2723.26 212.413   4-0.07278 0.30337-0.31245-0.10431-0.94456 0.98654
  -3  -5   0 3065.53 128.957   7-0.69210 0.46148 0.11069-0.52738-0.82728 0.78544
   3  -5   0 3229.26 182.528   9 0.12993 0.10074-0.20023-0.21637 0.97854-0.93656
  -3  -5   0 2895.97 200.700   3-0.31656 0.08583-0.09704-0.31989-0.98544 0.94344
   4  -5   0 54.1198 39.6325   4-0.05217 0.35969-0.36029-0.05647-0.92531 0.98126
   4  -5   0 66.0776 44.8263   8 0.33459-0.02738-0.07470-0.34181 0.98460-0.92866
  -4  -5   0 1.28037 17.1407   7-0.54724 0.23979 0.08186-0.49857-0.91862 0.86276
  -4  -5   0 25.7246 25.4639   4-0.09936-0.20804-0.24859-0.16809-0.96549 0.90965
  -4  -5   0 19.9285 32.2878   9 0.05860-0.36578-0.36485-0.05160 0.92439-0.98031
   4   5   0 3.72279 20.4024   6-0.35768 0.66541 0.58553-0.16910-0.78043 0.83600
  -4   5   0 56.4138 43.7082   6-0.24177-0.06551 0.14323 0.27340-0.98768 0.93172
   4  -5   0 3.91155 30.9410   9 0.11451 0.19301-0.23727-0.17936 0.96941-0.91344
  -4   5   0 29.2854 31.3873   7-0.37077 0.06363 0.04784 0.36870-0.97947 0.92345
   4   5   0 -7.0848 41.1649   2 0.30160 0.00584 0.09916 0.31748 0.98730-0.93137
  -4  -5   0 53.3532 33.8426   3-0.31118 0.00353-0.09227-0.32465-0.98668 0.93070
   4   5   0 75.8304 40.0399   1 0.15345 0.15391 0.20842 0.20824 0.97772-0.92178
   5  -5   0 1103.61 148.860   4-0.02900 0.41348-0.41236-0.00437-0.90062 0.97053
  -5   5   0 1139.67 152.921   6-0.24648-0.13764 0.15803 0.25855-0.98507 0.91513
  -5  -5   0 1276.96 117.333   7-0.49616 0.11187 0.07190-0.48866-0.94108 0.87121
  -5  -5   0 1010.79 135.857   9 0.03434-0.41837-0.41706 0.00063 0.89934-0.96923
   5   5   0 957.998 143.593   2 0.30536 0.07896 0.10387 0.31278 0.98631-0.91639
   5  -5   0 1132.62 139.804   8 0.33612 0.04793-0.07531-0.34120 0.98429-0.91436
  -5  -5   0 956.516 133.824   3-0.31475-0.06982-0.09543-0.32151-0.98586 0.91588
  -5   5   0 1098.77 138.526   7-0.36650-0.01747 0.04703 0.36948-0.98040 0.91038
  -6  -5   0 -45.751 51.7119   9 0.00783-0.46871-0.47203 0.05560 0.86828-0.95216
  -6  -5   0 39.5390 41.6369   7-0.48131 0.02019 0.06902-0.48581-0.94681 0.86294
   6   5   0 -55.917 54.0099   2 0.31452 0.14668 0.11538 0.30127 0.98370-0.89979
  -6   5   0 -33.549 46.5102   6-0.25406-0.20692 0.18210 0.23443-0.98027 0.89635
   6  -5   0 44.8327 55.5189   4-0.00356 0.46500-0.46755 0.05085-0.86984 0.95370
  -6  -5   0 -24.980 43.1670   3-0.32476-0.13671-0.10431-0.31262-0.98342 0.89944
   6  -5   0 -44.902 63.0340   8 0.34669 0.11424-0.07955-0.33696 0.98208-0.89817
  -6   5   0 3.35832 39.6934   7-0.37450-0.08632 0.04855 0.36795-0.97864 0.89466
   7  -5   0 835.306 155.100   4 0.02395 0.51445-0.52486 0.10820-0.83227 0.93006
  -7  -5   0 693.385 134.375   9-0.02069-0.51703-0.52879 0.11236 0.83060-0.92847
  -7  -5   0 550.247 117.609   3-0.33955-0.19881-0.11750-0.29943-0.97942 0.88145
   7   5   0 607.809 124.897   2 0.32788 0.21021 0.13228 0.28438 0.97945-0.88154
   7  -5   0 650.430 135.362   8 0.36331 0.17449-0.08624-0.33026 0.97829-0.88038
  -7   5   0 599.697 121.914   6-0.26401-0.27378 0.21447 0.20202-0.97272 0.87482
  -7   5   0 779.760 142.191   7-0.38996-0.14770 0.05149 0.36496-0.97500 0.87700
   8  -5   0 -41.864 48.5327   4 0.05336 0.56200-0.58340 0.16680-0.78717 0.89886
   8  -5   0 11.4261 58.2222   8 0.38420 0.23048-0.09466-0.32182 0.97296-0.86105
  -8   5   0 -72.653 71.3281   6-0.27595-0.33865 0.25439 0.16204-0.96164 0.84977
  -8   5   0 21.1115 62.8542   7-0.41057-0.20393 0.05542 0.36101-0.96965 0.85769
   8   5   0 36.7723 58.8637   2 0.34453 0.27045 0.15356 0.26309 0.97335-0.86145
  -8  -5   0 -8.4150 56.1062   3-0.35799-0.25726-0.13406-0.28288-0.97376 0.86180
  -8  -5   0 82.0891 65.3620   9-0.05107-0.56350-0.58646 0.17004 0.78561-0.89746
  -9  -5   0 207.496 110.528   3-0.37924-0.31289-0.15330-0.26363-0.96627 0.84033
   9   5   0 109.718 78.2977   2 0.36381 0.32805 0.17851 0.23814 0.96513-0.83923
  -9   5   0 -34.812 74.7919   7-0.43470-0.25664 0.06004 0.35636-0.96266 0.83671
   9  -5   0 73.2356 68.5321   8 0.40819 0.28336-0.10440-0.31207 0.96604-0.84012
 -10   5   0 -5.4444 98.7118   7-0.46140-0.30678 0.06518 0.35119-0.95397 0.81402
 -10  -5   0 36.9687 78.7899   3-0.40271-0.36628-0.17479-0.24215-0.95675 0.81683
  10   5   0 10.2330 71.1261   2 0.38522 0.38353 0.20660 0.21003 0.95447-0.81456
  10  -5   0 -44.042 73.3747   8 0.43452 0.33390-0.11514-0.30131 0.95742-0.81749
  10   5   0 72.0896 88.5523   5 0.41957 0.34903 0.14285 0.27440 0.95778-0.81760
   0   6   0 1250.23 145.914   6-0.27464 0.27495 0.24992 0.25010-0.96298 0.96288
   0  -6   0 1293.82 142.977   9 0.10917-0.10896-0.24992-0.24989 0.96591-0.96588
   0  -6   0 1300.85 146.919   4-0.09876 0.09862-0.25007-0.24996-0.96506 0.96510
   0  -6   0 1209.50 110.997   3-0.48281 0.48298-0.25002-0.25017-0.91310 0.91301
   0   6   0 1509.54 109.485   5 0.59029-0.59075 0.24985 0.25011 0.86213-0.86179
   1  -6   0 212.777 43.6181   8 0.56430-0.48756-0.16904-0.33068 0.89726-0.88325
   1   6   0 239.624 67.4690   1 0.14821-0.07147 0.23305 0.26698 0.97202-0.95802
   1   6   0 141.353 35.1142   6-0.28920 0.36642 0.30029 0.19969-0.94640 0.96026
   1  -6   0 196.901 62.2892   9 0.11407-0.03704-0.23831-0.26152 0.96913-0.95512
   1  -6   0 269.300 50.7258   3-0.57843 0.65557-0.34483-0.15525-0.83215 0.84594
   1   6   0 168.497 44.5929   5 0.48274-0.40629 0.18165 0.31854 0.93024-0.91606
  -1   6   0 200.430 49.8235   2 0.47422-0.55107 0.32879 0.17113 0.88934-0.90335
  -1  -6   0 155.946 62.3624   9 0.10008-0.17672-0.27119-0.22860 0.95955-0.97351
  -1   6   0 221.065 68.5334   6-0.26424 0.18766 0.21521 0.28483-0.97253 0.95847
   1   6   0 218.720 59.7219   2 0.37847-0.30163 0.19768 0.30225 0.95802-0.94404
  -1  -6   0 307.799 76.0023   4-0.10278 0.02580-0.24019-0.25981-0.96785 0.95391
  -1  -6   0 236.323 58.9243   3-0.42058 0.34378-0.19129-0.30896-0.94857 0.93452
   1  -6   0 225.435 68.9331   4-0.09061 0.16734-0.26989-0.23016-0.95909 0.97311
  -2   6   0 1675.24 135.585   2 0.55014-0.70382 0.44277 0.05716 0.79628-0.82430
   2  -6   0 1474.89 129.847   8 0.46901-0.31550-0.12930-0.37045 0.94443-0.91643
  -2  -6   0 1509.90 162.759   9 0.08741-0.24088-0.30038-0.19939 0.94987-0.97782
  -2   6   0 1417.34 166.920   6-0.25782 0.10435 0.19427 0.30577-0.97758 0.94955
   2  -6   0 1400.80 138.854   9 0.11397 0.03990-0.23855-0.26131 0.96907-0.94106
  -2  -6   0 1357.19 136.911   3-0.38235 0.22858-0.15613-0.34416-0.96509 0.93706
   2   6   0 1326.08 138.187   6-0.30779 0.46189 0.36817 0.13176-0.91870 0.94649
   2   6   0 1403.71 154.577   1 0.14938 0.00424 0.22763 0.27241 0.97333-0.94535
  -2   6   0 1701.65 117.989   7-0.59342 0.43999 0.09095 0.40889-0.89436 0.86620
   2   6   0 1387.33 149.566   2 0.35336-0.19967 0.16495 0.33500 0.96974-0.94179
   2  -6   0 1296.11 155.946   4-0.07891 0.23254-0.29794-0.20215-0.94979 0.97778
  -2  -6   0 1447.90 147.146   4-0.10188-0.05194-0.24241-0.25756-0.96723 0.93933
   3  -6   0 6.35365 33.9767   9 0.10764 0.12307-0.25352-0.24639 0.96487-0.92288
  -3   6   0 12.4668 34.0653   7-0.49945 0.26919 0.07254 0.42730-0.93976 0.89766
   3  -6   0 21.9439 32.8922   8 0.42012-0.18979-0.10926-0.39052 0.96227-0.92030
  -3   6   0 -0.3203 40.8418   6-0.25509 0.02472 0.18541 0.31461-0.97955 0.93755
   3   6   0 28.0614 44.3599   1 0.14782 0.08268 0.23490 0.26512 0.97156-0.92960
   3   6   0 68.8061 53.7577   6-0.32967 0.56064 0.45509 0.04477-0.87336 0.91504
  -3  -6   0 37.9421 36.4119   3-0.36100 0.13029-0.13678-0.36354-0.97276 0.93075
  -3  -6   0 19.7439 47.3210   9 0.07162-0.30192-0.33606-0.16371 0.93649-0.97842
   3  -6   0 -39.617 52.3916   4-0.06410 0.29464-0.33277-0.16733-0.93677 0.97875
   3   6   0 -17.484 37.9304   2 0.33918-0.10862 0.14670 0.35326 0.97541-0.93347
  -3  -6   0 43.6651 47.6245   4-0.09487-0.13574-0.25954-0.24043-0.96227 0.92041
  -4   6   0 1354.97 143.683   7-0.45554 0.14846 0.06405 0.43578-0.95597 0.89990
   4  -6   0 1232.15 126.574   9 0.09313 0.21440-0.28727-0.21267 0.95436-0.89838
  -4  -6   0 1155.00 146.660   3-0.35169 0.04405-0.12839-0.37194-0.97577 0.91977
   4   6   0 1532.30 157.767   6-0.35301 0.66083 0.56143-0.06166-0.80020 0.85574
  -4   6   0 1023.26 147.566   6-0.25563-0.05161 0.18718 0.31280-0.97917 0.92318
   4  -6   0 1087.59 135.297   8 0.39735-0.09019-0.09999-0.39979 0.96927-0.91333
   4   6   0 1011.43 149.930   2 0.33348-0.02605 0.13941 0.36056 0.97750-0.92157
   4  -6   0 1259.32 167.461   4-0.04650 0.35400-0.37317-0.12695-0.91958 0.97553
  -4  -6   0 1136.20 150.243   9 0.05304-0.36019-0.37697-0.12277 0.91894-0.97486
  -5  -6   0 117.959 65.4419   3-0.35118-0.03339-0.12793-0.37240-0.97593 0.90593
   5   6   0 -57.622 54.4755   2 0.33441 0.04989 0.14060 0.35938 0.97716-0.90724
  -5   6   0 110.805 61.7976   6-0.25908-0.12501 0.19834 0.30158-0.97664 0.90668
   5  -6   0 -35.314 48.6751   4-0.02642 0.41086-0.41805-0.08206-0.89768 0.96760
  -5   6   0 -0.8645 36.0647   7-0.43793 0.05400 0.06066 0.43916-0.96167 0.89163
   5  -6   0 11.1768 40.9902   8 0.39057-0.00657-0.09724-0.40255 0.97120-0.90128
  -5  -6   0 62.6981 56.0452   9 0.03197-0.41595-0.42208-0.07766 0.89671-0.96662
  -6   6   0 392.217 95.2908   7-0.43577-0.02499 0.06025 0.43955-0.96233 0.87832
   6   6   0 397.714 109.604   2 0.34058 0.12060 0.14849 0.35149 0.97488-0.89097
   6  -6   0 274.734 88.4159   8 0.39426 0.06661-0.09874-0.40106 0.97016-0.88624
  -6   6   0 390.445 106.359   6-0.26507-0.19588 0.21794 0.28195-0.97183 0.88790
  -6  -6   0 402.107 102.724   3-0.35724-0.10424-0.13338-0.36695-0.97400 0.89001
   6  -6   0 313.004 106.863   4-0.00406 0.46545-0.46648-0.03362-0.87048 0.95436
  -6  -6   0 278.703 91.5242   9 0.00862-0.46946-0.47044-0.02930 0.86926-0.95315
   7  -6   0 124.168 71.4550   4 0.02040 0.51795-0.51760 0.01753-0.83737 0.93519
   7  -6   0 111.464 66.3993   8 0.40515 0.13258-0.10316-0.39664 0.96696-0.86905
   7   6   0 0.14762 55.7673   2 0.35093 0.18715 0.16180 0.33819 0.97077-0.87286
  -7   6   0 73.5485 65.0657   6-0.27322-0.26456 0.24514 0.25468-0.96438 0.86646
  -7   6   0 114.449 68.3652   7-0.44344-0.09416 0.06172 0.43806-0.95993 0.86193
  -7  -6   0 93.6006 70.4717   9-0.01680-0.52088-0.52118 0.02146 0.83600-0.93388
  -7  -6   0 121.094 55.6535   3-0.36832-0.17007-0.14339-0.35694-0.97025 0.87227
  -8  -6   0 904.055 186.138   9-0.04415-0.57039-0.57357 0.07386 0.79631-0.90817
   8   6   0 481.852 147.353   2 0.36464 0.25031 0.17960 0.32040 0.96475-0.85285
  -8   6   0 638.340 158.806   6-0.28323-0.33138 0.27936 0.22039-0.95369 0.84179
  -8  -6   0 649.960 140.166   3-0.38330-0.23198-0.15700-0.34332-0.96472 0.85274
  -8   6   0 664.913 155.402   7-0.45776-0.15669 0.06448 0.43528-0.95522 0.84323
   8  -6   0 436.279 125.642   4 0.04681 0.56851-0.57061 0.07059-0.79766 0.90939
   8  -6   0 995.342 185.836   8 0.42120 0.19339-0.10970-0.39010 0.96192-0.85001
   9   6   0 -101.00 105.456   2 0.38112 0.31073 0.20118 0.29880 0.95664-0.83074
  -9   6   0 119.091 101.898   6-0.29478-0.39662 0.32018 0.17951-0.93894 0.81307
   9   6   0 17.9670 76.0400   5 0.42205 0.26967 0.14436 0.35634 0.95685-0.83062
  -9   6   0 -103.46 113.085   7-0.47677-0.21452 0.06815 0.43159-0.94850 0.82252
  -9  -6   0 168.397 114.204   3-0.40137-0.29079-0.17355-0.32676-0.95733 0.83137
   9  -6   0 -164.56 107.009   8 0.44107 0.25039-0.11781-0.38197 0.95511-0.82919
 -10   6   0 105.998 125.900   7-0.49922-0.26892 0.07249 0.42722-0.93985 0.79988
   0   7   0 24.8386 31.2968   2 0.44790-0.44791 0.29163 0.29161 0.91256-0.91258
   0  -7   0 -22.866 31.5330   3-0.52563 0.52584-0.29167-0.29187-0.88143 0.88128
   0   7   0 -29.222 58.7514   6-0.28673 0.28710 0.29157 0.29179-0.94951 0.94937
   0  -7   0 3.49809 43.2262   4-0.08151 0.08137-0.29175-0.29160-0.95193 0.95198
   0  -7   0 4.38857 43.2066   9 0.09126-0.09102-0.29158-0.29154 0.95291-0.95288
   1   7   0 281.671 74.0515   2 0.41200-0.33517 0.24240 0.34085 0.93864-0.92467
  -1   7   0 346.776 73.3182   2 0.49729-0.57413 0.36223 0.22100 0.86565-0.87967
  -1  -7   0 275.909 78.2866   4-0.08401 0.00703-0.28576-0.29756-0.95395 0.94004
  -1  -7   0 466.947 106.678   9 0.08420-0.16079-0.30771-0.27538 0.94726-0.96122
   1  -7   0 382.895 92.4851   9 0.09446-0.01739-0.28422-0.29891 0.95537-0.94135
   1   7   0 220.183 71.4064   6-0.29915 0.37642 0.33605 0.24728-0.93260 0.94641
   1  -7   0 268.355 77.8826   4-0.07521 0.15193-0.30671-0.27667-0.94666 0.96069
  -1   7   0 288.280 88.0421   6-0.27762 0.20109 0.26004 0.32333-0.95991 0.94581
  -1  -7   0 347.836 66.8351   3-0.46730 0.39054-0.23518-0.34844-0.92303 0.90894
   2   7   0 925.740 136.735   2 0.38759-0.23389 0.20973 0.37353 0.95318-0.92523
   2  -7   0 1166.58 125.976   8 0.55556-0.40205-0.16535-0.41764 0.90235-0.87435
  -2  -7   0 909.549 137.046   4-0.08207-0.07174-0.29042-0.29288-0.95238 0.92450
  -2   7   0 1175.72 167.144   6-0.27176 0.11832 0.24019 0.34319-0.96581 0.93775
   2   7   0 1264.68 155.842   6-0.31472 0.46888 0.39475 0.18852-0.90607 0.93380
   2  -7   0 1221.60 171.823   4-0.06560 0.21921-0.32927-0.25414-0.93815 0.96617
  -2  -7   0 1020.81 154.099   9 0.07377-0.22721-0.33123-0.25185 0.93840-0.96634
   2   7   0 1018.45 118.996   5 0.48616-0.33290 0.18378 0.39993 0.92851-0.90028
   2  -7   0 1139.82 144.549   9 0.09310 0.06080-0.28734-0.29582 0.95433-0.92632
  -2  -7   0 1009.35 136.921   3-0.42883 0.27510-0.19896-0.38471-0.94451 0.91645
   3   7   0 3190.75 260.180   2 0.37255-0.14200 0.18991 0.39336 0.96098-0.91904
  -3   7   0 3299.54 275.098   6-0.26894 0.03863 0.23078 0.35257-0.96843 0.92640
   3  -7   0 3229.09 272.939   4-0.05305 0.28356-0.35827-0.22518-0.92619 0.96818
   3   7   0 3533.73 256.539   6-0.33289 0.56392 0.46869 0.11451-0.86516 0.90679
   3  -7   0 3619.29 241.017   8 0.49666-0.26635-0.14073-0.44230 0.93253-0.89055
   3  -7   0 3088.98 224.521   9 0.08620 0.14454-0.30315-0.28005 0.94889-0.90690
   3   7   0 2890.62 218.358   5 0.44794-0.21774 0.16018 0.42367 0.94641-0.90421
  -3  -7   0 3271.55 270.622   9 0.06037-0.29065-0.36096-0.22211 0.92609-0.96803
  -3  -7   0 3277.56 236.446   4-0.07473-0.15587-0.30784-0.27545-0.94625 0.90442
  -3  -7   0 3421.42 255.936   3-0.40526 0.17458-0.17713-0.40657-0.95563 0.91359
   4  -7   0 -2.2132 51.0100   4-0.03784 0.34529-0.39269-0.19078-0.91042 0.96639
   4  -7   0 -81.999 66.5908   8 0.46472-0.15761-0.12753-0.45553 0.94615-0.89019
  -4   7   0 20.4973 59.3337   6-0.26894-0.03826 0.23076 0.35256-0.96844 0.91243
   4   7   0 36.7496 37.0092   6-0.35237 0.66027 0.55824 0.02488-0.80272 0.85821
   4   7   0 31.4211 54.9416   2 0.36510-0.05769 0.18020 0.40310 0.96454-0.90861
  -4  -7   0 -80.570 42.2981   9 0.04429-0.35141-0.39586-0.18719 0.91001-0.96594
   4   7   0 -86.530 59.2843   5 0.42724-0.12011 0.14753 0.43644 0.95486-0.89867
   4  -7   0 -55.984 45.5663   9 0.07226 0.23531-0.33462-0.24863 0.93706-0.88108
  -4  -7   0 71.5711 49.4997   4-0.06059-0.24678-0.34091-0.24238-0.93349 0.87773
  -4  -7   0 -6.8217 45.4670   3-0.39286 0.08523-0.16574-0.41797-0.96091 0.90488
  -5  -7   0 94.6354 78.6706   3-0.38895 0.00438-0.16216-0.42156-0.96250 0.89247
   5   7   0 67.8842 66.1229   2 0.36381 0.02048 0.17851 0.40479 0.96513-0.89521
   5  -7   0 51.9187 61.0586   4-0.02022 0.40461-0.43164-0.15183-0.89043 0.96036
  -5   7   0 46.1173 65.1511   6-0.27146-0.11261 0.23920 0.34409-0.96609 0.89610
   5  -7   0 133.674 67.0604   8 0.45005-0.06609-0.12149-0.46157 0.95182-0.88188
  -5  -7   0 247.055 95.0448   9 0.02577-0.40973-0.43505-0.14799 0.88972-0.95964
   5   7   0 224.651 85.4570   5 0.41879-0.03471 0.14238 0.44166 0.95807-0.88788
   6   7   0 369.496 115.844   2 0.36752 0.09365 0.18334 0.39997 0.96341-0.87950
  -6  -7   0 418.674 120.224   3-0.39158-0.06991-0.16456-0.41915-0.96144 0.87742
  -6   7   0 409.705 113.076   6-0.27623-0.18470 0.25531 0.32792-0.96136 0.87739
   6  -7   0 524.440 128.994   8 0.44701 0.01379-0.12025-0.46284 0.95294-0.86902
  -6  -7   0 481.924 125.641   9 0.00503-0.46583-0.47773-0.10530 0.86477-0.94867
   6  -7   0 394.204 125.048   4-0.00037 0.46171-0.47432-0.10916-0.86571 0.94960
   6   7   0 290.606 96.6187   5 0.41914 0.04185 0.14259 0.44150 0.95794-0.87373
   7  -7   0 49.9837 78.2816   4 0.02156 0.51675-0.51998-0.06348-0.83571 0.93355
   7   7   0 126.823 102.071   2 0.37532 0.16273 0.19354 0.38976 0.95961-0.86171
   7   7   0 -38.007 54.6007   5 0.42603 0.11187 0.14678 0.43734 0.95533-0.85709
  -7   7   0 97.7549 83.4440   6-0.28297-0.25480 0.27845 0.30471-0.95399 0.85604
  -7   7   0 45.2022 58.0951   7-0.50486-0.03269 0.07359 0.50952-0.93756 0.83952
  -7  -7   0 -32.388 54.2850   9-0.01780-0.51985-0.52314-0.05988 0.83462-0.93251
  -7  -7   0 62.9664 57.6117   3-0.39934-0.13906-0.17168-0.41204-0.95820 0.86019
   7  -7   0 24.5886 70.4361   8 0.45217 0.08549-0.12236-0.46072 0.95102-0.85310
   8  -7   0 537.635 169.877   4 0.04545 0.56983-0.56793-0.01550-0.79981 0.91158
  -8   7   0 370.592 143.117   7-0.51235-0.10204 0.07505 0.50804-0.93443 0.82240
   8   7   0 91.3471 77.0827   2 0.38649 0.22845 0.20827 0.37504 0.95378-0.84188
  -8  -7   0 190.840 118.730   3-0.41117-0.20412-0.18258-0.40113-0.95298 0.84097
  -8   7   0 241.441 90.2633   6-0.29142-0.32318 0.30815 0.27496-0.94352 0.83159
   8  -7   0 262.872 107.363   8 0.46331 0.15121-0.12694-0.45615 0.94672-0.83480
  -8  -7   0 296.922 113.839   9-0.04258-0.57192-0.57063-0.01239 0.79870-0.91058
   8   7   0 367.663 108.877   5 0.43790 0.17690 0.15402 0.43011 0.95061-0.83834
   9  -7   0 148.796 108.823   8 0.47893 0.21246-0.13339-0.44971 0.94031-0.81439
  -9   7   0 20.4532 64.3124   6-0.30132-0.39010 0.34400 0.23903-0.92930 0.80338
  -9   7   0 -46.270 100.565   7-0.52574-0.16549 0.07766 0.50541-0.92860 0.80259
  -9  -7   0 93.5389 79.7668   9-0.06920-0.62214-0.61951 0.03650 0.75632-0.88219
   0   8   0 5880.87 322.893   2 0.47736-0.47737 0.33328 0.33326 0.88632-0.88634
   0  -8   0 5359.85 345.228   9 0.07287-0.07261-0.33324-0.33318 0.93761-0.93757
   0   8   0 5229.72 355.521   6-0.29837 0.29880 0.33321 0.33350-0.93376 0.93357
   0  -8   0 5419.18 357.039   4-0.06381 0.06366-0.33343-0.33324-0.93651 0.93659
  -1  -8   0 157.449 68.6647   4-0.06513-0.01186-0.33037-0.33627-0.93772 0.92383
   1  -8   0 100.111 53.0398   4-0.05897 0.13567-0.34465-0.32206-0.93195 0.94601
  -1  -8   0 125.190 72.7875   9 0.06741-0.14397-0.34542-0.32097 0.93268-0.94664
   1   8   0 95.2684 48.7643   2 0.44422-0.36738 0.28649 0.38007 0.91552-0.90155
  -1   8   0 80.2838 47.4975   2 0.52115-0.59798 0.39782 0.26873 0.83728-0.85131
  -1   8   0 112.174 71.1919   6-0.29029 0.21382 0.30416 0.36255-0.94500 0.93085
   1  -8   0 76.3521 68.5254   9 0.07473 0.00236-0.32908-0.33736 0.93924-0.92522
   1   8   0 198.420 88.3388   6-0.30914 0.38647 0.37328 0.29339-0.91635 0.93010
  -1  -8   0 111.624 53.9250   3-0.51243 0.43571-0.27871-0.38830-0.89191 0.87775
   2  -8   0 -1.5523 51.5105   4-0.05103 0.20461-0.36290-0.30385-0.92417 0.95220
  -2  -8   0 -98.329 70.7726   9 0.05877-0.21217-0.36447-0.30191 0.92456-0.95251
  -2  -8   0 136.774 85.0260   4-0.06236-0.09145-0.33681-0.32980-0.93516 0.90731
   2  -8   0 43.0112 56.3551   9 0.07239 0.08153-0.33432-0.33215 0.93718-0.90917
  -2   8   0 10.3107 55.5238   6-0.28491 0.13154 0.28521 0.38151-0.95171 0.92360
  -2  -8   0 1.82107 48.6305   3-0.47419 0.32050-0.24176-0.42530-0.91871 0.89060
   2   8   0 52.5787 59.6250   6-0.32242 0.47664 0.42527 0.24135-0.89025 0.91792
   2   8   0 17.3595 49.5617   2 0.42058-0.26690 0.25402 0.41256 0.93294-0.90499
   3  -8   0 386.156 89.4649   9 0.06502 0.16574-0.35070-0.31580 0.93048-0.88848
   3   8   0 194.524 69.1702   2 0.40507-0.17452 0.23304 0.43355 0.94302-0.90108
   3  -8   0 425.905 113.955   4-0.04028 0.27078-0.38721-0.27958-0.91305 0.95505
  -3  -8   0 364.984 114.983   9 0.04729-0.27753-0.38940-0.27695 0.91312-0.95506
  -3   8   0 237.368 93.9734   6-0.28210 0.05183 0.27546 0.39124-0.95499 0.91291
   3   8   0 379.180 100.267   6-0.33776 0.56887 0.48988 0.17667-0.85175 0.89331
   3   8   0 376.914 94.7672   5 0.50805-0.27799 0.19744 0.46976 0.91682-0.87449
  -3  -8   0 298.366 93.7305   4-0.05472-0.17587-0.35444-0.31216-0.92784 0.88605
  -3  -8   0 225.723 80.8038   3-0.44909 0.21844-0.21795-0.44914-0.93373 0.89165
  -4  -8   0 162.983 76.4761   3-0.43428 0.12667-0.20405-0.46305-0.94172 0.88566
   4   8   0 237.644 97.6237   2 0.39635-0.08894 0.22137 0.44524 0.94824-0.89231
  -4  -8   0 208.409 87.4258   9 0.03325-0.34032-0.41938-0.24697 0.89813-0.95406
   4  -8   0 228.906 100.633   4-0.02701 0.33442-0.41676-0.25006-0.89835 0.95433
  -4   8   0 164.848 74.1449   6-0.28171-0.02545 0.27410 0.39257-0.95543 0.89938
   4   8   0 293.226 100.920   5 0.48267-0.17566 0.18161 0.48572 0.93028-0.87397
  -5  -8   0 319.197 134.127   9 0.01683-0.40076-0.45361-0.21273 0.87926-0.94917
   5   8   0 199.883 118.474   2 0.39330-0.00901 0.21731 0.44931 0.95000-0.88008
  -5   8   0 174.065 94.7221   6-0.28353-0.10050 0.28040 0.38621-0.95334 0.88331
   5   8   0 285.628 103.812   5 0.46948-0.08552 0.17344 0.49398 0.93670-0.86639
  -5  -8   0 332.432 116.146   3-0.42754 0.04299-0.19777-0.46934-0.94515 0.87509
   5  -8   0 374.765 126.753   4-0.01141 0.39576-0.45075-0.21609-0.87974 0.94968
   5  -8   0 207.526 84.4474   8 0.51357-0.12966-0.14776-0.51857 0.92456-0.85461
   6   8   0 971.990 190.662   2 0.39497 0.06619 0.21954 0.44709 0.94904-0.86513
   6  -8   0 950.304 195.920   4 0.00637 0.45493-0.48851-0.17833-0.85679 0.94070
   6   8   0 964.179 169.132   5 0.46535-0.00446 0.17089 0.49660 0.93864-0.85431
   6  -8   0 953.134 156.407   8 0.50408-0.04334-0.14380-0.52255 0.92910-0.84516
  -6   8   0 1184.71 198.851   6-0.28736-0.17355 0.29376 0.37281-0.94874 0.86473
  -6  -8   0 995.942 181.970   3-0.42722-0.03426-0.19747-0.46964-0.94531 0.86126
  -6  -8   0 1125.06 201.385   9-0.00176-0.45900-0.49140-0.17493 0.85610-0.94001
   7  -8   0 184.220 123.235   4 0.02617 0.51207-0.52939-0.13745-0.82904 0.92689
   7   8   0 85.3021 107.592   2 0.40059 0.13744 0.22706 0.43958 0.94573-0.84783
  -7   8   0 41.0015 69.0387   6-0.29296-0.24479 0.31365 0.35286-0.94145 0.84346
   7  -8   0 79.5737 100.940   8 0.50361 0.03398-0.14361-0.52275 0.92932-0.83139
  -7  -8   0 6.95603 83.7476   9-0.02241-0.51520-0.53212-0.13420 0.82820-0.92610
   7   8   0 -43.886 71.3832   5 0.46809 0.06972 0.17258 0.49496 0.93736-0.83900
  -7  -8   0 21.4869 77.7701   3-0.43204-0.10635-0.20196-0.46515-0.94287 0.84483
  -8  -8   0 59.2768 107.067   9-0.04499-0.56946-0.57515-0.09117 0.79502-0.90691
   8  -8   0 135.061 107.049   4 0.04792 0.56730-0.57279-0.09404-0.79590 0.90768
   8   8   0 220.102 130.411   5 0.47616 0.13856 0.17757 0.49000 0.93349-0.82109
  -8   8   0 -51.887 92.5444   6-0.30013-0.31446 0.33965 0.32680-0.93112 0.81915
   8  -8   0 85.2875 122.204   8 0.50985 0.10460-0.14621-0.52017 0.92636-0.81443
   0   9   0 -46.392 60.6708   2 0.50590-0.50590 0.37495 0.37492 0.85590-0.85594
   0  -9   0 -7.1955 50.7399   9 0.05399-0.05369-0.37490-0.37482 0.91989-0.91985
   0   9   0 -14.171 73.4892   6-0.30955 0.31003 0.37484 0.37520-0.91563 0.91537
   0  -9   0 135.150 87.7711   4-0.04565 0.04549-0.37511-0.37487-0.91869 0.91880
   1  -9   0 75.8465 75.1606   4-0.04200 0.11870-0.38334-0.36668-0.91488 0.92895
   1   9   0 -37.020 64.0634   2 0.47519-0.39836 0.33017 0.41969 0.88842-0.87445
  -1  -9   0 -67.758 74.5857   4-0.04598-0.03101-0.37436-0.37559-0.91904 0.90518
   1  -9   0 -34.307 72.9848   9 0.05475 0.02238-0.37326-0.37649 0.92063-0.90661
  -1  -9   0 116.593 96.6502   9 0.04983-0.12637-0.38392-0.36577 0.91571-0.92967
   1   9   0 -65.063 65.7554   6-0.31897 0.39636 0.41148 0.33854-0.89758 0.91126
  -1   9   0 2.99388 62.7058   6-0.30234 0.22592 0.34779 0.40227-0.92769 0.91349
  -2  -9   0 200.618 86.8708   9 0.04266-0.19603-0.39936-0.35033 0.90830-0.93625
  -2  -9   0 95.3507 55.5845   4-0.04252-0.11127-0.38218-0.36773-0.91542 0.88762
   2  -9   0 -5.9678 95.3207   9 0.05158 0.10237-0.38014-0.36963 0.91748-0.88947
  -2   9   0 30.8160 62.5567   6-0.29738 0.14406 0.32962 0.42044-0.93521 0.90705
   2   9   0 151.073 80.7822   2 0.45243-0.29875 0.29795 0.45194 0.90883-0.88088
   2  -9   0 -26.626 70.1301   4-0.03542 0.18899-0.39811-0.35197-0.90779 0.93583
  -2  -9   0 166.980 89.4010   3-0.51838 0.36473-0.28455-0.46590-0.88726 0.85909
   2   9   0 -20.246 49.3798   6-0.33044 0.48472 0.45832 0.29164-0.87144 0.89903
  -3  -9   0 394.863 98.3509   4-0.03458-0.19599-0.39998-0.34992-0.90686 0.86512
  -3   9   0 571.614 142.021   6-0.29464 0.06440 0.31966 0.43039-0.93914 0.89702
  -3  -9   0 432.592 130.882   9 0.03278-0.26299-0.42036-0.32930 0.89761-0.93956
   3  -9   0 606.333 151.978   4-0.02618 0.25664-0.41858-0.33154-0.89740 0.93942
  -3  -9   0 673.887 145.651   3-0.49231 0.26169-0.25916-0.49133-0.90664 0.86449
   3  -9   0 435.961 98.3803   9 0.04378 0.18700-0.39698-0.35284 0.90947-0.86747
   3   9   0 275.045 102.062   6-0.34353 0.57470 0.51589 0.23401-0.83418 0.87566
   3   9   0 443.475 133.571   2 0.43671-0.20618 0.27610 0.47380 0.92134-0.87940
  -4  -9   0 323.768 104.388   3-0.47563 0.16805-0.24313-0.50737-0.91780 0.86167
   4  -9   0 133.954 86.2759   4-0.01451 0.32189-0.44405-0.30611-0.88355 0.93955
  -4   9   0 489.158 145.660   6-0.29397-0.01315 0.31727 0.43274-0.94007 0.88397
  -4  -9   0 335.269 121.776   9 0.02042-0.32747-0.44620-0.30345 0.88350-0.93944
   4   9   0 141.899 93.7446   2 0.42707-0.11967 0.26287 0.48706 0.92842-0.87249
   5   9   0 24.4571 68.0001   2 0.42263-0.03837 0.25682 0.49313 0.93153-0.86161
  -5  -9   0 63.3210 81.1283   9 0.00577-0.38967-0.47622-0.27343 0.86571-0.93564
   5   9   0 147.557 81.3324   5 0.52175-0.13791 0.20605 0.54477 0.90894-0.83847
  -5   9   0 76.3857 82.2815   6-0.29526-0.08875 0.32189 0.42808-0.93828 0.86820
   5  -9   0 -60.534 96.1261   4-0.00059 0.38490-0.47385-0.27634-0.86600 0.93595
  -5  -9   0 125.137 81.4625   3-0.46658 0.08205-0.23450-0.51601-0.92347 0.85336
   6  -9   0 112.673 100.480   4 0.01543 0.44582-0.50738-0.24283-0.84438 0.92829
  -6   9   0 -28.982 95.1746   6-0.29832-0.16255 0.33302 0.41690-0.93384 0.84978
  -6  -9   0 -36.131 69.8284   3-0.46373 0.00226-0.23179-0.51872-0.92521 0.84111
  -6  -9   0 150.064 99.5401   9-0.01100-0.44972-0.50979-0.23984 0.84389-0.92782
   6   9   0 -19.609 62.2715   5 0.51357-0.05280 0.20090 0.54999 0.91370-0.82922
   6   9   0 22.8540 74.6329   2 0.42264 0.03850 0.25682 0.49314 0.93153-0.84761
   7   9   0 5.97385 67.3616   5 0.51248 0.02522 0.20022 0.55073 0.91432-0.81581
   0 -10   0 414.462 119.066   9 0.03458-0.03425-0.41657-0.41646 0.89959-0.89956
   0 -10   0 323.117 110.415   4-0.02699 0.02683-0.41680-0.41650-0.89833 0.89847
   0  10   0 226.354 108.569   6-0.32023 0.32077 0.41648 0.41691-0.89495 0.89462
   1 -10   0 41.3576 67.4190   4-0.02436 0.10104-0.42258-0.41077-0.89529 0.90940
  -1  10   0 17.8502 98.7920   6-0.31377 0.23740 0.39107 0.44232-0.90788 0.89360
   1  10   0 27.9761 61.3602   6-0.32853 0.40598 0.45033 0.38302-0.87615 0.88975
   1 -10   0 100.191 69.6776   9 0.03439 0.04276-0.41696-0.41607 0.89939-0.88537
  -1 -10   0 9.12939 73.9578   4-0.02648-0.05050-0.41792-0.41534-0.89774 0.88394
  -1 -10   0 137.857 80.3474   9 0.03153-0.10803-0.42300-0.41000 0.89622-0.91019
  -2 -10   0 106.664 57.9339   4-0.02240-0.13138-0.42687-0.40635-0.89301 0.86525
  -2 -10   0 235.717 110.843   9 0.02560-0.17894-0.43542-0.39755 0.88952-0.91748
  -2  10   0 273.290 125.856   6-0.30922 0.15594 0.37359 0.45981-0.91621 0.88798
   2  10   0 83.4485 76.9539   2 0.48316-0.32948 0.34164 0.49156 0.88056-0.85262
   2 -10   0 78.9872 62.4229   9 0.03050 0.12348-0.42518-0.40790 0.89507-0.86706
   2  10   0 125.324 76.9945   6-0.33849 0.49283 0.49310 0.34021-0.84965 0.87715
   2 -10   0 217.351 115.068   4-0.01893 0.17249-0.43445-0.39895-0.88889 0.91697
  -3 -10   0 -16.456 81.0672   9 0.01707-0.24725-0.45313-0.37984 0.87954-0.92149
  -3  10   0 -81.408 91.6482   6-0.30655 0.07637 0.36351 0.46988-0.92081 0.87862
   3  10   0 39.1309 76.0669   2 0.46745-0.23692 0.31914 0.51408 0.89568-0.85374
   3 -10   0 -100.34 92.2968   4-0.01096 0.24140-0.45171-0.38174-0.87919 0.92123
  -4  10   0 -106.53 81.7509   6-0.30570-0.00137 0.36032 0.47303-0.92223 0.86607
  -4 -10   0 81.4538 103.662   9 0.00615-0.31316-0.47546-0.35750 0.86618-0.92212
   4  10   0 42.2244 82.0408   2 0.45718-0.14979 0.30462 0.52861 0.90480-0.84887
  -4 -10   0 61.3092 71.2259   3-0.51665 0.20911-0.28285-0.55105-0.88863 0.83243
  -5 -10   0 135.099 112.919   3-0.50572 0.12122-0.27216-0.56174-0.89698 0.82680
   0 -11   0 -72.242 90.2814   4-0.00781 0.00764-0.45848-0.45813-0.87524 0.87543
   0  11   0 38.0128 83.6024   6-0.33039 0.33098 0.45811 0.45861-0.87156 0.87113
   0 -11   0 -6.7536 91.1710   9 0.01458-0.01424-0.45824-0.45809 0.87655-0.87653
  -1 -11   0 440.432 145.023   4-0.00655-0.07042-0.46117-0.45539-0.87365 0.85990
   1 -11   0 252.865 95.2293   9 0.01355 0.06362-0.46035-0.45600 0.87531-0.86130
   1  11   0 399.020 165.185   6-0.33771 0.41520 0.48966 0.42704-0.85190 0.86539
  12   0  -1 703.477 168.475   8 0.54938 0.35400-0.16275 0.16320 0.90585-0.84113
  12   0  -1 701.955 174.706   5 0.54756 0.35506 0.22240-0.22254 0.89282-0.82821
 -11   0   1 -56.146 78.3925   7-0.52346-0.30286 0.07721-0.07759-0.92962 0.87892
  11   0  -1 -6.1594 66.3446   8 0.52247 0.30403-0.15147 0.15188 0.92015-0.86948
  11   0  -1 -44.625 64.9261   5 0.52086 0.30497 0.20549-0.20563 0.90947-0.85888
 -10   0   1 128.996 72.7768   3-0.49428-0.25569-0.26107 0.26092-0.90526 0.86882
  10   0  -1 88.0909 93.3334   8 0.49756 0.25207-0.14110 0.14145 0.93212-0.89549
 -10   0   1 17.5742 56.3932   7-0.49844-0.25104 0.07234-0.07270-0.94017 0.90347
  10   0  -1 96.7799 67.4528   5 0.49611 0.25293 0.18997-0.19012 0.92333-0.88677
  -9   0   1 -105.32 86.7612   7-0.47611-0.19654 0.06802-0.06834-0.94874 0.92604
   9   0  -1 67.1400 62.3843   8 0.47529 0.19745-0.13188 0.13219 0.94185-0.91923
  -9   0   1 -51.749 56.0519   3-0.47231-0.20080-0.23997 0.23987-0.91990 0.89742
   9   0  -1 -81.134 67.2013   5 0.47398 0.19826 0.17623-0.17637 0.93455-0.91198
   8   0  -1 424.079 84.7115   2 0.45020 0.14592 0.29483-0.29494 0.91068-0.90199
  -8   0   1 437.985 126.827   7-0.45746-0.13835 0.06442-0.06471-0.95532 0.94661
   8   0  -1 318.724 82.4517   5 0.45547 0.13997 0.16480-0.16496 0.94312-0.93455
  -8   0   1 311.205 80.2757   3-0.45388-0.14238-0.22248 0.22239-0.93101 0.92250
   8   0  -1 245.636 73.8747   8 0.45669 0.13918-0.12422 0.12448 0.94930-0.94070
  -7   0   1 -4.5089 34.7522   7-0.44406-0.07493 0.06184-0.06210-0.95973 0.96501
   7   0  -1 42.5780 45.9730   8 0.44326 0.07572-0.11871 0.11894 0.95431-0.95972
   7   0  -1 47.4079 37.9426   5 0.44208 0.07654 0.15659-0.15675 0.94888-0.95430
   7   0  -1 -22.039 27.9683   2 0.43687 0.08236 0.27633-0.27642 0.92121-0.92652
  -7   0   1 -25.912 35.0317   3-0.44047-0.07894-0.20985 0.20980-0.93846 0.94392
  -6   0   1 226.795 39.7386   9-0.04458-0.39764-0.57439 0.57450 0.79564-0.77584
  -6   0   1 373.735 81.5059   7-0.43839-0.00377 0.06075-0.06098-0.96152 0.98079
   6   0  -1 345.772 47.7761   4 0.04398 0.39897-0.56504 0.56555-0.80211 0.78231
   6   0  -1 245.313 63.6722   8 0.43752 0.00459-0.11637 0.11654 0.95637-0.97577
   6   0  -1 338.543 59.3032   2 0.43060 0.01175 0.26770-0.26777 0.92587-0.94518
   6   0  -1 304.231 65.2687   5 0.43627 0.00554 0.15304-0.15320 0.95127-0.97067
   5   0  -1 -2.3046 11.7248   4-0.06434 0.43039-0.33221 0.33257-0.93699 0.90343
  -5   0   1 -29.033 35.1619   7-0.44478 0.07947 0.06198-0.06218-0.95950 0.99275
  -5   0   1 6.78485 10.2796   9 0.06318-0.42853-0.35476 0.35491 0.92876-0.89501
  -5   0   1 -17.320 18.6934   3-0.43974 0.07407-0.20916 0.20917-0.93885 0.97226
   5   0  -1 -22.774 20.7082   5 0.44218-0.07719 0.15665-0.15684 0.94884-0.98221
   5   0  -1 18.8948 22.3325   2 0.43505-0.06959 0.27382-0.27388 0.92259-0.95588
   5   0  -1 -26.350 34.0131   8 0.44370-0.07845-0.11889 0.11903 0.95416-0.98755
   4   0  -1 4361.78 185.983   5 0.46732-0.17914 0.17211-0.17231 0.93772-0.98504
   4   0  -1 4729.92 179.052   2 0.45633-0.16774 0.30342-0.30346 0.90553-0.95282
   4   0  -1 4613.89 123.242   6-0.18383 0.47257-0.02745 0.02769-0.99962 0.95213
  -4   0   1 4230.31 202.198   7-0.47126 0.18277 0.06708-0.06725-0.95050 0.99774
   4   0  -1 4320.70 118.900   4-0.18329 0.47245-0.02936 0.02953-0.99957 0.95212
   4   0  -1 4270.40 195.007   8 0.46955-0.18118-0.12952 0.12963 0.94421-0.99157
  -4   0   1 4357.69 120.948   9 0.18380-0.47233-0.06374 0.06388 0.99797-0.95036
  -4   0   1 4480.57 186.216   3-0.46336 0.17456-0.23144 0.23147-0.92543 0.97283
  -3   0   1 5.42401 13.1246   7-0.53361 0.32196 0.07919-0.07932-0.92504 0.98626
  -3   0   1 3.50000 11.7215   3-0.51755 0.30564-0.28374 0.28378-0.88792 0.94930
   3   0  -1 0.05040 6.23525   6-0.29877 0.51058 0.33466-0.33451-0.93317 0.87177
   3   0  -1 1.55343 6.65543   4-0.29839 0.51059 0.33333-0.33332-0.93372 0.87226
  -3   0   1 0.31027 6.54189   9 0.30477-0.51646 0.29732-0.29723 0.94517-0.88362
   3   0  -1 9.79628 9.45791   2 0.50387-0.29214 0.37193-0.37197 0.85825-0.91951
   3   0  -1 10.8041 13.7807   8 0.53018-0.31866-0.15470 0.15476 0.91620-0.97752
   3   0  -1 -6.9914 11.5388   5 0.52581-0.31445 0.20860-0.20883 0.90652-0.96777
   2   0  -1 1829.36 98.9720   5 0.64205-0.50743 0.28389-0.28409 0.81708-0.89224
  -2   0   1 2133.77 106.806   3-0.61955 0.48452-0.38798 0.38805-0.78369 0.85905
   2   0  -1 2015.91 106.781   8 0.65376-0.51906-0.20739 0.20741 0.83453-0.90979
  -2   0   1 2174.23 114.609   7-0.66306 0.52822 0.10482-0.10492-0.84945 0.92464
   4   0   1 1542.07 127.241   8-0.12817 0.45473 0.10341-0.10327 0.94656-0.78712
  -4   0  -1 1719.58 146.416   7 0.12910-0.45538-0.04414 0.04405-0.95063 0.79152
  -5   0  -1 -28.230 24.6563   7 0.03700-0.44014-0.02762 0.02750-0.97553 0.80246
   5   0   1 41.3293 35.3891   8-0.03684 0.44028 0.06936-0.06918 0.97357-0.80015
   6   0   1 348.287 82.6250   8 0.03946 0.44086 0.04050-0.04028 0.98892-0.80150
  -6   0  -1 573.978 106.537   7-0.03961-0.44036-0.01373 0.01358-0.98965 0.80262
  -7   0  -1 -54.643 54.6116   7-0.10659-0.45023-0.00149 0.00130-0.99710 0.79610
   7   0   1 29.0556 40.7101   8 0.10633 0.45085 0.01489-0.01465 0.99697-0.79556
  -8   0  -1 438.506 125.659   7-0.16721-0.46646 0.00968-0.00990-0.99984 0.78487
   8   0   1 713.533 130.772   8 0.16695 0.46709-0.00856 0.00885 0.99985-0.78444
  12   1  -1 16.4350 95.9879   5 0.53311 0.36965 0.21322-0.13001 0.90206-0.83742
  12   1  -1 -11.191 74.5552   8 0.56739 0.33600-0.17035 0.25418 0.89542-0.83067
  11   1  -1 608.608 157.932   5 0.50660 0.31937 0.19653-0.11333 0.91763-0.86702
 -11  -1   1 427.928 127.737   3-0.49861-0.32825-0.26526 0.18181-0.90217 0.85173
 -11   1   1 219.431 102.845   7-0.52015-0.30616 0.07656 0.00638-0.93108 0.88037
 -11  -1   1 354.788 131.079   7-0.53482-0.29152 0.07943-0.16314-0.92449 0.87379
  11   1  -1 261.648 101.309   8 0.54111 0.28540-0.15928 0.24306 0.91040-0.85969
  11  -1  -1 343.535 109.574   8 0.51263 0.31385-0.14736 0.06439 0.92502-0.87438
 -10   1   1 -37.425 79.1650   7-0.49530-0.25416 0.07173 0.01124-0.94142 0.90472
 -10  -1   1 8.52270 71.6135   7-0.51045-0.23906 0.07468-0.15836-0.93523 0.89853
  10  -1  -1 86.0988 77.6892   8 0.48777 0.26182-0.13705 0.05402 0.93650-0.89989
 -10  -1   1 11.8784 66.4132   3-0.47438-0.27564-0.24193 0.15851-0.91860 0.88212
  10   1  -1 28.1713 57.2605   8 0.51702 0.23261-0.14920 0.23293 0.92287-0.88620
  10   1  -1 50.7943 60.6284   5 0.48196 0.26719 0.18117-0.09797 0.93063-0.89404
  10  -1  -1 39.4315 66.3111   5 0.52104 0.22788 0.20560-0.28905 0.90936-0.87281
  -9   1   1 -52.960 56.6753   7-0.47312-0.19951 0.06744 0.01556-0.94983 0.92712
  -9  -1   1 68.6828 61.7652   7-0.48896-0.18371 0.07051-0.15415-0.94390 0.92120
   9  -1  -1 30.9671 73.1877   8 0.46548 0.20723-0.12784 0.04478 0.94585-0.92326
   9  -1  -1 39.0606 57.0047   5 0.50020 0.17193 0.19253-0.27597 0.92114-0.89859
   9   1  -1 44.7990 51.1717   8 0.49591 0.17685-0.14042 0.22410 0.93287-0.91023
   9   1  -1 50.8813 56.6245   5 0.45981 0.21254 0.16748-0.08428 0.94117-0.91860
   9   1  -1 36.1371 48.2059   2 0.44242 0.23058 0.28400-0.20077 0.91694-0.89427
  -9  -1   1 115.189 53.5660   3-0.45248-0.22067-0.22116 0.13775-0.93181 0.90930
  -8  -1   1 1120.58 164.411   7-0.47145-0.12440 0.06712-0.15074-0.95043 0.94172
   8   1  -1 1371.02 151.559   2 0.42410 0.17201 0.25881-0.17557 0.93051-0.92184
  -8   1   1 1397.84 182.148   7-0.45456-0.14123 0.06386 0.01917-0.95630 0.94758
   8  -1  -1 1207.72 143.378   5 0.48357 0.11176 0.18217-0.26562 0.92982-0.92125
  -8  -1   1 1139.13 143.791   3-0.43379-0.16251-0.20360 0.12022-0.94197 0.93344
   8   1  -1 1256.88 162.550   8 0.47892 0.11696-0.13338 0.21702 0.94032-0.93169
  -8   1   1 1277.74 139.023   3-0.49052-0.10571-0.25744 0.34064-0.90788 0.89939
   8  -1  -1 1219.29 161.881   8 0.44666 0.14918-0.12010 0.03700 0.95307-0.94449
   8   1  -1 1005.26 140.810   5 0.44101 0.15451 0.15593-0.07274 0.94933-0.94075
   7   1  -1 75.9634 44.3958   2 0.40984 0.10939 0.23948-0.15622 0.94002-0.94536
  -7   1   1 103.722 60.6209   7-0.44113-0.07782 0.06128 0.02179-0.96066 0.96594
  -7  -1   1 86.0742 53.5207   7-0.45962-0.05939 0.06484-0.14842-0.95458 0.95987
   7  -1  -1 159.323 46.5429   4 0.02571 0.49419-0.52844 0.44556-0.82972 0.82393
  -7  -1   1 96.4955 36.5955   9-0.02457-0.49445-0.53629 0.45313 0.82515-0.81934
   7  -1  -1 116.659 47.6076   5 0.47309 0.04545 0.17567-0.25913 0.93498-0.94039
   7  -1  -1 64.5261 35.5603   2 0.48858 0.03063 0.34950-0.43295 0.87500-0.88027
   7   1  -1 52.9969 37.4278   8 0.46788 0.05112-0.12883 0.21242 0.94488-0.95027
   7  -1  -1 131.970 62.3830   8 0.43270 0.08626-0.11439 0.03125 0.95805-0.96347
   7   1  -1 127.639 49.6523   5 0.42688 0.09182 0.14730-0.06412 0.95500-0.96042
  -7   1   1 76.7746 31.5755   6-0.34493-0.17394 0.52240-0.43927-0.82957 0.83502
  -7  -1   1 151.000 53.9315   3-0.41950-0.09994-0.19029 0.10693-0.94909 0.95453
   6  -1  -1 1562.17 133.255   5 0.47191-0.03017 0.17494-0.25841 0.93555-0.95493
  -6   1   1 1375.99 117.267   3-0.48067 0.03815-0.24797 0.33122-0.91451 0.93397
   6  -1  -1 1753.20 115.791   2 0.48992-0.04758 0.35145-0.43487 0.87359-0.89287
   6   1  -1 1589.52 139.617   2 0.40129 0.04107 0.22798-0.14470 0.94532-0.96465
  -6   1   1 1759.19 121.446   6-0.33588-0.10622 0.48163-0.39851-0.85707 0.87648
  -6  -1   1 1441.10 140.477   3-0.41144-0.03113-0.18283 0.09950-0.95286 0.97229
  -6  -1   1 1723.17 111.895   9 0.04505-0.48720-0.39424 0.31108 0.91080-0.89103
   6  -1  -1 1569.43 155.077   8 0.42577 0.01631-0.11156 0.02839 0.96041-0.97982
   6   1  -1 1747.44 151.984   5 0.41944 0.02242 0.14278-0.05961 0.95783-0.97723
   6   1  -1 1562.98 144.037   8 0.46580-0.02369-0.12797 0.21152 0.94572-0.96510
   6  -1  -1 1678.58 112.933   4-0.04290 0.48589-0.38133 0.29833-0.91582 0.89621
  -6   1   1 1757.24 167.846   7-0.43520-0.00692 0.06014 0.02296-0.96251 0.98177
  -6  -1   1 1731.10 164.620   7-0.45628 0.01410 0.06419-0.14775-0.95572 0.97499
   5   1  -1 8.35580 26.1594   2 0.40092-0.03545 0.22750-0.14421 0.94554-0.97885
  -5   1   1 15.7892 32.8520   7-0.44082 0.07553 0.06121 0.02191-0.96076 0.99401
  -5  -1   1 -10.949 19.8462   9 0.11607-0.48137-0.23356 0.15042 0.97040-0.93668
   5  -1  -1 5.44582 15.4126   4-0.11227 0.47832-0.21668 0.13355-0.97400 0.94050
   5  -1  -1 -9.4946 34.7043   8 0.42952-0.06430-0.11310 0.02989 0.95914-0.99254
  -5  -1   1 110.603 44.7288   7-0.46629 0.10094 0.06612-0.14964-0.95227 0.98553
   5  -1  -1 -10.597 15.8561   2 0.50748-0.14202 0.37729-0.46070 0.85406-0.88732
   5   1  -1 15.1396 25.1923   8 0.47796-0.11272-0.13299 0.21649 0.94072-0.97409
   5  -1  -1 0.77954 24.8288   5 0.48564-0.12070 0.18346-0.26691 0.92877-0.96212
   5   1  -1 -33.970 22.4795   5 0.42203-0.05700 0.14434-0.06121 0.95686-0.99023
  -5   1   1 15.5972 19.4904   6-0.33075-0.03457 0.45961-0.37650-0.87067 0.90405
  -5   1   1 7.65627 15.2859   3-0.49638 0.13072-0.26310 0.34638-0.90376 0.93721
   4  -1  -1 11397.7 260.803   4-0.18138 0.47048-0.03468-0.04854-0.99940 0.95196
   4   1  -1 11375.1 320.313   5 0.44039-0.15220 0.15555-0.07244 0.94959-0.99693
   4   1  -1 11461.7 301.635   8 0.51427-0.22589-0.14805 0.23149 0.92422-0.97156
   4  -1  -1 13222.0 274.418   2 0.55085-0.26226 0.44391-0.52729 0.79517-0.84240
  -4  -1   1 11436.3 318.872   3-0.42763 0.13883-0.19785 0.11457-0.94511 0.99250
   4   1  -1 11552.8 310.563   2 0.41266-0.12407 0.24328-0.15998 0.93821-0.98552
  -4   1   1 11548.4 275.972   6-0.33107 0.04255 0.46096-0.37784-0.86986 0.91721
  -4   1   1 11209.3 223.679   1 0.18495-0.47357 0.04550 0.03799 0.99896-0.95141
  -4  -1   1 11005.0 254.859   9 0.18750-0.47597-0.05393-0.02923 0.99853-0.95090
   4  -1  -1 11717.7 284.495   5 0.52476-0.23661 0.20794-0.29140 0.90715-0.95445
  -4   1   1 11869.9 273.579   3-0.53871 0.24991-0.30465 0.38796-0.87037 0.91779
   4  -1  -1 11408.0 329.290   8 0.45038-0.16202-0.12163 0.03840 0.95169-0.99906
  -4   1   1 11079.9 332.596   7-0.46530 0.17685 0.06593 0.01723-0.95262 0.99984
  -4  -1   1 11815.0 326.712   7-0.49875 0.21023 0.07240-0.15589-0.94004 0.98729
  -3  -1   1 199.245 41.8554   7-0.57168 0.36000 0.08666-0.17010-0.90628 0.96751
  -3   1   1 116.549 31.3437   7-0.52287 0.31125 0.07710 0.00610-0.92988 0.99107
  -3  -1   1 161.435 30.9271   9 0.25693-0.46855 0.14287-0.22605 0.98660-0.92501
  -3   1   1 182.014 28.7236   1 0.22447-0.43629-0.21664 0.30016 0.97509-0.91349
   3  -1  -1 177.576 32.0064   5 0.60898-0.39758 0.26203-0.34546 0.84695-0.90819
   3  -1  -1 146.559 28.3885   4-0.24768 0.45983 0.16159-0.24488-0.98440 0.92299
   3   1  -1 146.063 32.7111   8 0.59406-0.38254-0.18168 0.26507 0.87864-0.93993
   3  -1  -1 157.746 37.8987   8 0.50037-0.28885-0.14226 0.05900 0.93083-0.99216
  -3   1   1 187.351 24.6197   2 0.36137-0.57308 0.17534-0.09200 0.96624-0.90499
  -3   1   1 200.649 35.2981   3-0.62500 0.41307-0.39383 0.47715-0.77645 0.83789
  -3  -1   1 147.190 34.8965   3-0.46485 0.25294-0.23286 0.14960-0.92453 0.98591
   3   1  -1 163.095 35.4990   2 0.44251-0.23078 0.28412-0.20082 0.91687-0.97815
  -3   1   1 148.027 33.3546   6-0.33820 0.12651 0.49184-0.40872-0.85048 0.91180
  -2   1   1 33330.1 464.960   7-0.64128 0.50647 0.10046-0.01724-0.86468 0.93984
   2  -1  -1 33666.9 455.236   8 0.60206-0.46737-0.18508 0.10180 0.87328-0.94856
   2   1  -1 34221.4 454.856   2 0.49850-0.36363 0.36401-0.28069 0.86432-0.93957
  -2   1   1 36941.7 483.390   6-0.35240 0.21752 0.55837-0.47524-0.80262 0.87791
  -2  -1   1 35879.0 441.141   9 0.31915-0.45393 0.34828-0.43149 0.92473-0.84915
  -2   1   1 39641.1 437.442   5 0.59851-0.73323 0.25519-0.17173 0.85559-0.78035
  -2  -1   1 36606.1 457.106   7-0.71875 0.58388 0.11612-0.19953-0.80482 0.88004
  -4   1  -1 3094.13 204.272   7 0.10898-0.43523-0.04055 0.12381-0.95681 0.79769
   4  -1   1 3125.66 198.427   8-0.09575 0.42224 0.09138-0.17461 0.95724-0.79784
  -4  -1  -1 2934.58 196.958   7 0.12964-0.45594-0.04423-0.03920-0.95046 0.79136
   5   1   1 246.180 58.0369   8-0.04289 0.44638 0.07163 0.01193 0.97207-0.79863
  -5  -1  -1 342.583 80.3162   7 0.03393-0.43709-0.02706-0.05641-0.97621 0.80315
   5  -1   1 326.277 74.8556   8-0.01584 0.41923 0.06144-0.14464 0.97845-0.80505
  -5   1  -1 285.783 75.4530   7 0.02338-0.42649-0.02516 0.10840-0.97848 0.80539
  -6  -1  -1 220.519 62.6978   7-0.04474-0.43526-0.01280-0.07070-0.99039 0.80336
  -6   1  -1 233.917 55.7603   7-0.04894-0.43100-0.01203 0.09524-0.99097 0.80392
   6  -1   1 187.666 61.8494   8 0.05288 0.42738 0.03537-0.11854 0.99094-0.80355
   6   1   1 261.943 70.4446   8 0.03972 0.44064 0.04040 0.04320 0.98896-0.80152
   7  -1   1 1158.97 157.405   8 0.11445 0.44268 0.01177-0.09490 0.99760-0.79622
  -7   1  -1 1010.46 110.593   6-0.13781-0.41891-0.15118 0.23451-0.98758 0.78636
   7   1   1 1529.77 175.828   8 0.11071 0.44651 0.01321 0.07042 0.99732-0.79589
  -7  -1  -1 1560.81 194.142   7-0.11297-0.44387-0.00032-0.08322-0.99757 0.79658
  -7   1  -1 1283.51 170.506   7-0.11293-0.44386-0.00033 0.08350-0.99757 0.79655
  -8  -1  -1 394.636 118.517   7-0.17440-0.45928 0.01101-0.09458-0.99991 0.78495
   8   1   1 391.777 102.968   8 0.17417 0.45991-0.01136 0.09503 0.99991-0.78447
   8  -1   1 446.679 115.685   8 0.17117 0.46282-0.01020-0.07289 0.99989-0.78450
  -8   1  -1 221.322 92.8080   7-0.17137-0.46227 0.01045 0.07269-0.99989 0.78490
 -12  -2   1 86.9181 101.205   7-0.57989-0.32330 0.08827-0.25534-0.90188 0.83719
 -12  -2   1 176.800 85.2303   3-0.51283-0.39094-0.27910 0.11232-0.89160 0.82717
 -11   2   1 129.183 127.804   7-0.52446-0.30180 0.07741 0.08887-0.92917 0.87847
  11   2  -1 231.910 98.8732   8 0.56952 0.25699-0.17125 0.33841 0.89414-0.84338
 -11  -2   1 197.451 100.175   3-0.48779-0.33913-0.25481 0.08804-0.90975 0.85928
 -11  -2   1 171.540 99.8286   7-0.55463-0.27173 0.08330-0.25034-0.91501 0.86431
  11  -2  -1 155.041 71.0363   8 0.51067 0.31577-0.14655-0.01980 0.92597-0.87535
  11   2  -1 343.865 121.272   5 0.50067 0.32540 0.19282-0.02624 0.92089-0.87024
 -10   2   1 302.627 121.891   7-0.50052-0.24891 0.07275 0.09356-0.93933 0.90262
  10   2  -1 278.061 90.8716   5 0.47689 0.27236 0.17803-0.01145 0.93314-0.89652
 -10  -2   1 112.423 97.8050   7-0.53179-0.21773 0.07884-0.24584-0.92588 0.88918
  10  -2  -1 178.299 109.428   8 0.48661 0.26294-0.13657-0.02982 0.93701-0.90042
  10   2  -1 126.452 68.0889   2 0.44927 0.30063 0.29353-0.12697 0.91144-0.87478
  10   2  -1 152.710 84.8148   8 0.54739 0.20224-0.16191 0.32903 0.90696-0.87024
 -10  -2   1 33.5627 51.3202   3-0.46456-0.28551-0.23257 0.06584-0.92471 0.88821
  -9   2   1 211.924 101.845   7-0.47935-0.19324 0.06865 0.09769-0.94754 0.92482
   9   2  -1 406.277 94.7949   2 0.42916 0.24385 0.26572-0.09914 0.92692-0.90427
   9   2  -1 346.651 94.7567   5 0.45559 0.21683 0.16488 0.00169 0.94307-0.92047
  -9  -2   1 256.572 98.7752   7-0.51225-0.16045 0.07503-0.24200-0.93447 0.91177
   9  -2  -1 185.659 74.0835   5 0.54104 0.13097 0.21824-0.38494 0.89706-0.87451
   9  -2  -1 222.358 79.9077   8 0.46516 0.20752-0.12771-0.03872 0.94598-0.92340
   9   2  -1 221.232 77.2103   8 0.52881 0.14394-0.15412 0.32118 0.91691-0.89422
  -9  -2   1 143.489 76.2836   3-0.44366-0.22955-0.21284 0.04612-0.93674 0.91421
  -8  -2   1 863.937 141.422   7-0.49725-0.09862 0.07211-0.23905-0.94064 0.93193
  -8   2   1 722.600 137.520   7-0.46198-0.13378 0.06529 0.10108-0.95377 0.94505
   8   2  -1 701.813 120.185   5 0.43761 0.15798 0.15385 0.01272 0.95073-0.94214
   8   2  -1 718.858 119.246   2 0.41185 0.18427 0.24219-0.07559 0.93874-0.93008
   8  -2  -1 477.572 84.9221   5 0.52866 0.06657 0.21040-0.37710 0.90480-0.89623
   8  -2  -1 553.919 109.954   8 0.44720 0.14859-0.12032-0.04613 0.95287-0.94430
   8   2  -1 612.603 108.726   8 0.51525 0.08062-0.14846 0.31547 0.92374-0.91507
  -8  -2   1 615.912 115.388   3-0.42584-0.17051-0.19619 0.02948-0.94600 0.93746
  -7   2   1 38.5407 45.3000   7-0.44987-0.06904 0.06296 0.10344-0.95785 0.96311
   7   2  -1 70.2621 47.5709   2 0.39828 0.12095 0.22396-0.05735 0.94711-0.95246
  -7  -2   1 59.0722 43.4620   7-0.48880-0.03024 0.07047-0.23738-0.94396 0.94925
   7   2  -1 91.9110 46.4532   8 0.50901 0.00998-0.14585 0.31281 0.92676-0.93211
   7  -2  -1 32.8756 50.5014   5 0.52429-0.00584 0.20765-0.37434 0.90743-0.91285
  -7  -2   1 86.7196 54.5555   3-0.41215-0.10731-0.18349 0.01681-0.95253 0.95797
  -7   2   1 51.6847 55.4086   3-0.54895 0.02959-0.31489 0.48137-0.86121 0.86676
   7  -2  -1 32.3065 44.3732   8 0.43405 0.08487-0.11495-0.05154 0.95758-0.96301
   7   2  -1 68.7851 56.8993   5 0.42413 0.09462 0.14562 0.02093 0.95606-0.96147
  -7   2   1 33.0405 29.0767   6-0.32342-0.19548 0.42929-0.26295-0.88805 0.89348
  -7  -2   1 56.2422 30.7224   9 0.02189-0.54085-0.44313 0.27668 0.88523-0.87946
   6   2  -1 2084.59 171.656   2 0.38974 0.05262 0.21258-0.04596 0.95200-0.97133
  -6   2   1 1894.02 144.124   6-0.31438-0.12773 0.39344-0.22709-0.90672 0.92612
  -6  -2   1 1698.98 158.605   3-0.40415-0.03845-0.17611 0.00944-0.95612 0.97555
  -6  -2   1 1896.19 142.064   9 0.07588-0.51799-0.32651 0.16006 0.94024-0.92050
  -6   2   1 1880.29 129.857   3-0.56233 0.11981-0.32839 0.49489-0.84854 0.86807
   6  -2  -1 1945.43 139.432   5 0.53239-0.09073 0.21277-0.37944 0.90250-0.92188
   6  -2  -1 1803.32 138.193   4-0.07158 0.51454-0.31527 0.14882-0.94352 0.92396
   6  -2  -1 1842.95 173.949   8 0.42773 0.01432-0.11236-0.05415 0.95975-0.97916
   6   2  -1 1863.24 149.468   8 0.51396-0.07184-0.14792 0.31482 0.92437-0.94372
  -6   2   1 1976.07 181.681   7-0.44543 0.00334 0.06210 0.10432-0.95929 0.97854
  -6  -2   1 1992.30 170.434   7-0.49015 0.04795 0.07074-0.23761-0.94344 0.96272
   6   2  -1 1819.41 162.921   5 0.41696 0.02495 0.14126 0.02527 0.95875-0.97815
   5  -2  -1 6082.79 279.637   8 0.43153-0.06635-0.11392-0.05263 0.95845-0.99185
  -5  -2   1 5987.37 261.457   7-0.50704 0.14166 0.07401-0.24084-0.93666 0.96993
   5   2  -1 5894.96 266.554   2 0.38809-0.02262 0.21040-0.04377 0.95291-0.98623
  -5   2   1 6072.23 244.094   6-0.30873-0.05658 0.37173-0.20537-0.91707 0.95046
  -5  -2   1 5795.91 237.100   9 0.12860-0.49386-0.20345 0.03701 0.97781-0.94411
  -5   2   1 6597.96 221.688   3-0.59993 0.23426-0.36717 0.53369-0.80810 0.84162
   5   2  -1 5771.09 233.080   8 0.53701-0.17177-0.15756 0.32440 0.91261-0.94593
   5   2  -1 5760.81 265.885   5 0.41893-0.05388 0.14247 0.02403 0.95802-0.99140
   5  -2  -1 6004.70 219.501   5 0.56106-0.19616 0.23100-0.39767 0.88369-0.91703
   5  -2  -1 6024.29 242.896   4-0.12256 0.48858-0.19079 0.02425-0.97999 0.94651
  -5   2   1 6254.63 291.484   7-0.45256 0.08732 0.06348 0.10298-0.95696 0.99019
  -3  -2   1 74.5294 26.9456   9 0.22759-0.43916 0.05651-0.22298 0.99730-0.93566
  -3   2   1 48.0234 22.7259   6-0.31168 0.10001 0.38300-0.21663-0.91178 0.97311
   3  -2  -1 93.5399 17.7628   3-0.34816 0.56020-0.12522-0.04157-0.97687 0.91543
  -3  -2   1 79.2945 25.8536   7-0.63985 0.42813 0.10018-0.26693-0.86564 0.92688
  -3   2   1 78.8254 16.0105   9 0.14486-0.35659-0.16354 0.33027 0.98592-0.92423
   3   2  -1 93.8050 18.8408   4-0.12415 0.33638-0.18675 0.35378-0.98085 0.91937
  -3   2   1 88.8127 24.2162   1 0.20621-0.41806-0.08409 0.25097 0.99614-0.93456
   3   2  -1 110.332 19.7584   6-0.12327 0.33526-0.18845 0.35547-0.98047 0.91891
   3  -2  -1 71.2518 27.4165   4-0.21722 0.42934 0.06829-0.23491-0.99700 0.93562
   3   2  -1 140.074 34.6014   8 0.69978-0.48825-0.22763 0.39435 0.79313-0.85437
  -3   2   1 91.1217 29.9350   7-0.53568 0.32410 0.07960 0.08691-0.92409 0.98526
   3  -2  -1 67.4598 29.2108   8 0.49620-0.28470-0.14054-0.02605 0.93274-0.99406
   3   2  -1 86.4443 30.8915   2 0.41768-0.20596 0.25008-0.08344 0.93490-0.99619
  -2   2   1 108.307 26.2098   7-0.64914 0.51437 0.10204 0.06450-0.85932 0.93445
   2   2  -1 130.581 25.6366   6-0.05362 0.18871-0.35630 0.52335-0.92700 0.85140
  -2   2   1 119.332 30.5854   1 0.22569-0.36068-0.22658 0.39350 0.97274-0.89714
   2  -2  -1 104.984 30.0647   4-0.25890 0.39406 0.19757-0.36419-0.97681 0.90147
   2  -2  -1 148.497 35.7893   8 0.58495-0.45026-0.17779 0.01120 0.88456-0.95984
  -2  -2   1 141.713 34.6148   9 0.27169-0.40641 0.18850-0.35498 0.97742-0.90179
  -2  -2   1 125.791 22.1471   8 0.60488-0.73957-0.18629 0.01967 0.87135-0.79611
   2   2  -1 126.283 29.0554   5 0.54488-0.41037 0.22069-0.05434 0.89457-0.96976
  -2   2   1 97.7760 26.6816   6-0.32215 0.18731 0.42419-0.25781-0.89083 0.96613
   1   2  -1 7478.00 215.091   6-0.02530 0.08350-0.41983 0.58686-0.89670 0.80710
  -1   2   1 7204.22 226.407   6-0.33880 0.28080 0.49447-0.32810-0.84874 0.93799
  -1  -2   1 6089.82 220.361   9 0.31018-0.36806 0.31618-0.48266 0.93802-0.84840
  -1  -2   1 7342.84 219.407   3-0.59160 0.53351-0.35845 0.19193-0.81773 0.90704
   1   2  -1 7759.57 232.255   5 0.67067-0.61293 0.30316-0.13689 0.78768-0.87671
   0  -2  -1 12.5455 12.9242   9-0.05731 0.03851-0.59795 0.43126 0.77574-0.87938
   0   2   1 20.6405 13.9793   6-0.35935 0.37817 0.59449-0.42811-0.77273 0.87591
  -3   2  -1 5097.70 278.505   6-0.05552-0.19386-0.35194 0.51881-0.92887 0.78343
   3  -2   1 6229.15 265.014   8-0.13085 0.38040 0.10440-0.27102 0.94563-0.80024
  -3   2  -1 5530.87 247.644   7 0.16592-0.41528-0.05069 0.21734-0.93821 0.79304
  -4   2  -1 1986.34 174.788   6-0.07811-0.24812-0.29921 0.46604-0.94931 0.78992
   4  -2   1 1720.00 154.469   8-0.05060 0.37704 0.07452-0.24111 0.97011-0.81073
  -4  -2  -1 2017.26 164.132   7 0.10777-0.43410-0.04033-0.12646-0.95717 0.79809
  -4   2  -1 1692.05 153.422   7 0.07137-0.39758-0.03380 0.20043-0.96726 0.80813
  -5   2  -1 1302.52 149.828   7-0.00534-0.39773-0.01996 0.18655-0.98407 0.81098
  -5   2  -1 1437.92 150.792   6-0.10356-0.29953-0.23770 0.40448-0.96852 0.79517
   5  -2   1 1310.80 147.435   8 0.01730 0.38601 0.04891-0.21547 0.98513-0.81177
   5   2   1 1447.02 138.589   8-0.03002 0.43354 0.06678 0.10014 0.97521-0.80174
  -5  -2  -1 1556.58 158.937   7 0.01212-0.41530-0.02312-0.14369-0.98077 0.80773
  -6  -2  -1 810.105 127.823   7-0.06587-0.41415-0.00894-0.15791-0.99312 0.80611
  -6   2  -1 838.712 130.812   7-0.07151-0.40839-0.00791 0.17447-0.99377 0.80672
  -6   2  -1 1026.12 129.465   6-0.13118-0.34873-0.16828 0.33501-0.98453 0.79723
   6   2   1 920.792 125.254   8 0.05684 0.42354 0.03386 0.13311 0.99150-0.80404
   6  -2   1 709.902 121.950   8 0.07768 0.40252 0.02590-0.19242 0.99414-0.80678
  -7  -2  -1 119.765 74.4101   7-0.13328-0.42358 0.00342-0.17031-0.99878 0.79780
  -7   2  -1 58.3040 34.8874   6-0.16049-0.39621-0.09133 0.25803-0.99560 0.79435
   7   2   1 90.5013 60.2343   8 0.13014 0.42710 0.00572 0.16129 0.99861-0.79716
   7  -2   1 108.846 64.4148   8 0.13313 0.42394 0.00456-0.17105 0.99877-0.79741
  -7   2  -1 22.2972 41.4740   7-0.13103-0.42572 0.00300 0.16352-0.99867 0.79764
  -8   2  -1 79.0599 60.8189   7-0.18609-0.44752 0.01318 0.15332-0.99990 0.78490
  -8  -2  -1 1.95158 58.9249   7-0.19390-0.43981 0.01462-0.18155-0.99982 0.78487
   8  -2   1 66.4922 44.7379   8 0.18521 0.44873-0.01566-0.15080 0.99987-0.78451
   8   2   1 177.041 105.866   8 0.19490 0.43918-0.01945 0.18651 0.99972-0.78427
 -12  -3   1 131.988 126.063   7-0.60647-0.29674 0.09353-0.34391-0.88674 0.82205
 -11   3   1 589.083 172.014   7-0.53601-0.29022 0.07966 0.16995-0.92394 0.87322
 -11  -3   1 582.604 153.840   7-0.58326-0.24312 0.08894-0.33929-0.90004 0.84934
  11   3  -1 1111.89 201.662   5 0.50188 0.32427 0.19358 0.05640 0.92023-0.86953
  11  -3  -1 818.007 193.102   8 0.51578 0.31060-0.14868-0.10104 0.92348-0.87287
 -11  -3   1 857.536 174.723   3-0.48445-0.34252-0.25159 0.00150-0.91201 0.86152
 -10   3   1 479.665 143.439   7-0.51361-0.23579 0.07529 0.17435-0.93389 0.89718
 -10  -3   1 370.666 103.508   7-0.56294-0.18660 0.08494-0.33525-0.91082 0.87412
 -10  -3   1 374.306 107.969   3-0.46267-0.28744-0.23078-0.01928-0.92585 0.88933
  10  -3  -1 268.102 130.417   8 0.49310 0.25641-0.13925-0.11050 0.93414-0.89755
  10   3  -1 272.552 100.072   5 0.47947 0.26985 0.17962 0.07035 0.93187-0.89521
  10   3  -1 500.310 118.455   2 0.44334 0.30654 0.28529-0.03537 0.91621-0.87955
  -9   3   1 1244.11 190.769   7-0.49423-0.17832 0.07153 0.17815-0.94184 0.91911
  -9  -3   1 1184.50 169.061   7-0.54655-0.12617 0.08172-0.33200-0.91896 0.89626
   9   3  -1 1114.91 169.642   5 0.45964 0.21284 0.16737 0.08261 0.94125-0.91862
   9   3  -1 1296.19 163.549   8 0.57566 0.09708-0.17385 0.42427 0.89040-0.86765
   9  -3  -1 1098.01 175.894   8 0.47316 0.19946-0.13101-0.11877 0.94273-0.92015
  -9  -3   1 1231.38 176.469   3-0.44328-0.22998-0.21248-0.03757-0.93694 0.91440
   9   3  -1 1203.27 164.206   2 0.42483 0.24817 0.25981-0.00987 0.93000-0.90735
   8   3  -1 61.9770 61.2983   2 0.40908 0.18704 0.23844 0.01150 0.94051-0.93187
   8  -3  -1 -14.066 37.3967   4 0.00604 0.59080-0.48782 0.23810-0.85724 0.86550
  -8   3   1 -14.874 51.5701   7-0.47895-0.11677 0.06857 0.18113-0.94769 0.93895
  -8  -3   1 39.2528 47.4209   7-0.53558-0.06031 0.07958-0.32983-0.92413 0.91543
  -8  -3   1 -25.792 45.2321   9-0.00314-0.59263-0.49416 0.24442 0.85431-0.86251
  -8   3   1 -0.5131 37.1068   6-0.32317-0.27254 0.42827-0.17868-0.88861 0.88006
   8  -3  -1 35.4690 62.5826   8 0.45687 0.13888-0.12429-0.12551 0.94923-0.94066
   8   3  -1 36.2806 41.5624   8 0.56778 0.02807-0.17051 0.42089 0.89519-0.88646
   8   3  -1 96.6128 69.9108   5 0.44320 0.15244 0.15727 0.09269 0.94842-0.93981
  -8  -3   1 11.3077 57.7514   3-0.42697-0.16941-0.19723-0.05280-0.94544 0.93689
  -7   3   1 281.600 85.3537   7-0.46931-0.04956 0.06671 0.18302-0.95120 0.95645
   7  -3  -1 481.055 80.8242   4-0.03837 0.55827-0.39149 0.14169-0.91100 0.90539
  -7   3   1 270.197 70.3044   6-0.31280-0.20612 0.38732-0.13772-0.90970 0.91513
  -7  -3   1 314.651 75.3004   9 0.04253-0.56144-0.39965 0.14991 0.90815-0.90239
   7  -3  -1 347.906 67.2534   5 0.60126-0.08289 0.25699-0.50683 0.85335-0.85879
   7  -3  -1 303.744 82.2262   8 0.44551 0.07337-0.11963-0.13019 0.95349-0.95892
  -6   3   1 60.3805 35.0257   7-0.46776 0.02572 0.06640 0.18335-0.95175 0.97098
  -6  -3   1 129.032 54.3955   7-0.54113 0.09889 0.08066-0.33084-0.92154 0.94083
   6  -3  -1 46.8449 27.2124   4-0.08082 0.52375-0.29339 0.04352-0.95137 0.93185
   6  -3  -1 126.248 41.4094   5 0.62542-0.18380 0.27284-0.52267 0.83261-0.85201
  -6   3   1 112.598 47.3194   6-0.30470-0.13742 0.35658-0.10696-0.92389 0.94329
  -6  -3   1 154.102 43.4775   9 0.08638-0.52845-0.30274 0.05300 0.94904-0.92931
   6   3  -1 43.9147 56.7011   8 0.58567-0.14357-0.17810 0.42836 0.88410-0.90338
   6  -3  -1 120.573 53.4164   8 0.44105 0.00096-0.11781-0.13204 0.95511-0.97452
  -6  -3   1 218.964 76.1681   3-0.40779-0.03483-0.17946-0.07055-0.95451 0.97393
   5   3  -1 535.399 70.8058   8 0.62577-0.26054-0.19526 0.44545 0.85642-0.88968
  -5   3   1 547.142 96.1974   7-0.47826 0.11305 0.06843 0.18135-0.94795 0.98116
   5  -3  -1 503.124 77.2213   5 0.67867-0.31376 0.30861-0.55840 0.77880-0.81220
  -5  -3   1 520.917 78.9925   7-0.56844 0.20304 0.08602-0.33616-0.90798 0.94126
   5   3  -1 603.718 91.8609   2 0.38787-0.02240 0.21010 0.03986 0.95303-0.98636
   5   3  -1 637.164 100.165   5 0.42843-0.06338 0.14825 0.10164 0.95439-0.98777
   5  -3  -1 506.195 87.2151   4-0.12105 0.48701-0.19462-0.05531-0.97915 0.94570
  -5   3   1 488.658 85.1674   6-0.29954-0.06577 0.33747-0.08783-0.93202 0.96541
  -5  -3   1 569.692 87.1977   9 0.12819-0.49341-0.20446-0.04529 0.97758-0.94389
  -5   3   1 557.682 79.8845   1 0.14729-0.51279 0.23735 0.01275 0.97096-0.93738
   5  -3  -1 578.168 93.9787   8 0.44654-0.08138-0.12005-0.12981 0.95312-0.98650
  -5  -3   1 525.081 88.9957   3-0.40821 0.04249-0.17985-0.07015-0.95432 0.98773
  -4   3   1 454.190 76.9179   7-0.50764 0.21926 0.07413 0.17567-0.93641 0.98359
   4   3  -1 471.814 77.3455   2 0.39457-0.10597 0.21900 0.03096 0.94927-0.99658
   4   3  -1 704.675 88.7340   8 0.70568-0.41731-0.23025 0.48037 0.78728-0.83448
   4   3  -1 511.544 47.1658   6-0.27580 0.56471 0.25388-0.00372-0.96180 0.91424
  -4   3   1 573.381 84.8018   6-0.29801 0.00953 0.33188-0.08222-0.93430 0.98167
   4  -3  -1 507.566 82.4308   4-0.15873 0.44774-0.09653-0.15343-0.99507 0.94766
   4  -3  -1 473.067 76.3524   8 0.46700-0.17870-0.12846-0.12141 0.94524-0.99260
  -4   3   1 559.675 78.6070   1 0.17250-0.46120 0.11329 0.13688 0.99352-0.94595
  -4  -3   1 425.943 70.1399   9 0.16761-0.45597-0.10600-0.14374 0.99428-0.94660
  -4  -3   1 570.477 77.2496   7-0.62686 0.33829 0.09758-0.34769-0.87414 0.92142
  -3   3   1 1236.30 113.910   1 0.19287-0.40474-0.00046 0.25069 0.99994-0.93836
   3   3  -1 1313.87 84.1645   6-0.19391 0.40596 0.00095 0.24937-0.99993 0.93839
  -3   3   1 1409.14 126.869   6-0.30084 0.08919 0.34224-0.09257-0.93004 0.99138
  -3  -3   1 1441.89 128.195   9 0.20418-0.41570-0.00894-0.24081 0.99970-0.93803
  -3  -3   1 1185.70 116.514   3-0.44387 0.23197-0.21304-0.03691-0.93662 0.99800
   3   3  -1 1142.95 109.123   5 0.47852-0.26721 0.17903 0.07073 0.93234-0.99362
   3  -3  -1 1283.46 118.840   8 0.51093-0.29946-0.14666-0.10323 0.92584-0.98716
  -3   3   1 1371.61 117.929   7-0.56809 0.35654 0.08595 0.16387-0.90816 0.96930
   3  -3  -1 1161.51 112.414   4-0.19344 0.40552-0.00075-0.24921-0.99993 0.93857
  -3  -3   1 1356.23 101.612   7-0.73792 0.52617 0.12005-0.37013-0.78729 0.84856
  -2   3   1 7413.16 259.384   1 0.20875-0.34375-0.10099 0.35127 0.99449-0.91890
  -2  -3   1 8079.33 154.897   8 0.58910-0.72378-0.17956-0.07034 0.88189-0.80665
   2   3  -1 7965.72 234.022   6-0.14237 0.27751-0.13934 0.38971-0.98950 0.91395
  -2   3   1 8017.39 274.674   6-0.30864 0.17384 0.37137-0.12170-0.91723 0.99255
   2  -3  -1 8241.65 251.672   8 0.59271-0.45803-0.18110-0.06880 0.87953-0.95481
   2  -3  -1 8144.81 240.410   9-0.02618 0.16111-0.53941 0.28935 0.82285-0.89853
  -2  -3   1 7868.74 277.263   9 0.23737-0.37204 0.08474-0.33449 0.99475-0.91908
  -2  -3   1 7766.58 266.241   3-0.48954 0.35456-0.25649 0.00657-0.90855 0.98391
   2   3  -1 7659.79 249.896   5 0.54210-0.40765 0.21892 0.03076 0.89637-0.97156
  -2  -3   1 8105.17 255.538   4 0.03190-0.16703-0.54096 0.29062-0.82059 0.89602
  -2   3   1 8029.70 241.405   7-0.68077 0.54602 0.10839 0.14145-0.83620 0.91130
   2  -3  -1 7227.05 264.569   4-0.22474 0.35987 0.09076-0.34071-0.99488 0.91956
  -1  -3   1 668.350 75.9783   4 0.01492-0.07321-0.50631 0.25602-0.84509 0.93448
  -1  -3   1 672.097 83.6597   9 0.26664-0.32447 0.17271-0.42246 0.98087-0.89121
  -1  -3   1 753.564 77.9426   3-0.56333 0.50528-0.32940 0.07953-0.84756 0.93687
   1   3  -1 735.025 79.8878   2 0.49494-0.43692 0.35878-0.10880 0.86823-0.95748
   1   3  -1 714.064 78.3792   6-0.11245 0.17068-0.21566 0.46605-0.97423 0.88468
   1   3  -1 744.266 75.4906   5 0.64820-0.59055 0.28799-0.03842 0.81106-0.90007
  -1   3   1 744.291 83.0440   6-0.32165 0.26370 0.42214-0.17247-0.89194 0.98120
   1  -3  -1 681.491 75.4667   9-0.00919 0.06727-0.50620 0.25616 0.84633-0.93597
   0  -3   1 -2.4703 11.8939   4 0.01087 0.00769-0.49793 0.24769-0.85068 0.95403
   0   3   1 -3.6925 16.5818   6-0.33926 0.35815 0.49655-0.24690-0.84737 0.95057
   0  -3   1 13.7891 18.9273   9 0.29145-0.27245 0.25229-0.50204 0.96033-0.85666
   0   3  -1 -6.5887 18.4437   6-0.09763 0.07897-0.25223 0.50261-0.96441 0.86088
   0   3  -1 4.64355 6.90791   2 0.56433-0.58316 0.46561-0.21562 0.77300-0.87624
   0  -3  -1 -11.119 22.7272   4-0.27509 0.25641 0.25139-0.50124-0.96254 0.85932
   0  -3  -1 29.6297 20.9507   9-0.00569-0.01308-0.49926 0.24924 0.85096-0.95458
  -1   3  -1 10264.2 331.627   6-0.09354-0.00203-0.26220 0.51254-0.96145 0.84394
   1   3   1 10408.0 320.362   1 0.23421-0.13857-0.30156 0.55190 0.95143-0.83382
   1  -3   1 11156.6 326.791   9 0.31142-0.21559 0.32056-0.57030 0.93629-0.81861
  -1  -3  -1 10375.5 322.210   9-0.01126-0.08435-0.51031 0.26032 0.84354-0.96114
  -1  -3  -1 10620.7 311.077   4-0.29336 0.19778 0.31510-0.56488-0.94090 0.82375
  -2   3  -1 1912.60 153.154   6-0.09725-0.07520-0.25316 0.50347-0.96414 0.83267
   2  -3   1 1559.82 116.053   9 0.32627-0.15362 0.37456-0.62430 0.91276-0.78108
  -2  -3  -1 1698.23 141.007   9-0.02329-0.14919-0.53381 0.28384 0.82697-0.95854
   2  -3   1 1711.31 131.258   8-0.13163 0.30423 0.10469-0.35466 0.94535-0.81399
   2  -3   1 1774.36 148.641   4 0.02684 0.14549-0.53075 0.28061-0.82806 0.95935
  -2   3  -1 1804.25 134.116   7 0.19726-0.36972-0.05623 0.30626-0.92651 0.79530
  -3  -3  -1 3768.90 225.887   9-0.04006-0.20926-0.56589 0.31594 0.80250-0.94805
  -3   3  -1 3828.57 233.118   6-0.10679-0.14255-0.22973 0.47999-0.97065 0.82521
   3  -3   1 3553.14 209.033   8-0.05759 0.30708 0.07714-0.32708 0.96826-0.82291
   3  -3   1 3669.46 232.067   4 0.04278 0.20648-0.56267 0.31258-0.80399 0.94926
  -3  -3  -1 3127.48 193.481   7 0.18207-0.43158-0.05355-0.19655-0.93232 0.78721
  -3   3  -1 3421.36 205.498   7 0.09596-0.34527-0.03821 0.28822-0.96059 0.81541
   4  -3   1 20.5542 24.8996   8 0.00479 0.32157 0.05365-0.30357 0.98275-0.82342
  -4   3  -1 29.7741 29.1841   6-0.12076-0.20544-0.19479 0.44500-0.97910 0.81971
  -4  -3  -1 6.53016 29.1879   7 0.05949-0.38583-0.03166-0.21846-0.97025 0.81119
   4   3   1 25.3486 26.4565   8-0.10634 0.43301 0.09532 0.15496 0.95388-0.79438
  -4  -3  -1 -9.7142 25.2597   9-0.06048-0.26569-0.60375 0.35381 0.77064-0.93017
  -4   3  -1 -7.0809 29.8440   7 0.01782-0.34399-0.02415 0.27413-0.97963 0.82048
  -5   3  -1 2774.36 217.729   6-0.13818-0.26487-0.15021 0.40036-0.98775 0.81439
   5   3   1 2608.09 172.512   1 0.23214 0.17109-0.28220 0.53251 0.95756-0.78402
  -5  -3  -1 2954.85 208.652   7-0.03119-0.37200-0.01527-0.23490-0.98839 0.81537
   5   3   1 2974.11 188.385   8 0.00782 0.39571 0.05250 0.19781 0.98335-0.80987
   5  -3   1 2765.91 224.765   8 0.06050 0.34275 0.03247-0.28237 0.99200-0.81866
  -5   3  -1 2789.98 222.984   7-0.04791-0.35510-0.01222 0.26217-0.99082 0.81772
   6   3   1 2259.56 153.269   1 0.22366 0.25643-0.21007 0.46035 0.97657-0.78908
  -6   3  -1 2063.91 194.519   6-0.15832-0.32157-0.09716 0.34726-0.99500 0.80769
   6  -3   1 1783.15 197.594   8 0.11206 0.36807 0.01269-0.26257 0.99743-0.81009
   6   3   1 2148.72 180.865   8 0.09539 0.38499 0.01910 0.23126 0.99600-0.80854
  -6  -3  -1 2075.41 199.864   7-0.10500-0.37503-0.00178-0.24842-0.99698 0.80999
  -6   3  -1 2031.04 210.737   7-0.10632-0.37354-0.00154 0.25145-0.99708 0.81001
  -7   3  -1 2610.69 221.200   6-0.18063-0.37607-0.03636 0.28641-0.99934 0.79808
   7   3   1 3100.97 249.636   8 0.16814 0.38908-0.00902 0.25942 0.99986-0.79840
   7  -3   1 2680.92 256.473   8 0.16087 0.39613-0.00619-0.24366 0.99975-0.79842
  -7   3  -1 2068.60 224.978   7-0.16007-0.39663 0.00836 0.24152-0.99972 0.79868
  -7  -3  -1 2818.98 266.073   7-0.16900-0.38787 0.01001-0.26024-0.99986 0.79891
  -8   3  -1 116.095 70.6503   7-0.21069-0.42287 0.01774 0.23211-0.99941 0.78440
  -8   3  -1 208.741 71.9934   6-0.20468-0.42879 0.03185 0.21815-0.99922 0.78402
   8  -3   1 210.472 93.6961   8 0.20778 0.42610-0.02448-0.22533 0.99935-0.78401
  -8  -3  -1 20.4832 77.4482   7-0.22659-0.40706 0.02070-0.27094-0.99874 0.78369
   8   3   1 204.899 69.8094   8 0.23198 0.40210-0.03398 0.28442 0.99811-0.78263
 -11   4   1 -41.851 104.036   7-0.55437-0.27183 0.08325 0.24970-0.91514 0.86441
  11   4  -1 90.7961 73.0347   2 0.46266 0.36411 0.31236 0.02090 0.90000-0.84934
 -11  -4   1 14.6673 68.3685   3-0.48716-0.33986-0.25419-0.07923-0.91018 0.85967
 -10   4   1 -17.874 78.7932   7-0.53406-0.21529 0.07928 0.25370-0.92484 0.88810
 -10  -4   1 157.152 93.5279   7-0.60432-0.14526 0.09310-0.42673-0.88803 0.85134
  10   4  -1 -59.017 76.6228   5 0.48855 0.26083 0.18527 0.14814 0.92729-0.89059
  10  -4  -1 196.862 91.5105   8 0.50637 0.24308-0.14476-0.18834 0.92802-0.89143
  10   4  -1 81.7954 97.6563   2 0.44375 0.30614 0.28584 0.04742 0.91589-0.87925
 -10  -4   1 144.760 92.8628   3-0.46709-0.28307-0.23499-0.09842-0.92316 0.88662
  -9  -4   1 1211.13 177.536   7-0.59235-0.08040 0.09073-0.42432-0.89497 0.87227
   9   4  -1 1093.81 169.563   5 0.47059 0.20194 0.17412 0.15927 0.93618-0.91350
  -9   4   1 1166.45 195.931   7-0.51715-0.15537 0.07598 0.25703-0.93238 0.90964
   9  -4  -1 994.930 178.980   8 0.48845 0.18412-0.13733-0.19579 0.93620-0.91363
  -9  -4   1 1013.26 173.035   3-0.44949-0.22380-0.21833-0.11507-0.93351 0.91096
   9   4  -1 1010.46 164.596   2 0.42700 0.24599 0.26278 0.07050 0.92846-0.90582
   8   4  -1 393.041 109.035   2 0.41299 0.18311 0.24373 0.08957 0.93800-0.92936
   8  -4  -1 483.612 109.292   4-0.00774 0.60455-0.45862 0.12547-0.87516 0.88348
  -8   4   1 411.060 114.873   7-0.50473-0.09095 0.07356 0.25947-0.93761 0.92886
  -8  -4   1 483.737 112.600   7-0.58704-0.00888 0.08968-0.42324-0.89795 0.88926
  -8  -4   1 497.405 132.843   3-0.43501-0.16140-0.20473-0.12866-0.94134 0.93278
  -8  -4   1 393.704 102.257   9 0.01145-0.60718-0.46465 0.13161 0.87275-0.88098
  -8   4   1 480.071 107.067   6-0.31790-0.27783 0.40720-0.07433-0.89979 0.89122
   8  -4  -1 512.745 123.814   8 0.47442 0.12129-0.13152-0.20162 0.94221-0.93363
   8   4  -1 301.763 92.3884   5 0.45614 0.13952 0.16521 0.16816 0.94283-0.93417
  -7  -4   1 1957.49 209.314   3-0.42453-0.09500-0.19496-0.13843-0.94665 0.95208
   7   4  -1 1883.72 200.971   2 0.40242 0.11680 0.22950 0.10380 0.94464-0.94999
  -7   4   1 1919.81 191.022   6-0.30881-0.21013 0.37201-0.03912-0.91694 0.92236
  -7  -4   1 1954.26 188.121   9 0.05038-0.56926-0.38273 0.04970 0.91627-0.91053
   7   4  -1 1996.10 199.033   5 0.44630 0.07249 0.15917 0.17419 0.94711-0.95247
   7  -4  -1 1896.50 205.173   8 0.46554 0.05328-0.12787-0.20530 0.94582-0.95124
   7  -4  -1 2088.86 195.836   4-0.04543 0.56528-0.37559 0.04237-0.91847 0.91290
  -7   4   1 1929.73 204.717   7-0.49848-0.02036 0.07235 0.26071-0.94015 0.94538
  -7  -4   1 2368.12 201.675   7-0.59133 0.07224 0.09053-0.42406-0.89554 0.90085
  -6   4   1 892.933 134.427   7-0.50093 0.05894 0.07283 0.26026-0.93916 0.95837
   6   4  -1 1032.24 142.268   2 0.39620 0.04614 0.22118 0.11211 0.94833-0.96767
   6  -4  -1 924.483 131.265   4-0.08095 0.52383-0.29308-0.04019-0.95147 0.93198
  -6   4   1 889.538 126.713   6-0.30179-0.14034 0.34575-0.01282-0.92856 0.94797
  -6  -4   1 983.794 126.435   9 0.08721-0.52924-0.30084-0.03220 0.94971-0.92999
   6   4  -1 876.954 125.673   5 0.44261-0.00070 0.15691 0.17642 0.94866-0.96802
   6   4  -1 1354.06 138.104   8 0.68431-0.24224-0.22078 0.55437 0.80786-0.82704
   6  -4  -1 910.133 134.642   8 0.46376-0.02179-0.12713-0.20604 0.94653-0.96593
  -6  -4   1 906.931 134.910   3-0.41923-0.02340-0.19005-0.14333-0.94922 0.96864
  -6  -4   1 973.792 119.377   7-0.61002 0.16775 0.09423-0.42772-0.88462 0.90392
  -5   4   1 7.99420 31.6188   7-0.51615 0.15099 0.07579 0.25732-0.93281 0.96599
   5   4  -1 19.0232 48.6160   2 0.39554-0.03008 0.22030 0.11301 0.94871-0.98204
  -5  -4   1 -23.590 29.8767   7-0.65120 0.28578 0.10244-0.43590-0.85788 0.89118
   5  -4  -1 -62.889 47.6963   4-0.11410 0.48002-0.21211-0.12120-0.97512 0.94168
   5   4  -1 27.6145 25.0690   6-0.34517 0.71097 0.52348-0.19017-0.82880 0.79507
  -5   4   1 -9.6180 43.9004   6-0.29734-0.06796 0.32947 0.00349-0.93527 0.96867
  -5  -4   1 24.3891 33.1551   9 0.12177-0.48695-0.21994-0.11310 0.97389-0.94021
   5  -4  -1 -13.989 32.3505   8 0.47198-0.10686-0.13052-0.20267 0.94322-0.97659
   5   4  -1 57.7480 45.0457   5 0.44736-0.08233 0.15983 0.17346 0.94665-0.98000
  -5  -4   1 -8.4887 31.2099   3-0.42079 0.05506-0.19149-0.14188-0.94847 0.98188
  -4  -4   1 1341.03 137.503   3-0.43152 0.14270-0.20148-0.13186-0.94314 0.99054
   4   4  -1 1302.16 139.915   2 0.40201-0.11342 0.22894 0.10435 0.94489-0.99220
   4   4  -1 1371.84 98.5417   6-0.28019 0.56917 0.26884 0.06466-0.95714 0.90954
  -4   4   1 1312.91 138.791   6-0.29599 0.00752 0.32453 0.00845-0.93724 0.98462
   4  -4  -1 1348.37 135.376   8 0.49476-0.20649-0.13994-0.19324 0.93339-0.98073
  -4  -4   1 1146.81 124.475   9 0.15384-0.44216-0.14107-0.19198 0.98965-0.94196
   4   4  -1 1219.62 121.735   5 0.46395-0.17581 0.17003 0.16319 0.93928-0.98659
   4  -4  -1 1436.31 144.511   4-0.14467 0.43363-0.13380-0.19952-0.99035 0.94296
  -4   4   1 1512.33 141.656   7-0.55082 0.26249 0.08256 0.25057-0.91688 0.96403
  -4  -4   1 1435.44 116.105   7-0.72850 0.43989 0.11811-0.45154-0.79606 0.84336
  -3  -4   1 73.6291 31.4746   4 0.02359-0.23554-0.52413 0.19041-0.83279 0.89426
  -3   4   1 102.105 47.9419   6-0.29820 0.08658 0.33258 0.00041-0.93402 0.99537
  -3   4   1 102.385 34.7070   7-0.61630 0.40479 0.09548 0.23766-0.88078 0.94189
  -3  -4   1 60.2992 33.2419   3-0.45473 0.24284-0.22328-0.11004-0.93052 0.99190
   3  -4  -1 69.9724 35.8114   4-0.17241 0.38443-0.05945-0.27385-0.99819 0.93683
   3   4  -1 91.2393 29.1873   6-0.22722 0.43932 0.09852 0.23511-0.99402 0.93247
  -3  -4   1 114.752 50.0621   9 0.18304-0.39456-0.06576-0.26731 0.99784-0.93623
   3  -4  -1 47.5790 21.6722   9-0.01675 0.22856-0.52109 0.18768 0.83607-0.89775
   3  -4  -1 87.8124 33.2637   8 0.53949-0.32805-0.15860-0.17459 0.91127-0.97257
  -3  -4   1 93.5389 18.0721   8-0.00183-0.20989 0.05615-0.38940 0.98142-0.92004
  -3   4   1 117.456 19.8098   2 0.41474-0.62644 0.24609 0.08719 0.93686-0.87562
   3   4  -1 105.968 36.1113   2 0.41765-0.20593 0.25005 0.08326 0.93492-0.99621
   2  -4  -1 1608.33 119.635   8 0.61774-0.48308-0.19181-0.14137 0.86229-0.93755
   2   4  -1 1543.20 117.925   6-0.18886 0.32407-0.01333 0.34703-0.99989 0.92434
  -2   4   1 1631.65 139.083   6-0.30442 0.16966 0.35553-0.02252-0.92435 0.99967
   2  -4  -1 1565.23 122.869   9 0.00585 0.12910-0.47606 0.14268 0.86580-0.94145
  -2  -4   1 1406.05 132.108   9 0.20934-0.34396 0.00525-0.33828 0.99960-0.92388
   2   4  -1 1490.32 120.013   5 0.55598-0.42159 0.22776 0.10527 0.88718-0.96233
  -2  -4   1 1576.71 132.546   3-0.49488 0.35992-0.26164-0.07163-0.90483 0.98019
  -2  -4   1 1583.79 127.757   4 0.00132-0.13647-0.47789 0.14424-0.86350 0.93890
   2   4  -1 1531.63 72.3660   7-0.28066 0.41563 0.03082 0.30256-0.99436 0.91903
  -2   4   1 1627.73 117.292   7-0.73017 0.59546 0.11846 0.21469-0.79453 0.86958
  -1  -4   1 8148.59 283.144   3-0.55721 0.49918-0.32319-0.01003-0.85350 0.94280
   1   4  -1 7236.02 280.313   2 0.48661-0.42860 0.34664-0.01335 0.87704-0.96629
   1   4  -1 7427.82 278.678   6-0.16324 0.22154-0.08393 0.41766-0.99630 0.90677
  -1  -4   1 6171.62 271.680   9 0.23212-0.28991 0.06952-0.40256 0.99624-0.90651
  -1   4   1 7848.71 298.726   6-0.31487 0.25697 0.39531-0.06232-0.90579 0.99507
   1   4  -1 8336.13 280.641   5 0.64887-0.59129 0.28844 0.04446 0.81040-0.89937
   1  -4  -1 8124.36 292.771   9 0.01538 0.04272-0.45659 0.12325 0.87752-0.96714
  -1  -4   1 8224.90 297.122   4-0.00854-0.04978-0.45692 0.12331-0.87616 0.96552
  -1   4  -1 96.9231 27.8168   7 0.17729-0.27284-0.05270 0.38610-0.93409 0.81682
  -1   4  -1 55.1118 31.7931   6-0.14091 0.04539-0.14314 0.47685-0.98890 0.87140
   1   4   1 69.2937 29.6215   1 0.21713-0.12152-0.16012 0.49383 0.98636-0.86878
  -1  -4  -1 85.2624 31.0692   4-0.24920 0.15361 0.16642-0.49953-0.98347 0.86631
   1   4   1 60.2085 24.2889   6-0.34676 0.44257 0.53096-0.19801-0.82340 0.94053
  -1  -4  -1 87.6550 27.6610   9 0.00945-0.10504-0.46872 0.13543 0.87029-0.98788
   1  -4   1 107.794 41.9440   9 0.26614-0.17028 0.17118-0.50420 0.98119-0.86346
   1  -4   1 66.7629 20.5468   8-0.07777 0.17342 0.08468-0.41797 0.96264-0.84530
   2   4   1 53.3712 34.6895   1 0.21971-0.04720-0.17938 0.51309 0.98291-0.85134
  -2   4  -1 9.33891 29.5222   6-0.14040-0.03201-0.14444 0.47812-0.98869 0.85722
  -2  -4  -1 27.2004 24.8762   4-0.25818 0.08572 0.19523-0.52828-0.97735 0.84625
   2  -4   1 -6.4363 25.5519   9 0.27665-0.10397 0.20420-0.53723 0.97368-0.84193
  -2  -4  -1 -18.462 22.9226   9-0.00205-0.17037-0.49198 0.15871 0.85572-0.98729
   2  -4   1 -10.707 19.6426   8-0.02450 0.19703 0.06470-0.39798 0.97650-0.84517
  -2  -4  -1 -2.3168 31.8931   7 0.25725-0.42991-0.06679-0.26662-0.90114 0.77001
  -2   4  -1 30.9204 25.0111   7 0.07996-0.25236-0.03534 0.36871-0.96500 0.83377
   3   4   1 1942.86 157.032   1 0.21998 0.02943-0.18146 0.51517 0.98251-0.83696
  -3   4  -1 1919.79 174.844   6-0.14514-0.10415-0.13207 0.46570-0.99059 0.84516
   3  -4   1 1826.91 139.320   9 0.28214-0.03265 0.22180-0.55482 0.96913-0.82337
  -3  -4  -1 1872.90 171.221   9-0.01765-0.23162-0.52286 0.18960 0.83483-0.98037
   3  -4   1 2125.86 166.806   8 0.02342 0.22599 0.04659-0.37986 0.98623-0.84091
   3  -4   1 1829.99 174.344   4 0.02139 0.22783-0.51965 0.18617-0.83595 0.98123
  -3  -4  -1 2092.09 130.910   7 0.08489-0.33440-0.03623-0.29720-0.96367 0.81860
  -3   4  -1 1950.51 156.349   7 0.00885-0.25810-0.02253 0.35587-0.98141 0.83623
  -3  -4  -1 1851.43 142.997   4-0.26205 0.01277 0.20790-0.54089-0.97435 0.82931
  -4  -4  -1 15.8648 25.1440   7-0.02137-0.30498-0.01705-0.31641-0.98683 0.82780
  -4   4  -1 -4.2305 32.3209   7-0.05038-0.27572-0.01177 0.34508-0.99116 0.83201
   4  -4   1 -10.254 31.9840   4 0.03946 0.28670-0.55607 0.22265-0.80914 0.96839
   4   4   1 4.08108 17.9633   8-0.02897 0.35564 0.06638 0.26726 0.97546-0.81596
   4   4   1 -7.5884 22.1045   1 0.21775 0.10854-0.16472 0.49842 0.98557-0.82604
  -4   4  -1 -32.206 43.9276   6-0.15409-0.17208-0.10845 0.44202-0.99373 0.83433
   4  -4   1 30.7767 40.1181   8 0.06857 0.25773 0.02938-0.36263 0.99305-0.83373
  -4  -4  -1 20.6113 20.2535   4-0.25977-0.06633 0.20043-0.53337-0.97614 0.81716
  -4  -4  -1 89.2715 53.5960   9-0.03657-0.28956-0.55928 0.22604 0.80772-0.96725
   4  -4   1 5.38651 30.3064   9 0.28166 0.04464 0.22024-0.55327 0.96954-0.80978
   5   4   1 5078.23 245.971   1 0.21246 0.19071-0.12658 0.46024 0.99142-0.81793
  -5   4  -1 5017.00 310.496   6-0.16646-0.23656-0.07523 0.40876-0.99705 0.82369
   5  -4   1 5694.56 246.555   9 0.27332 0.12978 0.19363-0.52668 0.97623-0.80244
   5   4   1 4725.33 215.620   8 0.08083 0.32268 0.02469 0.30900 0.99450-0.82103
   5  -4   1 4873.47 305.160   8 0.11210 0.29107 0.01267-0.34591 0.99743-0.82412
  -5  -4  -1 4619.07 245.192   7-0.09989-0.30330-0.00272-0.33078-0.99656 0.82357
  -5   4  -1 4541.21 291.200   7-0.10331-0.29964-0.00209 0.33538-0.99684 0.82373
  -5  -4  -1 4951.37 217.403   4-0.24917-0.15373 0.16631-0.49922-0.98349 0.81055
  -6  -4  -1 128.354 43.4849   7-0.16478-0.31525 0.00923-0.34277-0.99981 0.81284
  -6   4  -1 121.427 56.7770   6-0.18162-0.29823-0.03359 0.36705-0.99943 0.81212
   6  -4   1 140.452 62.4503   8 0.15462 0.32543-0.00376-0.32945 0.99961-0.81230
   6   4   1 142.168 57.1957   8 0.16257 0.31779-0.00685 0.34059 0.99978-0.81232
  -6   4  -1 51.4385 53.7928   7-0.15253-0.32728 0.00697 0.32630-0.99953 0.81245
  -7   4  -1 329.060 102.632   7-0.19937-0.35728 0.01564 0.31760-0.99972 0.79867
  -7  -4  -1 547.804 123.375   7-0.22192-0.33493 0.01983-0.35338-0.99897 0.79797
  -7   4  -1 382.183 105.933   6-0.19909-0.35759 0.01570 0.31770-0.99972 0.79845
   7  -4   1 371.790 139.602   8 0.19645 0.36047-0.02005-0.31314 0.99969-0.79838
  -8   4  -1 90.7897 86.9114   7-0.24444-0.38901 0.02404 0.30914-0.99766 0.78254
  -8  -4  -1 -109.92 89.1013   7-0.27428-0.35934 0.02962-0.36315-0.99505 0.77995
  -8   4  -1 -13.977 64.5237   6-0.21843-0.41504 0.07219 0.26115-0.99668 0.78145
   8  -4   1 138.011 98.0385   8 0.23782 0.39598-0.03628-0.29689 0.99770-0.78239
 -10   5   1 200.288 132.259   7-0.56139-0.18791 0.08463 0.33168-0.91161 0.87485
  10   5  -1 138.457 62.4744   5 0.50312 0.24628 0.19435 0.22249 0.91955-0.88278
  10  -5  -1 120.906 100.758   8 0.52565 0.22373-0.15280-0.26364 0.91854-0.88194
  10   5  -1 225.340 121.811   2 0.44893 0.30094 0.29306 0.12356 0.91172-0.87508
 -10  -5   1 170.829 92.7586   3-0.47657-0.27363-0.24403-0.17274-0.91719 0.88063
  -9   5   1 867.959 173.053   7-0.54747-0.12499 0.08190 0.33445-0.91851 0.89575
   9   5  -1 575.260 134.413   5 0.48729 0.18525 0.18448 0.23235 0.92794-0.90520
   9  -5  -1 863.482 173.025   8 0.51013 0.16238-0.14632-0.27013 0.92623-0.90364
  -9  -5   1 938.692 174.895   3-0.46089-0.21243-0.22911-0.18767-0.92691 0.90434
   9   5  -1 690.998 159.303   2 0.43398 0.23900 0.27235 0.14427 0.92338-0.90074
   8  -5  -1 -33.259 66.2768   4-0.01279 0.60956-0.44776 0.03119-0.88145 0.88980
  -8   5   1 -21.758 61.1772   7-0.53856-0.05707 0.08016 0.33621-0.92275 0.91397
  -8   5   1 34.2575 48.8697   6-0.31680-0.27895 0.40285 0.01333-0.90201 0.89344
  -8  -5   1 -36.964 72.7235   9 0.01703-0.61272-0.45320 0.03687 0.87949-0.88774
   8  -5  -1 -34.025 77.3779   8 0.49876 0.09689-0.14160-0.27487 0.93157-0.92298
   8   5  -1 -15.677 58.4540   5 0.47512 0.12054 0.17693 0.23988 0.93400-0.92530
  -8  -5   1 6.24353 51.8361   3-0.44837-0.14806-0.21728-0.19949-0.93413 0.92556
   8   5  -1 61.2634 66.5080   2 0.42174 0.17435 0.25560 0.16103 0.93215-0.92351
   7   5  -1 485.278 126.860   2 0.41283 0.10637 0.24352 0.17312 0.93810-0.94345
  -7   5   1 432.151 111.728   7-0.53642 0.01763 0.07974 0.33665-0.92375 0.92895
   7  -5  -1 467.428 111.690   4-0.04547 0.56528-0.37550-0.04113-0.91852 0.91297
  -7   5   1 463.389 103.855   6-0.30890-0.21005 0.37236 0.04385-0.91678 0.92219
  -7  -5   1 577.796 120.266   9 0.05089-0.56972-0.38165-0.03469 0.91678-0.91105
   7  -5  -1 543.303 126.086   8 0.49283 0.02595-0.13914-0.27734 0.93426-0.93966
   7   5  -1 723.527 130.548   5 0.46767 0.05110 0.17232 0.24446 0.93755-0.94287
  -7  -5   1 546.005 120.683   3-0.43983-0.07972-0.20925-0.20751-0.93880 0.94421
   6   5  -1 258.844 88.0072   2 0.40804 0.03428 0.23705 0.17959 0.94117-0.96051
  -6   5   1 548.993 114.060   7-0.54372 0.10176 0.08117 0.33524-0.92031 0.93949
  -6  -5   1 429.809 96.8289   9 0.08257-0.52455-0.31141-0.10492 0.94592-0.92622
  -6  -5   1 408.604 76.9459   7-0.69692 0.25463 0.11167-0.52847-0.82337 0.84269
   6  -5  -1 487.162 111.982   4-0.07595 0.51878-0.30495-0.11171-0.94730 0.92782
  -6   5   1 274.102 78.0212   6-0.30290-0.13923 0.34985 0.06639-0.92681 0.94621
   6   5  -1 384.239 94.2000   5 0.46640-0.02452 0.17154 0.24521 0.93814-0.95746
   6  -5  -1 363.710 96.1022   8 0.49424-0.05231-0.13972-0.27675 0.93363-0.95301
  -6  -5   1 357.171 94.9098   3-0.43633-0.00631-0.20597-0.21078-0.94065 0.96006
   5   5  -1 966.316 146.323   2 0.40836-0.04291 0.23748 0.17916 0.94096-0.97430
  -5   5   1 916.652 127.690   7-0.56456 0.19944 0.08526 0.33117-0.90999 0.94313
   5  -5  -1 852.067 132.716   4-0.10407 0.46995-0.23701-0.17966-0.96872 0.93530
  -5   5   1 943.146 141.096   6-0.29917-0.06612 0.33614 0.08015-0.93257 0.96596
  -5  -5   1 910.628 127.706   9 0.11194-0.47709-0.24337-0.17298 0.96775-0.93408
   5  -5  -1 991.523 137.932   8 0.50576-0.14069-0.14450-0.27198 0.92831-0.96166
   5   5  -1 842.047 118.852   5 0.47339-0.10840 0.17586 0.24083 0.93483-0.96813
  -5  -5   1 759.591 121.430   3-0.43931 0.07358-0.20876-0.20797-0.93908 0.97248
  -5  -5   1 613.467 93.3254   7-0.75431 0.38884 0.12344-0.54022-0.77128 0.80461
  -4  -5   1 1406.05 150.577   3-0.45070 0.16189-0.21947-0.19725-0.93282 0.98022
   4   5  -1 1432.14 156.142   2 0.41503-0.12646 0.24649 0.17014 0.93666-0.98398
   4   5  -1 1515.91 120.290   6-0.28885 0.57789 0.29902 0.11781-0.94686 0.89922
  -4   5   1 1532.58 165.336   6-0.29810 0.00966 0.33222 0.08409-0.93417 0.98154
   4  -5  -1 1598.64 134.637   9-0.02968 0.31837-0.54615 0.12939 0.81782-0.86551
   4   5  -1 1549.92 150.830   5 0.49162-0.20353 0.18717 0.22943 0.92570-0.97296
   4  -5  -1 1396.61 144.678   8 0.53160-0.24335-0.15529-0.26118 0.91546-0.96279
  -4   5   1 1496.01 162.507   1 0.15671-0.44548 0.19279 0.22406 0.98098-0.93339
  -4  -5   1 1464.70 157.893   9 0.13886-0.42715-0.17838-0.23796 0.98313-0.93545
  -4  -5   1 1848.46 155.834   4 0.03620-0.32492-0.54960 0.13253-0.81410 0.86166
   4  -5  -1 1445.67 160.350   4-0.12969 0.41861-0.17262-0.24405-0.98371 0.93633
  -4   5   1 1805.20 158.349   7-0.60548 0.31719 0.09333 0.32311-0.88733 0.93444
  -3  -5   1 1026.25 121.337   3-0.47309 0.26120-0.24070-0.17600-0.91942 0.98079
  -3   5   1 1176.11 77.2973   2 0.45511-0.66681 0.30171 0.11488 0.90657-0.84535
   3   5  -1 1111.43 132.785   2 0.42961-0.21790 0.26634 0.15028 0.92659-0.98789
   3   5  -1 1083.10 108.017   6-0.25001 0.46218 0.16919 0.24776-0.98293 0.92134
  -3   5   1 1048.86 131.145   6-0.30004 0.08846 0.33929 0.07703-0.93127 0.99261
   3  -5  -1 1165.97 117.918   9-0.00016 0.21200-0.48819 0.07148 0.85817-0.91982
  -3  -5   1 1001.89 128.035   9 0.16309-0.37453-0.11761-0.29875 0.99290-0.93125
   3  -5  -1 1095.66 116.904   8 0.57813-0.36670-0.17490-0.24157 0.88886-0.95014
  -3   5   1 1059.58 131.272   1 0.17070-0.38263 0.12269 0.29423 0.99239-0.93081
  -3  -5   1 1059.29 116.763   4 0.00757-0.21952-0.49103 0.07404-0.85517 0.91662
   3  -5  -1 986.617 128.120   4-0.15262 0.36460-0.11284-0.30381-0.99320 0.93186
  -3   5   1 1089.09 109.053   7-0.67676 0.46527 0.10758 0.30886-0.83927 0.90033
   3   5  -1 1112.58 120.461   5 0.52539-0.31420 0.20834 0.20817 0.90677-0.96797
   2  -5  -1 12.2998 13.5510   3-0.35639 0.49158-0.13261-0.28437-0.97428 0.89880
   2  -5  -1 14.8339 28.6155   4-0.17265 0.30770-0.05881-0.35780-0.99823 0.92293
   2   5  -1 66.8512 43.0128   6-0.21995 0.35522 0.07671 0.34032-0.99628 0.92072
  -2   5   1 -13.858 25.5218   1 0.18201-0.31706 0.06202 0.35495 0.99807-0.92250
  -2   5   1 6.40422 17.5080   2 0.31378-0.44866 0.11445 0.30214 0.98392-0.90868
  -2   5   1 25.6841 27.4442   6-0.30527 0.17055 0.35869 0.05764-0.92296 0.99827
  -2  -5   1 15.8208 31.3729   9 0.18438-0.31900-0.06221-0.35416 0.99806-0.92245
   2  -5  -1 -24.006 30.6948   9 0.01606 0.11892-0.45520 0.03851 0.87833-0.95397
   2   5  -1 37.8885 26.6997   2 0.45387-0.31902 0.29998 0.11664 0.90762-0.98289
  -2  -5   1 63.8582 41.7450   3-0.50976 0.37482-0.27610-0.14055-0.89394 0.96928
   2  -5  -1 33.9056 29.7969   8 0.65461-0.51994-0.20775-0.20870 0.83383-0.90908
  -1   5   1 159.685 53.1427   6-0.31396 0.25611 0.39178 0.02454-0.90753 0.99680
   1  -5  -1 98.1367 38.1968   9 0.02288 0.03526-0.44109 0.02444 0.88638-0.97599
   1   5  -1 146.284 49.5485   6-0.19831 0.25667 0.01348 0.40359-0.99977 0.91023
   1  -5  -1 99.1891 39.6270   4-0.18954 0.24769-0.01184-0.40473-0.99990 0.91064
  -1  -5   1 128.430 19.4805   8 0.16190-0.21992-0.00659-0.40993 0.99977-0.91043
  -1  -5   1 141.378 58.8008   9 0.20271-0.26046-0.01296-0.40335 0.99969-0.90993
   1   5  -1 195.626 53.1284   5 0.66434-0.60684 0.29886 0.11737 0.79450-0.88339
  -1  -5   1 130.915 44.3299   3-0.56439 0.50640-0.33048-0.08612-0.84652 0.93580
  -1   5   1 189.327 57.8810   1 0.19080-0.24898 0.01184 0.40517 0.99989-0.91032
   0   5   1 2694.82 198.542   1 0.19724-0.17854-0.02687 0.44390 0.99952-0.89595
   0   5  -1 3016.49 195.889   2 0.53761-0.55644 0.42309-0.00647 0.81498-0.91823
   0   5  -1 2718.94 195.538   6-0.18410 0.16555-0.02670 0.44378-0.99964 0.89612
   0   5   1 2954.80 205.521   6-0.32599 0.34500 0.43978-0.02348-0.88221 0.98542
   0  -5   1 3091.23 208.869   9 0.21749-0.19840 0.02791-0.44422 0.99895-0.89517
   0  -5   1 2868.07 124.794   8 0.07867-0.05989 0.02551-0.44206 0.99425-0.89092
   0  -5  -1 2798.14 193.176   9 0.02263-0.04134-0.44160 0.02498 0.88609-0.98969
   0  -5   1 2844.26 203.979   4-0.01602 0.03454-0.44077 0.02386-0.88539 0.98873
   0   5  -1 2818.97 99.4097   7 0.00751-0.02616-0.02229 0.43900-0.98167 0.87834
   0  -5  -1 2879.36 93.3526   7-0.25338 0.23440 0.02571-0.44230-0.99699 0.89391
   0  -5  -1 2816.56 197.746   4-0.20301 0.18427 0.02665-0.44316-0.99941 0.89620
   1   5   1 1433.56 146.581   1 0.20144-0.10586-0.05318 0.47023 0.99838-0.88083
  -1   5  -1 1443.71 150.246   6-0.17624 0.08079-0.04847 0.46553-0.99881 0.88131
   1   5   1 1542.92 152.076   6-0.34080 0.43668 0.50341-0.08713-0.84277 0.95989
   1  -5   1 1270.96 133.524   9 0.22849-0.13259 0.05908-0.47538 0.99710-0.87932
  -1  -5  -1 1492.28 148.567   9 0.01685-0.11240-0.45357 0.03697 0.87928-0.99685
   1  -5   1 1411.88 108.097   8 0.07203 0.02359 0.02806-0.44462 0.99347-0.87616
   1  -5   1 1416.85 148.009   4-0.01094 0.10633-0.45176 0.03486-0.87916 0.99648
  -1   5  -1 1629.48 101.877   7-0.02165-0.07384-0.01700 0.43369-0.98688 0.86959
   2   5   1 1597.66 155.129   1 0.20347-0.03099-0.06615 0.48321 0.99756-0.86602
  -2   5  -1 1757.91 167.981   6-0.17377 0.00142-0.05527 0.47230-0.99844 0.86697
   2   5   1 1812.36 171.509   6-0.35705 0.52978 0.58222-0.16596-0.78322 0.91425
   2  -5   1 1807.40 152.280   9 0.23526-0.06255 0.07861-0.49492 0.99538-0.86358
   2  -5   1 1696.82 136.154   8 0.08669 0.08579 0.02244-0.43901 0.99513-0.86383
  -2  -5  -1 1529.67 153.601   9 0.00661-0.17900-0.47450 0.05793 0.86676-0.99832
   2  -5   1 1546.72 160.301   4-0.00147 0.17376-0.47199 0.05511-0.86714 0.99845
  -2  -5  -1 1736.98 82.6107   7 0.03210-0.20479-0.02673-0.38998-0.97661 0.84554
  -2   5  -1 1868.68 132.582   7-0.05699-0.11534-0.01057 0.42725-0.99203 0.86078
  -3   5  -1 518.563 85.6876   7-0.09421-0.15497-0.00376 0.42042-0.99607 0.85086
   3  -5   1 394.552 94.2140   4 0.01165 0.23755-0.49953 0.08268-0.84962 0.99491
  -3   5  -1 427.311 95.1112   6-0.17582-0.07343-0.04965 0.46665-0.99875 0.85330
   3   5   1 519.912 90.3839   1 0.20325 0.04614-0.06468 0.48172 0.99766-0.85213
  -3  -5  -1 434.552 94.4842   9-0.00731-0.24193-0.50247 0.08591 0.84883-0.99437
   3   5   1 465.098 41.5871   8-0.01492 0.26471 0.06110 0.35589 0.97865-0.83316
   3  -5   1 466.823 85.8245   8 0.11054 0.13880 0.01327-0.42984 0.99731-0.85201
   3  -5   1 422.514 76.0956   9 0.23713 0.01239 0.08403-0.50034 0.99482-0.84902
  -3  -5  -1 435.166 55.4856   7-0.07683-0.17268-0.00694-0.40981-0.99436 0.84933
  -4   5  -1 -63.089 39.7786   7-0.13225-0.19379 0.00323 0.41342-0.99873 0.83956
  -4  -5  -1 46.3474 32.0519   7-0.14495-0.18140 0.00557-0.42236-0.99928 0.84029
   4  -5   1 50.2341 40.1806   4 0.02784 0.29828-0.53278 0.11596-0.82659 0.98586
   4  -5   1 23.7729 26.7977   9 0.23296 0.09336 0.07194-0.48827 0.99602-0.83620
   4   5   1 93.1359 43.7067   1 0.20052 0.12574-0.04734 0.46437 0.99870-0.83919
  -4   5  -1 -11.156 53.7898   6-0.18165-0.14447-0.03351 0.45046-0.99944 0.84003
  -4  -5  -1 31.0563 29.9651   4-0.21319-0.11289 0.05635-0.47264-0.99789 0.83889
   4  -5   1 -11.946 32.0571   8 0.13924 0.18698 0.00220-0.41876 0.99906-0.83977
  -4  -5  -1 73.8135 45.5901   9-0.02433-0.30175-0.53584 0.11929 0.82548-0.98501
   5  -5   1 80.9002 62.5213   4 0.04670 0.35638-0.57038 0.15359-0.79784 0.97108
  -5   5  -1 96.6176 60.3943   7-0.17072-0.23217 0.01033 0.40630-0.99988 0.82675
  -5  -5  -1 71.4715 40.8201   7-0.19985-0.20334 0.01573-0.43255-0.99971 0.82675
  -5   5  -1 138.745 76.6229   6-0.19066-0.21231-0.00824 0.42513-0.99993 0.82655
  -5  -5  -1 56.8843 36.0233   4-0.19935-0.20350 0.01610-0.43240-0.99971 0.82676
  -5  -5  -1 55.8725 75.1653   9-0.04399-0.35893-0.57329 0.15675 0.79654-0.97006
   5  -5   1 85.6844 46.0882   8 0.17079 0.23229-0.01005-0.40650 0.99989-0.82660
   5   5   1 92.8585 38.9648   1 0.19481 0.20832-0.01211 0.42910 0.99984-0.82636
  -6   5  -1 725.240 132.970   7-0.20948-0.27027 0.01752 0.39910-0.99945 0.81236
  -6   5  -1 705.931 125.107   6-0.20237-0.27746 0.02514 0.39169-0.99947 0.81213
  -6  -5  -1 -42.228 50.0499   9-0.06595-0.41383-0.61365 0.19714 0.76172-0.94922
   6  -5   1 621.603 122.902   8 0.20421 0.27576-0.02308-0.39346 0.99948-0.81219
  -6  -5  -1 1077.16 132.978   7-0.24865-0.23135 0.02482-0.44164-0.99735 0.81032
  -7   5  -1 732.910 173.957   7-0.24819-0.30837 0.02474 0.39181-0.99739 0.79624
   7  -5   1 616.139 144.055   8 0.23888 0.31795-0.03669-0.37983 0.99762-0.79634
  -7   5  -1 544.602 127.580   6-0.21631-0.34034 0.06591 0.35085-0.99720 0.79590
   7   5   1 633.793 163.865   2 0.24486 0.31210 0.02941 0.38727 0.99749-0.79630
   8   5   1 0.51274 79.7317   2 0.26917 0.36469 0.05901 0.35767 0.99421-0.77902
 -10   6   1 -87.553 83.0189   7-0.59510-0.15417 0.09128 0.40838-0.89340 0.85662
  10   6  -1 225.580 112.728   2 0.45777 0.29208 0.30545 0.19450 0.90429-0.86765
  -9   6   1 132.963 107.600   7-0.58462-0.08780 0.08921 0.41047-0.89929 0.87650
   9   6  -1 70.1726 108.547   2 0.44458 0.22839 0.28699 0.21297 0.91523-0.89259
  -9   6   1 50.8301 83.7392   6-0.32668-0.34588 0.44265 0.05680-0.88058 0.85800
  -9  -6   1 40.2061 77.0330   9-0.01521-0.65728-0.51809 0.01845 0.83818-0.86043
   9   6  -1 145.694 86.4706   5 0.50881 0.16372 0.19792 0.30235 0.91640-0.89359
   9  -6  -1 19.7693 66.5306   8 0.53737 0.13508-0.15771-0.34207 0.91241-0.88981
  -9  -6   1 -24.931 57.5346   3-0.47639-0.19696-0.24387-0.25628-0.91730 0.89471
   8  -6  -1 131.547 68.2495   4-0.01223 0.60895-0.44897-0.05101-0.88076 0.88914
  -8   6   1 197.128 96.6594   7-0.57970-0.01588 0.08824 0.41146-0.90199 0.89317
  -8   6   1 200.492 100.882   6-0.31844-0.27733 0.40931 0.09018-0.89870 0.89011
  -8  -6   1 236.057 103.119   9 0.01677-0.61241-0.45374-0.04590 0.87918-0.88745
   8   6  -1 299.534 103.231   5 0.49906 0.09658 0.19182 0.30844 0.92176-0.91298
   8  -6  -1 249.517 107.197   8 0.52893 0.06666-0.15417-0.34561 0.91685-0.90824
  -8  -6   1 246.171 97.4382   3-0.46587-0.13059-0.23382-0.26631-0.92391 0.91532
   8   6  -1 209.402 109.402   2 0.43404 0.16204 0.27243 0.22754 0.92334-0.91470
  -7   6   1 83.4982 69.0671   7-0.58221 0.06346 0.08873 0.41098-0.90062 0.90578
   7  -6  -1 -23.275 63.1735   4-0.04105 0.56079-0.38549-0.11452-0.91387 0.90834
  -7   6   1 -1.5665 69.8803   6-0.31161-0.20734 0.38270 0.11684-0.91193 0.91733
   7   6  -1 40.7320 48.3391   5 0.49413 0.02460 0.18874 0.31148 0.92438-0.92962
   7  -6  -1 36.9228 56.7603   8 0.52622-0.00749-0.15304-0.34674 0.91824-0.92363
  -7  -6   1 37.8203 68.4527   3-0.45928-0.06028-0.22757-0.27256-0.92787 0.93327
  -7  -6   1 -21.827 50.8870   9 0.04668-0.56548-0.39074-0.10890 0.91249-0.90677
   7   6  -1 -8.5319 48.4296   2 0.42673 0.09247 0.26241 0.23757 0.92866-0.93401
  -6   6   1 88.5730 64.2984   7-0.59489 0.15298 0.09124 0.40849-0.89352 0.91265
   6  -6  -1 173.436 76.7874   4-0.06769 0.51047-0.32439-0.17565-0.94005 0.92059
  -6  -6   1 81.9681 51.8553   9 0.07442-0.51638-0.32978-0.16986 0.93897-0.91928
  -6   6   1 78.5391 60.3753   6-0.30650-0.13561 0.36331 0.13627-0.92090 0.94029
   6   6  -1 126.354 67.8616   5 0.49541-0.05358 0.18954 0.31062 0.92370-0.94295
   6  -6  -1 119.285 74.6513   8 0.53109-0.08921-0.15508-0.34470 0.91573-0.93509
  -6  -6   1 117.352 73.3637   3-0.45759 0.01494-0.22598-0.27415-0.92886 0.94825
   6   6  -1 61.9142 78.0974   2 0.42332 0.01900 0.25774 0.24222 0.93106-0.95040
  -5  -6   1 1893.22 200.370   3-0.46206 0.09633-0.23021-0.26991-0.92621 0.95960
   5   6  -1 1847.62 205.317   2 0.42463-0.05919 0.25953 0.24043 0.93014-0.96347
  -5   6   1 1697.69 195.009   6-0.30343-0.06185 0.35180 0.14782-0.92597 0.95935
   5  -6  -1 2008.33 202.688   8 0.54619-0.18115-0.16141-0.33835 0.90762-0.94095
  -5  -6   1 1704.83 189.122   9 0.09990-0.46501-0.27161-0.22803 0.95942-0.92575
   5  -6  -1 1919.79 213.764   4-0.09204 0.45787-0.26641-0.23362-0.96018 0.92677
  -5   6   1 1848.59 189.356   7-0.62187 0.25679 0.09659 0.40315-0.87731 0.91041
   5   6  -1 1681.00 178.947   5 0.50479-0.13987 0.19540 0.30470 0.91863-0.95186
  -4   6   1 195.374 57.1451   7-0.66933 0.38107 0.10608 0.39366-0.84485 0.89191
   4  -6  -1 235.722 83.0654   4-0.11399 0.40286-0.21238-0.28764-0.97505 0.92769
  -4   6   1 191.804 69.6612   1 0.14809-0.43689 0.23362 0.26656 0.97188-0.92427
  -4  -6   1 160.391 61.4045   3-0.47428 0.18548-0.24184-0.25826-0.91866 0.96604
   4   6  -1 150.833 53.7666   6-0.29871 0.58783 0.33446 0.16571-0.93326 0.88556
  -4   6   1 140.122 58.5385   6-0.30265 0.01423 0.34893 0.15072-0.92721 0.97456
   4  -6  -1 203.708 63.1742   9-0.02060 0.30931-0.52862 0.02854 0.83072-0.87840
  -4  -6   1 65.4689 41.8157   9 0.12297-0.41124-0.21705-0.28260 0.97460-0.92696
   4   6  -1 159.285 55.8346   5 0.52487-0.23685 0.20802 0.29199 0.90708-0.95427
   4  -6  -1 105.869 47.9791   8 0.57534-0.28712-0.17371-0.32603 0.89059-0.93789
   4   6  -1 132.762 60.6181   2 0.43167-0.14310 0.26916 0.23079 0.92509-0.97241
  -3  -6   1 369.331 82.6827   4 0.00475-0.21670-0.48511-0.01517-0.85896 0.92041
  -3  -6   1 413.269 86.9346   9 0.14352-0.35493-0.16687-0.33278 0.98532-0.92364
  -3   6   1 439.210 79.0267   7-0.74602 0.53455 0.12172 0.37803-0.77950 0.84051
   3  -6  -1 471.623 99.8286   4-0.13338 0.34533-0.16314-0.33685-0.98549 0.92417
   3   6  -1 445.972 84.2295   6-0.26832 0.48055 0.22870 0.27157-0.96900 0.90736
  -3   6   1 350.082 85.1195   6-0.30444 0.09290 0.35559 0.14407-0.92432 0.98565
   3  -6  -1 416.542 86.0270   9 0.00257 0.20928-0.48268-0.01734 0.86167-0.92331
  -3   6   1 467.239 96.6291   1 0.16026-0.37221 0.17549 0.32476 0.98429-0.92270
   3   6  -1 432.604 82.7438   5 0.55921-0.34810 0.22982 0.27006 0.88497-0.94607
  -3  -6   1 462.684 89.1077   3-0.49630 0.28445-0.26302-0.23705-0.90382 0.96518
   3   6  -1 544.316 103.769   2 0.44561-0.23390 0.28843 0.21151 0.91441-0.97570
   3  -6  -1 448.324 83.9996   8 0.62401-0.41258-0.19451-0.30523 0.85772-0.91899
  -2   6   1 696.861 113.885   1 0.17012-0.30521 0.12567 0.37463 0.99201-0.91643
  -2  -6   1 652.397 103.092   4-0.00842-0.12673-0.45716-0.04309-0.87602 0.95141
  -2   6   1 674.292 79.4735   2 0.37770-0.51256 0.19668 0.30323 0.95841-0.88318
   2  -6  -1 616.722 106.961   4-0.15004 0.28506-0.11968-0.38027-0.99232 0.91704
   2   6  -1 674.270 102.300   6-0.24383 0.37916 0.14965 0.35069-0.98658 0.91098
  -2   6   1 708.326 116.690   6-0.30901 0.17433 0.37276 0.12690-0.91659 0.99189
  -2  -6   1 857.417 126.774   9 0.16128-0.29585-0.12223-0.37744 0.99231-0.91667
   2  -6  -1 780.038 112.976   9 0.01580 0.11920-0.45573-0.04425 0.87802-0.95364
   2  -6  -1 878.612 122.932   8 0.69933-0.56465-0.22742-0.27232 0.79358-0.86883
   2   6  -1 622.096 103.752   2 0.46775-0.33291 0.31957 0.18037 0.89540-0.97067
  -2  -6   1 681.165 106.223   3-0.53062 0.39571-0.29661-0.20342-0.87729 0.95262
   2  -6  -1 765.761 69.6694   3-0.46037 0.59563-0.22861-0.27170-0.92722 0.85167
   1   6  -1 5241.51 291.072   2 0.49931-0.44130 0.36520 0.13473 0.86342-0.95267
   1   6  -1 4872.11 283.223   6-0.22533 0.28374 0.09283 0.40755-0.99466 0.90510
  -1   6   1 4827.17 291.216   6-0.31643 0.25864 0.40143 0.09823-0.90273 0.99198
   1  -6  -1 5060.81 201.635   3-0.33391 0.39217-0.11246-0.38797-0.98100 0.89151
  -1  -6   1 4984.25 299.270   9 0.17605-0.23382-0.08408-0.41560 0.99645-0.90684
  -1  -6   1 4879.34 266.449   3-0.57972 0.52177-0.34616-0.15382-0.83078 0.92003
   1  -6  -1 4739.21 272.980   9 0.02155 0.03661-0.44384-0.05611 0.88484-0.97444
  -1   6   1 3773.20 263.614   1 0.17781-0.23601 0.08499 0.41535 0.99637-0.90680
  -1  -6   1 4743.57 283.625   4-0.01445-0.04389-0.44418-0.05605-0.88348 0.97283
   1  -6  -1 4404.98 273.805   4-0.16375 0.22188-0.08302-0.41687-0.99639 0.90714
   0  -6   1 191.373 60.3881   4-0.01480 0.03330-0.44343-0.05680-0.88390 0.98724
   0   6  -1 331.483 76.8801   6-0.21244 0.19394 0.05447 0.44593-0.99802 0.89449
   0  -6  -1 243.618 71.7684   4-0.17426 0.15550-0.05438-0.44546-0.99849 0.89529
   0   6   1 221.318 65.5314   1 0.18341-0.16472 0.05421 0.44617 0.99853-0.89496
   0   6  -1 281.728 74.5186   2 0.54077-0.55960 0.42801 0.07193 0.81042-0.91367
   0   6   1 170.700 59.6199   6-0.32665 0.34572 0.44249 0.05715-0.88067 0.98386
   0  -6   1 189.712 68.9591   9 0.18768-0.16860-0.05346-0.44621 0.99855-0.89489
   0  -6  -1 184.644 61.5041   9 0.02143-0.04011-0.44409-0.05583 0.88469-0.98828
   0  -6   1 205.928 36.8667   8 0.28619-0.26740-0.05540-0.44437 0.99268-0.88937
  -1   6  -1 4843.90 297.405   6-0.20458 0.10918 0.03155 0.46885-0.99923 0.88172
   1   6   1 4025.79 269.748   6-0.33927 0.43522 0.49655 0.00306-0.84736 0.96447
   1  -6   1 3866.61 251.640   9 0.19584-0.09992-0.03160-0.46799 0.99940-0.88157
   1  -6   1 4770.46 201.291   8 0.21969-0.12410-0.02915-0.47065 0.99883-0.88153
  -1  -6  -1 4345.70 275.319   9 0.01653-0.11205-0.45422-0.04568 0.87890-0.99647
   1  -6   1 4641.40 291.704   4-0.01050 0.10587-0.45271-0.04752-0.87861 0.99593
  -1   6  -1 5313.93 178.264   7-0.24957 0.15414 0.02499 0.47497-0.99728 0.87996
   1   6   1 4253.44 276.071   1 0.18696-0.09139 0.03409 0.46630 0.99940-0.88185
  -1  -6  -1 4610.00 273.699   4-0.18123 0.08562-0.03512-0.46466-0.99938 0.88223
  -2   6  -1 133.396 38.1708   7-0.21292 0.04064 0.01816 0.48183-0.99934 0.86808
   2  -6   1 161.067 68.8358   4-0.00230 0.17455-0.47023-0.03000-0.86821 0.99952
   2  -6   1 118.900 39.1341   8 0.20064-0.02821-0.02169-0.47814 0.99958-0.86829
  -2   6  -1 115.453 56.0405   6-0.20116 0.02886 0.02167 0.47871-0.99957 0.86808
  -2  -6  -1 146.226 56.7750   4-0.18417 0.01172-0.02690-0.47282-0.99963 0.86853
   2  -6   1 118.737 48.7624   9 0.19983-0.02709-0.02081-0.47879 0.99962-0.86778
  -2  -6  -1 89.8070 49.1557   9 0.00766-0.18001-0.47239-0.02749 0.86806-0.99962
   2   6   1 71.7877 41.4191   1 0.18846-0.01600 0.02544 0.47495 0.99965-0.86812
   2   6   1 142.234 56.1157   6-0.35343 0.52624 0.56356-0.06397-0.79851 0.92952
  -3   6  -1 17.8377 30.7897   7-0.21244-0.03669 0.01807 0.48192-0.99935 0.85414
   3  -6   1 48.1042 54.7011   4 0.00923 0.23994-0.49450-0.00572-0.85292 0.99822
  -3   6  -1 10.8169 62.5692   6-0.20161-0.04759 0.02295 0.47740-0.99954 0.85408
  -3  -6  -1 -26.640 32.9980   4-0.18240-0.06687-0.03185-0.46783-0.99949 0.85444
   3  -6   1 20.1114 31.3794   9 0.19908 0.05046-0.02285-0.47676 0.99959-0.85374
   3   6   1 -29.189 47.1912   1 0.18780 0.06154 0.02921 0.47117 0.99955-0.85403
   3  -6   1 -20.202 42.2494   8 0.20250 0.04679-0.02241-0.47742 0.99953-0.85425
  -3  -6  -1 -36.051 37.6094   9-0.00460-0.24460-0.49707-0.00278 0.85240-0.99794
   4  -6   1 1254.03 177.333   4 0.02365 0.30244-0.52425 0.02405-0.83270 0.99198
  -4   6  -1 1511.73 194.772   6-0.20539-0.12068 0.03391 0.46639-0.99914 0.83971
  -4  -6  -1 1455.48 198.095   9-0.01978-0.30626-0.52701 0.02717 0.83187-0.99140
   4  -6   1 1164.56 149.422   8 0.21561 0.11054-0.02755-0.47230 0.99903-0.83975
   4  -6   1 1329.82 144.463   9 0.19239 0.13396-0.04088-0.45881 0.99911-0.83933
  -4   6  -1 1499.21 161.247   7-0.22687-0.09910 0.02076 0.47919-0.99873 0.83949
   4   6   1 1356.76 156.096   1 0.18476 0.14147 0.04657 0.45379 0.99891-0.83941
  -4  -6  -1 1401.56 146.366   4-0.17479-0.15126-0.05292-0.44673-0.99857 0.83957
  -5  -6  -1 2368.85 264.282   9-0.03752-0.36536-0.56109 0.06126 0.80630-0.97982
  -5   6  -1 2355.27 250.568   6-0.21208-0.19086 0.05342 0.44682-0.99809 0.82469
   5  -6   1 2256.13 228.547   8 0.23552 0.16749-0.03537-0.46447 0.99787-0.82460
   5  -6   1 2315.11 256.588   4 0.04062 0.36242-0.55838 0.05819-0.80735 0.98061
  -5   6  -1 2711.83 240.630   7-0.24930-0.15351 0.02494 0.47498-0.99730 0.82409
  -6   6  -1 -42.454 84.0781   7-0.27618-0.20346 0.02998 0.46989-0.99485 0.80759
  -6   6  -1 63.3513 57.8887   6-0.22126-0.25853 0.08061 0.41956-0.99592 0.80855
  -6  -6  -1 21.4413 50.5691   9-0.05752-0.42221-0.59834 0.09852 0.77540-0.96291
   6   6   1 157.524 67.2011   2 0.25879 0.22127 0.04632 0.45369 0.99580-0.80861
   6  -6   1 85.7991 90.4165   8 0.25988 0.22000-0.04498-0.45486 0.99578-0.80851
   7  -6   1 263.719 116.631   8 0.28731 0.26945-0.05584-0.44400 0.99252-0.79125
  -7   6  -1 196.087 122.376   7-0.30611-0.25035 0.03560 0.46422-0.99115 0.78986
  -7  -6  -1 297.895 132.187   3-0.27969-0.27751-0.06462-0.43588-0.99281 0.79140
  -7   6  -1 216.562 111.503   6-0.23258-0.32405 0.11486 0.38525-0.99197 0.79065
   7   6   1 109.212 93.5996   2 0.27639 0.28055 0.06789 0.43212 0.99293-0.79175
  -8  -6  -1 -42.149 110.893   3-0.30316-0.33092-0.08520-0.41528-0.98843 0.77305
   8   6   1 -35.610 95.1659   2 0.29662 0.33722 0.09295 0.40706 0.98856-0.77338
   9  -7  -1 44.8494 85.4477   4 0.02002 0.65362-0.51682-0.06653-0.83791 0.86023
  -9   7   1 298.961 114.361   7-0.62796-0.04441 0.09780 0.48520-0.87344 0.85060
  -9   7   1 -8.8794 63.0392   6-0.32912-0.34346 0.45278 0.13000-0.87472 0.85211
  -9  -7   1 7.35755 76.0763   9-0.01635-0.65610-0.52032-0.06261 0.83661-0.85888
   9   7  -1 203.693 103.938   5 0.53435 0.13815 0.21401 0.36971 0.90129-0.87837
   9  -7  -1 184.420 118.301   8 0.56945 0.10293-0.17122-0.41186 0.89418-0.87156
   8  -7  -1 181.365 108.432   4-0.00779 0.60445-0.45852-0.12487-0.87522 0.88363
  -8   7   1 349.433 123.199   7-0.62739 0.03186 0.09769 0.48533-0.87380 0.86495
  -8   7   1 284.423 101.078   6-0.32190-0.27386 0.42318 0.15965-0.89138 0.88277
  -8  -7   1 287.341 111.916   9 0.01245-0.60806-0.46262-0.12031 0.87396-0.88225
   8   7  -1 341.105 110.836   5 0.52705 0.06854 0.20939 0.37429 0.90577-0.89689
   8  -7  -1 235.277 109.365   8 0.56409 0.03144-0.16895-0.41412 0.89738-0.88876
   8   7  -1 255.602 110.238   2 0.44896 0.14711 0.29309 0.29020 0.91170-0.90306
  -8  -7   1 271.794 111.319   3-0.48657-0.10992-0.25362-0.32991-0.91058 0.90196
   7  -7  -1 221.901 96.5243   4-0.03353 0.55323-0.40232-0.18108-0.90570 0.90019
  -7   7   1 215.662 96.3448   7-0.63489 0.11619 0.09919 0.48385-0.86893 0.87405
  -7   7   1 205.609 94.6594   6-0.31601-0.20293 0.39977 0.18310-0.90356 0.90894
  -7  -7   1 141.609 66.0088   9 0.03920-0.55797-0.40675-0.17619 0.90462-0.89892
   7   7  -1 377.440 119.375   5 0.52467-0.00599 0.20789 0.37575 0.90720-0.91234
   7  -7  -1 78.2686 68.6468   8 0.56472-0.04605-0.16922-0.41385 0.89701-0.90237
  -7  -7   1 231.478 108.758   3-0.48186-0.03771-0.24911-0.33442-0.91373 0.91911
   7   7  -1 58.6300 72.7421   2 0.44313 0.07606 0.28498 0.29831 0.91638-0.92173
   6  -7  -1 329.648 118.932   4-0.05716 0.49988-0.34885-0.23456-0.93021 0.91076
  -6   7   1 89.5597 67.1257   6-0.31168-0.13042 0.38300 0.19992-0.91178 0.93115
  -6  -7   1 493.637 113.550   9 0.06383-0.50575-0.35333-0.22960 0.92937-0.90969
   6   7  -1 308.650 104.324   5 0.52850-0.08672 0.21030 0.37328 0.90489-0.92403
   6  -7  -1 490.482 124.157   8 0.57315-0.13131-0.17278-0.41027 0.89194-0.91128
  -6  -7   1 390.001 112.122   3-0.48192 0.03926-0.24916-0.33437-0.91369 0.93307
   6   7  -1 320.987 104.748   2 0.44099 0.00132 0.28201 0.30128 0.91806-0.93740
   5  -7  -1 244.158 108.351   4-0.07857 0.44434-0.29875-0.28464-0.94950 0.91611
  -5   7   1 75.7895 66.0691   6-0.30916-0.05609 0.37335 0.20961-0.91632 0.94967
  -5  -7   1 54.6072 56.7785   9 0.08626-0.45133-0.30302-0.27993 0.94894-0.91527
   5   7  -1 71.8405 51.4513   5 0.54023-0.17537 0.21772 0.36577 0.89758-0.93070
  -5  -7   1 10.3378 44.4786   3-0.48780 0.12208-0.25482-0.32870-0.90974 0.94311
   5  -7  -1 188.270 91.9272   8 0.59184-0.22683-0.18073-0.40230 0.88010-0.91341
   5   7  -1 50.0190 77.8407   2 0.44323-0.07779 0.28512 0.29817 0.91630-0.94963
  -4  -7   1 877.980 134.844   4 0.02815-0.31686-0.53341-0.05021-0.82613 0.87369
   4  -7  -1 821.396 151.789   4-0.09767 0.38651-0.25272-0.33064-0.96429 0.91694
   4   7  -1 807.715 115.379   6-0.30889 0.59807 0.37232 0.21117-0.91680 0.86902
   4  -7  -1 1123.15 149.861   9-0.02172 0.31045-0.53080-0.05258 0.82915-0.87681
  -4  -7   1 639.071 127.935   9 0.10636-0.39460-0.25651-0.32645 0.96400-0.91635
   4   7  -1 840.479 124.930   5 0.56213-0.27420 0.23169 0.35170 0.88295-0.93001
   4   7  -1 793.371 144.875   2 0.45065-0.16209 0.29546 0.28781 0.91031-0.95762
  -4  -7   1 785.330 134.441   3-0.50086 0.21208-0.26744-0.31605-0.90055 0.94790
   4  -7  -1 915.380 137.650   8 0.62424-0.33603-0.19460-0.38841 0.85755-0.90483
  -4   7   1 841.269 151.807   6-0.30866 0.02027 0.37145 0.21154-0.91720 0.96453
  -3  -7   1 157.041 65.7258   4 0.00894-0.22089-0.49389-0.08968-0.85332 0.91478
   3   7  -1 139.878 66.1419   2 0.46416-0.25246 0.31448 0.26879 0.89866-0.95995
   3  -7  -1 218.876 92.3520   4-0.11434 0.32625-0.21151-0.37182-0.97526 0.91395
  -3  -7   1 67.5850 42.6527   9 0.12401-0.33541-0.21454-0.36843 0.97521-0.91358
  -3   7   1 36.3972 44.3835   1 0.14983-0.36179 0.22552 0.35807 0.97383-0.91222
   3   7  -1 182.586 68.8366   6-0.28415 0.49644 0.28256 0.30103-0.95261 0.89092
  -3   7   1 267.154 93.9245   6-0.31037 0.09886 0.37797 0.20504-0.91417 0.97548
   3  -7  -1 252.290 82.9938   9-0.00200 0.21387-0.49187-0.09145 0.85579-0.91743
   3   7  -1 175.859 52.8220   5 0.59714-0.38611 0.25430 0.32896 0.85669-0.91767
  -3  -7   1 135.921 57.9462   3-0.52273 0.31091-0.28883-0.29464-0.88379 0.94511
   3  -7  -1 125.941 57.9904   8 0.67489-0.46346-0.21663-0.36637 0.81642-0.87767
   2   7  -1 1531.05 176.248   2 0.48472-0.34987 0.34390 0.23935 0.87898-0.95425
   2   7  -1 1767.74 185.772   6-0.26366 0.39905 0.21328 0.37040-0.97302 0.89738
  -2   7   1 1956.63 214.029   6-0.31443 0.17981 0.39363 0.18938-0.90662 0.98190
  -2  -7   1 1919.24 212.144   9 0.13906-0.27362-0.17788-0.40508 0.98323-0.90758
   2  -7  -1 1830.74 188.071   9 0.00967 0.12537-0.46829-0.11499 0.87055-0.94617
  -2  -7   1 1718.06 183.857   3-0.55525 0.42037-0.32122-0.26219-0.85535 0.93063
   2   7  -1 2121.30 189.422   5 0.64872-0.51456 0.28834 0.29476 0.81055-0.88538
  -2   7   1 1857.64 205.483   1 0.15858-0.29368 0.18369 0.39995 0.98276-0.90717
  -2  -7   1 1740.98 190.552   4-0.00264-0.13252-0.46949-0.11406-0.86866 0.94406
   2  -7  -1 1819.19 209.721   4-0.12841 0.26341-0.17590-0.40737-0.98306 0.90779
  -1  -7   1 138.497 67.6800   4-0.00821-0.05013-0.45760-0.12594-0.87575 0.96512
  -1   7   1 194.135 55.1395   2 0.36559-0.42362 0.18082 0.40240 0.96431-0.87509
   1  -7  -1 173.207 58.8555   4-0.13969 0.19779-0.14681-0.43641-0.98832 0.89909
   1   7  -1 74.4945 61.3689   6-0.24765 0.30613 0.16170 0.42201-0.98438 0.89478
  -1   7   1 72.6464 50.4235   6-0.32091 0.26316 0.41918 0.16383-0.89352 0.98274
   1  -7  -1 168.851 65.7089   9 0.01504 0.04316-0.45730-0.12596 0.87710-0.96670
  -1  -7   1 318.361 84.7322   3-0.60009 0.54217-0.36734-0.21603-0.80791 0.89711
   1   7  -1 107.986 54.6510   2 0.51313-0.45512 0.38573 0.19752 0.84730-0.93656
  -1   7   1 206.828 71.3097   1 0.16538-0.22360 0.14996 0.43371 0.98858-0.89900
  -1  -7   1 205.830 73.3568   9 0.15129-0.20900-0.14748-0.43548 0.98864-0.89899
   0   7   1 -8.2301 55.0140   1 0.17026-0.15160 0.12497 0.45874 0.99210-0.88853
   0  -7  -1 31.4239 33.0183   3-0.35140 0.33274-0.12813-0.45573-0.97587 0.87236
   0  -7  -1 100.617 65.7412   4-0.14793 0.12916-0.12523-0.45793-0.99157 0.88839
   0   7  -1 33.7228 68.6623   6-0.23602 0.21758 0.12539 0.45834-0.99049 0.88692
   0   7   1 98.3632 33.6169   2 0.32382-0.30501 0.12714 0.45610 0.98080-0.87758
   0   7  -1 176.566 70.9075   2 0.54959-0.56841 0.44189 0.14136 0.79714-0.90040
   0   7   1 47.1652 49.9109   6-0.32972 0.34885 0.45529 0.12770-0.87324 0.97640
   0  -7  -1 90.7538 55.3603   9 0.01531-0.03396-0.45673-0.12650 0.87743-0.98101
   0  -7   1 241.452 90.0793   9 0.16043-0.14131-0.12439-0.45860 0.99203-0.88839
   1  -7   1 858.836 146.673   4-0.00539 0.10074-0.46364-0.11992-0.87218 0.98951
  -1  -7  -1 990.888 130.565   3-0.31168 0.21604-0.09271-0.49118-0.98657 0.86908
   1   7   1 918.707 146.429   1 0.17325-0.07769 0.10936 0.47437 0.99397-0.87641
  -1  -7  -1 848.576 132.019   4-0.15281 0.05720-0.11233-0.47078-0.99326 0.87613
  -1   7  -1 689.265 123.180   6-0.22845 0.13311 0.10227 0.48147-0.99358 0.87604
   1   7   1 1006.44 154.429   6-0.34058 0.43659 0.50242 0.08055-0.84344 0.96052
  -1  -7  -1 890.687 147.062   9 0.01133-0.10682-0.46489-0.11831 0.87260-0.99017
   1   7   1 949.855 138.091   2 0.29757-0.20191 0.09413 0.48912 0.98833-0.87112
   1  -7   1 1003.81 143.247   9 0.16619-0.07025-0.10964-0.47333 0.99386-0.87619
  -2   7  -1 3269.08 277.427   6-0.22459 0.05234 0.09059 0.49312-0.99490 0.86339
   2   7   1 3669.05 287.463   6-0.35286 0.52573 0.56063 0.02229-0.80083 0.93181
   2   7   1 3373.39 266.557   2 0.28287-0.11034 0.07589 0.50739 0.99165-0.86045
   2  -7   1 3213.47 247.424   9 0.16806 0.00471-0.10484-0.47815 0.99441-0.86273
  -2  -7  -1 3444.66 281.012   9 0.00373-0.17604-0.48035-0.10283 0.86313-0.99468
  -2  -7  -1 3815.65 266.558   3-0.29057 0.11797-0.07414-0.50979-0.99092 0.85943
   2  -7   1 3663.32 217.664   8 0.31646-0.14407-0.06744-0.51562 0.98799-0.85671
   2   7   1 3369.90 271.101   1 0.17430-0.00185 0.10381 0.47991 0.99457-0.86303
   2  -7   1 3234.81 273.295   4 0.00162 0.17061-0.47853-0.10504-0.86310 0.99442
  -2  -7  -1 3205.28 246.872   4-0.15387-0.01858-0.10950-0.47355-0.99361 0.86252
   3  -7   1 352.679 108.565   4 0.01172 0.23741-0.49968-0.08389-0.84952 0.99482
  -3  -7  -1 440.365 93.8761   3-0.28212 0.03258-0.06674-0.51718-0.99241 0.84693
   3   7   1 470.643 111.306   1 0.17329 0.07604 0.10913 0.47459 0.99399-0.84847
  -3  -7  -1 457.682 96.9457   4-0.15045-0.09880-0.11858-0.46444-0.99247 0.84743
  -3  -7  -1 295.010 87.8341   9-0.00702-0.24213-0.50190-0.08126 0.84921-0.99475
  -3   7  -1 290.043 98.4838   6-0.22404-0.02510 0.08895 0.49474-0.99508 0.84959
   3  -7   1 475.479 103.467   9 0.16532 0.08426-0.11187-0.47119 0.99360-0.84800
   3   7   1 380.677 107.373   2 0.27693-0.02753 0.06855 0.51474 0.99283-0.84764
   3  -7   1 470.265 94.3379   8 0.29827-0.04904-0.06019-0.52289 0.99095-0.84569
   4  -7   1 820.920 161.152   4 0.02454 0.30151-0.52607-0.05750-0.83141 0.99070
  -4  -7  -1 646.971 127.287   3-0.28269-0.04379-0.06724-0.51669-0.99231 0.83284
  -4  -7  -1 884.817 133.284   4-0.14155-0.18448-0.14196-0.44104-0.98910 0.83012
  -4   7  -1 703.566 144.561   6-0.22644-0.09958 0.09619 0.48745-0.99429 0.83484
   4  -7   1 864.530 128.436   9 0.15711 0.16929-0.13281-0.45028 0.99087-0.83124
   4   7   1 582.638 146.289   2 0.27776 0.04851 0.06958 0.51373 0.99267-0.83348
  -4  -7  -1 677.689 142.795   9-0.02054-0.30546-0.52849-0.05465 0.83081-0.99034
   4  -7   1 876.980 137.469   8 0.29671 0.02936-0.05957-0.52353 0.99118-0.83193
   4   7   1 575.839 114.811   1 0.17000 0.15621 0.12628 0.45740 0.99193-0.83243
   5  -7   1 157.046 73.9082   4 0.03981 0.36320-0.55677-0.02680-0.80860 0.98186
  -5  -7  -1 179.314 76.5097   3-0.28990-0.11350-0.07355-0.51037-0.99104 0.81758
  -5   7  -1 237.249 93.5125   6-0.23145-0.17145 0.11139 0.47220-0.99243 0.81901
   5   7   1 212.740 113.703   2 0.28393 0.11923 0.07719 0.50613 0.99144-0.81826
  -5  -7  -1 26.9528 56.7513   9-0.03653-0.36632-0.55921-0.02392 0.80778-0.98130
   5  -7   1 180.162 87.0518   8 0.30539 0.09755-0.06303-0.52009 0.98984-0.81659
   5   7   1 225.207 84.0629   1 0.16406 0.23905 0.15659 0.42704 0.98753-0.81404
  -6  -7  -1 109.779 79.1072   3-0.30213-0.17817-0.08430-0.49961-0.98865 0.80119
  -6   7  -1 43.5230 90.3314   6-0.23874-0.24102 0.13382 0.44971-0.98921 0.80182
  -6  -7  -1 84.9727 80.4427   9-0.05472-0.42496-0.59321 0.01009 0.77985-0.96736
   6   7   1 -3.6793 68.6008   2 0.29435 0.18568 0.09013 0.49320 0.98911-0.80193
   6  -7   1 -44.589 90.6068   8 0.32083 0.15896-0.06919-0.51393 0.98721-0.79996
  -7  -7  -1 9.66860 87.5281   3-0.31829-0.23892-0.09857-0.48532-0.98502 0.78358
  -7   7  -1 4.77870 74.0926   6-0.24803-0.30857 0.16292 0.42053-0.98415 0.78279
   7   7   1 19.0420 82.1863   2 0.30824 0.24868 0.10748 0.47585 0.98552-0.78434
   8  -8  -1 679.192 188.431   4-0.00050 0.59711-0.47405-0.19272-0.86588 0.87431
  -8   8   1 912.844 201.760   6-0.32660-0.26915 0.44234 0.22383-0.88076 0.87212
  -8  -8   1 933.706 198.304   9 0.00512-0.60070-0.47753-0.18871 0.86489-0.87320
   8   8  -1 1171.81 203.238   5 0.55836 0.03717 0.22928 0.43784 0.88556-0.87655
   8  -8  -1 756.266 172.039   8 0.60347-0.00800-0.18569-0.48067 0.87232-0.86367
   7  -8  -1 -36.652 59.5892   4-0.02373 0.54338-0.42397-0.24280-0.89456 0.88906
  -7   8   1 89.5787 93.4264   6-0.32152-0.19740 0.42164 0.24458-0.89221 0.89756
  -7  -8   1 -63.493 95.5285   9 0.02930-0.54803-0.42769-0.23855 0.89372-0.88804
   7   8  -1 21.8160 56.4095   2 0.46131 0.05786 0.31044 0.35618 0.90120-0.90655
   7   8  -1 -4.3309 63.7058   5 0.55846-0.03983 0.22934 0.43773 0.88549-0.89050
  -7  -8   1 102.938 84.8508   3-0.50681-0.01275-0.27323-0.39369-0.89616 0.90151
   7  -8  -1 -67.566 56.8605   8 0.60746-0.08883-0.18739-0.47895 0.86957-0.87490
   6  -8  -1 502.298 141.558   4-0.04490 0.48759-0.37680-0.28996-0.91792 0.89849
  -6   8   1 513.019 133.491   6-0.31786-0.12422 0.40705 0.25921-0.89987 0.91920
  -6  -8   1 418.011 124.025   9 0.05140-0.49329-0.38053-0.28572 0.91730-0.89763
   6   8  -1 553.178 142.541   5 0.56470-0.12302 0.23334 0.43365 0.88114-0.90015
   6   8  -1 651.317 155.969   2 0.46031-0.01802 0.30903 0.35759 0.90208-0.92142
  -6  -8   1 574.695 143.872   3-0.50847 0.06583-0.27485-0.39207-0.89492 0.91426
   6  -8  -1 698.621 139.600   8 0.61937-0.17757-0.19251-0.47381 0.86111-0.88043
   5  -8  -1 177.134 87.7632   4-0.06396 0.42968-0.33310-0.33363-0.93664 0.90326
  -5  -8   1 108.038 58.6876   9 0.07136-0.43641-0.33662-0.32964 0.93626-0.90260
   5   8  -1 97.7883 67.4987   5 0.57864-0.21388 0.24231 0.42459 0.87103-0.90400
   5   8  -1 90.4367 86.9151   2 0.46337-0.09795 0.31335 0.35325 0.89937-0.93269
  -5  -8   1 1.33878 49.6245   3-0.51566 0.14995-0.28187-0.38504-0.88941 0.92274
   5  -8  -1 58.6331 49.9647   8 0.64149-0.27650-0.20206-0.46424 0.84440-0.87769
   4  -8  -1 373.494 124.134   4-0.08078 0.36958-0.29348-0.37321-0.95133 0.90400
  -4  -8   1 239.239 81.0678   9 0.08909-0.37729-0.29656-0.36970 0.95120-0.90356
  -4   8   1 408.990 108.313   6-0.31554 0.02719 0.39794 0.26840-0.90449 0.95179
   4   8  -1 392.165 107.189   5 0.60220-0.31436 0.25760 0.40918 0.85258-0.89950
   4   8  -1 120.441 86.6301   2 0.47114-0.18258 0.32439 0.34221 0.89226-0.93956
  -4  -8   1 342.110 93.8388   3-0.52947 0.24072-0.29547-0.37141-0.87826 0.92556
  -3  -8   1 172.641 78.8907   4 0.01740-0.22934-0.51145-0.15542-0.84161 0.90311
   3  -8  -1 41.0602 72.6427   4-0.09527 0.30715-0.25857-0.40808-0.96256 0.90127
   3   8  -1 148.064 48.6045   6-0.29836 0.51072 0.33319 0.33374-0.93377 0.87201
  -3   8   1 48.8806 62.9106   6-0.31719 0.10573 0.40441 0.26195-0.90122 0.96249
  -3  -8   1 59.3884 62.6116   9 0.10445-0.31581-0.26100-0.40527 0.96267-0.90104
   3  -8  -1 127.936 60.9229   9-0.01100 0.22289-0.50978-0.15684 0.84390-0.90553
   3   8  -1 322.013 94.4509   5 0.63774-0.42680 0.28101 0.38562 0.82121-0.88202
   3   8  -1 124.873 94.6408   2 0.48432-0.27262 0.34332 0.32326 0.87939-0.94068
  -3  -8   1 81.6812 57.7186   3-0.55121 0.33941-0.31716-0.34969-0.85913 0.92041
  -2  -8   1 193.165 81.7048   4 0.00671-0.14186-0.48922-0.17763-0.85634 0.93177
   2  -8  -1 22.7006 60.3514   4-0.10728 0.24226-0.22908-0.43753-0.97084 0.89559
  -2   8   1 -8.0714 49.0568   1 0.14714-0.28225 0.23805 0.42892 0.97078-0.89516
   2   8  -1 112.187 67.0682   6-0.28089 0.41635 0.27129 0.39571-0.95635 0.88065
  -2   8   1 80.9483 48.4740   6-0.32086 0.18628 0.41899 0.24738-0.89362 0.96886
  -2  -8   1 203.252 100.446   9 0.11730-0.25182-0.23064-0.43564 0.97117-0.89555
   2  -8  -1 106.352 67.6464   9-0.00018 0.13523-0.48822-0.17837 0.85814-0.93375
   2   8  -1 135.820 67.4527   2 0.50359-0.36873 0.37152 0.29505 0.85857-0.93385
  -2  -8   1 124.979 54.3258   3-0.58222 0.44738-0.34873-0.31807-0.82810 0.90332
  -1  -8   1 535.060 128.932   4 0.00126-0.05961-0.47778-0.18908-0.86357 0.95296
   1  -8  -1 659.407 136.672   4-0.11663 0.17472-0.20574-0.46080-0.97663 0.88742
   1   8  -1 612.789 133.426   6-0.26690 0.32544 0.22401 0.44303-0.97025 0.88060
   1   8  -1 714.832 130.976   2 0.52945-0.47145 0.41050 0.25608 0.82633-0.91559
  -1   8   1 556.948 129.073   6-0.32659 0.26889 0.44222 0.22414-0.88082 0.97001
  -1  -8   1 781.043 134.363   9 0.12744-0.18514-0.20626-0.46003 0.97717-0.88756
  -1  -8   1 786.498 133.722   3-0.62353 0.56565-0.39225-0.27449-0.77842 0.86756
   1  -8  -1 496.201 109.587   9 0.00514 0.05309-0.47750-0.18906 0.86491-0.95450
  -1   8   1 576.795 129.585   1 0.15319-0.21144 0.20965 0.45736 0.97745-0.88785
  -1   8   1 590.085 107.643   2 0.41488-0.47290 0.24628 0.42026 0.93676-0.84755
   0  -8   1 338.252 100.516   4 0.00021 0.01827-0.47554-0.19132-0.86495 0.96831
   0   8   1 232.025 71.6205   2 0.37458-0.35576 0.19259 0.47396 0.95998-0.85677
   0  -8  -1 257.118 102.780   4-0.12308 0.10431-0.18946-0.47702-0.98027 0.87711
   0   8  -1 88.0111 50.4933   2 0.56191-0.58074 0.46167 0.20490 0.77714-0.88039
   0   8  -1 157.088 73.2860   6-0.25640 0.23803 0.18967 0.47740-0.97862 0.87500
   0  -8   1 279.029 97.5195   9 0.13466-0.11552-0.18869-0.47760 0.98103-0.87741
   0   8   1 340.617 111.202   1 0.15748-0.13883 0.18907 0.47797 0.98172-0.87814
   0  -8  -1 75.5159 57.2979   9 0.00590-0.02451-0.47596-0.19057 0.86587-0.96944
   0   8   1 250.365 84.5685   6-0.33426 0.35345 0.47462 0.19173-0.86149 0.96461
  -1  -8  -1 355.483 90.4139   3-0.38061 0.28502-0.15455-0.51272-0.96575 0.84822
   1  -8   1 597.184 142.273   4 0.00290 0.09243-0.48122-0.18566-0.86142 0.97876
  -1  -8  -1 285.589 97.9262   4-0.12633 0.03071-0.18122-0.48521-0.98199 0.86488
   1   8   1 401.042 93.5318   2 0.34738-0.25172 0.15723 0.50933 0.97222-0.85501
  -1   8  -1 232.699 93.4370   6-0.24925 0.15397 0.16677 0.50030-0.98340 0.86583
   1  -8   1 285.158 86.3760   9 0.13859-0.04262-0.17904-0.48728 0.98300-0.86538
   1   8   1 322.132 107.283   6-0.34367 0.43974 0.51653 0.14979-0.83373 0.95076
  -1  -8  -1 401.713 112.738   9 0.00279-0.09823-0.48225-0.18425 0.86194-0.97950
   1   8   1 342.862 104.684   1 0.15997-0.06444 0.17686 0.49019 0.98404-0.86647
   2  -8   1 102.005 80.5297   4 0.00885 0.16335-0.49371-0.17319-0.85344 0.98476
  -2  -8  -1 136.099 75.2223   3-0.35435 0.18179-0.13078-0.53653-0.97493 0.84341
   2  -8   1 174.858 92.5473   9 0.13881 0.03397-0.17849-0.48786 0.98311-0.85150
  -2  -8  -1 193.751 86.6186   4-0.12593-0.04651-0.18223-0.48414-0.98179 0.85073
   2   8   1 122.506 65.2284   2 0.33045-0.15793 0.13556 0.53102 0.97856-0.84737
  -2   8  -1 55.6125 70.7995   6-0.24522 0.07303 0.15403 0.51303-0.98580 0.85425
   2   8   1 130.563 71.9814   6-0.35431 0.52727 0.56804 0.09824-0.79491 0.92584
  -2  -8  -1 12.5582 57.5982   9-0.00367-0.16861-0.49523-0.17125 0.85361-0.98516
   2   8   1 70.5944 67.3095   1 0.16064 0.01180 0.17362 0.49342 0.98463-0.85307
   3  -8   1 59.8106 80.1512   4 0.01769 0.23141-0.51203-0.15488-0.84121 0.98653
  -3  -8  -1 67.6802 67.8218   3-0.34055 0.09103-0.11839-0.54893-0.97913 0.83361
  -3  -8  -1 4.67672 45.5855   4-0.12128-0.12796-0.19402-0.47231-0.97928 0.83428
  -3   8  -1 197.106 105.712   6-0.24405-0.00504 0.15035 0.51668-0.98645 0.84094
   3   8   1 62.9184 48.6720   2 0.32164-0.07225 0.12437 0.54223 0.98150-0.83632
   3  -8   1 -64.299 60.5465   9 0.13470 0.11491-0.18858-0.47779 0.98105-0.83546
  -3  -8  -1 3.90902 46.8306   9-0.01309-0.23604-0.51390-0.15255 0.84107-0.98662
   3   8   1 29.4757 60.5440   1 0.15933 0.09000 0.18004 0.48699 0.98345-0.83791
   4  -8   1 629.023 150.947   4 0.02910 0.29691-0.53533-0.13160-0.82473 0.98403
  -4  -8  -1 531.722 137.030   3-0.33593 0.00948-0.11426-0.55305-0.98044 0.82094
  -4   8  -1 622.575 143.514   6-0.24547-0.08051 0.15482 0.51216-0.98566 0.82617
   4   8   1 349.676 131.317   2 0.31932 0.00694 0.12143 0.54519 0.98224-0.82306
   4   8   1 643.405 135.157   1 0.15585 0.17036 0.19694 0.47005 0.98014-0.82062
  -4  -8  -1 482.602 139.506   9-0.02514-0.30082-0.53741-0.12903 0.82433-0.98387
   5  -8   1 -59.226 62.0072   4 0.04287 0.36009-0.56284-0.10411-0.80386 0.97713
  -5  -8  -1 181.615 116.339   3-0.33828-0.06511-0.11635-0.55096-0.97978 0.80628
  -5   8  -1 135.510 113.026   6-0.24923-0.15363 0.16671 0.50023-0.98342 0.80996
   5   8   1 65.3161 96.1995   2 0.32224 0.08091 0.12512 0.54151 0.98131-0.80814
  -5  -8  -1 118.574 88.6748   9-0.03956-0.36324-0.56495-0.10148 0.80325-0.97678
   5  -8   1 84.1695 77.7559   8 0.37965 0.02321-0.09283-0.57355 0.97417-0.80093
  -6  -8  -1 343.077 152.730   3-0.34601-0.13429-0.12329-0.54402-0.97752 0.79003
   6   8   1 623.318 167.983   2 0.32944 0.15058 0.13427 0.53237 0.97891-0.79174
  -6   8  -1 451.144 174.846   6-0.25508-0.22465 0.18538 0.48150-0.97956 0.79213
  -6  -8  -1 115.385 85.3265   9-0.05614-0.42350-0.59583-0.07060 0.77759-0.96511
   6  -8   1 121.368 109.448   8 0.38638 0.09333-0.09555-0.57084 0.97236-0.78512
  -7  -8  -1 19.3677 111.723   3-0.35802-0.19920-0.13409-0.53320-0.97375 0.77227
   7   8   1 86.9260 147.757   2 0.34019 0.21672 0.14799 0.51866 0.97503-0.77385
   7   9  -1 24.6564 67.6668   5 0.59475-0.07622 0.25274 0.49773 0.85861-0.86344
   6  -9  -1 231.643 120.891   4-0.03129 0.47393-0.40730-0.34281-0.90320 0.88379
  -6  -9   1 215.324 109.927   9 0.03750-0.47935-0.41037-0.33918 0.90278-0.88312
   6   9  -1 -101.88 82.1610   5 0.60326-0.16166 0.25828 0.49211 0.85171-0.87054
   6   9  -1 46.3758 104.162   2 0.48076-0.03847 0.33818 0.41176 0.88297-0.90230
  -6  -9   1 90.1052 105.970   3-0.53662 0.09399-0.30256-0.44775-0.87219 0.89148
  -6   9   1 183.267 107.670   6-0.32465-0.11741 0.43428 0.31534-0.88530 0.90460
   5  -9  -1 191.438 115.374   4-0.04839 0.41408-0.36891-0.38116-0.92150 0.88814
   5   9  -1 27.9750 74.4799   5 0.61917-0.25450 0.26872 0.48157 0.83817-0.87097
  -5  -9   1 15.0767 78.1544   9 0.05542-0.42044-0.37179-0.37777 0.92130-0.88765
  -5   9   1 61.5009 92.8618   6-0.32299-0.04220 0.42755 0.32211-0.88900 0.92229
   5   9  -1 148.709 88.5434   2 0.48452-0.11910 0.34361 0.40631 0.87918-0.91250
  -5  -9   1 -35.859 66.6660   3-0.54493 0.17924-0.31086-0.43944-0.86486 0.89814
   4  -9  -1 418.572 138.631   4-0.06334 0.35210-0.33453-0.41549-0.93607 0.88876
  -4   9   1 695.447 165.334   6-0.32291 0.03459 0.42722 0.32246-0.88918 0.93644
  -4  -9   1 490.346 133.682   9 0.07118-0.35935-0.33703-0.41254 0.93610-0.88846
   4   9  -1 703.708 153.197   2 0.49256-0.20401 0.35530 0.39461 0.87079-0.91809
  -4  -9   1 616.862 148.275   3-0.55936 0.27064-0.32538-0.42489-0.85142 0.89868
  -3  -9   1 -24.363 56.1711   4 0.02874-0.24067-0.53460-0.21556-0.82527 0.88680
   3  -9  -1 27.2208 58.4842   4-0.07604 0.28789-0.30474-0.44524-0.94737 0.88611
  -3  -9   1 64.6671 91.6954   9 0.08466-0.29599-0.30667-0.44291 0.94764-0.88601
   3   9  -1 72.4967 81.0586   6-0.31137 0.52378 0.38180 0.36846-0.91236 0.85051
   3   9  -1 5.46513 66.5907   2 0.50541-0.29371 0.37423 0.37567 0.85647-0.91776
   3  -9  -1 95.3533 88.7000   9-0.02300 0.23490-0.53325-0.21669 0.82737-0.88900
  -3  -9   1 -22.332 51.7776   3-0.58091 0.36915-0.34739-0.40285-0.82950 0.89071
  -3   9   1 112.929 97.0090   6-0.32451 0.11308 0.43372 0.31600-0.88561 0.94684
   2  -9  -1 1282.53 212.026   4-0.08636 0.22131-0.28012-0.46981-0.95582 0.88059
   2   9  -1 1373.41 197.225   6-0.29630 0.43181 0.32567 0.42465-0.93679 0.86101
  -2  -9   1 1689.97 241.863   9 0.09571-0.23022-0.28131-0.46827 0.95632-0.88070
  -2   9   1 1255.14 194.891   6-0.32784 0.19331 0.44746 0.30226-0.87782 0.95300
   2   9  -1 1218.39 182.326   2 0.52355-0.38870 0.40148 0.34841 0.83417-0.90944
   2  -9  -1 1255.48 192.624   9-0.01261 0.14769-0.51296-0.23693 0.84172-0.91733
  -2  -9   1 1050.82 167.980   3-0.61052 0.47571-0.37834-0.37185-0.79524 0.87039
  -2  -9   1 1470.48 212.764   4 0.01854-0.15369-0.51379-0.23636-0.84001 0.91547
  -1  -9   1 289.297 102.504   4 0.01305-0.07141-0.50246-0.24770-0.84768 0.93710
   1  -9  -1 71.3041 69.4510   4-0.09413 0.15221-0.26135-0.48852-0.96173 0.87255
  -1  -9   1 256.858 88.5132   9 0.10416-0.16183-0.26167-0.48793 0.96247-0.87286
   1   9  -1 209.861 92.7515   6-0.28397 0.34258 0.28195 0.46842-0.95282 0.86310
   1   9  -1 211.083 94.3829   2 0.54727-0.48926 0.43822 0.31165 0.80071-0.88998
  -1   9   1 278.723 96.2959   6-0.33294 0.27529 0.46890 0.28081-0.86503 0.95416
   1  -9  -1 194.867 88.5770   9-0.00718 0.06542-0.50221-0.24765 0.84900-0.93859
   0  -9   1 39.8341 55.6702   4 0.01156 0.00691-0.49935-0.25082-0.84974 0.95312
   0  -9  -1 -60.274 66.7183   4-0.09912 0.08034-0.24919-0.50062-0.96531 0.86219
   0   9  -1 -2.7366 72.2820   6-0.27448 0.25618 0.24941 0.50099-0.96313 0.85946
   0   9   1 -4.0486 66.4797   6-0.33968 0.35894 0.49841 0.25129-0.84613 0.94919
   0  -9  -1 76.7198 67.3287   9-0.00590-0.01268-0.49967-0.25016 0.85069-0.95426
   0  -9   1 89.7185 79.1772   9 0.10978-0.09061-0.24848-0.50114 0.96632-0.86271
   1  -9   1 115.203 65.2035   4 0.01352 0.08179-0.50343-0.24677-0.84703 0.96439
   1   9   1 217.608 81.3050   2 0.39292-0.29726 0.21681 0.53307 0.95021-0.83301
  -1  -9  -1 121.746 74.8989   4-0.10102 0.00541-0.24451-0.50524-0.96665 0.84957
   1   9   1 33.4513 73.3391   1 0.14691-0.05138 0.23909 0.51129 0.97052-0.85292
  -1   9  -1 177.309 116.828   6-0.26779 0.17256 0.22694 0.52346-0.96947 0.85184
   1  -9   1 104.315 108.776   9 0.11225-0.01626-0.24265-0.50699 0.96795-0.85035
   1   9   1 77.4735 81.2679   6-0.34787 0.44401 0.53626 0.21342-0.81951 0.93648
  -1  -9  -1 100.906 89.1183   9-0.00821-0.08721-0.50426-0.24555 0.84763-0.96520
   2  -9   1 1178.25 202.985   4 0.01853 0.15365-0.51376-0.23647-0.84003 0.97136
   2   9   1 1307.89 201.043   2 0.37466-0.20214 0.19269 0.55721 0.95994-0.82875
  -2  -9  -1 1443.71 206.544   4-0.09945-0.07298-0.24837-0.50133-0.96555 0.83453
   2   9   1 1299.92 207.923   6-0.35711 0.53012 0.58250 0.16713-0.78299 0.91385
   2   9   1 1472.54 232.471   1 0.14722 0.02520 0.23765 0.51272 0.97088-0.83930
  -2   9  -1 1572.08 238.637   6-0.26374 0.09161 0.21357 0.53683-0.97295 0.84135
   2  -9   1 1535.78 213.854   9 0.11115 0.06167-0.24524-0.50442 0.96723-0.83564
  -2  -9  -1 1366.24 221.752   9-0.01365-0.15860-0.51501-0.23477 0.84031-0.97187
  -2  -9  -1 1423.03 186.773   3-0.41470 0.24219-0.18585-0.56484-0.95135 0.81978
   3  -9   1 66.0844 70.6658   4 0.02625 0.22282-0.52955-0.22071-0.82892 0.97425
  -3  -9  -1 -67.768 99.7532   4-0.09383-0.15539-0.26208-0.48758-0.96150 0.81655
   3   9   1 -11.330 56.7702   2 0.36382-0.11445 0.17853 0.57139 0.96513-0.81994
  -3   9  -1 57.1790 88.0910   6-0.26218 0.01314 0.20843 0.54194-0.97422 0.82866
   3  -9   1 18.8327 60.9836   9 0.10590 0.14374-0.25761-0.49209 0.96368-0.81809
  -3  -9  -1 149.050 89.4275   9-0.02188-0.22720-0.53111-0.21865 0.82893-0.97447
  -3  -9  -1 213.014 91.5833   3-0.39683 0.14736-0.16939-0.58132-0.95926 0.81370
  -4  -9  -1 433.660 121.382   3-0.38806 0.06163-0.16134-0.58937-0.96285 0.80330
   4  -9   1 488.240 166.587   4 0.03643 0.28955-0.55006-0.20021-0.81375 0.97305
   4   9   1 501.059 160.940   2 0.35910-0.03285 0.17238 0.57755 0.96726-0.80808
  -4   9  -1 458.194 164.214   6-0.26290-0.06304 0.21081 0.53953-0.97364 0.81410
  -4  -9  -1 578.574 169.642   9-0.03264-0.29329-0.55181-0.19794 0.81351-0.97305
   5  -9   1 87.7328 123.861   4 0.04887 0.35404-0.57465-0.17564-0.79439 0.96767
  -5  -9  -1 56.6488 80.9512   3-0.38633-0.01704-0.15976-0.59095-0.96354 0.79000
   5   9   1 180.992 98.8343   2 0.35943 0.04369 0.17281 0.57715 0.96711-0.79394
  -5   9  -1 214.148 147.173   6-0.26571-0.13710 0.22008 0.53021-0.97128 0.79778
  -5  -9  -1 139.366 116.744   9-0.04568-0.35710-0.57644-0.17329 0.79396-0.96750
   5   9   1 -41.560 72.8200   5 0.42026-0.01720 0.14327 0.60805 0.95752-0.78362
  -6  -9  -1 -34.630 100.503   3-0.39018-0.09012-0.16329-0.58741-0.96200 0.77447
  -6  -9  -1 34.6031 91.5519   9-0.06083-0.41879-0.60438-0.14534 0.77007-0.95760
   6   9   1 32.8954 64.8280   5 0.42210 0.05787 0.14440 0.60697 0.95683-0.76889
  -5 -10   1 720.973 178.228   3-0.57509 0.20942-0.34140-0.49230-0.83566 0.86888
  -4  10   1 187.220 92.0257   6-0.33050 0.04223 0.45858 0.37447-0.87128 0.91849
   4  10  -1 194.969 117.797   2 0.51446-0.22591 0.38773 0.44550 0.84567-0.89297
  -4 -10   1 123.295 116.383   9 0.05265-0.34080-0.37781-0.45506 0.91855-0.87092
  -4 -10   1 116.474 113.524   3-0.58997 0.30126-0.35676-0.47692-0.81957 0.86675
   3 -10  -1 -9.6416 95.0324   4-0.05654 0.26837-0.35025-0.48306-0.92962 0.86838
   3  10  -1 412.680 139.201   2 0.52696-0.31526 0.40668 0.42654 0.82968-0.89097
  -3  10   1 26.5371 89.3045   6-0.33204 0.12066 0.46510 0.36798-0.86736 0.92852
  -3 -10   1 271.769 144.838   9 0.06454-0.27585-0.35176-0.48111 0.93003-0.86841
  -2 -10   1 10.6923 61.3185   4 0.03225-0.16739-0.54167-0.29177-0.82006 0.89557
   2 -10  -1 156.614 75.6795   4-0.06544 0.20038-0.32963-0.50361-0.93801 0.86282
   2  10  -1 111.308 60.8714   2 0.54405-0.40920 0.43316 0.40004 0.80557-0.88085
   2  10  -1 247.097 121.670   6-0.31028 0.44584 0.37761 0.45604-0.91434 0.83848
  -2  10   1 293.513 117.472   6-0.33508 0.20060 0.47819 0.35490-0.85925 0.93437
  -2 -10   1 332.643 133.817   9 0.07408-0.20856-0.33054-0.50235 0.93867-0.86305
   2 -10  -1 83.6509 68.5296   9-0.02700 0.16210-0.54099-0.29220 0.82168-0.89729
  -1 -10   1 491.515 131.603   4 0.02661-0.08497-0.53027-0.30318-0.82840 0.91785
   1 -10  -1 816.648 198.420   4-0.07188 0.12994-0.31457-0.51862-0.94378 0.85463
   1  10  -1 865.683 196.554   6-0.29937 0.35803 0.33686 0.49684-0.93227 0.84248
  -1  10   1 694.662 172.318   6-0.33963 0.28204 0.49817 0.33490-0.84629 0.93535
  -1 -10   1 787.161 178.305   9 0.08110-0.13875-0.31473-0.51817 0.94469-0.85508
   1 -10  -1 584.765 146.448   9-0.02134 0.07962-0.53005-0.30311 0.82969-0.91928
   0 -10   1 197.554 100.840   4 0.02467-0.00621-0.52633-0.30715-0.83123 0.93464
   0 -10  -1 110.492 64.1247   4-0.07563 0.05684-0.30572-0.52740-0.94702 0.84393
   0  10  -1 183.671 125.077   6-0.29079 0.27254 0.30594 0.52780-0.94434 0.84060
   0  10   1 22.4145 66.7448   6-0.34557 0.36487 0.52536 0.30769-0.82745 0.93045
   0 -10   1 165.183 95.7978   9 0.08538-0.06619-0.30503-0.52789 0.94822-0.84462
   0 -10  -1 -23.479 70.8363   9-0.01955 0.00099-0.52657-0.30656 0.83219-0.93577
   1 -10   1 1048.24 212.152   4 0.02596 0.06935-0.52895-0.30457-0.82935 0.94674
  -1 -10  -1 1369.32 232.330   4-0.07641-0.01921-0.30387-0.52920-0.94769 0.83065
  -1  10  -1 1232.92 224.520   6-0.28456 0.18939 0.28398 0.54975-0.95213 0.83443
   1 -10   1 1125.01 192.558   9 0.08661 0.00941-0.30223-0.53072 0.94922-0.83162
   1  10   1 1156.72 198.893   6-0.35271 0.44891 0.55994 0.27309-0.80138 0.91829
  -1 -10  -1 882.525 198.661   9-0.02111-0.07427-0.52961-0.30350 0.83001-0.94758
   2 -10   1 66.0540 62.3869   4 0.03011 0.14205-0.53737-0.29618-0.82324 0.95460
  -2 -10  -1 283.973 117.921   4-0.07385-0.09858-0.30993-0.52309-0.94549 0.81452
  -2  10  -1 144.625 100.240   6-0.28060 0.10851 0.27025 0.56348-0.95668 0.82502
   2 -10   1 306.528 129.984   9 0.08439 0.08845-0.30727-0.52569 0.94742-0.81583
   2  10   1 -115.46 71.6791   6-0.36071 0.53379 0.60194 0.23105-0.76618 0.89697
  -2 -10  -1 108.333 120.193   9-0.02565-0.14658-0.53837-0.29471 0.82362-0.95518
   2  10   1 263.301 112.024   2 0.41607-0.24357 0.24790 0.58530 0.93598-0.80479
   3 -10   1 55.6837 90.6445   4 0.03686 0.21219-0.55090-0.28268-0.81311 0.95845
   3  10   1 150.117 99.4051   2 0.40383-0.15446 0.23140 0.60183 0.94377-0.79860
  -3  10  -1 183.425 120.228   6-0.27879 0.02981 0.26405 0.56965-0.95866 0.81304
  -3 -10  -1 13.7642 92.9024   9-0.03283-0.21623-0.55217-0.28089 0.81324-0.95879
   4  10   1 153.563 134.656   2 0.39729-0.07105 0.22262 0.61062 0.94770-0.78852
  -4 -10  -1 110.086 82.1757   3-0.43904 0.11264-0.20851-0.62559-0.93922 0.77961
  -1 -11   1 141.009 116.882   4 0.04162-0.09996-0.56037-0.35639-0.80580 0.89530
   1  11  -1 -69.303 125.117   6-0.31339 0.37211 0.38959 0.52743-0.90860 0.81871
   1 -11  -1 212.190 103.162   9-0.03703 0.09533-0.56016-0.35629 0.80703-0.89663
   0  11  -1 63.4275 122.350   6-0.30565 0.28745 0.36011 0.55694-0.92233 0.81850
   0  11   1 288.255 131.490   6-0.35165 0.37101 0.55461 0.36180-0.80556 0.90846
   0 -11   1 214.211 111.294   9 0.06115-0.04193-0.35926-0.55697 0.92683-0.82323
   0 -11  -1 284.584 137.915   9-0.03472 0.01619-0.55578-0.36065 0.81045-0.91404
  -1 -11  -1 -22.617 86.1430   4-0.05213-0.04348-0.36037-0.55602-0.92528 0.80830
   1 -11   1 -130.57 106.450   9 0.06129 0.03474-0.35893-0.55733 0.92697-0.80938
   1  11   1 27.8806 71.6103   6-0.35786 0.45411 0.58650 0.32989-0.77960 0.89641
  12   0  -2 317.881 111.798   5 0.63135 0.25218 0.27676-0.27718 0.82720-0.86577
  12   0  -2 214.226 125.847   8 0.63644 0.24790-0.19987 0.20030 0.84834-0.88695
 -11   0   2 -84.282 90.8810   7-0.62396-0.18350 0.09701-0.09742-0.87599 0.92848
  11   0  -2 44.1801 57.5253   5 0.61541 0.19130 0.26624-0.26666 0.84145-0.89403
  11   0  -2 71.4439 70.9413   8 0.62036 0.18709-0.19294 0.19331 0.86039-0.91303
 -10   0   2 906.824 183.446   7-0.61153-0.11910 0.09453-0.09492-0.88370 0.95018
 -10   0   2 1361.79 186.522   3-0.59382-0.13740-0.36077 0.36073-0.81521 0.88208
  10   0  -2 1121.65 168.984   5 0.60297 0.12694 0.25809-0.25851 0.85195-0.91854
  10   0  -2 1058.82 176.094   8 0.60790 0.12266-0.18758 0.18792 0.86926-0.93593
  -9   0   2 -16.172 58.3704   7-0.60393-0.04986 0.09303-0.09338-0.88825 0.96872
  -9   0   2 11.4455 46.3405   3-0.58557-0.06879-0.35220 0.35219-0.82445 0.90529
   9   0  -2 -44.664 48.9351   5 0.59505 0.05806 0.25293-0.25336 0.85837-0.93894
   9   0  -2 -122.00 81.0855   8 0.60014 0.05355-0.18427 0.18455 0.87458-0.95525
  -8   0   2 33.1030 50.0720   7-0.60274 0.02579 0.09279-0.09312-0.88895 0.98341
   8   0  -2 12.2289 22.8237   2 0.56415 0.01308 0.46531-0.46542 0.77332-0.86782
  -8   0   2 123.067 56.0403   3-0.58280 0.00529-0.34934 0.34935-0.82747 0.92229
   8   0  -2 65.4632 39.2235   5 0.59312-0.01680 0.25167-0.25211 0.85991-0.95445
   8   0  -2 -21.031 43.4247   8 0.59860-0.02180-0.18360 0.18385 0.87562-0.97029
  -7   0   2 -11.300 36.5378   7-0.61022 0.11008 0.09427-0.09456-0.88449 0.99293
  -7   0   2 -41.766 39.8260   3-0.58719 0.08654-0.35388 0.35393-0.82266 0.93145
   7   0  -2 19.2458 29.2483   5 0.59914-0.09963 0.25560-0.25603 0.85508-0.96359
   7   0  -2 -66.876 44.4931   8 0.60542-0.10548-0.18652 0.18672 0.87098-0.97963
  -6   0   2 1684.09 74.4450   1 0.20736-0.63086-0.09171 0.09200 0.99543-0.87234
  -6   0   2 1657.70 97.8674   9 0.20952-0.63291 0.00572-0.00549 0.99959-0.87643
   6   0  -2 1916.38 166.697   5 0.61585-0.19312 0.26653-0.26697 0.84107-0.96352
   6   0  -2 1600.92 154.843   8 0.62359-0.20051-0.19432 0.19448 0.85803-0.98066
  -6   0   2 1715.79 165.246   7-0.62956 0.20626 0.09812-0.09837-0.87241 0.99482
   6   0  -2 1730.31 98.8099   4-0.20770 0.63219 0.04028-0.04003-0.99884 0.87588
  -5   0   2 -16.430 30.7855   7-0.66530 0.31882 0.10527-0.10550-0.84782 0.98421
  -5   0   2 9.01380 15.8188   9 0.30140-0.64795 0.28576-0.28560 0.94931-0.81220
  -5   0   2 -15.188 25.9096   3-0.62657 0.27964-0.39553 0.39563-0.77431 0.91106
   5   0  -2 9.27592 21.1583   4-0.29444 0.64194 0.31898-0.31889-0.93941 0.80245
   5   0  -2 0.58325 26.8785   5 0.64676-0.30079 0.28703-0.28747 0.81249-0.94887
   5   0  -2 -12.793 30.6307   8 0.65718-0.31095-0.20888 0.20898 0.83169-0.96827
   4   0  -2 15538.9 521.056   8 0.71101-0.44159-0.23263 0.23269 0.78187-0.93240
  -4   0   2 16690.9 460.979   7-0.72314 0.45346 0.11701-0.11720-0.80092 0.95129
  12   1  -2 129.274 81.8569   5 0.61446 0.26917 0.26562-0.18273 0.84227-0.88084
  12   1  -2 112.656 96.8814   8 0.65561 0.22875-0.20820 0.29199 0.83300-0.87156
 -11   1   2 20.1270 61.7245   7-0.61926-0.18818 0.09607-0.01316-0.87894 0.93142
 -11  -1   2 70.8899 93.1419   7-0.63602-0.17148 0.09941-0.18315-0.86819 0.92067
 -11  -1   2 46.6996 68.3854   3-0.58256-0.22554-0.34909 0.26575-0.82773 0.88060
  11   1  -2 -52.795 81.3821   5 0.59794 0.20888 0.25482-0.17193 0.85605-0.90863
  11  -1  -2 53.4235 89.2942   8 0.60809 0.19934-0.18766 0.10467 0.86913-0.92180
  11   1  -2 75.7024 84.2715   8 0.64063 0.16684-0.20169 0.28544 0.84508-0.89768
 -10   1   2 995.229 190.174   7-0.60664-0.12396 0.09356-0.01062-0.88665 0.95312
 -10  -1   2 787.097 163.399   7-0.62448-0.10618 0.09711-0.18081-0.87566 0.94214
 -10  -1   2 783.824 151.471   3-0.56913-0.16212-0.33530 0.25198-0.84178 0.90863
  10  -1  -2 565.940 118.286   5 0.63094 0.09888 0.27650-0.36018 0.82757-0.89414
  10   1  -2 720.416 142.771   5 0.58466 0.14534 0.24619-0.16331 0.86648-0.93308
  10  -1  -2 744.750 155.813   8 0.59501 0.13553-0.18208 0.09904 0.87801-0.94471
  10   1  -2 805.656 152.521   8 0.62957 0.10101-0.19690 0.28060 0.85358-0.92020
  -9   1   2 24.7333 50.7776   7-0.59873-0.05504 0.09199-0.00902-0.89130 0.97177
  -9  -1   2 115.587 72.5887   7-0.61801-0.03582 0.09582-0.17949-0.87972 0.96019
   9   1  -2 110.251 49.7191   2 0.53684 0.11728 0.42189-0.33868 0.81609-0.89663
  -9  -1   2 96.0690 80.9614   3-0.55942-0.09497-0.32544 0.24216-0.85136 0.93218
   9  -1  -2 75.5404 62.9436   5 0.62531 0.02773 0.27276-0.35644 0.83271-0.91326
   9   1  -2 67.6860 47.3946   5 0.57555 0.07763 0.24031-0.15743 0.87332-0.95391
   9  -1  -2 -63.222 51.9087   8 0.58636 0.06730-0.17840 0.09531 0.88366-0.96436
   9   1  -2 75.0581 62.0757   8 0.62363 0.03006-0.19434 0.27800 0.85800-0.93863
  -8   1   2 305.545 99.9436   7-0.59703 0.02010 0.09166-0.00866-0.89229 0.98673
  -8  -1   2 170.129 76.9156   7-0.61829 0.04130 0.09588-0.17952-0.87955 0.97401
   8   1  -2 388.064 82.5700   2 0.53096 0.04627 0.41281-0.32959 0.82428-0.91882
  -8   1   2 244.441 68.5325   3-0.62474 0.04725-0.39357 0.47684-0.77679 0.87165
   8  -1  -2 235.478 76.7509   5 0.62640-0.05014 0.27349-0.35716 0.83172-0.92624
  -8  -1   2 286.512 82.5282   3-0.55458-0.02296-0.32054 0.23729-0.85599 0.95077
   8   1  -2 331.434 80.9214   5 0.57187 0.00449 0.23794-0.15508 0.87601-0.97058
   8  -1  -2 220.911 76.2960   8 0.58353-0.00674-0.17719 0.09407 0.88546-0.98016
   8   1  -2 292.014 83.1398   8 0.62451-0.04769-0.19472 0.27833 0.85735-0.95198
   7   1  -2 1827.85 169.156   2 0.53033-0.02998 0.41184-0.32859 0.82514-0.93368
  -7  -1   2 1724.99 126.308   9 0.13031-0.63041-0.19930 0.11624 0.97874-0.86939
  -7  -1   2 1829.97 177.673   3-0.55604 0.05536-0.32201 0.23878-0.85461 0.96338
   7  -1  -2 1911.60 180.937   5 0.63650-0.13701 0.28019-0.36385 0.82238-0.93086
   7   1  -2 1793.70 172.529   5 0.57538-0.07583 0.24020-0.15735 0.87345-0.98199
   7  -1  -2 1727.81 174.703   8 0.58844-0.08852-0.17928 0.09613 0.88232-0.99099
   7   1  -2 1406.11 152.555   8 0.63457-0.13462-0.19906 0.28261 0.84978-0.95839
   7  -1  -2 1805.63 127.817   4-0.12701 0.62840-0.17948 0.09648-0.98235 0.87333
  -7   1   2 1747.50 191.905   7-0.60369 0.10359 0.09298-0.00995-0.88839 0.99682
  -7  -1   2 1547.80 176.737   7-0.62770 0.12753 0.09775-0.18135-0.87360 0.98205
  -6   1   2 40.4987 40.8946   7-0.62179 0.19852 0.09657-0.01351-0.87736 0.99977
  -6  -1   2 31.3079 34.2158   7-0.64962 0.22628 0.10213-0.18570-0.85899 0.98141
   6  -1  -2 11.5458 17.2341   4-0.19829 0.62271 0.01304-0.09618-0.99978 0.87685
   6   1  -2 20.0840 10.4883   4-0.20714 0.63167 0.03863 0.04502-0.99892 0.87593
   6   1  -2 39.2766 31.6213   2 0.53633-0.11286 0.42110-0.33784 0.81681-0.93934
  -6   1   2 29.0374 11.6496   9 0.19628-0.61974-0.03042 0.11398 0.99943-0.87628
  -6  -1   2 19.3798 18.9432   9 0.20392-0.62725-0.00965-0.07341 0.99970-0.87652
   6  -1  -2 21.7838 31.5705   5 0.65859-0.23587 0.29499-0.37863 0.80053-0.92295
  -6  -1   2 -6.8843 30.5097   3-0.56569 0.14189-0.33180 0.24860-0.84523 0.96797
   6   1  -2 -20.569 31.9518   5 0.58845-0.16570 0.24865-0.16581 0.86356-0.98605
   6  -1  -2 17.8723 30.5043   8 0.60382-0.18075-0.18583 0.10265 0.87208-0.99472
   6   1  -2 45.9588 48.0895   8 0.65710-0.23400-0.20884 0.29234 0.83176-0.95435
  -6   1   2 29.5497 20.0000   1 0.19703-0.62056-0.02557 0.10921 0.99955-0.87646
  -5   1   2 83.2304 38.8829   7-0.65560 0.30915 0.10332-0.02024-0.85479 0.99117
  -5  -1   2 106.302 38.3354   7-0.68870 0.34217 0.11000-0.19353-0.82999 0.96640
   5   1  -2 130.534 44.4657   2 0.55047-0.20386 0.44329-0.36001 0.79577-0.93229
   5  -1  -2 77.5233 27.9053   4-0.26070 0.60816 0.20345-0.28668-0.97543 0.83854
  -5   1   2 131.374 34.6579   1 0.23279-0.57953-0.28822 0.37188 0.95570-0.81850
   5   1  -2 51.6949 36.9781   5 0.61424-0.26830 0.26547-0.18265 0.84246-0.97888
   5  -1  -2 113.570 46.0646   8 0.63338-0.28715-0.19855 0.11532 0.85069-0.98729
  -5  -1   2 76.0078 33.6257   9 0.26931-0.61579 0.18105-0.26415 0.97909-0.84195
   5   1  -2 118.411 54.3968   8 0.69633-0.35007-0.22609 0.30953 0.79650-0.93305
  -4  -1   2 816.565 106.247   3-0.61907 0.34903-0.38746 0.30430-0.78432 0.93503
   4   1  -2 868.320 113.470   5 0.65651-0.38732 0.29358-0.21077 0.80268-0.95301
   4  -1  -2 1094.48 134.532   8 0.68179-0.41239-0.21966 0.13641 0.81019-0.96074
  -4   1   2 865.991 114.173   7-0.71066 0.44102 0.11446-0.03135-0.81187 0.96222
  -4  -1   2 561.017 93.7552   7-0.75044 0.48073 0.12264-0.20614-0.77515 0.92554
 -12  -2   2 237.021 131.917   7-0.66975-0.21459 0.10617-0.27327-0.84454 0.88302
 -12  -2   2 47.8885 89.3496   3-0.58379-0.30120-0.35036 0.18370-0.82639 0.86528
 -11   2   2 -110.95 126.564   7-0.62161-0.18580 0.09654 0.06970-0.87747 0.92995
 -11  -2   2 -39.376 69.0067   7-0.65569-0.15183 0.10335-0.27041-0.85474 0.90722
 -11  -2   2 -75.702 95.4158   3-0.56740-0.24075-0.33354 0.16690-0.84352 0.89637
  11   2  -2 205.450 105.505   5 0.58823 0.21868 0.24851-0.08228 0.86373-0.91631
  11  -2  -2 85.9951 87.1650   8 0.60314 0.20426-0.18554 0.01918 0.87254-0.92524
  11   2  -2 -19.118 77.9170   8 0.66948 0.13798-0.21425 0.38138 0.82119-0.87372
 -10   2   2 87.1189 85.7733   7-0.60942-0.12114 0.09412 0.07215-0.88497 0.95144
 -10  -2   2 55.1460 72.6746   7-0.64577-0.08491 0.10136-0.26838-0.86163 0.92811
  10   2  -2 173.841 86.0864   2 0.52708 0.20392 0.40686-0.24032 0.82952-0.89608
 -10  -2   2 94.3721 52.9838   3-0.55374-0.17755-0.31970 0.15309-0.85678 0.92360
  10   2  -2 205.617 86.2699   5 0.57484 0.15525 0.23985-0.07362 0.87384-0.94044
  10  -2  -2 298.316 101.758   8 0.59012 0.14040-0.17999 0.01358 0.88123-0.94794
  10   2  -2 182.762 80.7915   8 0.66073 0.06986-0.21043 0.37749 0.82871-0.89527
  -9   2   2 55.3434 57.3835   7-0.60193-0.05180 0.09263 0.07367-0.88944 0.96989
  -9  -2   2 116.112 79.5332   7-0.64130-0.01256 0.10047-0.26745-0.86466 0.94514
   9   2  -2 141.678 63.7160   2 0.51658 0.13754 0.39093-0.22436 0.84305-0.92362
   9  -2  -2 215.761 95.4920   5 0.66763-0.01465 0.30110-0.46797 0.79098-0.87152
  -9  -2   2 234.410 84.8285   3-0.54353-0.11089-0.30946 0.14287-0.86612 0.94691
   9   2  -2 95.4436 58.0379   5 0.56538 0.08787 0.23377-0.06756 0.88066-0.96126
   9  -2  -2 143.579 69.5464   8 0.58136 0.07227-0.17627 0.00983 0.88684-0.96754
   9   2  -2 99.9067 68.2321   8 0.65768-0.00398-0.20909 0.37611 0.83127-0.91184
  -8   2   2 205.211 86.0056   7-0.60060 0.02370 0.09237 0.07396-0.89021 0.98465
  -8  -2   2 276.857 81.5065   7-0.64406 0.06703 0.10102-0.26797-0.86280 0.95726
   8   2  -2 269.589 74.2250   2 0.50975 0.06747 0.38070-0.21412 0.85136-0.94593
   8  -2  -2 243.278 82.7299   5 0.67323-0.09701 0.30490-0.47176 0.78487-0.87938
  -8  -2   2 205.720 78.4799   3-0.53775-0.03981-0.30369 0.13713-0.87121 0.96599
   8   2  -2 65.6584 47.2258   5 0.56100 0.01541 0.23096-0.06476 0.88373-0.97832
   8  -2  -2 161.381 51.4572   8 0.57817-0.00142-0.17492 0.00845 0.88883-0.98353
   8   2  -2 280.400 92.4631   8 0.66223-0.08540-0.21108 0.37804 0.82744-0.92201
  -7  -2   2 820.434 124.439   7-0.65658 0.15637 0.10353-0.27044-0.85411 0.96256
   7   2  -2 1193.54 145.008   2 0.50760-0.00724 0.37747-0.21088 0.85392-0.96248
  -7  -2   2 1170.94 121.825   9 0.13776-0.63781-0.18109 0.01474 0.98259-0.87324
  -7  -2   2 1162.50 143.567   3-0.53764 0.03694-0.30357 0.13703-0.87131 0.98007
   7   2  -2 1141.68 141.373   5 0.56324-0.06366 0.23240-0.06623 0.88217-0.99073
   7   2  -2 1086.24 147.900   8 0.67697-0.17701-0.21754 0.38444 0.81456-0.92312
   7  -2  -2 800.857 133.801   8 0.58232-0.08243-0.17668 0.01018 0.88623-0.99491
   7  -2  -2 1155.37 118.815   4-0.13230 0.63364-0.16593-0.00049-0.98498 0.87600
  -7   2   2 1192.07 162.160   7-0.60749 0.10743 0.09373 0.07263-0.88613 0.99455
  -6   2   2 617.124 102.794   7-0.62553 0.20230 0.09732 0.06907-0.87499 0.99738
  -6  -2   2 744.940 112.115   7-0.68236 0.25898 0.10871-0.27560-0.83497 0.95741
  -6  -2   2 584.235 82.5630   9 0.19339-0.61664-0.03820-0.12816 0.99920-0.87596
   6   2  -2 713.037 109.759   2 0.51127-0.08780 0.38296-0.21635 0.84954-0.97210
  -6  -2   2 716.274 106.647   3-0.54478 0.12097-0.31071 0.14419-0.86500 0.98774
   6   2  -2 688.690 101.496   5 0.57418-0.15143 0.23943-0.07328 0.87433-0.99684
   6  -2  -2 659.448 110.887   8 0.59626-0.17321-0.18261 0.01609 0.87718-0.99983
   6   2  -2 535.965 107.463   8 0.70533-0.28222-0.23009 0.39692 0.78763-0.91017
   6  -2  -2 684.023 92.3717   4-0.18598 0.61035-0.02184-0.14468-0.99975 0.87685
  -6   2   2 594.640 75.8770   1 0.18839-0.61197 0.02583 0.14116 0.99964-0.87653
  -5   2   2 36.8115 28.4623   7-0.65874 0.31233 0.10395 0.06245-0.85256 0.98892
  -5  -2   2 59.4682 38.9856   7-0.72602 0.37945 0.11760-0.28446-0.79832 0.93475
  -5   2   2 34.9056 25.0605   1 0.21673-0.56349-0.15722 0.32425 0.98684-0.84967
   5  -2  -2 42.7383 34.0109   4-0.23430 0.58171 0.11985-0.28642-0.99128 0.85443
  -5  -2   2 26.7466 21.3081   9 0.24387-0.59028 0.10378-0.27016 0.99251-0.85533
   5   2  -2 40.9489 27.2943   2 0.52214-0.17553 0.39933-0.23271 0.83600-0.97254
  -5  -2   2 74.9816 47.6826   3-0.56122 0.21430-0.32726 0.16077-0.84962 0.98635
   5   2  -2 87.2418 44.3087   5 0.59657-0.25065 0.25393-0.08780 0.85715-0.99360
   5  -2  -2 21.4546 32.4098   8 0.62333-0.27713-0.19421 0.02767 0.85822-0.99482
  -4   2   2 162.395 55.3918   7-0.71230 0.44269 0.11480 0.05164-0.81046 0.96078
   4  -2  -2 165.025 51.6825   4-0.27632 0.54677 0.25556-0.42215-0.96128 0.81049
   4   2  -2 224.199 58.8323   2 0.54152-0.27177 0.42918-0.26255 0.80932-0.95984
  -4  -2   2 201.018 47.6682   9 0.28808-0.55764 0.24112-0.40753 0.96369-0.81253
   4  -2  -2 226.688 62.8650   8 0.66781-0.39843-0.21352 0.04695 0.82264-0.97320
   3  -2  -2 1.26809 21.0240   8 0.73375-0.54115-0.24285 0.07624 0.75744-0.92194
 -12  -3   2 232.453 107.612   7-0.69520-0.18918 0.11132-0.36172-0.82478 0.86326
 -11   3   2 52.3513 81.4290   7-0.63063-0.17674 0.09834 0.15124-0.87171 0.92418
 -11  -3   2 50.4078 79.8077   7-0.68312-0.12442 0.10887-0.35924-0.83438 0.88686
 -11  -3   2 11.0359 65.8087   3-0.55939-0.24880-0.32541 0.07546-0.85139 0.90423
  11   3  -2 -15.588 86.7612   5 0.58534 0.22165 0.24663 0.00298 0.86596-0.91853
  11  -3  -2 58.9808 89.1641   8 0.60485 0.20250-0.18628-0.06345 0.87137-0.92407
 -10   3   2 522.087 131.443   7-0.61945-0.11109 0.09611 0.15350-0.87883 0.94528
 -10  -3   2 602.992 139.769   7-0.67558-0.05512 0.10734-0.35769-0.84017 0.90664
  10   3  -2 711.357 152.559   2 0.51537 0.21564 0.38910-0.13920 0.84455-0.91113
 -10  -3   2 472.787 136.430   3-0.54606-0.18526-0.31199 0.06206-0.86384 0.93065
  10   3  -2 629.663 143.395   5 0.57237 0.15777 0.23827 0.01133 0.87564-0.94223
  10  -3  -2 471.955 126.920   8 0.59242 0.13805-0.18098-0.06878 0.87972-0.94643
  -9   3   2 70.9810 62.1660   7-0.61303-0.04067 0.09483 0.15479-0.88279 0.96323
  -9  -3   2 156.254 86.0474   7-0.67398 0.02010 0.10702-0.35732-0.84138 0.92185
   9   3  -2 65.6550 52.5997   2 0.50499 0.14913 0.37360-0.12369 0.85696-0.93754
  -9  -3   2 112.170 67.9565   3-0.53602-0.11844-0.30197 0.05206-0.87270 0.95350
   9   3  -2 130.050 78.1857   5 0.56322 0.09008 0.23239 0.01720 0.88218-0.96278
   9  -3  -2 99.7650 58.0543   8 0.58422 0.06938-0.17748-0.07230 0.88503-0.96574
   9   3  -2 382.254 140.875   8 0.70287-0.04917-0.22900 0.47937 0.79009-0.87058
  -8   3   2 586.127 116.755   7-0.61282 0.03596 0.09479 0.15487-0.88292 0.97734
  -8  -3   2 733.073 124.421   7-0.68022 0.10316 0.10828-0.35855-0.83662 0.93109
   8  -3  -2 559.247 104.747   4-0.08219 0.66045-0.29012 0.04037-0.95248 0.85743
  -8  -3   2 849.730 119.825   9 0.08715-0.66402-0.30098 0.05133 0.94966-0.85431
  -8   3   2 -126.60 50.0505   6-0.36219-0.21472 0.61019-0.36071-0.75877 0.85343
   8   3  -2 725.428 134.743   2 0.49801 0.07922 0.36329-0.11337 0.86486-0.95944
   8   3  -2 666.429 128.215   5 0.55891 0.01754 0.22963 0.01994 0.88518-0.97977
  -8  -3   2 610.742 123.810   3-0.53010-0.04749-0.29609 0.04620-0.87773 0.97251
   8  -3  -2 549.210 119.075   8 0.58143-0.00470-0.17630-0.07351 0.88679-0.98149
   8   3  -2 928.336 185.425   8 0.71231-0.13548-0.23321 0.48352 0.78054-0.87502
  -7   3   2 448.537 98.7130   7-0.62081 0.12079 0.09638 0.15331-0.87798 0.98637
  -7  -3   2 501.976 100.580   7-0.69694 0.19669 0.11167-0.36190-0.82336 0.93182
   7  -3  -2 587.617 95.4992   4-0.12904 0.63033-0.17429-0.07553-0.98338 0.87443
  -7  -3   2 531.279 91.9896   9 0.13562-0.63563-0.18633-0.06332 0.98152-0.87219
  -7   3   2 565.323 103.942   6-0.35751-0.14262 0.58461-0.33513-0.78121 0.88984
   7   3  -2 698.203 123.788   2 0.49524 0.00511 0.35922-0.10929 0.86790-0.97647
   7   3  -2 577.446 113.433   5 0.56081-0.06121 0.23084 0.01869 0.88386-0.99243
  -7  -3   2 541.760 107.980   3-0.52937 0.02867-0.29537 0.04550-0.87834 0.98710
   7  -3  -2 515.315 114.815   8 0.58570-0.08584-0.17812-0.07172 0.88408-0.99275
   7   3  -2 -89.205 95.1798   8 0.73293-0.23296-0.24247 0.49272 0.75836-0.86684
  -6   3   2 831.506 128.810   7-0.63980 0.21659 0.10017 0.14954-0.86567 0.98804
   6   3  -2 1015.69 134.866   2 0.49767-0.07419 0.36279-0.11285 0.86523-0.98780
  -6   3   2 829.803 119.355   6-0.35448-0.06884 0.56889-0.31942-0.79422 0.91683
  -6  -3   2 917.252 113.735   9 0.18040-0.60366-0.07270-0.17698 0.99736-0.87420
  -6  -3   2 865.786 124.263   3-0.53521 0.11139-0.30116 0.05131-0.87340 0.99615
   6   3  -2 835.476 118.637   5 0.57077-0.14802 0.23723 0.01227 0.87681-0.99933
   6  -3  -2 816.761 125.676   8 0.59927-0.17626-0.18390-0.06595 0.87516-0.99781
   6  -3  -2 843.715 111.159   4-0.17225 0.59657-0.05991-0.18996-0.99816 0.87528
  -6  -3   2 989.417 128.714   7-0.72765 0.30424 0.11794-0.36814-0.79683 0.91929
  -5   3   2 201.361 60.2166   7-0.67353 0.32715 0.10693 0.14279-0.84171 0.97804
   5   3  -2 218.199 34.4704   6-0.13421 0.48129-0.16048 0.41109-0.98596 0.84882
  -5   3   2 206.017 50.3658   1 0.20328-0.55007-0.06493 0.31532 0.99765-0.86048
   5  -3  -2 189.713 57.3615   4-0.21148 0.55884 0.05133-0.30124-0.99822 0.86141
  -5  -3   2 259.699 64.0783   9 0.22152-0.56787 0.03925-0.28892 0.99840-0.86119
  -5   3   2 256.563 70.9831   6-0.35355 0.00703 0.56414-0.31466-0.79804 0.93463
   5   3  -2 201.198 62.8939   2 0.50643-0.15982 0.37573-0.12578 0.85529-0.99183
  -5  -3   2 193.564 57.0777   3-0.54930 0.20237-0.31523 0.06540-0.86090 0.99763
   5   3  -2 149.791 47.0758   5 0.59117-0.24525 0.25042-0.00096 0.86144-0.99790
   5  -3  -2 259.782 70.0550   8 0.62514-0.27896-0.19499-0.05487 0.85689-0.99348
  -4   3   2 450.883 80.8788   7-0.72664 0.45707 0.11773 0.13202-0.79776 0.94805
   4   3  -2 321.256 52.8160   6-0.05869 0.32887-0.34465 0.59530-0.93192 0.78069
  -4   3   2 438.460 75.3798   1 0.22073-0.49066-0.18719 0.43762 0.98139-0.83019
   4  -3  -2 366.471 72.6333   4-0.24640 0.51680 0.15753-0.40745-0.98515 0.83440
  -4  -3   2 437.388 78.6460   9 0.25820-0.52769 0.14673-0.39641 0.98592-0.83472
   4   3  -2 527.056 91.4118   2 0.52269-0.25296 0.40017-0.15021 0.83529-0.98581
  -4   3   2 361.793 75.2400   6-0.35498 0.08528 0.57145-0.32197-0.79213 0.94269
   4   3  -2 457.001 77.4961   5 0.62493-0.35584 0.27252-0.02311 0.83305-0.98341
   4  -3  -2 515.275 97.4023   8 0.66707-0.39770-0.21320-0.03668 0.82328-0.97384
  -3   3   2 230.106 60.4742   1 0.23323-0.42629-0.29229 0.54274 0.95442-0.78917
   3  -3  -2 159.034 52.2155   4-0.27664 0.47010 0.25665-0.50656-0.96095 0.79625
  -3  -3   2 268.152 64.6168   9 0.29011-0.48275 0.24781-0.49750 0.96170-0.79651
  -3   3   2 101.722 43.2279   6-0.35885 0.16596 0.59179-0.34230-0.77507 0.93959
   3  -3  -2 25.0720 35.8429   8 0.72873-0.53613-0.24059-0.00934 0.76302-0.92753
 -11   4   2 224.865 117.544   7-0.64594-0.16139 0.10139 0.23151-0.86152 0.91397
  11   4  -2 367.605 139.455   2 0.52245 0.28544 0.39980-0.06657 0.83560-0.88819
 -11  -4   2 288.359 119.572   3-0.55736-0.25088-0.32334-0.00993-0.85335 0.90617
 -10   4   2 -5.2930 81.1288   7-0.63625-0.09426 0.09946 0.23347-0.86803 0.93447
 -10  -4   2 -13.938 70.2582   7-0.71393-0.01682 0.11513-0.44878-0.80905 0.87554
  10   4  -2 14.7779 71.1657   2 0.51003 0.22098 0.38109-0.04784 0.85104-0.91764
 -10  -4   2 133.969 66.9590   3-0.54474-0.18662-0.31067-0.02259-0.86503 0.93183
  10   4  -2 -66.252 69.2190   5 0.57627 0.15393 0.24077 0.09223 0.87279-0.93935
  10  -4  -2 -3.1107 74.9347   8 0.60120 0.12923-0.18472-0.14838 0.87386-0.94057
   9   4  -2 1832.31 226.205   2 0.50018 0.15393 0.36649-0.03323 0.86244-0.94304
  -9  -4   2 1668.84 224.047   3-0.53530-0.11920-0.30125-0.03200-0.87332 0.95411
   9   4  -2 2010.58 239.194   5 0.56788 0.08546 0.23538 0.09761 0.87888-0.95946
   9  -4  -2 1707.10 233.511   8 0.59403 0.05952-0.18166-0.15146 0.87866-0.95937
  -9   4   2 1842.90 240.163   7-0.63145-0.02221 0.09850 0.23446-0.87118 0.95160
  -9  -4   2 1958.50 231.923   7-0.71599 0.06208 0.11555-0.44916-0.80725 0.88773
  -8   4   2 116.664 72.7789   7-0.63298 0.05616 0.09880 0.23418-0.87018 0.96458
  -8  -4   2 16.3414 48.1439   7-0.72657 0.14948 0.11772-0.45130-0.79782 0.89230
   8  -4  -2 6.00317 53.4257   4-0.08210 0.66031-0.29033-0.04283-0.95241 0.85739
  -8  -4   2 60.9229 51.8711   9 0.08782-0.66466-0.29946-0.03349 0.95019-0.85486
  -8   4   2 -7.5426 40.5306   6-0.35424-0.22267 0.56766-0.23495-0.79521 0.88987
   8   4  -2 136.986 82.7738   2 0.49352 0.08371 0.35670-0.02343 0.86976-0.96436
   8   4  -2 -21.770 58.1024   5 0.56419 0.01229 0.23301 0.09996 0.88150-0.97608
  -8  -4   2 77.1508 65.8265   3-0.52976-0.04786-0.29576-0.03747-0.87801 0.97279
   8  -4  -2 82.6803 70.3449   8 0.59221-0.01552-0.18089-0.15225 0.87986-0.97455
   7   4  -2 1939.45 218.064   2 0.49072 0.00962 0.35262-0.01934 0.87275-0.98133
  -7   4   2 1925.34 206.893   6-0.34952-0.15060 0.54418-0.21146-0.81357 0.92221
  -7  -4   2 2037.40 193.595   9 0.12855-0.62854-0.20358-0.12937 0.97778-0.86849
  -7  -4   2 2133.89 218.306   3-0.52907 0.02834-0.29507-0.03814-0.87859 0.98736
   7   4  -2 1985.59 202.559   5 0.56642-0.06682 0.23444 0.09849 0.87993-0.98848
   7  -4  -2 2110.16 224.774   8 0.59728-0.09745-0.18305-0.15010 0.87650-0.98516
   7  -4  -2 1972.49 194.359   4-0.12139 0.62263-0.19374-0.13947-0.97934 0.87041
  -7   4   2 1733.76 203.533   7-0.64278 0.14280 0.10076 0.23224-0.86366 0.97203
  -7  -4   2 1671.32 186.667   7-0.74831 0.24803 0.12219-0.45574-0.77726 0.88573
  -6   4   2 -67.963 46.5230   1 0.17145-0.59510 0.11877 0.21490 0.99287-0.86974
  -6   4   2 -23.837 44.8829   7-0.66349 0.24033 0.10491 0.22811-0.84914 0.97148
   6  -4  -2 26.5098 32.4912   4-0.15757 0.58185-0.09962-0.23362-0.99474 0.87188
  -6  -4   2 -47.960 41.1118   9 0.16624-0.58938-0.10952-0.22343 0.99388-0.87061
  -6   4   2 35.9608 56.8084   6-0.34643-0.07690 0.52940-0.19667-0.82454 0.94716
   6   4  -2 36.6841 51.2856   2 0.49262-0.06915 0.35539-0.02211 0.87073-0.99330
   6   4  -2 -2.0137 48.3008   5 0.57621-0.15346 0.24073 0.09214 0.87284-0.99535
  -6  -4   2 -29.530 43.2976   3-0.53438 0.11055-0.30034-0.03286-0.87411 0.99686
   6  -4  -2 60.5941 57.1050   8 0.61129-0.18829-0.18904-0.14413 0.86689-0.98952
  -5   4   2 194.178 59.7630   7-0.69855 0.35220 0.11200 0.22104-0.82204 0.95834
   5   4  -2 213.195 41.8127   6-0.20095 0.54808 0.02107 0.31283-0.99959 0.86248
   5  -4  -2 228.390 73.1144   4-0.19050 0.53781-0.00913-0.32413-0.99992 0.86313
  -5  -4   2 270.800 70.6638   9 0.20068-0.54697-0.01849-0.31447 0.99965-0.86239
  -5   4   2 197.894 72.3546   6-0.34531-0.00119 0.52416-0.19142-0.82832 0.96492
   5   4  -2 259.823 72.9323   2 0.50014-0.15354 0.36642-0.03313 0.86249-0.99904
   5   4  -2 314.410 77.4744   5 0.59560-0.24972 0.25329 0.07952 0.85793-0.99438
  -5  -4   2 180.152 63.3779   3-0.54712 0.20020-0.31305-0.02013-0.86289 0.99962
  -5   4   2 176.158 54.5795   1 0.19128-0.53809 0.00902 0.32472 0.99991-0.86275
   5  -4  -2 228.126 68.0209   8 0.63689-0.29072-0.20007-0.13310 0.84799-0.98458
  -4   4   2 110.885 42.8363   7-0.75190 0.48235 0.12294 0.21013-0.77370 0.92396
   4   4  -2 148.992 42.3320   6-0.13992 0.41015-0.14570 0.47970-0.98849 0.83733
   4  -4  -2 160.780 62.6024   4-0.21999 0.49035 0.07652-0.40978-0.99629 0.84556
  -4  -4   2 128.595 49.4916   9 0.23168-0.50113 0.06826-0.40122 0.99635-0.84511
  -4   4   2 149.185 61.5709   6-0.34642 0.07674 0.52938-0.19663-0.82455 0.97513
   4   4  -2 112.330 38.2394   2 0.51425-0.24451 0.38742-0.05413 0.84593-0.99646
  -4   4   2 92.4615 36.3720   1 0.20695-0.47692-0.08901 0.42280 0.99569-0.84449
  -4  -4   2 138.483 55.5787   3-0.56888 0.29888-0.33505 0.00191-0.84203 0.99274
   4   4  -2 151.111 49.2165   5 0.62709-0.35805 0.27395 0.05880 0.83109-0.98144
   4  -4  -2 175.695 60.8261   8 0.67734-0.40797-0.21770-0.11548 0.81423-0.96477
   3   4  -2 148.369 54.4496   6-0.10064 0.29396-0.24487 0.57889-0.96653 0.80134
   3  -4  -2 183.560 58.8379   4-0.24592 0.43934 0.15604-0.48926-0.98543 0.82077
   3   4  -2 129.543 56.4924   2 0.53576-0.34288 0.42022-0.08693 0.81761-0.98211
  -3  -4   2 131.075 56.1236   9 0.25906-0.45166 0.14936-0.48233 0.98544-0.82021
  -3   4   2 133.730 57.8857   6-0.34988 0.15702 0.54591-0.21315-0.81226 0.97680
  -3  -4   2 99.0364 39.7757   3-0.60120 0.40811-0.36850 0.03538-0.80660 0.97127
  -3   4   2 159.647 47.1027   1 0.21904-0.41213-0.17433 0.50816 0.98385-0.81863
   3  -4  -2 -141.49 68.7706   8 0.73567-0.54307-0.24372-0.08949 0.75527-0.91977
   2  -4  -2 39.3463 40.2362   4-0.26817 0.38467 0.22812-0.56130-0.96915 0.79056
  -2  -4   2 -12.085 29.7190   9 0.28266-0.39841 0.22347-0.55643 0.96867-0.78944
  -2   4   2 4.28430 24.9349   6-0.35555 0.23954 0.57437-0.24162-0.78974 0.96824
 -10   5   2 -52.709 90.2612   7-0.65930-0.07116 0.10407 0.31219-0.85217 0.91858
  10   5  -2 43.1398 60.3030   2 0.50971 0.22129 0.38062 0.03598 0.85142-0.91802
 -10  -5   2 11.8531 82.6244   3-0.54864-0.18276-0.31458-0.10204-0.86150 0.92829
  10   5  -2 -23.897 63.8386   5 0.58561 0.14462 0.24681 0.16962 0.86576-0.93227
  10  -5  -2 168.840 100.181   8 0.61570 0.11468-0.19093-0.22550 0.86376-0.93045
  -9   5   2 146.778 94.3709   7-0.65658 0.00296 0.10353 0.31276-0.85411 0.93450
   9   5  -2 221.127 120.572   2 0.50064 0.15347 0.36716 0.04944 0.86192-0.94253
   9   5  -2 184.183 77.9986   5 0.57832 0.07503 0.24210 0.17430 0.87126-0.95180
  -9  -5   2 258.825 106.242   3-0.54007-0.11445-0.30600-0.11060-0.86918 0.94996
   9  -5  -2 318.453 131.828   8 0.60995 0.04357-0.18846-0.22798 0.86783-0.94852
  -8   5   2 -10.750 74.2718   7-0.66034 0.08356 0.10427 0.31202-0.85142 0.94579
   8  -5  -2 -12.346 51.9933   4-0.07720 0.65535-0.30200-0.11456-0.94835 0.85336
  -8   5   2 -0.4325 60.0477   6-0.34963-0.22730 0.54472-0.12874-0.81317 0.90782
  -8  -5   2 149.676 68.7287   9 0.08333-0.66014-0.30968-0.10656 0.94655-0.85124
   8   5  -2 -96.648 84.2035   2 0.49457 0.08265 0.35823 0.05838 0.86863-0.96323
   8   5  -2 8.47128 54.4118   5 0.57561 0.00086 0.24035 0.17602 0.87328-0.96781
  -8  -5   2 36.5610 69.3089   3-0.53524-0.04239-0.30119-0.11539-0.87338 0.96815
   8  -5  -2 -27.007 67.4940   8 0.60953-0.03288-0.18828-0.22817 0.86813-0.96280
  -7   5   2 471.059 107.597   7-0.67246 0.17251 0.10672 0.30960-0.84252 0.95086
   7  -5  -2 418.759 103.941   4-0.11107 0.61226-0.21966-0.19693-0.97326 0.86435
  -7  -5   2 390.308 97.4171   9 0.11851-0.61847-0.22774-0.18851 0.97192-0.86264
  -7   5   2 540.679 131.925   6-0.34516-0.15497 0.52343-0.10744-0.82884 0.93748
   7   5  -2 421.365 120.541   2 0.49209 0.00825 0.35461 0.06201 0.87130-0.97989
   7   5  -2 557.606 118.331   5 0.57861-0.07902 0.24229 0.17404 0.87105-0.97957
  -7  -5   2 423.692 111.617   3-0.53498 0.03423-0.30093-0.11565-0.87360 0.98237
   7  -5  -2 375.599 116.686   8 0.61587-0.11608-0.19100-0.22546 0.86364-0.97228
  -6   5   2 47.5499 54.5907   7-0.69542 0.27229 0.11136 0.30497-0.82460 0.94690
  -6  -5   2 -20.161 40.6810   9 0.15097-0.57407-0.14828-0.26797 0.98852-0.86524
   6  -5  -2 87.1740 63.0845   4-0.14218 0.56640-0.14031-0.27630-0.98936 0.86653
  -6   5   2 31.0286 40.3845   6-0.34222-0.08109 0.50990-0.09388-0.83833 0.96097
   6   5  -2 34.8830 39.3261   2 0.49388-0.07041 0.35723 0.05938 0.86937-0.99194
   6   5  -2 -10.174 54.8027   5 0.58876-0.16604 0.24885 0.16741 0.86332-0.98580
  -6  -5   2 51.1461 39.3129   3-0.54026 0.11643-0.30620-0.11036-0.86901 0.99176
  -6   5   2 88.4058 51.4867   1 0.16267-0.58635 0.16355 0.25346 0.98638-0.86323
   6  -5  -2 159.589 77.3218   8 0.63085-0.20789-0.19745-0.21901 0.85261-0.97522
  -5   5   2 1803.96 197.490   6-0.34110-0.00539 0.50480-0.08877-0.84183 0.97844
  -5  -5   2 1606.86 173.292   9 0.18048-0.52680-0.07251-0.34378 0.99737-0.86023
  -5  -5   2 1625.73 181.104   3-0.55230 0.20539-0.31826-0.09828-0.85812 0.99485
   5   5  -2 1698.21 175.248   5 0.60782-0.26198 0.26127 0.15493 0.84792-0.98433
   5  -5  -2 1727.66 190.483   8 0.65681-0.31066-0.20872-0.20776 0.83200-0.96857
  -5   5   2 1465.40 162.586   1 0.17998-0.52683 0.07312 0.34396 0.99732-0.86015
   5  -5  -2 1257.45 156.044   4-0.17045 0.51771-0.06482-0.35178-0.99783 0.86107
  -5   5   2 1735.76 184.998   7-0.73223 0.38592 0.11888 0.29747-0.79262 0.92888
   4   5  -2 689.380 90.9443   6-0.18994 0.46023-0.01029 0.42759-0.99991 0.84878
   4  -5  -2 515.504 97.5778   4-0.19578 0.46610 0.00589-0.42247-0.99988 0.84918
  -4  -5   2 611.479 110.945   9 0.20724-0.47663-0.00055-0.41569 0.99967-0.84839
  -4   5   2 809.795 130.713   6-0.34200 0.07235 0.50885-0.09281-0.83906 0.98965
   4   5  -2 722.537 121.824   2 0.51338-0.24364 0.38610 0.03052 0.84700-0.99753
  -4  -5   2 614.996 108.489   3-0.57240 0.30240-0.33864-0.07787-0.83845 0.98916
   4   5  -2 692.238 115.210   5 0.63788-0.36888 0.28110 0.13501 0.82108-0.97139
  -4   5   2 627.451 107.192   1 0.19409-0.46408-0.00775 0.42490 0.99989-0.84870
   4  -5  -2 729.964 131.739   8 0.69647-0.42711-0.22616-0.19032 0.79636-0.94689
  -3   5   2 2409.13 210.723   1 0.20534-0.39846-0.07835 0.49554 0.99663-0.83142
   3   5  -2 2676.32 217.797   2 0.53252-0.33965 0.41522 0.00141 0.82213-0.98665
   3   5  -2 2974.57 208.338   6-0.15571 0.34909-0.10412 0.52149-0.99423 0.82908
  -3   5   2 2729.68 226.990   6-0.34501 0.15220 0.52277-0.10671-0.82932 0.99387
  -3  -5   2 2752.81 232.382   9 0.23083-0.42337 0.06580-0.48203 0.99656-0.83128
  -3  -5   2 2685.01 222.855   3-0.60177 0.40871-0.36910-0.04738-0.80592 0.97058
   3   5  -2 1613.80 186.255   5 0.68087-0.48869 0.31012 0.10591 0.77630-0.94046
   3  -5  -2 2433.77 212.232   4-0.21810 0.41148 0.07088-0.48743-0.99679 0.83215
  -2   5   2 19.2274 44.1830   1 0.21409-0.33033-0.13809 0.55532 0.98982-0.81060
   2   5  -2 16.0294 39.3975   6-0.13227 0.24874-0.16547 0.58284-0.98505 0.80590
   2   5  -2 69.0016 46.2584   2 0.55842-0.44238 0.45601-0.03939 0.78300-0.96149
   2  -5  -2 12.2349 31.4672   4-0.23733 0.35378 0.12920-0.54569-0.98991 0.81135
  -2  -5   2 32.9274 46.9330   9 0.25127-0.36698 0.12581-0.54204 0.98940-0.81012
  -2   5   2 34.7870 38.5523   6-0.35012 0.23416 0.54712-0.13106-0.81134 0.98985
   1   5  -2 204.361 69.2703   6-0.11748 0.15702-0.20306 0.62044-0.97723 0.78409
   1  -5  -2 174.370 55.7899   4-0.25341 0.29296 0.17986-0.59630-0.98074 0.78824
  -1  -5   2 220.193 73.0879   9 0.26849-0.30737 0.17849-0.59470 0.97964-0.78637
  -1   5   2 256.774 69.8724   1 0.22065-0.26000-0.18656 0.60381 0.98152-0.78828
  -1   5   2 228.516 69.6163   6-0.35704 0.31792 0.58217-0.16611-0.78327 0.97572
 -10   6   2 23.0144 76.5576   7-0.68806-0.04236 0.10987 0.38971-0.83050 0.89688
  -9   6   2 145.435 84.9745   7-0.68775 0.03417 0.10980 0.38980-0.83075 0.91111
  -9   6   2 128.893 89.0932   6-0.35295-0.30079 0.56116-0.06191-0.80042 0.88108
  -9  -6   2 127.855 90.0296   9 0.04200-0.69562-0.40078-0.09877 0.90760-0.82627
   9   6  -2 83.0922 84.7654   2 0.50519 0.14890 0.37390 0.12605 0.85673-0.93733
  -9  -6   2 189.346 109.921   3-0.54928-0.10527-0.31522-0.18476-0.86091 0.94168
   9   6  -2 226.819 102.629   5 0.59362 0.05973 0.25200 0.24783 0.85950-0.93997
   9  -6  -2 200.594 119.587   8 0.63119 0.02228-0.19760-0.30216 0.85236-0.93302
  -8   6   2 162.171 97.9065   7-0.69408 0.11734 0.11109 0.38854-0.82568 0.92001
   8  -6  -2 -43.202 99.9153   4-0.06914 0.64724-0.32100-0.17893-0.94135 0.84638
  -8   6   2 140.356 94.1938   6-0.34770-0.22924 0.53545-0.03617-0.82011 0.91476
  -8  -6   2 63.8622 82.1534   9 0.07545-0.65222-0.32746-0.17208 0.93987-0.84457
   8   6  -2 0.18007 66.2150   2 0.49985 0.07736 0.36600 0.13395 0.86281-0.95741
   8   6  -2 234.499 99.7031   5 0.59214-0.01568 0.25104 0.24874 0.86068-0.95514
  -8  -6   2 250.624 103.697   3-0.54534-0.03231-0.31127-0.18870-0.86450 0.95925
   8  -6  -2 148.857 79.4900   8 0.63244-0.05583-0.19814-0.30162 0.85141-0.94605
  -7   6   2 995.520 169.357   7-0.70885 0.20893 0.11409 0.38554-0.81342 0.92172
   7  -6  -2 768.118 156.012   4-0.09892 0.60005-0.24967-0.25029-0.96518 0.85629
  -7   6   2 1122.10 183.068   6-0.34361-0.15652 0.51624-0.01695-0.83393 0.94257
  -7  -6   2 718.542 147.334   9 0.10642-0.60635-0.25637-0.24318 0.96404-0.85477
   7   6  -2 854.914 180.629   2 0.49786 0.00247 0.36307 0.13688 0.86502-0.97361
   7   6  -2 1029.15 162.337   5 0.59618-0.09662 0.25367 0.24607 0.85747-0.96592
  -7  -6   2 974.904 168.477   3-0.54573 0.04498-0.31166-0.18829-0.86414 0.97290
   7  -6  -2 1002.30 175.323   8 0.64036-0.14060-0.20157-0.29819 0.84529-0.95391
  -6   6   2 226.250 83.0071   7-0.73427 0.31117 0.11930 0.38035-0.79072 0.91298
   6  -6  -2 235.270 90.2052   4-0.12618 0.55035-0.18160-0.31837-0.98192 0.85911
  -6   6   2 46.0073 46.1390   1 0.15357-0.57728 0.20784 0.29251 0.97784-0.85466
  -6   6   2 175.598 69.9485   6-0.34094-0.08238 0.50404-0.00472-0.84234 0.96497
  -6  -6   2 196.480 82.1877   9 0.13489-0.55796-0.18812-0.31142 0.98115-0.85788
   6   6  -2 127.705 76.4633   2 0.49980-0.07634 0.36592 0.13403 0.86287-0.98544
   6   6  -2 150.979 68.3495   5 0.60701-0.18434 0.26074 0.23894 0.84860-0.97101
  -6  -6   2 182.212 72.0521   3-0.55129 0.12746-0.31724-0.18270-0.85906 0.98180
   6  -6  -2 60.2822 79.5522   8 0.65664-0.23370-0.20865-0.29112 0.83214-0.95473
   5  -6  -2 -46.323 62.6232   4-0.15086 0.49808-0.11749-0.38247-0.99261 0.85587
  -5  -6   2 81.2449 54.2228   9 0.16075-0.50698-0.12358-0.37599 0.99214-0.85491
  -5   6   2 -26.412 51.7703   6-0.33990-0.00657 0.49938-0.00004-0.84548 0.98210
   5   6  -2 54.4857 45.0697   2 0.50628-0.15970 0.37552 0.12443 0.85546-0.99201
  -5  -6   2 -13.930 38.4873   3-0.56302 0.21611-0.32909-0.17082-0.84786 0.98459
   5   6  -2 59.8259 59.5021   5 0.62614-0.28035 0.27332 0.22627 0.83195-0.96829
   5  -6  -2 54.0295 50.1230   8 0.68329-0.33716-0.22033-0.27943 0.80880-0.94535
  -5   6   2 90.1188 55.9794   1 0.16901-0.51589 0.13142 0.36900 0.99125-0.85407
  -4   6   2 53.8412 48.2987   1 0.18180-0.45180 0.06317 0.43732 0.99800-0.84681
   4  -6  -2 -16.222 47.0557   4-0.17292 0.44318-0.05806-0.44185-0.99827 0.84759
   4   6  -2 63.7722 43.3460   6-0.22486 0.49521 0.09141 0.40920-0.99482 0.84366
  -4  -6   2 152.511 91.1994   9 0.18392-0.45334-0.06343-0.43616 0.99799-0.84683
  -4   6   2 101.979 62.8039   6-0.34067 0.07104 0.50284-0.00348-0.84315 0.99375
   4   6  -2 71.3489 76.6571   2 0.51795-0.24822 0.39298 0.10697 0.84134-0.99188
  -4  -6   2 63.6961 59.7056   3-0.58198 0.31200-0.34848-0.15140-0.82836 0.97906
   4   6  -2 73.8469 64.8792   5 0.65527-0.38634 0.29275 0.20675 0.80395-0.95418
   4  -6  -2 21.7616 55.1049   8 0.72254-0.45319-0.23780-0.26197 0.76977-0.92027
   3   6  -2 294.875 71.4003   6-0.19558 0.38902 0.00569 0.49500-0.99989 0.83474
   3  -6  -2 354.611 93.7530   4-0.19228 0.38562-0.00409-0.49579-0.99994 0.83532
   3   6  -2 254.137 85.9290   2 0.53530-0.34243 0.41951 0.08043 0.81826-0.98277
  -3  -6   2 265.302 96.9557   9 0.20453-0.39702-0.00800-0.49151 0.99970-0.83439
  -3   6   2 159.327 60.6644   6-0.34333 0.15056 0.51498-0.01561-0.83481 0.99937
  -3  -6   2 205.436 77.1684   3-0.60912 0.41608-0.37685-0.12299-0.79699 0.96164
  -3   6   2 160.821 57.5907   1 0.19218-0.38532 0.00368 0.49686 0.99994-0.83474
  -2   6   2 1875.07 201.290   1 0.20040-0.31666-0.04656 0.54714 0.99874-0.81953
   2   6  -2 1415.61 171.275   2 0.55856-0.44253 0.45625 0.04370 0.78276-0.96125
   2   6  -2 1786.31 186.212   6-0.17418 0.29071-0.05414 0.55486-0.99850 0.81936
  -2   6   2 1824.54 201.807   6-0.34788 0.23196 0.53628-0.03690-0.81949 0.99801
  -2  -6   2 1848.03 211.414   9 0.22220-0.33787 0.04120-0.54070 0.99830-0.81897
   2  -6  -2 1946.88 202.241   4-0.20886 0.32529 0.04366-0.54348-0.99867 0.82012
   1   6  -2 586.328 115.037   6-0.15957 0.19917-0.09382 0.59454-0.99534 0.80222
   1  -6  -2 519.399 111.935   4-0.22261 0.26214 0.08436-0.58412-0.99554 0.80307
  -1  -6   2 411.792 105.887   9 0.23699-0.27583 0.08363-0.58311 0.99487-0.80154
  -1   6   2 477.686 101.398   1 0.20667-0.24605-0.08713 0.58775 0.99586-0.80264
  -1   6   2 563.750 119.479   6-0.35412 0.31507 0.56703-0.06765-0.79572 0.98818
   1  -6  -2 -11.676 36.6602   9-0.06826 0.10755-0.61781 0.11776 0.75790-0.95117
   0   6   2 1516.81 171.185   1 0.21118-0.17365-0.11765 0.61828 0.99257-0.78535
   0   6  -2 1270.10 157.313   6-0.15072 0.11341-0.11737 0.61809-0.99262 0.78551
   0  -6   2 1668.48 187.436   9 0.24880-0.21081 0.11840-0.61788 0.99051-0.78318
   0  -6  -2 1131.88 143.071   4-0.23342 0.19606 0.11715-0.61684-0.99165 0.78525
   1   6   2 13.6896 28.8229   1 0.21404-0.09962-0.13773 0.63838 0.98987-0.76866
  -1  -6  -2 7.80952 26.7557   4-0.24115 0.12693 0.14108-0.64070-0.98803 0.76770
  -1  -6  -2 -20.723 39.7500   9-0.06468-0.04971-0.61136 0.11137 0.76380-0.98502
   2   6   2 12.5582 34.7865   1 0.21533-0.02401-0.14696 0.64761 0.98849-0.75328
  -2  -6  -2 -27.337 52.7001   9-0.06953-0.12171-0.62010 0.12014 0.75577-0.99097
   9  -7  -2 72.0595 82.3916   4-0.02990 0.68492-0.41037-0.17293-0.90164 0.82059
  -9   7   2 6.11729 69.6058   7-0.72425 0.07071 0.11724 0.46569-0.79992 0.88024
  -9   7   2 -72.407 82.1560   6-0.35257-0.30119 0.55925 0.02330-0.80193 0.88257
  -9  -7   2 52.6885 94.5056   9 0.03515-0.68874-0.41534-0.16750 0.90023-0.81892
   9  -7  -2 47.5401 95.5675   8 0.65700-0.00359-0.20880-0.37427 0.83184-0.91248
   8  -7  -2 -102.02 82.6263   4-0.05882 0.63686-0.34502-0.23830-0.93181 0.83686
  -8   7   2 25.0548 72.7035   7-0.73333 0.15663 0.11911 0.46383-0.79160 0.88589
  -8   7   2 160.823 97.5875   6-0.34781-0.22914 0.53598 0.04661-0.81972 0.91436
  -8  -7   2 -70.682 89.9089   9 0.06514-0.64188-0.35044-0.23242 0.93059-0.83531
   8   7  -2 -56.537 72.7296   2 0.50838 0.06883 0.37863 0.20465 0.85300-0.94760
  -8  -7   2 169.747 83.8548   3-0.55911-0.01856-0.32511-0.25823-0.85168 0.94642
   8   7  -2 -73.312 72.0684   5 0.61287-0.03644 0.26458 0.31864 0.84364-0.93801
   8  -7  -2 -71.573 67.9829   8 0.66010-0.08353-0.21015-0.37291 0.82924-0.92386
  -7   7   2 1207.75 197.265   7-0.75083 0.25094 0.12272 0.46023-0.77476 0.88302
   7  -7  -2 1327.74 219.266   4-0.08538 0.58647-0.28247-0.30085-0.95504 0.84618
  -7  -7   2 1428.44 214.686   9 0.09280-0.59269-0.28804-0.29482 0.95410-0.84484
  -7   7   2 1495.67 222.601   6-0.34413-0.15599 0.51868 0.06393-0.83222 0.94085
   7   7  -2 1120.42 211.316   2 0.50696-0.00663 0.37652 0.20676 0.85467-0.96326
   7   7  -2 1629.58 214.090   5 0.61809-0.11857 0.26801 0.31515 0.83912-0.94748
  -7  -7   2 1177.13 192.850   3-0.56025 0.05950-0.32628-0.25705-0.85056 0.95930
   7  -7  -2 1352.77 214.386   8 0.66976-0.17002-0.21437-0.36867 0.82095-0.92954
   6  -7  -2 754.683 160.366   4-0.10960 0.53372-0.22332-0.36000-0.97233 0.84955
  -6   7   2 705.119 156.079   6-0.34176-0.08154 0.50777 0.07488-0.83980 0.96243
  -6  -7   2 652.399 137.342   9 0.11810-0.54115-0.22873-0.35413 0.97167-0.84844
   6   7  -2 497.338 138.396   2 0.50916-0.08571 0.37980 0.20348 0.85207-0.97465
  -6  -7   2 596.451 139.673   3-0.56624 0.14241-0.33236-0.25096-0.84468 0.96741
   6   7  -2 517.901 119.821   5 0.62976-0.20714 0.27572 0.30737 0.82865-0.95097
   6  -7  -2 1064.73 206.929   8 0.68746-0.26454-0.22217-0.36088 0.80494-0.92750
   5  -7  -2 869.467 164.380   4-0.13144 0.47862-0.16812-0.41516-0.98457 0.84785
  -5  -7   2 866.837 156.226   9 0.14103-0.48721-0.17302-0.40982 0.98417-0.84690
  -5   7   2 941.249 167.066   6-0.34085-0.00560 0.50368 0.07900-0.84259 0.97920
   5   7  -2 740.613 161.566   2 0.51548-0.16890 0.38928 0.19400 0.84441-0.98096
  -5   7   2 865.758 157.333   1 0.15810-0.50500 0.18602 0.39774 0.98232-0.84511
  -5  -7   2 859.265 154.740   3-0.57789 0.23100-0.34428-0.23903-0.83272 0.96943
   5   7  -2 847.977 152.285   5 0.64917-0.30342 0.28864 0.29435 0.81010-0.94634
   5  -7  -2 573.392 147.773   8 0.71492-0.36880-0.23438-0.34866 0.77782-0.91435
   4  -7  -2 180.564 80.1779   4-0.15085 0.42108-0.11752-0.46574-0.99261 0.84195
   4   7  -2 129.580 60.9644   6-0.25166 0.52208 0.17446 0.40946-0.98187 0.83067
   4   7  -2 236.496 90.8726   2 0.52643-0.25670 0.40586 0.17741 0.83039-0.98092
  -4  -7   2 125.511 69.5044   9 0.16146-0.43081-0.12176-0.46111 0.99238-0.84116
  -4   7   2 200.441 77.8883   6-0.34156 0.07196 0.50686 0.07583-0.84042 0.99101
  -4  -7   2 288.627 102.872   3-0.59603 0.32608-0.36309-0.22019-0.81265 0.96333
   4   7  -2 146.804 73.6294   5 0.67764-0.40877 0.30791 0.27497 0.77996-0.93008
  -4   7   2 260.288 96.7270   1 0.16979-0.43983 0.12741 0.45641 0.99179-0.84058
   3   7  -2 2881.58 240.831   6-0.22655 0.42005 0.09651 0.48749-0.99425 0.82908
  -3   7   2 2774.74 268.915   6-0.34393 0.15120 0.51777 0.06494-0.83286 0.99741
  -3  -7   2 2888.42 277.540   9 0.17934-0.37188-0.07549-0.50741 0.99715-0.83200
  -3  -7   2 3180.30 285.150   3-0.62139 0.42837-0.38995-0.19329-0.78127 0.94590
  -3   7   2 2722.59 264.101   1 0.17937-0.37254 0.07650 0.50737 0.99706-0.83186
   3  -7  -2 2455.62 252.570   4-0.16777 0.36108-0.07212-0.51107-0.99730 0.83271
   2   7  -2 -36.751 43.5043   6-0.20735 0.32394 0.03960 0.54444-0.99888 0.81972
   2  -7  -2 -111.02 87.7207   4-0.18212 0.29852-0.03262-0.55053-0.99947 0.82094
   2   7  -2 17.5388 36.7544   2 0.56348-0.44744 0.46422 0.11905 0.77447-0.95297
  -2  -7   2 -93.419 90.1536   9 0.19481-0.31044-0.03437-0.54840 0.99932-0.81996
  -2   7   2 -68.906 61.1529   6-0.34799 0.23212 0.53680 0.04591-0.81911 0.99762
  -2   7   2 -82.063 63.4794   1 0.18702-0.30330 0.03372 0.55021 0.99942-0.82021
  -1   7   2 3588.75 294.983   1 0.19289-0.23229-0.00055 0.58451 0.99994-0.80673
   1   7  -2 3592.89 290.645   6-0.19352 0.23318-0.00017 0.58423-0.99993 0.80680
  -1   7   2 3851.87 309.617   6-0.35356 0.31456 0.56420 0.01851-0.79799 0.99045
  -1  -7   2 3795.36 312.334   9 0.20744-0.24623 0.00000-0.58276 0.99966-0.80630
   1  -7  -2 3338.49 277.441   4-0.19382 0.23332 0.00028-0.58336-0.99993 0.80747
   8  -8  -2 -18.375 79.2791   4-0.04677 0.62475-0.37259-0.29410-0.91984 0.82491
  -8   8   2 81.1626 72.2026   6-0.34943-0.22753 0.54372 0.12219-0.81392 0.90855
  -8  -8   2 -20.132 96.8201   9 0.05297-0.62968-0.37712-0.28903 0.91887-0.82360
   8   8  -2 359.626 129.816   5 0.63702-0.06063 0.28053 0.38612 0.82189-0.91614
   8  -8  -2 243.396 127.909   8 0.69170-0.11516-0.22404-0.44230 0.80094-0.89553
   7  -8  -2 52.0120 66.7900   4-0.07073 0.57176-0.31726-0.34942-0.94277 0.83393
   7   8  -2 -7.1286 71.3793   2 0.51853-0.01822 0.39387 0.27275 0.84060-0.94919
  -7   8   2 109.824 106.205   6-0.34616-0.15396 0.52814 0.13781-0.82545 0.93407
  -7  -8   2 -47.537 78.0042   9 0.07794-0.57780-0.32187-0.34429 0.94202-0.83277
  -7  -8   2 61.3101 85.1197   3-0.57768 0.07694-0.34407-0.32266-0.83294 0.94165
   7   8  -2 250.710 124.385   5 0.64345-0.14397 0.28483 0.38176 0.81572-0.92395
   7  -8  -2 198.478 115.438   8 0.70311-0.20340-0.22911-0.43723 0.78985-0.89842
   6  -8  -2 420.239 131.176   4-0.09249 0.51656-0.26534-0.40133-0.96051 0.83774
   6   8  -2 466.907 140.225   2 0.52104-0.09760 0.39767 0.26893 0.83741-0.95998
  -6   8   2 615.079 159.149   6-0.34408-0.07920 0.51842 0.14756-0.83240 0.95501
  -6  -8   2 466.085 134.493   9 0.10068-0.52370-0.26980-0.39637 0.95999-0.83676
  -6  -8   2 547.667 141.341   3-0.58415 0.16033-0.35073-0.31597-0.82600 0.94870
   6   8  -2 622.619 160.975   5 0.65601-0.23343 0.29324 0.37326 0.80320-0.92538
   6  -8  -2 161.808 124.766   8 0.72221-0.29930-0.23765-0.42867 0.77012-0.89266
   5  -8  -2 -17.913 89.8369   4-0.11200 0.45913-0.21735-0.44928-0.97383 0.83714
  -5   8   2 141.875 100.205   1 0.14712-0.49403 0.23813 0.42896 0.97076-0.83353
   5   8  -2 -24.732 57.1198   2 0.52730-0.18073 0.40721 0.25939 0.82922-0.96577
  -5   8   2 216.599 114.371   6-0.34333-0.00310 0.51492 0.15109-0.83485 0.97145
  -5  -8   2 -32.239 73.2030   9 0.12115-0.46733-0.22142-0.44476 0.97353-0.83632
  -5  -8   2 -42.279 51.5595   3-0.59582 0.24893-0.36286-0.30384-0.81291 0.94958
   5   8  -2 21.7397 49.4740   5 0.67572-0.33004 0.30660 0.35980 0.78211-0.91820
  -4   8   2 3042.96 310.127   6-0.34399 0.07443 0.51802 0.14802-0.83268 0.98326
  -4  -8   2 3214.76 321.672   9 0.13933-0.40866-0.17722-0.48895 0.98335-0.83214
  -4  -8   2 2806.47 290.830   3-0.61333 0.34340-0.38132-0.28533-0.79171 0.94235
  -4   8   2 3181.35 311.611   1 0.15788-0.42794 0.18712 0.48003 0.98210-0.83088
   4  -8  -2 2840.99 302.297   4-0.12923 0.39942-0.17380-0.49279-0.98348 0.83284
   3  -8  -2 -50.649 82.6802   4-0.14411 0.33738-0.13527-0.53127-0.99013 0.82556
   3   8  -2 36.6919 69.6745   6-0.25191 0.44547 0.17523 0.49208-0.98171 0.81649
   3   8  -2 54.9481 58.2206   2 0.55251-0.35964 0.44654 0.22004 0.79256-0.95708
  -3  -8   2 -1.7519 66.5843   9 0.15513-0.34760-0.13783-0.52834 0.99014-0.82491
  -3   8   2 99.8556 88.1541   6-0.34614 0.15345 0.52805 0.13801-0.82552 0.99005
  -3   8   2 46.9410 61.4602   1 0.16675-0.35994 0.14300 0.52421 0.98962-0.82440
  -2   8   2 927.999 173.480   1 0.17385-0.29015 0.10618 0.56109 0.99432-0.81511
   2  -8  -2 975.949 184.052   4-0.15656 0.27294-0.10232-0.56414-0.99444 0.81594
   2   8  -2 1003.68 178.912   6-0.23476 0.35141 0.12152 0.54584-0.99105 0.81186
  -2  -8   2 1076.52 195.866   9 0.16846-0.28409-0.10380-0.56234 0.99452-0.81528
  -2   8   2 948.184 175.002   6-0.34976 0.23394 0.54534 0.12071-0.81269 0.99118
  -1   8   2 667.146 156.833   1 0.17928-0.21870 0.07697 0.59032 0.99703-0.80382
   1  -8  -2 447.726 119.055   4-0.16648 0.20596-0.07563-0.59078-0.99702 0.80458
   1   8  -2 728.854 154.069   6-0.22191 0.26164 0.08255 0.58483-0.99573 0.80257
  -1  -8   2 585.427 146.790   9 0.17915-0.21798-0.07600-0.59020 0.99711-0.80394
  -1   8   2 346.738 117.042   6-0.35472 0.31578 0.57010 0.09595-0.79323 0.98566
   1  -8  -2 -56.327 60.3661   9-0.06434 0.10369-0.61074-0.05591 0.76436-0.95760
   0   8  -2 2352.51 254.166   6-0.21303 0.17583 0.05619 0.61120-0.99791 0.79078
   0   8   2 2742.43 239.474   2 0.26769-0.23004 0.05720 0.60936 0.99445-0.78800
   0  -8   2 2282.42 247.817   9 0.18718-0.14917-0.05480-0.61139 0.99848-0.79129
   0   8   2 131.925 73.1969   6-0.36079 0.39871 0.60239 0.06365-0.76578 0.97213
   0   8   2 2719.08 271.978   1 0.18312-0.14564 0.05579 0.61153 0.99844-0.79124
   0  -8  -2 2337.66 247.403   4-0.17372 0.13633-0.05587-0.61046-0.99840 0.79203
  -1  -8  -2 -1.8874 56.3421   4-0.17807 0.06383-0.04388-0.62237-0.99903 0.77873
  -1  -8  -2 -22.873 38.9847   9-0.06180-0.05253-0.60614-0.06046 0.76851-0.98971
   1   8   2 -59.802 52.7002   2 0.25057-0.13606 0.03633 0.63025 0.99686-0.77640
   7   9  -2 491.005 165.914   5 0.67149-0.17205 0.30371 0.44631 0.78679-0.89485
   6  -9  -2 168.310 125.796   4-0.07483 0.49886-0.30760-0.44240-0.94634 0.82360
   6   9  -2 60.9656 86.1913   2 0.53476-0.11133 0.41867 0.33125 0.81902-0.94158
  -6   9   2 556.060 159.647   6-0.34745-0.07581 0.53423 0.21511-0.82100 0.94359
  -6  -9   2 195.495 118.625   9 0.08263-0.50562-0.31126-0.43821 0.94597-0.82275
  -6  -9   2 465.357 147.142   3-0.60426 0.18045-0.37172-0.37839-0.80293 0.92558
   6   9  -2 -85.646 90.2450   5 0.68486-0.26233 0.31285 0.43707 0.77170-0.89371
   5  -9  -2 103.173 103.206   4-0.09240 0.43949-0.26554-0.48442-0.96044 0.82377
   5   9  -2 33.3048 89.1298   2 0.54100-0.19442 0.42837 0.32155 0.81009-0.94664
  -5  -9   2 146.949 102.102   9 0.10108-0.44723-0.26886-0.48062 0.96028-0.82307
  -5   9   2 49.4642 101.382   6-0.34683 0.00043 0.53130 0.21806-0.82315 0.95972
  -5  -9   2 15.0658 61.2943   3-0.61596 0.26909-0.38413-0.36596-0.78835 0.92498
   4  -9  -2 1020.33 212.240   4-0.10780 0.37796-0.22780-0.52212-0.97118 0.82057
   4   9  -2 1239.85 218.474   2 0.55093-0.28121 0.44402 0.30588 0.79505-0.94558
  -4  -9   2 1322.30 236.942   9 0.11732-0.38663-0.23058-0.51891 0.97119-0.82000
  -4   9   2 1373.78 239.661   6-0.34748 0.07795 0.53439 0.21499-0.82089 0.97143
   3  -9  -2 95.1854 109.591   4-0.12095 0.31420-0.19486-0.55500-0.97910 0.81456
   3   9  -2 -50.731 50.7446   2 0.56474-0.37187 0.46627 0.28363 0.77230-0.93680
   3   9  -2 34.5913 90.1580   6-0.27346 0.46708 0.24591 0.50470-0.96416 0.79887
  -3   9   2 84.1491 85.4717   1 0.15416-0.34736 0.20503 0.54552 0.97845-0.81321
  -3  -9   2 -2.4916 82.0490   9 0.13128-0.32375-0.19694-0.55256 0.97926-0.81409
  -3   9   2 71.8386 90.6757   6-0.34944 0.15678 0.54377 0.20563-0.81388 0.97838
   2  -9  -2 240.533 119.155   4-0.13178 0.24813-0.16726-0.58254-0.98473 0.80625
   2   9  -2 209.243 90.9872   6-0.25814 0.37485 0.19529 0.55539-0.97734 0.79811
  -2  -9   2 218.349 114.894   9 0.14290-0.25853-0.16839-0.58109 0.98504-0.80582
  -2   9   2 283.666 123.466   6-0.35266 0.23690 0.55970 0.18971-0.80157 0.98002
  -2   9   2 253.476 96.9794   1 0.16076-0.27708 0.17303 0.57756 0.98473-0.80550
   1  -9  -2 254.444 104.185   4-0.14016 0.17963-0.14558-0.60414-0.98852 0.79611
   1   9  -2 197.955 99.0686   6-0.24632 0.28611 0.15749 0.59321-0.98517 0.79196
  -1  -9   2 319.947 107.503   9 0.15202-0.19080-0.14566-0.60382 0.98893-0.79572
  -1   9   2 473.970 152.301   6-0.35708 0.31819 0.58236 0.16706-0.78311 0.97550
   1  -9  -2 -220.81 85.9643   9-0.06937 0.10875-0.61980-0.13016 0.75605-0.94928
  -1   9   2 487.140 138.993   1 0.16577-0.20520 0.14798 0.60265 0.98888-0.79566
   0  -9  -2 34.3816 53.8028   4-0.14594 0.10855-0.13046-0.61919-0.99083 0.78449
   0   9  -2 62.0852 90.7645   6-0.23780 0.20068 0.13091 0.61980-0.98966 0.78249
   0  -9   2 36.7766 60.8951   9 0.15847-0.12043-0.12938-0.62012 0.99135-0.78415
   0   9   2 -55.870 58.0017   6-0.36246 0.40044 0.61176 0.13764-0.75735 0.96365
   0  -9  -2 -32.369 68.8885   9-0.06618 0.02871-0.61406-0.13587 0.76134-0.96856
   0   9   2 17.8228 65.7506   1 0.16924-0.13178 0.13022 0.62043 0.99142-0.78421
   1   9   2 27.8675 56.2107   1 0.17119-0.05684 0.12011 0.63055 0.99271-0.77152
  -1  -9  -2 29.1440 53.1442   4-0.14890 0.03467-0.12267-0.62692-0.99192 0.77165
   1   9   2 7.96027 37.9046   2 0.30879-0.19429 0.10817 0.64171 0.98536-0.76492
  -1  -9  -2 -79.760 57.0434   9-0.06660-0.04771-0.61482-0.13508 0.76065-0.98184
   2   9   2 76.4655 79.9535   1 0.17159 0.01967 0.11808 0.63258 0.99296-0.75777
  -2  -9  -2 41.1527 53.3612   4-0.14874-0.04232-0.12310-0.62643-0.99187 0.75767
   2   9   2 -20.474 38.6788   2 0.29724-0.10589 0.09373 0.65618 0.98841-0.75396
   3 -10  -2 69.5723 102.673   4-0.09805 0.29127-0.25181-0.58138-0.96456 0.80005
  -3 -10   2 96.0921 85.1213   9 0.10768-0.30012-0.25342-0.57939 0.96490-0.79972
  -3  10   2 117.521 94.6345   6-0.35344 0.16082 0.56356 0.26920-0.79850 0.96296
   2 -10  -2 505.927 143.883   4-0.10746 0.22379-0.22863-0.60448-0.97096 0.79252
  -2  10   2 952.404 200.956   1 0.14763-0.26395 0.23577 0.59814 0.97135-0.79209
   2  10  -2 315.818 121.591   6-0.27856 0.39532 0.26324 0.57074-0.95891 0.77960
  -2 -10   2 868.892 198.974   9 0.11778-0.23338-0.22949-0.60331 0.97147-0.79230
  -2  10   2 1102.96 232.473   6-0.35632 0.24060 0.57839 0.25438-0.78642 0.96483
   1 -10  -2 83.6539 71.7173   4-0.11451 0.15397-0.21109-0.62196-0.97536 0.78298
  -1  10   2 -5.0098 97.8991   1 0.15224-0.19169 0.21416 0.61978 0.97645-0.78320
  -1 -10   2 34.5965 79.3494   9 0.12545-0.16422-0.21107-0.62175 0.97604-0.78288
  -1  10   2 -30.147 49.4412   6-0.36023 0.32139 0.59930 0.23347-0.76852 0.96086
  -1 -10  -2 -56.020 52.7207   4-0.12075 0.00652-0.19537-0.63753-0.97898 0.75876
   1  10   2 185.003 95.7000   1 0.15700-0.04265 0.19139 0.64259 0.98126-0.76004
  12   0  -3 388.941 212.306   8 0.71708 0.14826-0.23535 0.23573 0.77557-0.91745
 -11   0   3 -43.026 73.4831   7-0.71784-0.07079 0.11593-0.11638-0.80563 0.96127
  11   0  -3 117.644 105.732   8 0.70985 0.07859-0.23211 0.23245 0.78306-0.93896
 -10   0   3 40.2008 73.2588   7-0.71545 0.00366 0.11544-0.11586-0.80772 0.97735
  10   0  -3 -37.951 86.7048   8 0.70700 0.00456-0.23084 0.23113 0.78595-0.95586
  -9   0   3 -76.672 70.3164   7-0.71881 0.08384 0.11613-0.11652-0.80477 0.98839
   9   0  -3 -119.51 102.471   8 0.70959-0.07490-0.23199 0.23223 0.78333-0.96722
  -7   0   3 -20.539 39.5843   7-0.74868 0.26736 0.12227-0.12259-0.77689 0.98846
   7   0  -3 -48.202 77.5899   8 0.73633-0.25535-0.24401 0.24416 0.75452-0.96636
  12   1  -3 -109.75 91.5983   5 0.68897 0.17561 0.31569-0.23307 0.76688-0.90855
  12   1  -3 -135.90 198.471   8 0.73595 0.12939-0.24385 0.32760 0.75495-0.89677
 -11   1   3 122.388 79.8972   7-0.71233-0.07627 0.11480-0.03194-0.81043 0.96607
 -11  -1   3 239.186 145.338   7-0.72975-0.05891 0.11837-0.20215-0.79491 0.95056
  11   1  -3 -44.957 76.4670   5 0.68063 0.10713 0.30996-0.22734 0.77657-0.93225
  11  -1  -3 15.6981 96.8725   8 0.69651 0.09190-0.22617 0.14314 0.79633-0.95227
  11   1  -3 22.4541 76.6045   8 0.72991 0.05855-0.24112 0.32481 0.76172-0.91757
 -10   1   3 74.7810 58.7270   7-0.70957-0.00219 0.11424-0.03134-0.81280 0.98243
 -10  -1   3 105.196 76.7053   7-0.72823 0.01640 0.11806-0.20179-0.79630 0.96594
  10   1  -3 246.310 117.644   5 0.67614 0.03481 0.30689-0.22428 0.78164-0.95131
  10  -1  -3 38.3620 83.2527   8 0.69278 0.01875-0.22452 0.14145 0.79991-0.96985
  10   1  -3 11.7530 97.5804   8 0.72847-0.01690-0.24047 0.32411 0.76331-0.93317
  -9   1   3 27.5462 64.0404   7-0.71242 0.07749 0.11482-0.03190-0.81035 0.99395
  -9  -1   3 129.664 88.7204   7-0.73262 0.09762 0.11896-0.20267-0.79226 0.97588
   9   1  -3 106.468 66.8363   5 0.67639-0.04225 0.30706-0.22446 0.78136-0.96500
   9  -1  -3 240.858 113.472   8 0.69426-0.05960-0.22518 0.14207 0.79849-0.98242
   9   1  -3 -48.108 101.655   8 0.73273-0.09802-0.24238 0.32599 0.75858-0.94243
   8   1  -3 738.912 149.996   5 0.68244-0.12510 0.31121-0.22860 0.77449-0.97209
   8  -1  -3 2208.29 274.704   8 0.70215-0.14435-0.22868 0.14553 0.79080-0.98870
  -8   1   3 1637.25 213.091   7-0.72229 0.16418 0.11684-0.03388-0.80168 0.99927
  -8  -1   3 1415.75 192.335   7-0.74435 0.18618 0.12138-0.20504-0.78113 0.97873
  -7   1   3 147.493 73.8272   7-0.74079 0.25951 0.12064-0.03765-0.78456 0.99612
  -7  -1   3 -0.5023 39.6540   7-0.76507 0.28371 0.12567-0.20931-0.76021 0.97179
   7  -1  -3 22.5764 44.0094   4-0.23953 0.72230 0.13601-0.21911-0.98886 0.77642
  -7  -1   3 75.5472 45.7516   9 0.24668-0.72803 0.11210-0.19513 0.99140-0.77867
   7  -1  -3 55.4816 62.8417   8 0.71790-0.23693-0.23571 0.15251 0.77471-0.98658
 -11   2   3 121.459 88.6450   7-0.71302-0.07554 0.11495 0.05125-0.80983 0.96546
 -11  -2   3 121.039 110.406   7-0.74814-0.04056 0.12216-0.28924-0.77743 0.93307
  11   2  -3 166.098 115.682   5 0.66877 0.11906 0.30187-0.13594 0.78975-0.94546
  11  -2  -3 76.4915 122.724   8 0.68956 0.09883-0.22309 0.05670 0.80297-0.95893
 -10   2   3 247.237 127.789   7-0.71037-0.00136 0.11440 0.05182-0.81212 0.98174
 -10  -2   3 248.284 98.8358   7-0.74798 0.03612 0.12213-0.28918-0.77758 0.94721
  10   2  -3 480.363 139.414   5 0.66367 0.04734 0.29841-0.13250 0.79522-0.96491
  10  -2  -3 507.223 165.985   8 0.68546 0.02605-0.22128 0.05485 0.80680-0.97676
  -9   2   3 623.858 144.497   7-0.71323 0.07834 0.11499 0.05127-0.80965 0.99324
  -9  -2   3 448.921 121.165   7-0.75392 0.11888 0.12336-0.29037-0.77167 0.95529
  -9  -2   3 309.835 92.5028   3-0.62883-0.00684-0.39798 0.23151-0.77122 0.95532
   9   2  -3 986.226 187.340   5 0.66306-0.02889 0.29800-0.13210 0.79586-0.97953
   9  -2  -3 903.154 189.732   8 0.68636-0.05173-0.22168 0.05522 0.80596-0.98991
  -8   2   3 1081.75 187.040   7-0.72298 0.16491 0.11698 0.04930-0.80107 0.99864
   8   2  -3 1239.13 186.460   5 0.66794-0.11057 0.30131-0.13542 0.79065-0.98828
   8  -2  -3 1363.11 214.456   8 0.69342-0.13564-0.22480 0.05831 0.79930-0.99721
  -7   2   3 114.629 63.1557   7-0.74117 0.25991 0.12072 0.04559-0.78420 0.99574
   7  -2  -3 184.166 78.7138   4-0.22089 0.70361 0.07920-0.24566-0.99604 0.78366
  -7  -2   3 147.346 52.1566   9 0.22914-0.71042 0.06095-0.22726 0.99696-0.78420
   7   2  -3 84.1536 56.3002   5 0.67944-0.19888 0.30915-0.14328 0.77792-0.98949
  -7   2   3 178.108 66.3251   1 0.21036-0.69199-0.11199 0.27914 0.99326-0.78054
   7  -2  -3 57.5869 63.6855   8 0.70800-0.22706-0.23129 0.06476 0.78494-0.99682
   6  -2  -3 41.3075 65.6403   8 0.73156-0.32745-0.24187 0.07530 0.75989-0.98572
 -11   3   3 1056.93 222.197   7-0.71965-0.06888 0.11630 0.13322-0.80403 0.95965
 -11  -3   3 1133.88 221.270   3-0.62692-0.16250-0.39591 0.14609-0.77384 0.92998
  11   3  -3 1443.47 258.603   5 0.66294 0.12496 0.29791-0.04864 0.79599-0.95170
  11  -3  -3 1626.90 280.968   8 0.68855 0.09980-0.22265-0.02710 0.80392-0.95988
 -10   3   3 1.35840 66.6709   7-0.71751 0.00582 0.11586 0.13369-0.80592 0.97552
 -10  -3   3 80.3216 81.6323   3-0.62036-0.09220-0.38884 0.13905-0.78263 0.95275
  10   3  -3 179.575 110.033   5 0.65767 0.05338 0.29436-0.04511 0.80149-0.97119
  10  -3  -3 -23.529 74.8947   8 0.68452 0.02696-0.22087-0.02891 0.80768-0.97764
  -9   3   3 466.414 137.417   7-0.72086 0.08600 0.11655 0.13302-0.80295 0.98654
  -9  -3   3 385.822 128.230   3-0.61733-0.01836-0.38559 0.13582-0.78659 0.97069
   9   3  -3 199.888 89.7964   5 0.65670-0.02249 0.29371-0.04447 0.80249-0.98618
   9  -3  -3 525.006 152.331   8 0.68532-0.05072-0.22123-0.02857 0.80693-0.99087
  -8   3   3 216.208 92.4894   7-0.73097 0.17293 0.11862 0.13098-0.79380 0.99135
   8  -3  -3 188.088 68.3912   4-0.15949 0.71913-0.09449-0.15527-0.99528 0.79684
  -8  -3   3 190.277 63.3703   9 0.16662-0.72463-0.10854-0.14103 0.99399-0.79512
  -8  -3   3 182.400 88.7407   3-0.61853 0.05972-0.38688 0.13713-0.78503 0.98311
   8   3  -3 435.368 117.526   5 0.66092-0.10355 0.29656-0.04735 0.79810-0.99575
   8  -3  -3 272.351 125.324   8 0.69206-0.13431-0.22420-0.02562 0.80060-0.99851
  -7   3   3 1571.84 205.190   1 0.19889-0.68057-0.03712 0.28763 0.99916-0.78644
  -7   3   3 825.827 146.764   7-0.74931 0.26810 0.12240 0.12723-0.77627 0.98779
   7  -3  -3 1390.43 197.986   4-0.20290 0.68557 0.02635-0.27617-0.99942 0.78708
  -7  -3   3 1233.11 170.277   9 0.21177-0.69298 0.01197-0.26158 0.99946-0.78668
  -7  -3   3 1116.04 171.422   3-0.62472 0.14279-0.39354 0.14381-0.77682 0.98888
   7   3  -3 1305.50 191.200   5 0.67141-0.19085 0.30367-0.05448 0.78688-0.99847
   7  -3  -3 1335.63 211.277   8 0.70600-0.22509-0.23039-0.01946 0.78696-0.99884
 -11  -4   3 752.466 196.018   3-0.62156-0.16790-0.39013 0.05699-0.78105 0.93718
 -10   4   3 214.784 129.312   7-0.73060 0.01894 0.11855 0.21433-0.79413 0.96372
 -10  -4   3 98.3671 89.6640   3-0.61504-0.09754-0.38316 0.05004-0.78952 0.95964
  10   4  -3 -39.658 76.7856   5 0.65746 0.05364 0.29422 0.03842 0.80171-0.97141
  10  -4  -3 105.685 104.564   8 0.68940 0.02204-0.22302-0.11009 0.80312-0.97308
  -9   4   3 14.4045 63.7447   7-0.73481 0.09999 0.11941 0.21349-0.79022 0.97378
   9   4  -3 14.5788 45.6536   2 0.56295 0.07230 0.46335-0.13010 0.77538-0.95920
  -9  -4   3 131.591 102.544   3-0.61189-0.02383-0.37979 0.04670-0.79353 0.97762
   9   4  -3 87.9315 57.7917   5 0.65651-0.02228 0.29358 0.03903 0.80268-0.98637
   9  -4  -3 114.039 73.3736   8 0.69051-0.05594-0.22351-0.10962 0.80207-0.98601
  -8   4   3 155.973 79.4403   7-0.74568 0.18768 0.12165 0.21128-0.77983 0.97737
   8  -4  -3 167.517 88.4303   4-0.14778 0.70737-0.12562-0.20752-0.99152 0.79311
   8   4  -3 146.584 80.9337   2 0.56140-0.00304 0.46084-0.12758 0.77801-0.97582
  -8  -4   3 281.985 104.191   9 0.15546-0.71341-0.13699-0.19588 0.99026-0.79137
  -8  -4   3 104.343 66.7702   3-0.61272 0.05388-0.38067 0.04760-0.79249 0.99057
   8   4  -3 272.221 108.797   5 0.66052-0.10314 0.29628 0.03629 0.79853-0.99618
   8  -4  -3 441.578 145.862   8 0.69735-0.13962-0.22655-0.10661 0.79551-0.99342
  -7   4   3 -54.558 49.9983   7-0.76457 0.28338 0.12557 0.20738-0.76074 0.97224
   7  -4  -3 476.831 164.942   4-0.18515 0.66777-0.02416-0.30901-0.99970 0.78739
   7   4  -3 30.7855 53.8746   2 0.56338-0.08190 0.46407-0.13079 0.77463-0.98643
  -7  -4   3 257.090 97.2769   9 0.19431-0.67546-0.03571-0.29718 0.99928-0.78648
  -7  -4   3 178.911 88.0371   3-0.61822 0.13628-0.38654 0.05349-0.78544 0.99751
   7   4  -3 258.179 88.6585   5 0.67045-0.18990 0.30300 0.02953 0.78793-0.99953
  -7   4   3 413.894 128.387   1 0.18813-0.66983 0.02735 0.30650 0.99960-0.78688
   7  -4  -3 189.046 75.0732   8 0.71109-0.23019-0.23266-0.10051 0.78179-0.99366
   6  -4  -3 62.1728 115.842   4-0.21847 0.62412 0.07198-0.40518-0.99669 0.77046
  -6  -4   3 12.5545 52.6772   9 0.22914-0.63344 0.06096-0.39386 0.99696-0.77017
  -6   4   3 63.6714 106.758   1 0.20688-0.61175-0.08854 0.42245 0.99573-0.76895
  -6  -4   3 -23.378 57.6550   3-0.62908 0.22404-0.39825 0.06522-0.77088 0.99693
   6   4  -3 49.9137 73.0909   5 0.68730-0.28357 0.31453 0.01796 0.76886-0.99437
   6  -4  -3 5.36706 70.9565   8 0.73296-0.32888-0.24249-0.09070 0.75832-0.98415
 -10   5   3 114.551 97.5723   7-0.74914 0.03752 0.12237 0.29383-0.77644 0.94599
  10   5  -3 44.5335 86.8471   2 0.56353 0.14861 0.46430-0.04771 0.77438-0.94422
 -10  -5   3 53.9566 75.4593   3-0.61461-0.09801-0.38269-0.03376-0.79008 0.96018
  10   5  -3 283.181 171.205   5 0.66231 0.04881 0.29749 0.11854 0.79665-0.96632
  10  -5  -3 208.832 149.563   8 0.69950 0.01190-0.22750-0.18894 0.79341-0.96336
  -9   5   3 49.0132 66.5878   7-0.75452 0.11973 0.12348 0.29274-0.77107 0.95460
   9   5  -3 92.6161 97.5295   2 0.55905 0.07619 0.45703-0.04044 0.78195-0.96578
  -9  -5   3 126.156 103.438   3-0.61162-0.02412-0.37950-0.03694-0.79387 0.97797
   9   5  -3 138.799 87.9492   5 0.66170-0.02745 0.29708 0.11893 0.79729-0.98096
   9  -5  -3 239.646 139.433   8 0.70122-0.06668-0.22827-0.18819 0.79172-0.97564
  -8   5   3 -46.052 50.5029   7-0.76643 0.20846 0.12596 0.29029-0.75878 0.95628
   8  -5  -3 -130.62 112.279   4-0.13459 0.69412-0.16003-0.25648-0.98605 0.78768
   8   5  -3 100.702 73.6108   2 0.55743 0.00093 0.45443-0.03783 0.78462-0.98244
  -8  -5   3 55.5035 88.3915   9 0.14251-0.70041-0.16935-0.24680 0.98486-0.78595
  -8  -5   3 -81.999 94.5906   3-0.61238 0.05353-0.38031-0.03611-0.79291 0.99100
   8   5  -3 27.7629 65.6571   5 0.66582-0.10844 0.29987 0.11609 0.79292-0.99056
   8  -5  -3 -5.0805 65.8491   8 0.70849-0.15079-0.23151-0.18496 0.78444-0.98233
  -7   5   3 243.819 115.371   1 0.17765-0.65938 0.08586 0.33134 0.99630-0.78356
   7  -5  -3 175.827 146.369   4-0.16738 0.64994-0.07318-0.34335-0.99721 0.78494
   7   5  -3 207.829 96.1870   2 0.55911-0.07763 0.45713-0.04052 0.78185-0.99366
  -7  -5   3 253.520 108.743   9 0.17655-0.65772-0.08283-0.33340 0.99655-0.78384
  -7  -5   3 253.290 103.470   3-0.61751 0.13556-0.38578-0.03062-0.78636 0.99843
   7   5  -3 110.105 84.2293   5 0.67554-0.19501 0.30648 0.10944 0.78231-0.99389
   7  -5  -3 35.1520 79.0761   8 0.72236-0.24149-0.23772-0.17876 0.76996-0.98181
   6   5  -3 141.232 71.8465   2 0.56447-0.15986 0.46584-0.04922 0.77275-0.99854
   6  -5  -3 127.806 226.458   4-0.19684 0.60244 0.00892-0.42546-0.99985 0.77365
  -6  -5   3 201.743 80.8863   9 0.20744-0.61166-0.00001-0.41618 0.99966-0.77284
  -6  -5   3 -20.691 62.6520   3-0.62761 0.22257-0.39666-0.01972-0.77289 0.99894
  -6   5   3 216.509 125.297   1 0.19482-0.59972-0.01219 0.42945 0.99984-0.77306
   9   6  -3 330.409 140.604   2 0.55910 0.07614 0.45712 0.04283 0.78186-0.96570
  -9  -6   3 484.657 161.968   9 0.09482-0.72957-0.28338-0.21609 0.95564-0.77077
  -9  -6   3 815.599 201.749   3-0.61566-0.02009-0.38381-0.11599-0.78873 0.97283
   9   6  -3 517.514 164.625   5 0.67151-0.03725 0.30372 0.19569 0.78677-0.97039
   9  -6  -3 417.437 151.821   8 0.71679-0.08227-0.23522-0.26455 0.77588-0.95978
   8  -6  -3 362.304 173.790   4-0.12025 0.67972-0.19663-0.30325-0.97871 0.78037
   8   6  -3 341.302 132.889   2 0.55760 0.00075 0.45470 0.04524 0.78434-0.98217
  -8  -6   3 676.491 170.557   9 0.12818-0.68610-0.20448-0.29501 0.97758-0.77873
  -8  -6   3 530.848 157.198   3-0.61658 0.05772-0.38479-0.11499-0.78756 0.98564
   8   6  -3 319.539 109.052   5 0.67597-0.11860 0.30677 0.19259 0.78183-0.97941
   8  -6  -3 125.739 115.102   8 0.72471-0.16704-0.23878-0.26100 0.76742-0.96529
   7  -6  -3 463.169 231.026   4-0.14946 0.63197-0.12121-0.37869-0.99212 0.77987
   7   6  -3 397.648 131.145   2 0.55916-0.07768 0.45722 0.04273 0.78176-0.99357
  -7  -6   3 549.852 151.610   9 0.15860-0.63968-0.12903-0.37047 0.99140-0.77860
  -7  -6   3 381.676 118.215   3-0.62158 0.13963-0.39014-0.10962-0.78103 0.99310
   7   6  -3 47.0279 50.0254   5 0.68573-0.20523 0.31346 0.18585 0.77068-0.98221
  -7   6   3 980.638 268.104   1 0.16721-0.64898 0.14067 0.35987 0.98996-0.77720
   6  -6  -3 26.3030 131.585   4-0.17578 0.58134-0.05019-0.44969-0.99872 0.77256
   6   6  -3 14.4062 38.0001   2 0.56413-0.15952 0.46528 0.03467 0.77335-0.99914
  -6  -6   3 112.627 71.2632   9 0.18608-0.59035-0.05772-0.44182 0.99832-0.77161
   9  -7  -3 153.997 238.310   4-0.07606 0.71244-0.30471-0.27852-0.94738 0.76296
   9  -7  -3 -508.56 234.327   8 0.73651-0.10202-0.24409-0.33897 0.75432-0.93819
   8  -7  -3 242.974 244.788   4-0.10498 0.66440-0.23478-0.34846-0.96933 0.77101
   8   7  -3 120.934 106.520   2 0.56109-0.00275 0.46034 0.12294 0.77853-0.97635
  -8  -7   3 195.303 129.397   9 0.11281-0.67068-0.24131-0.34147 0.96832-0.76949
  -8  -7   3 564.306 163.526   3-0.62448 0.06562-0.39328-0.18988-0.77714 0.97521
   7  -7  -3 -40.687 194.297   4-0.13128 0.61375-0.16853-0.41471-0.98449 0.77227
   7   7  -3 86.4801 73.3889   2 0.56267-0.08119 0.46290 0.12038 0.77585-0.98767
  -7  -7   3 98.6210 79.4915   9 0.14026-0.62126-0.17492-0.40785 0.98380-0.77095
  -7  -7   3 36.1937 55.8845   3-0.62951 0.14756-0.39872-0.18443-0.77028 0.98234
  -6   7   3 694.112 272.372   1 0.17133-0.57628 0.11937 0.46457 0.99280-0.76600
   6  -7  -3 56.4686 153.978   4-0.15501 0.56051-0.10647-0.47675-0.99396 0.76783
   5  -7  -3 -154.85 133.092   4-0.17618 0.50475-0.04909-0.53410-0.99878 0.75873
  -5   7   3 -152.38 138.300   1 0.18352-0.51161 0.05356 0.53045 0.99856-0.75774
   8  -8  -3 1226.85 829.038   4-0.08888 0.64825-0.27405-0.39255-0.95778 0.75949
   7  -8  -3 539.868 310.603   4-0.11279 0.59520-0.21538-0.45122-0.97432 0.76213
   6  -8  -3 192.587 204.613   4-0.13433 0.53978-0.16070-0.50587-0.98593 0.75984
  -6   8   3 373.432 333.789   1 0.15960-0.56457 0.17870 0.48857 0.98370-0.75688
  -5   8   3 330.161 203.557   1 0.17110-0.49921 0.12059 0.54675 0.99265-0.75182
   5  -8  -3 25.6975 100.002   4-0.15352 0.48203-0.11046-0.55607-0.99349 0.75348
   0   0   0    0.00    0.00
  -2  -2  -1 -2.0252 11.8958   9-0.06675-0.10577-0.61510 0.44844 0.76039-0.89198
  -5   6   3 66.5320 115.663   1 0.19595-0.52401-0.01899 0.51965 0.99972-0.75890
   5  -6  -3 -48.634 86.7302   4-0.19925 0.52786 0.01582-0.51568-0.99972 0.75964
   4   2  -1 441.563 88.6062   2 0.39608-0.10748 0.22102-0.05439 0.94840-0.99570
  -4  -2   1 264.797 75.8557   7-0.55011 0.26156 0.08242-0.24921-0.91723 0.96449
  -4   2   1 157.319 56.9968   1 0.17941-0.46808 0.07626 0.09057 0.99708-0.94952
  -4  -2   1 241.079 67.5548   9 0.17937-0.46781-0.07542-0.09103 0.99715-0.94956
   4  -2  -1 217.291 70.5028   4-0.17140 0.46045-0.06223-0.10436-0.99801 0.95059
  -4   2   1 244.743 82.7802   7-0.47830 0.18988 0.06844 0.09804-0.94793 0.99514
  -4   2   1 201.224 70.9200   6-0.30748 0.01898 0.36699-0.20062-0.91924 0.96660
   4  -2  -1 212.538 59.7806   5 0.62519-0.33704 0.27269-0.43932 0.83281-0.88011
   4  -2  -1 452.294 92.1475   8 0.45103-0.16270-0.12190-0.04466 0.95145-0.99881
   4   2  -1 165.037 58.4553   8 0.59116-0.30278-0.18044 0.34723 0.88055-0.92784
  -4  -2   1 113.118 31.8589   1 0.21547-0.50399-0.14799-0.01856 0.98833-0.94079
  -4  -2   1 212.186 72.7405   3-0.41578 0.12696-0.18685 0.02022-0.95085 0.99825
   0  -5  -2 2.26308 26.8938   4-0.26631 0.22896 0.22190-0.63827-0.97080 0.76439
   0   5   2 71.1841 41.7507   1 0.22531-0.18776-0.22341 0.64068 0.97350-0.76626
   5  -5  -3 94.8218 197.072   4-0.22300 0.55165 0.08552-0.50204-0.99543 0.75532
  -5   5   3 -71.812 113.840   1 0.20848-0.53651-0.09919 0.51650 0.99468-0.75385
   0  -4   1 300.959 89.5720   4-0.00957 0.02811-0.45469 0.12113-0.87746 0.98079
   0  -4  -1 255.459 45.7534   7-0.60210 0.58319 0.09266-0.42592-0.88933 0.78629
   0   4   1 343.746 86.5881   6-0.32931 0.34828 0.45360-0.12062-0.87424 0.97745
   0   4  -1 395.913 91.4252   6-0.14795 0.12935-0.12467 0.45840-0.99164 0.88812
   0  -4  -1 219.006 67.1766   4-0.23575 0.21704 0.12434-0.45752-0.99064 0.88742
   0  -4  -1 305.624 77.5376   9 0.01579-0.03453-0.45576 0.12244 0.87801-0.98161
   0   4  -1 317.479 73.4477   2 0.54359-0.56242 0.43242-0.09912 0.80627-0.90951
   0  -4   1 303.309 83.3291   9 0.25118-0.23213 0.12551-0.45854 0.98944-0.88572
   0   4   1 222.208 72.0845   1 0.21222-0.19350-0.12491 0.45860 0.99165-0.88806
  -1  -2  -1 1740.74 124.133   9-0.05730-0.03836-0.59794 0.43126 0.77575-0.89337
  -1   4   2 -40.908 27.1141   6-0.36300 0.32382 0.61487-0.28210-0.75450 0.94693
   2   7   2 16.1746 50.4398   1 0.20068-0.00939-0.04831 0.63231 0.99865-0.76346
  -2  -7  -2 59.6674 60.6759   4-0.21136 0.02030 0.05098-0.63386-0.99824 0.76400
  -2  -7  -2 -47.404 54.8533   9-0.06531-0.12590-0.61249 0.02922 0.76278-0.99797
  -2  -8  -2 38.4432 61.0608   4-0.17924-0.01183-0.04064-0.62555-0.99917 0.76495
   2   8   2 -32.318 43.4406   1 0.18609 0.00518 0.03903 0.62831 0.99923-0.76405
  -2  -8  -2 -23.581 46.4925   9-0.06591-0.12526-0.61359-0.05298 0.76177-0.99696
  -8  -7  -1 5.29695 104.973   3-0.33754-0.29657-0.11570-0.46818-0.97999 0.76456
   8   7   1 -125.70 134.690   2 0.32496 0.30885 0.12858 0.45476 0.98043-0.76524
   6  -3  -3 -144.32 263.545   4-0.24106 0.64675 0.14078-0.39063-0.98808 0.76181
   6  -3  -3 -1.3422 69.2336   8 0.72851-0.32442-0.24048-0.00940 0.76327-0.98910
  -6   3   3 75.2080 177.855   1 0.21939-0.62422-0.17695 0.42749 0.98337-0.75657
   2  -3  -2 -18.257 34.5226   4-0.30202 0.41854 0.34667-0.59653-0.92817 0.74955
   1   4   0 15.4790 29.2278   2 0.30618-0.22934 0.10490 0.22840 0.98608-0.97211
  -1   4   0 139.550 59.7316   6-0.23471 0.15802 0.12136 0.21198-0.99107 0.97706
  -1  -4   0 29.5280 37.1610   4-0.14114 0.06416-0.14305-0.19031-0.98892 0.97496
   1  -4   0 67.5493 33.6069   8 0.37191-0.29517-0.08971-0.24350 0.97617-0.96217
  -1   4   0 86.3249 30.4294   7-0.47027 0.39359 0.06689 0.26635-0.95086 0.93677
   1   4   0 55.0388 50.9972   1 0.16797-0.09120 0.13677 0.19660 0.99052-0.97654
   1  -4   0 66.2009 43.2505   9 0.15434-0.07736-0.13980-0.19342 0.98984-0.97581
   1   4   0 35.8943 38.6806   6-0.27110 0.34819 0.23800 0.09530-0.96643 0.98035
  -1   4   0 38.8981 31.4565   2 0.43682-0.51366 0.27625 0.05704 0.92125-0.93526
  -1  -4   0 34.6504 36.6017   3-0.32151 0.24464-0.10143-0.23207-0.98424 0.97024
   1  -4   0 81.9911 33.4076   3-0.53231 0.60935-0.29828-0.03506-0.87587 0.88976
  -1  -4   0 114.034 53.6314   9 0.12798-0.20468-0.20496-0.12822 0.97747-0.99143
   1   7   2 294.115 81.0628   1 0.19967-0.08528-0.04200 0.62599 0.99895-0.77776
  -1  -7  -2 101.155 61.6550   4-0.20865 0.09442 0.04305-0.62598-0.99870 0.77838
  -1  -7  -2 26.7218 44.9811   9-0.06074-0.05363-0.60420 0.02091 0.77023-0.99144
   0 -10  -2 -18.515 74.0479   4-0.11901 0.08161-0.19976-0.63321-0.97800 0.77169
   0  10   2 223.860 101.927   1 0.15537-0.11791 0.19926 0.63471 0.97966-0.77243
   0   7   2 -15.202 42.5964   1 0.19709-0.15959-0.02592 0.60991 0.99954-0.79234
   0   7  -2 24.4989 58.8119   6-0.18446 0.14720-0.02570 0.60976-0.99967 0.79256
   0  -7  -2 89.0186 59.2078   4-0.20271 0.16534 0.02580-0.60881-0.99944 0.79305
   0  -7   2 19.5511 59.1124   9 0.21724-0.17921 0.02721-0.60996 0.99898-0.79160
   0   7   2 3.70109 29.2642   6-0.36036 0.39822 0.60000-0.01730-0.76790 0.97427
   0  -7  -2 -55.570 53.5377   9-0.05989 0.02238-0.60268 0.01935 0.77158-0.97881
  -5 -10  -1 -132.78 74.6166   3-0.43390 0.03056-0.20370-0.63040-0.94192 0.76831
;
_shelx_hkl_checksum              48893
loop_
_space_group_symop_operation_xyz
'x, y, z'
'-x+1/2, y+1/2, -z'
'-x, -y, -z'
'x-1/2, -y-1/2, z'
loop_
_atom_site_label
_atom_site_type_symbol
_atom_site_fract_x
_atom_site_fract_y
_atom_site_fract_z
_atom_site_U_iso_or_equiv
_atom_site_adp_type
_atom_site_occupancy
_atom_site_site_symmetry_order
_atom_site_calc_flag
_atom_site_refinement_flags_posn
_atom_site_refinement_flags_adp
_atom_site_refinement_flags_occupancy
_atom_site_disorder_assembly
_atom_site_disorder_group
C1 C 0.6871(6) 0.2944(6) 0.791(2) 0.030(7) Uani 1 1 d . U . . .
H1D H 0.593288 0.244165 0.780697 0.036 Uiso 1 1 calc R U . . .
H1E H 0.717298 0.331499 0.923262 0.036 Uiso 1 1 calc R U . . .
C2 C 0.7969(7) 0.1782(6) 0.740(3) 0.027(6) Uani 1 1 d . U . . .
N1 N 0.6773(5) 0.4265(5) 0.6543(19) 0.030(7) Uani 1 1 d . U . . .
H1A H 0.634260 0.394912 0.536339 0.035 Uiso 1 1 calc R U . . .
H1B H 0.765860 0.461412 0.649222 0.035 Uiso 1 1 calc R U . . .
H1C H 0.625653 0.503453 0.694575 0.035 Uiso 1 1 calc R U . . .
O1 O 0.5102(6) 0.8618(5) 0.967(2) 0.036(4) Uani 1 1 d . U . . .
H1 H 0.476829 0.951027 0.963947 0.043 Uiso 0.5 1 calc DR U P . .
O2 O 0.4633(4) 0.6440(4) 0.7216(17) 0.025(6) Uani 1 1 d . U . . .
O3 O 0.4419(4) 0.9248(5) 0.6171(16) 0.031(5) Uani 1 1 d . U . . .
H3 H 0.501186 0.973582 0.567545 0.037 Uiso 0.5 1 calc DR U P . .
O4 O 0.8605(5) 0.1906(4) 0.6134(16) 0.029(5) Uani 1 1 d . U . . .
O5 O 0.8126(5) 0.0592(4) 0.8726(16) 0.041(6) Uani 1 1 d . U . . .
H5 H 0.873123 -0.003417 0.847861 0.050 Uiso 1 1 calc R U . . .
P1 P 0.51972(18) 0.80927(18) 0.7630(8) 0.023(3) Uani 1 1 d . U . . .
H1P H 0.622213 0.809867 0.751401 0.027 Uiso 1 1 calc R U . . .
loop_
_atom_site_aniso_label
_atom_site_aniso_U_11
_atom_site_aniso_U_22
_atom_site_aniso_U_33
_atom_site_aniso_U_23
_atom_site_aniso_U_13
_atom_site_aniso_U_12
C1 0.025(3) 0.024(3) 0.04(2) 0.002(5) 0.011(7) 0.005(2)
C2 0.019(3) 0.015(3) 0.047(18) -0.001(5) 0.007(7) -0.003(2)
N1 0.021(3) 0.016(2) 0.05(2) 0.000(5) 0.009(6) 0.0008(18)
O1 0.059(3) 0.020(2) 0.035(14) -0.004(5) 0.027(6) 0.006(2)
O2 0.027(2) 0.0175(18) 0.030(19) -0.006(4) 0.001(5) -0.0053(16)
O3 0.024(2) 0.0245(19) 0.043(16) 0.012(4) 0.004(4) 0.0047(16)
O4 0.025(2) 0.024(2) 0.039(17) -0.003(4) 0.012(5) 0.0025(17)
O5 0.036(3) 0.021(2) 0.072(18) 0.011(4) 0.021(5) 0.0069(16)
P1 0.0201(9) 0.0124(8) 0.037(10) 0.0019(16) 0.007(2) -0.0003(6)
loop_
_atom_type_symbol
_atom_type_description
_atom_type_scat_dispersion_real
_atom_type_scat_dispersion_imag
_atom_type_scat_source
C C 0.0033 0.0016 'International Tables Vol C Tables 4.2.6.8 and 6.1.1.4'
H H 0.0000 0.0000 'International Tables Vol C Tables 4.2.6.8 and 6.1.1.4'
N N 0.0061 0.0033 'International Tables Vol C Tables 4.2.6.8 and 6.1.1.4'
O O 0.0106 0.0060 'International Tables Vol C Tables 4.2.6.8 and 6.1.1.4'
P P 0.1023 0.0942 'International Tables Vol C Tables 4.2.6.8 and 6.1.1.4'
loop_
_geom_angle_atom_site_label_1
_geom_angle_atom_site_label_2
_geom_angle_atom_site_label_3
_geom_angle
_geom_angle_site_symmetry_1
_geom_angle_site_symmetry_3
_geom_angle_publ_flag
N1 C1 C2 108.3(10) . . ?
N1 C1 H1D 110.0 . . ?
C2 C1 H1D 110.0 . . ?
N1 C1 H1E 110.0 . . ?
C2 C1 H1E 110.0 . . ?
H1D C1 H1E 108.4 . . ?
O4 C2 O5 125.4(6) . . ?
O4 C2 C1 125.8(10) . . ?
O5 C2 C1 108.7(11) . . ?
C1 N1 H1A 109.5 . . ?
C1 N1 H1B 109.5 . . ?
H1A N1 H1B 109.5 . . ?
C1 N1 H1C 109.5 . . ?
H1A N1 H1C 109.5 . . ?
H1B N1 H1C 109.5 . . ?
P1 O1 H1 109.5 . . ?
P1 O3 H3 109.5 . . ?
C2 O5 H5 109.5 . . ?
O3 P1 O2 111.6(5) . . ?
O3 P1 O1 109.9(4) . . ?
O2 P1 O1 112.1(5) . . ?
O3 P1 H1P 107.7 . . ?
O2 P1 H1P 107.7 . . ?
O1 P1 H1P 107.7 . . ?
loop_
_geom_bond_atom_site_label_1
_geom_bond_atom_site_label_2
_geom_bond_distance
_geom_bond_site_symmetry_2
_geom_bond_publ_flag
C1 N1 1.465(13) . ?
C1 C2 1.516(10) . ?
C1 H1D 0.9700 . ?
C1 H1E 0.9700 . ?
C2 O4 1.157(15) . ?
C2 O5 1.362(14) . ?
N1 H1A 0.8900 . ?
N1 H1B 0.8900 . ?
N1 H1C 0.8900 . ?
O1 P1 1.514(15) . ?
O1 H1 0.8200 . ?
O2 P1 1.512(4) . ?
O3 P1 1.505(9) . ?
O3 H3 0.8200 . ?
O5 H5 0.8200 . ?
P1 H1P 0.9800 . ?
loop_
_geom_hbond_atom_site_label_D
_geom_hbond_atom_site_label_H
_geom_hbond_atom_site_label_A
_geom_hbond_distance_DH
_geom_hbond_distance_HA
_geom_hbond_distance_DA
_geom_hbond_angle_DHA
_geom_hbond_site_symmetry_A
_geom_hbond_publ_flag
N1 H1A O2 0.89 1.89 2.779(17) 172.4 3_666 yes
N1 H1B O3 0.89 1.96 2.842(6) 168.9 4_675 yes
N1 H1C O2 0.89 1.97 2.832(6) 161.9 . yes
O1 H1 O1 0.82 1.66 2.410(10) 150.7 3_677 yes
O3 H3 O3 0.82 1.72 2.481(15) 154.2 3_676 yes
O5 H5 O2 0.82 1.79 2.578(8) 161.3 4_665 yes
loop_
_geom_torsion_atom_site_label_1
_geom_torsion_atom_site_label_2
_geom_torsion_atom_site_label_3
_geom_torsion_atom_site_label_4
_geom_torsion
_geom_torsion_site_symmetry_1
_geom_torsion_site_symmetry_2
_geom_torsion_site_symmetry_3
_geom_torsion_site_symmetry_4
_geom_torsion_publ_flag
N1 C1 C2 O4 -1.0(16) . . . . ?
N1 C1 C2 O5 176.7(7) . . . . ?

_cod_database_fobs_code 2109035
