#------------------------------------------------------------------------------
#$Date: 2022-09-02 04:49:51 +0300 (Fri, 02 Sep 2022) $
#$Revision: 277573 $
#$URL: file:///home/coder/svn-repositories/cod/cif/2/10/90/2109036.cif $
#------------------------------------------------------------------------------
#
# This file is available in the Crystallography Open Database (COD),
# http://www.crystallography.net/. The original data for this entry
# were provided by IUCr Journals, http://journals.iucr.org/.
#
# The file may be used within the scientific community so long as
# proper attribution is given to the journal article from which the
# data were obtained.
#
data_2109036
loop_
_publ_author_name
'Bogdanov, Nikita E.'
'Korabel'nikov, Dmitry V.'
'Fedorov, Igor A.'
'Zakharov, Boris A.'
'Boldyreva, Elena V.'
_publ_section_title
;
 The effect of hydrostatic compression on the crystal structure of
 glycinium phosphite
;
_journal_issue                   5
_journal_name_full               'Acta Crystallographica Section B'
_journal_page_first
;
;
_journal_paper_doi               10.1107/S2052520622008289
_journal_volume                  78
_journal_year                    2022
_chemical_formula_moiety         'C2 H6 N O2, H2 O3 P'
_chemical_formula_sum            'C2 H8 N O5 P'
_chemical_formula_weight         157.06
_space_group_crystal_system      monoclinic
_space_group_IT_number           14
_space_group_name_Hall           '-P 2yab'
_space_group_name_H-M_alt        'P 1 21/a 1'
_atom_sites_solution_hydrogens   geom
_atom_sites_solution_primary     direct
_atom_sites_solution_secondary   difmap
_audit_creation_method           SHELXL-2018/3
_cell_angle_alpha                90
_cell_angle_beta                 100.68(3)
_cell_angle_gamma                90
_cell_formula_units_Z            4
_cell_length_a                   9.3265(8)
_cell_length_b                   8.5118(5)
_cell_length_c                   6.889(6)
_cell_measurement_pressure       3080000
_cell_measurement_reflns_used    807
_cell_measurement_temperature    293(2)
_cell_measurement_theta_max      26.3640
_cell_measurement_theta_min      3.2570
_cell_volume                     537.4(5)
_computing_cell_refinement       'CrysAlisPro 1.171.40.53 (Rigaku OD, 2019)'
_computing_data_collection       'CrysAlisPro 1.171.40.53 (Rigaku OD, 2019)'
_computing_data_reduction        'CrysAlisPro 1.171.40.53 (Rigaku OD, 2019)'
_computing_structure_refinement  'SHELXL-2018/3 (Sheldrick, 2018)'
_diffrn_ambient_pressure         3080000
_diffrn_ambient_temperature      293(2)
_diffrn_detector                 'CCD plate'
_diffrn_detector_area_resol_mean 10.3457
_diffrn_detector_type            Ruby
_diffrn_measured_fraction_theta_full 0.362
_diffrn_measured_fraction_theta_max 0.330
_diffrn_measurement_device       'four-circle diffractometer'
_diffrn_measurement_device_type  'Xcalibur, Ruby, Gemini ultra'
_diffrn_radiation_monochromator  graphite
_diffrn_radiation_probe          x-ray
_diffrn_radiation_type           'Mo K\a'
_diffrn_radiation_wavelength     0.71073
_diffrn_reflns_av_R_equivalents  0.0867
_diffrn_reflns_av_unetI/netI     0.0617
_diffrn_reflns_Laue_measured_fraction_full 0.362
_diffrn_reflns_Laue_measured_fraction_max 0.330
_diffrn_reflns_limit_h_max       12
_diffrn_reflns_limit_h_min       -11
_diffrn_reflns_limit_k_max       11
_diffrn_reflns_limit_k_min       -11
_diffrn_reflns_limit_l_max       3
_diffrn_reflns_limit_l_min       -3
_diffrn_reflns_number            2780
_diffrn_reflns_point_group_measured_fraction_full 0.362
_diffrn_reflns_point_group_measured_fraction_max 0.330
_diffrn_reflns_theta_full        25.242
_diffrn_reflns_theta_max         27.863
_diffrn_reflns_theta_min         3.266
_diffrn_source                   'fine-focus sealed X-ray tube'
_diffrn_source_type              'Enhance (Mo) X-ray Source'
_exptl_absorpt_coefficient_mu    0.462
_exptl_absorpt_correction_T_max  1.00000
_exptl_absorpt_correction_T_min  0.43103
_exptl_absorpt_correction_type   multi-scan
_exptl_absorpt_process_details
;
CrysAlisPro 1.171.40.53 (Rigaku Oxford Diffraction, 2019)
Empirical absorption correction using spherical harmonics,
 implemented in SCALE3 ABSPACK scaling algorithm.
;
_exptl_crystal_colour            white
_exptl_crystal_density_diffrn    1.941
_exptl_crystal_description       plates
_exptl_crystal_F_000             328
_exptl_crystal_size_max          0.21
_exptl_crystal_size_mid          0.10
_exptl_crystal_size_min          0.05
_refine_diff_density_max         0.284
_refine_diff_density_min         -0.282
_refine_diff_density_rms         0.074
_refine_ls_extinction_method     none
_refine_ls_goodness_of_fit_ref   1.095
_refine_ls_hydrogen_treatment    constr
_refine_ls_matrix_type           full
_refine_ls_number_parameters     86
_refine_ls_number_reflns         422
_refine_ls_number_restraints     4
_refine_ls_restrained_S_all      1.090
_refine_ls_R_factor_all          0.0855
_refine_ls_R_factor_gt           0.0536
_refine_ls_shift/su_max          0.000
_refine_ls_shift/su_mean         0.000
_refine_ls_structure_factor_coef Fsqd
_refine_ls_weighting_details
'w=1/[\s^2^(Fo^2^)+(0.0682P)^2^+0.9134P] where P=(Fo^2^+2Fc^2^)/3'
_refine_ls_weighting_scheme      calc
_refine_ls_wR_factor_gt          0.1166
_refine_ls_wR_factor_ref         0.1417
_reflns_Friedel_coverage         0.000
_reflns_number_gt                311
_reflns_number_total             422
_reflns_threshold_expression     'I > 2\s(I)'
_cod_data_source_file            xk5096sup1.cif
_cod_data_source_block           3.08
_cod_original_cell_volume        537.4(4)
_cod_original_sg_symbol_H-M      'P 21/a'
_cod_database_code               2109036
_shelx_shelxl_version_number     2018/3
_shelx_space_group_comment
;
The symmetry employed for this shelxl refinement is uniquely defined
by the following loop, which should always be used as a source of
symmetry information in preference to the above space-group names.
They are only intended as comments.
;
_oxdiff_exptl_absorpt_empirical_full_min 0.809
_oxdiff_exptl_absorpt_empirical_full_max 2.085
_oxdiff_exptl_absorpt_empirical_details
;
Empirical correction (ABSPACK) includes:
- Absorption correction using spherical harmonics
- Frame scaling
;
_shelx_res_file
;
TITL GPI_3 in P2(1)/c
    3.08.res
    created by SHELXL-2018/3 at 18:12:07 on 10-Aug-2022
REM  transformed to space group : P21/a:b3
REM P2(1)/c (#14 in standard setting)
CELL   0.71073  9.3265  8.5118  6.8889   90.000  100.685   90.000
ZERR   4        0.0008  0.0005  0.0056    0.000    0.028    0.000
LATT    1
SYMM   1/2-X,1/2+Y,-Z
SFAC C H N O P
UNIT 8 32 4 20 4
LIST 4 ! automatically inserted. Change 6 to 4 for CHECKCIF!!
PLAN 30
FMAP 2
L.S. 20
BOND
BOND $H
CONF
ACTA
EQIV $1 1-X, 1-Y,1-Z
EQIV $2 1/2+X, 3/2-Y,Z
EQIV $3 1-X, 2-Y, 2-Z
EQIV $4 1-X, 2-Y, 1-Z
EQIV $5 1/2+X, 1/2-Y, Z
HTAB N1 O2_$1
HTAB N1 O3_$2
HTAB N1 O2
HTAB O1 O1_$3
HTAB O3 O3_$4
HTAB O5 O2_$5
DFIX 0.82 O1 H1
DFIX 1.66  H1 O1_$3
DFIX 0.82 O3 H3
DFIX 1.70  H3 O3_$4
WGHT    0.068200    0.913400
FVAR       1.78582
C1    1    0.684248    0.290194    0.795460    11.00000    0.02599    0.02436 =
         0.05179    0.00518    0.01440    0.00360
AFIX  23
H1D   2    0.589349    0.240301    0.780966    11.00000   -1.20000
H1E   2    0.713034    0.324907    0.931217    11.00000   -1.20000
AFIX   0
C2    1    0.795401    0.175422    0.743599    11.00000    0.02029    0.01228 =
         0.13532    0.00199    0.01995   -0.00483
N1    3    0.677433    0.425369    0.659795    11.00000    0.02026    0.01609 =
         0.04570    0.00209    0.00407    0.00014
AFIX 137
H1A   2    0.643987    0.393631    0.536624    11.00000   -1.20000
H1B   2    0.766290    0.465894    0.667638    11.00000   -1.20000
H1C   2    0.617911    0.498076    0.693332    11.00000   -1.20000
AFIX   0
O1    4    0.516599    0.862931    0.972857    11.00000    0.05992    0.01644 =
         0.03666   -0.00552    0.02706    0.00809
AFIX 147
H1    2    0.532782    0.957590    0.981973    10.50000   -1.20000
AFIX   0
O2    4    0.462758    0.644369    0.723557    11.00000    0.02936    0.01538 =
         0.02620   -0.00740    0.00043   -0.00616
O3    4    0.443142    0.925862    0.619365    11.00000    0.02776    0.02304 =
         0.04679    0.01737    0.00497    0.00471
AFIX 147
H3    2    0.502288    0.974210    0.567815    10.50000   -1.20000
AFIX   0
O4    4    0.858685    0.188710    0.612776    11.00000    0.02522    0.02219 =
         0.06241   -0.00061    0.01771    0.00090
O5    4    0.810838    0.057334    0.876656    11.00000    0.03860    0.01725 =
         0.13158    0.01036    0.03330    0.00669
AFIX 147
H5    2    0.870118   -0.006536    0.850051    11.00000   -1.20000
AFIX   0
P1    5    0.522796    0.808868    0.766046    11.00000    0.01840    0.01277 =
         0.05934    0.00197    0.01057   -0.00047
AFIX  13
H1P   2    0.625409    0.807980    0.751799    11.00000   -1.20000
AFIX   0
HKLF 4




REM  GPI_3 in P2(1)/c
REM wR2 = 0.1417, GooF = S = 1.095, Restrained GooF = 1.090 for all data
REM R1 = 0.0536 for 311 Fo > 4sig(Fo) and 0.0855 for all 422 data
REM 86 parameters refined using 4 restraints

END

WGHT      0.0674      0.9444

REM Highest difference peak  0.284,  deepest hole -0.282,  1-sigma level  0.074
Q1    1   0.7672  0.2783  0.4759  11.00000  0.05    0.28
Q2    1   0.6833  0.8242  0.7332  11.00000  0.05    0.25
Q3    1   0.5941  0.6388  0.8435  11.00000  0.05    0.25
Q4    1   0.8428  0.2893  0.9729  11.00000  0.05    0.24
Q5    1   0.3195  0.6763  0.7743  11.00000  0.05    0.24
Q6    1   0.5190  0.3013  0.4848  11.00000  0.05    0.24
Q7    1   0.6639  0.8278  0.6781  11.00000  0.05    0.23
Q8    1   0.7245  0.2262  0.8553  11.00000  0.05    0.23
Q9    1   0.4528  0.7212  0.5937  11.00000  0.05    0.23
Q10   1   0.5838  0.2103  0.9272  11.00000  0.05    0.22
Q11   1   0.8020  0.7172  0.8263  11.00000  0.05    0.22
Q12   1   0.5016  0.3152  0.7796  11.00000  0.05    0.21
Q13   1   0.6826  0.7689  0.7762  11.00000  0.05    0.21
Q14   1   0.5597  0.5264  0.8193  11.00000  0.05    0.20
Q15   1   0.8557  0.3407  0.7814  11.00000  0.05    0.19
Q16   1   0.5766  0.3865  0.4782  11.00000  0.05    0.19
Q17   1   0.7158  0.2072  0.9552  11.00000  0.05    0.19
Q18   1   0.8607 -0.0279  0.9042  11.00000  0.05    0.18
Q19   1   0.5990  1.0320  0.7282  11.00000  0.05    0.18
Q20   1   0.4061  1.0038  0.5307  11.00000  0.05    0.17
Q21   1   0.7406  0.5110  0.8891  11.00000  0.05    0.17
Q22   1   0.6371  0.9064  0.4905  11.00000  0.05    0.17
Q23   1   0.4400  0.6516  0.7785  11.00000  0.05    0.17
Q24   1   0.6604  1.0989  1.0077  11.00000  0.05    0.16
Q25   1   0.6764  0.0733  0.7933  11.00000  0.05    0.16
Q26   1   0.7426  0.2515  0.6673  11.00000  0.05    0.16
Q27   1   0.6598  0.2736  1.0427  11.00000  0.05    0.16
Q28   1   0.6404  0.0494  0.7593  11.00000  0.05    0.16
Q29   1   0.5152  0.5742  0.6389  11.00000  0.05    0.16
Q30   1   0.8402 -0.1255  0.9305  11.00000  0.05    0.15
;
_shelx_res_checksum              57018
_shelx_hkl_file
;
  -1   0   0 1.35903 3.69775   7-0.03872-0.03872-0.01105 0.01105-0.98903 0.97467
   1   0   0 9.62644 5.79339   8 0.03869 0.03868 0.03852-0.03850 0.98836-0.97401
  -2   0   0 7369.41 201.121   7-0.07744-0.07745-0.00396 0.00395-0.99405 0.96532
   2   0   0 7684.36 199.040   8 0.07736 0.07736 0.02373-0.02371 0.99378-0.96508
   2   0   0 8043.79 133.851   9 0.07736 0.07736-0.32888 0.32884 0.93918-0.91049
  -2   0   0 7916.28 136.638   6-0.07748-0.07748-0.30463 0.30465-0.94724 0.91849
  -2   0   0 7930.16 135.245   4-0.07744-0.07745-0.30407 0.30389-0.94741 0.91874
   3   0   0 0.65757 6.88579   9 0.11604 0.11604-0.23994 0.23990 0.96860-0.92556
  -3   0   0 0.62079 13.8872   7-0.11615-0.11617 0.00316-0.00319-0.99753 0.95444
  -3   0   0 4.62826 7.92255   6-0.11619-0.11618-0.21052 0.21055-0.97539 0.93228
   3   0   0 0.34584 15.1194   8 0.11605 0.11604 0.00885-0.00881 0.99749-0.95444
  -3   0   0 -6.4620 7.89556   4-0.11619-0.11618-0.20981 0.20955-0.97554 0.93249
  -4   0   0 4896.92 147.537   6-0.15490-0.15489-0.11083 0.11088-0.99340 0.93593
   4   0   0 5269.20 239.522   8 0.15475 0.15472-0.00613 0.00618 0.99949-0.94209
  -4   0   0 5678.26 255.497   7-0.15485-0.15489 0.01032-0.01035-0.99946 0.94200
   4   0   0 5377.60 118.031   1 0.15474 0.15472 0.20892-0.20874 0.97758-0.92022
  -4   0   0 5330.91 153.638   4-0.15496-0.15489-0.10981 0.10950-0.99351 0.93609
  -5   0   0 -30.447 32.6933   7-0.19356-0.19363 0.01750-0.01755-0.99981 0.92798
   5   0   0 32.9380 31.1988   8 0.19343 0.19339-0.02120 0.02126 0.99974-0.92799
  -5   0   0 -14.800 13.8055   6-0.19359-0.19358-0.00483 0.00490-0.99995 0.92814
   5   0   0 -1.1686 9.21989   1 0.19350 0.19346 0.00371-0.00352 0.99996-0.92819
  -6   0   0 9549.31 241.722   6-0.23227-0.23225 0.10871-0.10861-0.99286 0.90670
  -6   0   0 8102.44 391.319   7-0.23226-0.23235 0.02472-0.02477-0.99855 0.91234
   6   0   0 8538.98 387.027   8 0.23213 0.23207-0.03636 0.03643 0.99819-0.91209
  -7   0   0 -5.3334 62.4080   7-0.27096-0.27108 0.03196-0.03202-0.99562 0.89504
   7   0   0 63.5276 67.6913   8 0.27083 0.27075-0.05163 0.05171 0.99479-0.89435
   7   0   0 0.27437 24.9816   2 0.27086 0.27075 0.05544-0.05560 0.99459-0.89415
  -8   0   0 101.568 98.3832   7-0.30966-0.30981 0.03923-0.03931-0.99099 0.87602
  -8   0   0 356.707 93.0768   3-0.30983-0.31004-0.08660 0.08660-0.98789 0.87284
   8   0   0 416.110 86.4876   2 0.30958 0.30943 0.10343-0.10360 0.98626-0.87147
   8   0   0 248.247 93.0628   8 0.30953 0.30942-0.06701 0.06708 0.98948-0.87469
  -9   0   0 21.8134 79.8339   7-0.34835-0.34854 0.04654-0.04664-0.98457 0.85523
  -9   0   0 -8.0277 51.2048   3-0.34853-0.34878-0.12108 0.12110-0.97798 0.84853
   9   0   0 -5.8088 64.9479   8 0.34823 0.34810-0.08248 0.08257 0.98216-0.85303
 -10   0   0 -28.487 69.4283   7-0.38704-0.38726 0.05389-0.05399-0.97630 0.83257
  10   0   0 28.0421 57.6712   8 0.38694 0.38677-0.09808 0.09817 0.97273-0.82926
 -10   0   0 29.4583 76.7770   3-0.38722-0.38753-0.15614 0.15621-0.96474 0.82089
  11   0   0 -40.626 64.2951   8 0.42564 0.42544-0.11379 0.11388 0.96107-0.80328
  11   0   0 46.4938 57.1327   5 0.42561 0.42550 0.14151-0.14142 0.95722-0.79941
   0  -1   0 8.88957 5.90526   1 0.20093-0.20095-0.04165-0.04165 0.99900-0.99901
   0   1   0 7.79079 6.68240   6-0.20978 0.20979 0.04168 0.04168-0.99882 0.99882
   0  -1   0 -0.5061 2.22417   9 0.19493-0.19492-0.04166-0.04166 0.99908-0.99909
   0   1   0 2.86662 5.24447   4-0.20942 0.20947 0.04169 0.04170-0.99882 0.99883
   1   1   0 432.493 31.8182   7 0.12809-0.05064-0.04129 0.12471-0.94995 0.96432
  -1  -1   0 371.799 26.7530   6-0.24586 0.16843 0.15077-0.23406-0.98648 0.97212
  -1   1   0 409.389 29.0832   9 0.33202-0.40940 0.38593-0.30261 0.90739-0.92174
  -1   1   0 379.937 37.1871   8-0.01863-0.05873 0.06026 0.02303 0.97724-0.99158
  -1   1   0 369.322 34.4345   7-0.08614 0.00871-0.00236 0.08574-0.99497 0.98061
   1  -1   0 377.022 27.1785   9 0.26948-0.19210 0.17267-0.25599 0.98096-0.96662
  -1  -1   0 355.349 35.8274   9 0.13248-0.20985-0.20060 0.11731 0.97838-0.99274
   1   1   0 371.650 26.6827   6-0.30821 0.38563 0.36390-0.28063-0.92085 0.93519
   1  -1   0 412.778 36.6724   7 0.05361 0.02382-0.02786-0.05550-0.97091 0.98526
  -1   1   0 351.437 35.1741   1 0.15256-0.22993 0.21928-0.13607 0.97526-0.98959
  -1   1   0 340.465 36.0135   6-0.16726 0.08981-0.07770 0.16111-0.99682 0.98246
  -1  -1   0 414.187 29.5197   7-0.07982 0.00237-0.00352-0.07985-0.99431 0.97994
  -1   1   0 391.177 38.9405   4-0.16698 0.08957-0.07754 0.16083-0.99683 0.98248
  -1  -1   0 376.774 27.0261   4-0.24525 0.16767 0.15010-0.23358-0.98663 0.97223
   1   1   0 397.948 31.7518   1 0.21279-0.13534-0.12004 0.20342 0.99233-0.97795
  -1  -1   0 395.457 32.3716   1 0.23474-0.31220-0.29579 0.21237 0.95341-0.96780
   1  -1   0 376.672 36.5132   8 0.09979-0.02244 0.01511-0.09839 0.99614-0.98180
   1  -1   0 372.928 36.2619   1 0.17855-0.10119 0.08834-0.17156 0.99608-0.98174
   2   1   0 683.077 52.1076   8 0.08955 0.06520 0.01905 0.06427 0.99513-0.96642
  -2  -1   0 617.206 55.0212   9 0.07732-0.23206-0.32896 0.24568 0.93915-0.96786
   2  -1   0 776.291 57.2225   1 0.17042-0.01568 0.13131-0.21447 0.99126-0.96258
   2  -1   0 715.359 61.6180   4-0.07143 0.22630-0.31823 0.23508-0.94219 0.97086
  -2   1   0 673.509 65.4378   7-0.09979-0.05509 0.00015 0.08323-0.99625 0.96753
  -2  -1   0 691.889 58.0575   7-0.09998-0.05489 0.00019-0.08358-0.99627 0.96753
   2   1   0 692.963 41.0041   1 0.22833-0.07342-0.23864 0.32208 0.96983-0.94107
  -2   1   0 625.519 56.0009   6-0.15682 0.00190-0.10574 0.18917-0.99401 0.96527
   2  -1   0 696.158 65.7590   8 0.10652 0.04819 0.01252-0.09579 0.99674-0.96805
  -3   1   0 20623.8 354.823   6-0.16308-0.06929-0.08899 0.17242-0.99580 0.95270
  -3  -1   0 21744.4 376.245   9 0.02644-0.25852-0.43857 0.35531 0.88758-0.93062
  -3  -1   0 20328.4 400.350   7-0.13339-0.09891 0.00635-0.08974-0.99859 0.95549
   3  -1   0 21725.0 380.889   4-0.02269 0.25499-0.42854 0.34550-0.89181 0.93477
   3  -1   0 20647.3 429.910   8 0.13197 0.10012 0.00270-0.08595 0.99853-0.95549
  -3   1   0 20317.5 428.886   7-0.12911-0.10321 0.00556 0.07782-0.99835 0.95526
   3   1   0 19874.0 364.497   8 0.12974 0.10238 0.00356 0.07978 0.99840-0.95533
   5  -1   0 611.043 39.1645   9 0.19140 0.19543-0.05107-0.03228 0.99867-0.92693
  -5   1   0 658.749 105.317   7-0.19856-0.18864 0.01843 0.06493-0.99974 0.92791
   5  -1   0 680.393 103.458   8 0.19748 0.18932-0.02278-0.06045 0.99966-0.92793
  -5   1   0 631.746 74.8896   6-0.19981-0.18739 0.01287 0.07057-0.99981 0.92799
  -5  -1   0 663.511 96.6784   7-0.20684-0.18031 0.01997-0.10339-0.99956 0.92773
   5   1   0 606.398 93.9677   8 0.20824 0.17863-0.02699 0.11036 0.99936-0.92759
  -6   1   0 83.0285 27.2309   6-0.22449-0.24009 0.08518-0.00174-0.99553 0.90937
   6  -1   0 46.8100 29.7870   8 0.23300 0.23117-0.03671-0.04652 0.99814-0.91206
  -6   1   0 94.2019 41.0472   7-0.23520-0.22943 0.02527 0.05808-0.99838 0.91218
   6   1   0 32.5986 31.4110   8 0.24722 0.21702-0.04230 0.12567 0.99709-0.91097
  -6  -1   0 29.2727 26.3644   7-0.24460-0.21998 0.02702-0.11045-0.99780 0.91159
   7  -1   0 6.73210 28.9634   2 0.28933 0.25234 0.07820-0.16163 0.99115-0.89070
   7   1   0 27.0041 28.5330   2 0.26906 0.27253 0.05322 0.02989 0.99488-0.89444
  -7   1   0 18.3835 49.7935   7-0.27241-0.26966 0.03223 0.05110-0.99548 0.89489
   7  -1   0 64.0126 65.1991   8 0.26937 0.27218-0.05105-0.03216 0.99495-0.89453
  -7   1   0 109.088 47.1532   6-0.25146-0.29046 0.16849-0.08506-0.98318 0.88267
  -7  -1   0 86.7917 57.9547   7-0.28263-0.25937 0.03415-0.11759-0.99441 0.89383
   7   1   0 66.8705 46.0626   8 0.28613 0.25548-0.05770 0.14108 0.99292-0.89246
  -8   1   0 638.224 138.579   7-0.30997-0.30953 0.03929 0.04403-0.99094 0.87597
   8  -1   0 780.634 144.330   8 0.30628 0.31264-0.06571-0.01750 0.99000-0.87523
   8   1   0 661.912 132.369   8 0.32500 0.29399-0.07318 0.15656 0.98679-0.87198
   8   1   0 709.286 123.018   2 0.30244 0.31653 0.09450-0.01139 0.98812-0.87334
  -8  -1   0 617.561 116.814   3-0.30444-0.31548-0.08184-0.00156-0.98902 0.87394
  -8   1   0 635.989 109.376   3-0.32940-0.29039-0.10396 0.18736-0.98328 0.86826
  -8  -1   0 615.542 161.758   7-0.32084-0.29859 0.04134-0.12479-0.98932 0.87437
   9  -1   0 138.473 84.4673   8 0.34356 0.35274-0.08061-0.00260 0.98315-0.85405
  -9   1   0 28.7406 64.5003   7-0.34777-0.34915 0.04644 0.03688-0.98468 0.85533
  -9  -1   0 12.8563 88.3823   7-0.35915-0.33769 0.04859-0.13206-0.98245 0.85312
   9   1   0 65.5127 50.6917   2 0.33676 0.35959 0.13784-0.05473 0.97776-0.84864
   9   1   0 13.0300 48.3805   8 0.36386 0.33252-0.08876 0.17215 0.97861-0.84946
  -9  -1   0 113.384 69.1528   3-0.33997-0.35741-0.11340 0.03003-0.98045 0.85097
  10  -1   0 1899.38 262.977   8 0.38110 0.39257-0.09572 0.01252 0.97429-0.83085
  10   1   0 1872.22 254.412   8 0.40269 0.37107-0.10446 0.18785 0.96826-0.82477
 -10   1   0 1215.60 272.392   7-0.38575-0.38861 0.05365 0.02965-0.97661 0.83286
 -10  -1   0 1054.82 272.417   7-0.39755-0.37671 0.05589-0.13937-0.97372 0.83000
 -10  -1   0 1727.33 234.039   3-0.37603-0.39881-0.14592 0.06258-0.96893 0.82504
 -11  -1   0 52.6055 70.2372   7-0.43600-0.41567 0.06324-0.14673-0.96301 0.80490
  11   1   0 110.386 79.9352   5 0.41640 0.43474 0.13589-0.05254 0.96062-0.80278
 -11  -1   0 163.757 103.499   3-0.41246-0.43982-0.17935 0.09605-0.95417 0.79587
  11   1   0 151.037 98.6108   8 0.44152 0.40963-0.12028 0.20366 0.95561-0.79779
 -11   1   0 30.0687 90.3769   7-0.42384-0.42794 0.06091 0.02237-0.96662 0.80847
  11  -1   0 116.912 120.696   8 0.41884 0.43221-0.11102 0.02782 0.96329-0.80552
   0   2   0 5134.78 102.221   8-0.07990 0.07994 0.08329 0.08330 0.96126-0.96124
   0  -2   0 5060.95 166.351   9 0.17916-0.17915-0.08331-0.08331 0.99650-0.99651
   0  -2   0 4941.50 100.952   8 0.35032-0.35031-0.08332-0.08331 0.98170-0.98172
   0   2   0 4816.41 142.696   2 0.29347-0.29349 0.08332 0.08331 0.99025-0.99023
   0   2   0 4752.26 161.638   6-0.22387 0.22391 0.08335 0.08337-0.99572 0.99573
   0  -2   0 4995.09 131.319   3-0.30615 0.30622-0.08335-0.08337-0.98867 0.98864
  -1   2   0 174.322 36.2452   6-0.19851 0.12107 0.00915 0.15762-0.99987 0.98551
  -1   2   0 223.464 28.6805   7-0.18426 0.10687 0.01577 0.15099-0.99987 0.98552
   1  -2   0 236.609 31.5637   7 0.12900-0.05155-0.04146-0.12528-0.94966 0.96401
  -1   2   0 234.952 26.3838   2 0.47276-0.55022 0.32091-0.15421 0.89416-0.90849
   1  -2   0 194.516 30.0075   8 0.18202-0.10465-0.01674-0.14985 0.99985-0.98552
   1   2   0 191.605 32.7625   1 0.19209-0.11464 0.01209 0.15461 0.99991-0.98552
   1   2   0 197.205 30.5218   6-0.26925 0.34673 0.22635-0.05973-0.96977 0.98413
  -1  -2   0 189.670 34.7519   9 0.14546-0.22283-0.16881 0.00220 0.98490-0.99927
  -1  -2   0 199.464 32.0029   4-0.19033 0.11270-0.01303-0.15382-0.99990 0.98550
   1  -2   0 191.202 30.0048   9 0.20869-0.13130-0.00438-0.16225 0.99971-0.98537
   2   2   0 2329.79 99.1527   6-0.33345 0.48832 0.46491-0.29841-0.86774 0.89638
  -2  -2   0 2286.75 130.499   9 0.10904-0.26377-0.25641 0.08981 0.96393-0.99265
   2   2   0 2302.09 109.448   1 0.19899-0.04410-0.02957 0.19632 0.99946-0.97071
  -2  -2   0 2320.72 94.3833   4-0.20808 0.05294 0.03780-0.20472-0.99901 0.97023
   2  -2   0 2118.14 131.934   4-0.10051 0.25536-0.24859 0.08205-0.96533 0.99402
   2  -2   0 2319.95 94.2637   9 0.23166-0.07690 0.05995-0.22659 0.99707-0.96839
   2   2   0 2187.97 79.4274   8 0.18739-0.03262-0.01884 0.18550 0.99982-0.97109
  -2  -2   0 2276.13 97.4095   7-0.18417 0.02930 0.01575-0.18247-0.99987 0.97113
  -2   2   0 2193.91 129.101   6-0.18834 0.03344-0.01963 0.18643-0.99980 0.97108
  -2   2   0 2178.99 118.769   7-0.15586 0.00102 0.01051 0.15627-0.99949 0.97078
  -2  -2   0 2304.65 95.4220   6-0.20874 0.05389 0.03866-0.20526-0.99896 0.97024
   2  -2   0 2373.39 130.471   8 0.15877-0.00405-0.00769-0.15888 0.99960-0.97092
  -3   2   0 846.982 92.1657   7-0.16695-0.06534 0.01256 0.15422-0.99974 0.95666
  -3  -2   0 766.047 48.2102   6-0.21335-0.01889 0.05216-0.21874-0.99822 0.95514
   3   2   0 708.620 62.7161   8 0.19020 0.04195-0.01994 0.18660 0.99979-0.95671
   3  -2   0 672.258 82.5134   8 0.16780 0.06428-0.01120-0.15534 0.99977-0.95675
  -3  -2   0 729.802 71.6914   7-0.18778-0.04451 0.01643-0.18316-0.99986 0.95676
   3  -2   0 782.898 48.8865   9 0.24345-0.01132 0.09412-0.26077 0.99375-0.95071
  -3  -2   0 794.234 49.6289   4-0.21239-0.02024 0.05039-0.21737-0.99834 0.95517
   3  -2   0 749.312 85.6006   4-0.06434 0.29665-0.33476 0.16834-0.93576 0.97876
   3   2   0 708.625 57.5659   1 0.19951 0.03280-0.03280 0.19958 0.99936-0.95623
  -3  -2   0 686.479 77.5896   9 0.07078-0.30287-0.34353 0.17695 0.93332-0.97637
  -3   2   0 744.492 82.0012   6-0.18893-0.04343-0.01799 0.18480-0.99983 0.95674
  -4  -2   0 809.479 43.7552   4-0.18512-0.12493-0.02763-0.13939-0.99962 0.94209
  -4   2   0 652.440 101.023   7-0.19058-0.11916 0.01695 0.14982-0.99984 0.94238
  -4   2   0 826.130 105.213   6-0.19706-0.11273 0.00503 0.16179-0.99992 0.94246
  -4  -2   0 774.847 93.6134   7-0.21090-0.09880 0.02073-0.18748-0.99945 0.94198
  -4  -2   0 862.166 101.867   9 0.03122-0.34067-0.42862 0.26207 0.89302-0.95042
   4  -2   0 736.909 41.2879   9 0.23121 0.07828 0.05870-0.22534 0.99717-0.93978
   4   2   0 722.512 58.9999   1 0.19157 0.11813 0.01513 0.15165 0.99987-0.94239
  -4  -2   0 837.741 44.8485   6-0.18674-0.12294-0.02411-0.14251-0.99971 0.94226
   4  -2   0 787.166 102.635   4-0.02651 0.33626-0.42018 0.25388-0.89627 0.95356
   4   2   0 804.879 90.1372   8 0.21575 0.09378-0.02993 0.19660 0.99907-0.94163
   4  -2   0 842.903 113.789   8 0.18908 0.12036-0.01950-0.14704 0.99980-0.94243
  -5   2   0 1739.15 170.393   7-0.21980-0.16740 0.02239 0.14438-0.99913 0.92730
  -5  -2   0 1618.53 147.260   7-0.24080-0.14633 0.02631-0.19307-0.99805 0.92621
   5  -2   0 1595.12 164.530   8 0.21631 0.17049-0.03015-0.13637 0.99904-0.92733
  -5   2   0 1740.84 142.591   6-0.21056-0.17666 0.04398 0.12284-0.99870 0.92687
   5   2   0 1670.24 79.9823   1 0.16839 0.21862 0.14170 0.02506 0.98980-0.91800
  -5  -2   0 1683.19 147.532   9-0.00929-0.37754-0.51072 0.34419 0.84300-0.91473
   5  -2   0 1700.52 152.741   4 0.01258 0.37461-0.50350 0.33732-0.84663 0.91818
   5   2   0 1638.58 136.977   8 0.24766 0.13925-0.04248 0.20916 0.99705-0.92526
   6  -2   0 1101.34 154.421   8 0.24688 0.21728-0.04217-0.12434 0.99712-0.91106
   6  -2   0 1164.48 87.4496   2 0.29088 0.17347 0.08011-0.24683 0.99082-0.90471
  -6   2   0 1168.06 124.647   6-0.22792-0.23669 0.09554 0.07125-0.99443 0.90825
   6   2   0 1068.15 134.074   2 0.25086 0.21333 0.03106 0.13535 0.99727-0.91118
   6  -2   0 1132.98 131.812   4 0.05265 0.41197-0.58376 0.41768-0.78645 0.87223
   6   2   0 1046.68 127.553   8 0.28223 0.18206-0.05616 0.22284 0.99343-0.90729
  -6   2   0 1054.56 156.389   7-0.25197-0.21266 0.02840 0.13836-0.99727 0.91106
  -6   2   0 986.560 96.6296   3-0.28574-0.17907-0.06541 0.23214-0.99249 0.90627
  -6  -2   0 1088.14 130.454   7-0.27385-0.19069 0.03250-0.19928-0.99534 0.90914
  -6  -2   0 854.157 122.844   9-0.05051-0.41367-0.58910 0.42258 0.78306-0.86912
  -7   2   0 1992.37 218.631   7-0.28589-0.25618 0.03477 0.13199-0.99404 0.89345
  -7   2   0 2004.66 156.657   3-0.32839-0.21386-0.10306 0.26981-0.98353 0.88293
   7   2   0 2165.88 206.457   2 0.27706 0.26451 0.06304 0.10336 0.99354-0.89311
   7   2   0 1922.66 188.045   8 0.31818 0.22348-0.07046 0.23714 0.98802-0.88753
   7  -2   0 2100.66 226.161   8 0.27950 0.26204-0.05507-0.11144 0.99377-0.89337
  -7   2   0 2209.22 181.112   6-0.24809-0.29391 0.15779 0.00899-0.98522 0.88469
  -7  -2   0 1969.32 207.745   7-0.30862-0.23334 0.03904-0.20583-0.99113 0.89056
  -8   2   0 206.438 141.927   7-0.32095-0.29857 0.04136 0.12538-0.98930 0.87433
   8   2   0 688.025 131.215   8 0.35493 0.26412-0.08517 0.25187 0.98068-0.86585
  -8  -2   0 742.374 137.801   3-0.30914-0.31081-0.08599-0.08084-0.98804 0.87293
   8  -2   0 566.244 128.637   8 0.31347 0.30542-0.06858-0.09792 0.98882-0.87409
  -8  -2   0 678.550 138.704   7-0.34442-0.27495 0.04580-0.21261-0.98531 0.87036
   8   2   0 657.532 120.726   2 0.30549 0.31345 0.09831 0.06808 0.98735-0.87257
  -9  -2   0 989.625 185.219   7-0.38091-0.31587 0.05273-0.21954-0.97774 0.84842
   9   2   0 1032.39 164.650   8 0.39219 0.30424-0.10021 0.26690 0.97128-0.84211
  -9  -2   0 1236.66 198.752   3-0.34112-0.35631-0.11442-0.05236-0.98012 0.85061
   9  -2   0 1175.24 194.466   8 0.34839 0.34788-0.08255-0.08394 0.98212-0.85305
   9   2   0 1255.91 176.924   2 0.33556 0.36075 0.13631 0.03008 0.97819-0.84908
  -9   2   0 792.659 204.193   7-0.35676-0.34019 0.04814 0.11859-0.98294 0.85357
  10   2   0 29.3864 57.8562   8 0.42979 0.34402-0.11548 0.28219 0.95969-0.81617
  10   2   0 -9.8759 47.6681   2 0.36685 0.40684 0.17667-0.01028 0.96556-0.82212
 -10   2   0 -22.130 94.4667   7-0.39311-0.38126 0.05505 0.11167-0.97483 0.83106
 -10  -2   0 94.6423 67.0291   7-0.41786-0.35633 0.05976-0.22659-0.96832 0.82461
  10  -2   0 -41.732 79.2889   8 0.38399 0.38966-0.09689-0.06960 0.97352-0.83012
 -10  -2   0 122.848 87.6399   3-0.37415-0.40075-0.14422-0.02254-0.96960 0.82568
 -11  -2   0 419.820 136.706   3-0.40796-0.44438-0.17520 0.00848-0.95617 0.79782
  11   2   0 367.904 119.901   5 0.41544 0.43571 0.13531 0.03132 0.96096-0.80310
  11  -2   0 446.387 139.300   8 0.42010 0.43092-0.11153-0.05495 0.96289-0.80515
 -11  -2   0 319.475 178.613   7-0.45514-0.39645 0.06691-0.23376-0.95691 0.79882
 -11   2   0 9.30509 115.014   7-0.42988-0.42193 0.06206 0.10463-0.96485 0.80668
  11   2   0 406.064 126.571   8 0.46764 0.38356-0.13099 0.29769 0.94572-0.78787
   0  -3   0 4.53861 9.33348   3-0.35291 0.35302-0.12502-0.12506-0.97665 0.97660
   0   3   0 0.03109 8.34447   2 0.32665-0.32671 0.12498 0.12497 0.98119-0.98116
   0  -3   0 -4.0917 7.52527   8 0.45306-0.45302-0.12500-0.12498 0.95139-0.95142
   0  -3   0 -5.7778 12.9083   9 0.16297-0.16295-0.12497-0.12497 0.99192-0.99194
   0  -3   0 -14.372 13.6209   4-0.14919 0.14900-0.12506-0.12509-0.99153 0.99150
   0   3   0 -0.3309 15.5572   6-0.23758 0.23763 0.12501 0.12507-0.99063 0.99064
   1  -3   0 948.658 60.1832   3-0.54359 0.62115-0.30534 0.05542-0.86913 0.88339
  -1  -3   0 915.008 83.5555   4-0.16369 0.08601-0.08644-0.16379-0.99603 0.98162
  -1  -3   0 804.365 86.7990   9 0.14072-0.21808-0.18049-0.06943 0.98265-0.99702
   1   3   0 790.553 81.6503   2 0.26931-0.19198 0.05353 0.19635 0.99484-0.98046
  -1   3   0 869.524 60.6525   7-0.31348 0.23619 0.03995 0.21019-0.99043 0.97607
  -1   3   0 793.890 88.4353   6-0.21913 0.14170 0.06917 0.18097-0.99699 0.98264
   1  -3   0 916.300 82.3998   9 0.17995-0.10256-0.08124-0.16870 0.99667-0.98234
  -1   3   0 850.474 65.0844   2 0.43851-0.51598 0.27278-0.02277 0.92283-0.93715
   1   3   0 808.720 78.9910   6-0.26725 0.34477 0.21972 0.03026-0.97151 0.98587
   1  -3   0 806.653 68.6349   8 0.27291-0.19553-0.05245-0.19744 0.99456-0.98023
   1   3   0 808.638 84.4756   1 0.17986-0.10239 0.08126 0.16873 0.99669-0.98229
   2  -3   0 1549.08 113.493   8 0.22498-0.07026-0.03356-0.21630 0.99862-0.96995
   2  -3   0 1527.39 129.825   4-0.10489 0.25969-0.23786-0.01208-0.96834 0.99703
  -2  -3   0 1544.29 102.787   4-0.17068 0.01550-0.06747-0.18282-0.99762 0.96882
  -2   3   0 1595.78 130.387   6-0.21018 0.05529 0.04285 0.20732-0.99876 0.97003
   2   3   0 1613.30 115.358   1 0.18389-0.02899 0.05906 0.19098 0.99826-0.96950
   2  -3   0 1519.12 100.355   9 0.18978-0.03502-0.05539-0.19456 0.99845-0.96977
  -2   3   0 1517.34 103.392   7-0.23776 0.08299 0.02575 0.22444-0.99823 0.96951
  -2  -3   0 1523.46 126.113   9 0.11445-0.26918-0.24371-0.00620 0.96757-0.99629
  -2  -3   0 1397.09 71.1994   7-0.35725 0.20236 0.04823-0.29822-0.98284 0.95412
   2   3   0 1616.87 105.289   6-0.30816 0.46309 0.36371-0.11385-0.92094 0.94961
  -3  -3   0 6301.42 204.284   7-0.28878 0.05650 0.03531-0.28534-0.99370 0.95061
  -3  -3   0 6623.65 274.122   9 0.08502-0.31712-0.31166 0.06177 0.94570-0.98877
  -3   3   0 6518.68 277.957   6-0.20885-0.02351 0.03896 0.21123-0.99895 0.95586
   3  -3   0 6583.87 282.164   4-0.07724 0.30952-0.30455 0.05473-0.94724 0.99026
   3   3   0 6384.66 224.671   1 0.18324 0.04908 0.06267 0.18740 0.99804-0.95491
  -3  -3   0 5836.36 184.495   4-0.16666-0.06599-0.07841-0.17193-0.99676 0.95358
   3   3   0 7402.47 235.648   6-0.35445 0.58674 0.56198-0.31225-0.80009 0.84300
   3   3   0 6529.91 170.072   8 0.33290-0.10071-0.07634 0.32636 0.98530-0.94220
   3  -3   0 6525.18 193.773   9 0.18912 0.04301-0.05713-0.19281 0.99835-0.95532
   3  -3   0 6631.86 271.908   8 0.21759 0.01450-0.03065-0.21919 0.99899-0.95597
  -3   3   0 6247.65 251.877   7-0.22550-0.00675 0.02345 0.22673-0.99889 0.95580
   4  -3   0 2469.82 188.388   4-0.04689 0.35664-0.37474 0.12507-0.91861 0.97593
   4  -3   0 2300.79 181.144   8 0.22768 0.08176-0.03462-0.21521 0.99846-0.94111
  -4   3   0 2184.30 170.978   7-0.23536-0.07434 0.02530 0.22490-0.99837 0.94091
  -4  -3   0 2220.00 105.093   4-0.14385-0.16624-0.13906-0.11132-0.98947 0.93193
   4   3   0 2036.31 121.700   8 0.31001-0.00043-0.06720 0.31722 0.98940-0.93194
   4  -3   0 2149.37 102.445   9 0.17069 0.13880-0.10524-0.14471 0.99434-0.93696
   4   3   0 2239.83 131.561   1 0.17679 0.13292 0.09782 0.15225 0.99518-0.93769
  -4   3   0 2161.47 171.987   6-0.21347-0.09633 0.05249 0.19770-0.99820 0.94074
  -4  -3   0 2220.43 147.680   7-0.28353-0.02614 0.03432-0.28438-0.99431 0.93685
  -4   3   0 2229.25 69.8261   3-0.36672 0.05695-0.13748 0.38747-0.97219 0.91475
  -4  -3   0 2075.87 166.567   9 0.05307-0.36253-0.38223 0.13235 0.91634-0.97375
  -5   3   0 979.553 66.1826   3-0.35799-0.02925-0.12958 0.37960-0.97506 0.90325
   5   3   0 853.184 78.3334   1 0.16199 0.22508 0.17384 0.07622 0.98457-0.91274
  -5  -3   0 977.221 59.8868   4-0.07593-0.31150-0.30764 0.05723-0.94612 0.87428
  -5   3   0 710.653 103.628   6-0.22273-0.16450 0.07993 0.17025-0.99604 0.92422
  -5   3   0 842.588 117.213   7-0.25552-0.13164 0.02907 0.22112-0.99699 0.92515
   5   3   0 897.134 96.8026   8 0.32032 0.06663-0.07131 0.32132 0.98764-0.91584
  -5  -3   0 807.933 102.654   7-0.29829-0.08879 0.03709-0.28717-0.99253 0.92070
   5  -3   0 874.711 128.864   8 0.24690 0.13991-0.04218-0.20762 0.99712-0.92542
   5   3   0 974.125 124.221   2 0.25265 0.13416 0.03322 0.21650 0.99707-0.92533
   5  -3   0 976.754 127.248   4-0.01432 0.40152-0.44668 0.19712-0.88175 0.95336
  -5  -3   0 851.476 114.214   9 0.01907-0.40590-0.45378 0.20393 0.87894-0.95069
   5  -3   0 855.717 52.3067   9 0.11009 0.27673-0.25396 0.00400 0.96465-0.89293
  -6  -3   0 251.754 65.7275   7-0.32194-0.14256 0.04155-0.29165-0.98915 0.90295
   6   3   0 283.829 66.6253   8 0.34270 0.12164-0.08026 0.33028 0.98333-0.89717
  -6   3   0 262.937 44.1306   3-0.38007-0.08460-0.14961 0.39964-0.96745 0.88127
   6  -3   0 220.684 68.0374   8 0.27146 0.19271-0.05188-0.19791 0.99472-0.90868
  -6   3   0 202.909 53.7909   6-0.23560-0.22905 0.11891 0.13125-0.99150 0.90531
   6  -3   0 354.531 86.9430   4 0.02011 0.44454-0.51897 0.26954-0.83605 0.92190
  -6  -3   0 335.564 85.5901   9-0.01664-0.44756-0.52507 0.27525 0.83299-0.91907
  -6   3   0 201.040 72.9737   7-0.28129-0.18332 0.03390 0.21629-0.99455 0.90834
   6   3   0 293.498 77.7292   2 0.27005 0.19412 0.05443 0.19526 0.99472-0.90863
   7   3   0 860.916 139.065   2 0.29126 0.25028 0.08059 0.16909 0.99073-0.89031
   7   3   0 673.025 106.766   8 0.37083 0.17089-0.09158 0.34160 0.97692-0.87640
  -7   3   0 625.021 113.438   6-0.25125-0.29079 0.16781 0.08232-0.98331 0.88276
  -7   3   0 704.390 135.757   7-0.31045-0.23162 0.03938 0.21080-0.99087 0.89027
  -7  -3   0 678.667 124.336   7-0.35030-0.19161 0.04691-0.29702-0.98420 0.88364
  -7  -3   0 242.636 81.6798   9-0.05378-0.48779-0.59508 0.34527 0.77792-0.87832
   7  -3   0 859.269 151.724   8 0.29941 0.24211-0.06298-0.18681 0.99105-0.89068
  -7  -3   0 638.910 128.136   3-0.29491-0.24756-0.07346-0.17680-0.99087 0.89013
   8  -3   0 710.402 154.342   8 0.32966 0.28923-0.07504-0.17474 0.98592-0.87121
  -8  -3   0 748.772 143.297   7-0.38147-0.23785 0.05283-0.30295-0.97761 0.86268
   8   3   0 859.034 137.153   8 0.40216 0.21695-0.10424 0.35427 0.96842-0.85356
  -8  -3   0 748.598 147.916   3-0.32127-0.29870-0.09672-0.15352-0.98529 0.87015
  -8   3   0 858.395 162.707   7-0.34181-0.27770 0.04531 0.20487-0.98579 0.87079
  -8   3   0 755.487 125.445   6-0.26904-0.35037 0.22565 0.02446-0.96996 0.85505
   8   3   0 750.444 146.840   2 0.31530 0.30362 0.11063 0.13906 0.98466-0.86990
  -9   3   0 161.745 105.172   7-0.37470-0.32226 0.05154 0.19862-0.97915 0.84976
   9   3   0 375.967 116.101   2 0.34144 0.35484 0.14384 0.10584 0.97606-0.84696
   9  -3   0 261.603 87.3116   8 0.36153 0.33473-0.08783-0.16194 0.97916-0.85011
  -9  -3   0 318.784 124.673   7-0.41443-0.28229 0.05911-0.30926-0.96927 0.83996
   9   3   0 241.347 101.863   8 0.43544 0.26105-0.11779 0.36781 0.95775-0.82855
  -9  -3   0 233.549 122.977   3-0.34962-0.34784-0.12205-0.12817-0.97765 0.84810
  10   3   0 57.9810 69.8900   2 0.36922 0.40444 0.17978 0.06989 0.96447-0.82104
 -10  -3   0 79.8446 79.3710   3-0.37948-0.39545-0.14907-0.10111-0.96767 0.82370
 -10  -3   0 347.861 118.263   7-0.44863-0.32550 0.06566-0.31581-0.95905 0.81536
 -10   3   0 1.22518 86.1793   7-0.40865-0.36573 0.05800 0.19213-0.97084 0.82705
  10  -3   0 72.1095 104.085   8 0.39460 0.37904-0.10118-0.14859 0.97061-0.82723
 -11   3   0 13.9349 71.5701   7-0.44342-0.40841 0.06466 0.18547-0.96071 0.80251
 -11  -3   0 11.9572 88.2168   7-0.48370-0.36783 0.07241-0.32258-0.94681 0.78874
  11  -3   0 61.3754 93.6591   8 0.42854 0.42245-0.11497-0.13479 0.96011-0.80240
  11   3   0 98.2427 53.4924   5 0.42150 0.42969 0.13900 0.11092 0.95876-0.80087
   0  -4   0 2727.21 139.122   3-0.39871 0.39888-0.16667-0.16674-0.96013 0.96004
   0  -4   0 2942.96 182.276   4-0.13317 0.13291-0.16673-0.16679-0.98473 0.98468
   0   4   0 2940.66 182.604   6-0.25089 0.25096 0.16667 0.16677-0.98353 0.98354
   0  -4   0 2933.63 110.956   8 0.55352-0.55346-0.16667-0.16663 0.90449-0.90455
   0   4   0 2660.32 181.525   1 0.16345-0.16338 0.16657 0.16667 0.98585-0.98580
   0  -4   0 2805.10 173.602   9 0.14636-0.14633-0.16661-0.16662 0.98531-0.98534
   0   4   0 2700.86 117.314   5 0.46642-0.46649 0.16659 0.16662 0.94019-0.94013
   0   4   0 2882.84 157.210   2 0.35914-0.35920 0.16664 0.16662 0.96898-0.96894
   1  -4   0 48.2975 49.0891   9 0.15740-0.08000-0.13907-0.19418 0.98991-0.97559
  -1  -4   0 84.4882 48.6159   9 0.13031-0.20766-0.20584-0.12738 0.97719-0.99157
  -1   4   0 46.8914 58.5220   6-0.23622 0.15883 0.12083 0.21268-0.99123 0.97688
   1  -4   0 12.4571 26.7787   8 0.36760-0.29019-0.09028-0.24296 0.97771-0.96340
   1   4   0 66.5090 51.4180   6-0.27304 0.35059 0.23904 0.09431-0.96629 0.98064
   1   4   0 55.6882 32.6373   2 0.30976-0.23243 0.10366 0.22954 0.98621-0.97183
  -1   4   0 47.2926 30.8648   7-0.46238 0.38520 0.06830 0.26519-0.95447 0.94005
  -1  -4   0 104.150 49.4621   3-0.32513 0.24780-0.10016-0.23336-0.98435 0.96991
  -1  -4   0 16.2084 27.6759   4-0.14245 0.06469-0.14271-0.19088-0.98890 0.97446
   1  -4   0 31.4832 28.8023   3-0.53912 0.61673-0.30087-0.03239-0.87303 0.88726
  -1   4   0 19.5167 25.5898   2 0.44262-0.52009 0.27847 0.05488 0.91971-0.93402
   1   4   0 13.0924 28.7187   1 0.16946-0.09196 0.13624 0.19706 0.99058-0.97617
   2   4   0 2758.50 167.037   6-0.30264 0.45763 0.34312-0.00989-0.92988 0.95855
  -2   4   0 2726.69 194.145   6-0.22829 0.07342 0.09664 0.23689-0.99431 0.96559
  -2  -4   0 2562.38 168.787   3-0.28912 0.13426-0.06838-0.26523-0.99191 0.96310
  -2   4   0 2456.86 136.830   7-0.33967 0.18499 0.04490 0.28866-0.98617 0.95743
  -2  -4   0 2571.29 183.596   9 0.11020-0.26493-0.25370-0.07952 0.96473-0.99346
  -2  -4   0 2425.06 154.419   4-0.14525-0.00999-0.13538-0.19827-0.99004 0.96121
  -2  -4   0 3333.52 103.608   7-0.67155 0.51660 0.10924-0.44245-0.84470 0.81612
   2   4   0 2534.11 171.009   1 0.17208-0.01715 0.12266 0.21068 0.99238-0.96360
   2  -4   0 2570.84 157.030   9 0.16205-0.00728-0.12732-0.20593 0.99160-0.96293
   2  -4   0 2639.81 158.873   8 0.30003-0.14528-0.06323-0.26995 0.99096-0.96231
  -3   4   0 1800.42 162.673   6-0.22613-0.00621 0.09011 0.24345-0.99503 0.95193
   3   4   0 2028.72 141.013   6-0.33753 0.56991 0.48259-0.14951-0.85674 0.89968
   3   4   0 1840.21 143.667   1 0.17097 0.06137 0.12844 0.20492 0.99164-0.94849
  -3  -4   0 1924.11 106.694   7-0.45009 0.21778 0.06594-0.39921-0.95858 0.91553
   3   4   0 2119.92 79.2654   8 0.66010-0.42787-0.21219 0.54564 0.83052-0.78738
  -3   4   0 1981.67 146.088   7-0.30134 0.06918 0.03766 0.29593-0.99213 0.94903
  -3  -4   0 1732.45 124.371   4-0.13933-0.09339-0.15083-0.18287-0.98757 0.94436
   3  -4   0 1835.09 170.117   4-0.07831 0.31054-0.30204-0.03118-0.94814 0.99116
   3  -4   0 1850.56 126.547   9 0.15807 0.07407-0.13738-0.19588 0.99016-0.94714
  -3  -4   0 1786.11 160.675   9 0.08672-0.31881-0.30782-0.02538 0.94710-0.99018
   3   4   0 1717.12 158.237   2 0.27258-0.04050 0.05753 0.27557 0.99431-0.95125
   3  -4   0 1932.04 157.843   8 0.27739-0.04529-0.05423-0.27891 0.99403-0.95103
  -4  -4   0 754.339 115.255   9 0.06039-0.36986-0.36635 0.03316 0.92357-0.98099
   4   4   0 763.963 69.2185   8 0.48148-0.17186-0.13669 0.47010 0.94001-0.88253
   4  -4   0 625.374 107.379   4-0.05339 0.36311-0.35997 0.02687-0.92521 0.98255
  -4   4   0 678.245 106.233   6-0.22876-0.08103 0.09808 0.23547-0.99415 0.93668
   4  -4   0 843.283 82.8236   9 0.14127 0.16822-0.17914-0.15411 0.98292-0.92554
   4   4   0 813.977 117.580   2 0.27238 0.03706 0.05729 0.27577 0.99434-0.93694
   4  -4   0 839.493 45.7960   5 0.61644-0.30685 0.26235-0.59536 0.84389-0.78664
  -4  -4   0 754.829 82.2602   7-0.39371 0.08403 0.05516-0.38847-0.97468 0.91725
   4  -4   0 819.949 114.874   8 0.27623 0.03322-0.05377-0.27935 0.99417-0.93683
  -4   4   0 765.429 104.228   7-0.29502-0.01462 0.03647 0.29713-0.99295 0.93547
   4   4   0 770.510 92.6298   1 0.16539 0.14434 0.15684 0.17652 0.98747-0.92996
  -4  -4   0 754.290 79.7415   4-0.12048-0.18966-0.19900-0.13472-0.97805 0.92049
   5  -4   0 5196.59 316.726   8 0.28696 0.09985-0.05803-0.27507 0.99281-0.92114
  -5  -4   0 5971.61 208.972   4-0.07916-0.30837-0.30001-0.03375-0.94886 0.87696
   5  -4   0 5202.88 322.932   4-0.02596 0.41315-0.42137 0.08842-0.89564 0.96728
   5   4   0 5387.95 240.059   1 0.15398 0.23313 0.21257 0.12078 0.97677-0.90491
   5   4   0 4892.47 300.912   2 0.27974 0.10706 0.06634 0.26668 0.99306-0.92131
   5   4   0 5676.69 228.432   8 0.44026-0.05324-0.11976 0.45315 0.95606-0.88423
   5  -4   0 5881.55 177.568   5 0.49641-0.10948 0.18526-0.51826 0.92547-0.85383
  -5  -4   0 5098.13 303.775   3-0.28297-0.10446-0.06300-0.27070-0.99294 0.92097
  -5  -4   0 5654.33 263.117   7-0.38287-0.00420 0.05310-0.38645-0.97729 0.90548
  -5   4   0 5140.23 307.041   6-0.23536-0.15188 0.11821 0.21534-0.99160 0.91976
  -5  -4   0 5163.94 307.332   9 0.03162-0.41845-0.42778 0.09463 0.89347-0.96523
   5  -4   0 5415.94 187.683   9 0.10204 0.28479-0.27271-0.06054 0.95897-0.88725
  -5   4   0 5192.53 307.292   7-0.30419-0.08291 0.03820 0.29541-0.99175 0.91990
  -6  -4   0 67.5428 47.4310   3-0.29761-0.16734-0.07582-0.25788-0.99037 0.90399
   6  -4   0 41.7803 44.7158   4 0.00368 0.46097-0.48495 0.15213-0.85872 0.94463
  -6  -4   0 79.1119 58.2216   9 0.00073-0.46494-0.49087 0.15774 0.85620-0.94229
  -6   4   0 125.477 60.9873   7-0.32204-0.14254 0.04157 0.29204-0.98913 0.90290
   6   4   0 14.1813 38.5738   2 0.29261 0.17155 0.08227 0.25073 0.99044-0.90435
   6  -4   0 -7.9384 35.3093   8 0.30493 0.15923-0.06518-0.26791 0.99021-0.90419
   6   4   0 49.0375 22.7500   8 0.43683 0.02757-0.11836 0.45174 0.95727-0.87109
  -6  -4   0 30.0549 36.6119   7-0.39114-0.07332 0.05467-0.38804-0.97531 0.88914
  -6   4   0 6.75203 48.1335   6-0.24520-0.21946 0.14871 0.18481-0.98684 0.90064
  -7  -4   0 2482.87 258.259   3-0.31666-0.22580-0.09264-0.24104-0.98637 0.88559
   7   4   0 2920.02 262.272   2 0.30961 0.23192 0.10348 0.22949 0.98625-0.88583
  -7  -4   0 2921.65 241.516   7-0.40927-0.13260 0.05813-0.39152-0.97067 0.87013
   7  -4   0 2810.60 266.876   4 0.03526 0.50683-0.54958 0.21687-0.81373 0.91387
  -7   4   0 2942.83 256.681   6-0.25766-0.28441 0.18836 0.14514-0.97903 0.87846
   7  -4   0 2844.95 281.312   8 0.32764 0.21388-0.07424-0.25883 0.98630-0.88595
  -7  -4   0 3321.89 286.383   9-0.03202-0.50956-0.55456 0.22144 0.81110-0.91153
  -7   4   0 2647.63 265.720   7-0.34520-0.19683 0.04595 0.28767-0.98516 0.88454
  -8  -4   0 -30.481 56.1758   9-0.06642-0.55252-0.61791 0.28481 0.75746-0.87220
  -8   4   0 86.3570 74.1945   6-0.27222-0.34724 0.23626 0.09721-0.96707 0.85213
   8   4   0 -18.799 54.2170   2 0.32977 0.28913 0.12894 0.20402 0.98017-0.86541
   8  -4   0 -115.34 100.746   8 0.35364 0.26526-0.08465-0.24840 0.98097-0.86628
  -8   4   0 84.5155 71.1632   7-0.37189-0.24760 0.05101 0.28260-0.97977 0.86475
  -8  -4   0 -30.888 54.4187   7-0.43313-0.18613 0.06269-0.39610-0.96388 0.84897
  -8  -4   0 21.4964 67.2954   3-0.33899-0.28098-0.11251-0.22115-0.98072 0.86553
  -9  -4   0 777.851 162.001   7-0.46063-0.23603 0.06796-0.40140-0.95507 0.82578
  -9  -4   0 491.186 146.004   3-0.36378-0.33367-0.13482-0.19883-0.97317 0.84357
  -9   4   0 664.437 155.435   7-0.40101-0.29593 0.05655 0.27705-0.97284 0.84342
   9   4   0 541.426 157.822   2 0.35237 0.34390 0.15789 0.17506 0.97181-0.84272
   9  -4   0 649.571 160.779   8 0.38197 0.31429-0.09607-0.23699 0.97406-0.84505
 -10  -4   0 153.413 106.262   7-0.49058-0.28349 0.07374-0.40719-0.94420 0.80053
  10  -4   0 68.4487 65.9865   8 0.41204 0.36157-0.10826-0.22479 0.96543-0.82209
 -10  -4   0 -24.002 73.1683   3-0.39050-0.38445-0.15913-0.17449-0.96346 0.81944
  10   4   0 37.2595 70.1662   2 0.37690 0.39673 0.18984 0.14311 0.96079-0.81737
 -10   4   0 -75.990 71.3475   7-0.43189-0.34250 0.06245 0.27114-0.96426 0.82043
  11   4   0 378.219 131.594   2 0.40298 0.44803 0.22445 0.10850 0.94663-0.78889
   0   5   0 -13.893 32.6084   6-0.26379 0.26390 0.20833 0.20848-0.97438 0.97438
   0  -5   0 8.35653 19.0701   3-0.44351 0.44373-0.20832-0.20843-0.93888 0.93875
   0   5   0 -21.149 18.8481   5 0.53286-0.53296 0.20823 0.20828 0.90481-0.90472
   0  -5   0 -0.9680 33.8204   9 0.12930-0.12927-0.20827-0.20828 0.97663-0.97666
   0  -5   0 -12.594 13.1804   8 0.65126-0.65116-0.20835-0.20830 0.83782-0.83793
   0   5   0 -4.5819 16.4757   2 0.39089-0.39097 0.20832 0.20829 0.95352-0.95347
   0   5   0 35.7590 27.1437   1 0.15490-0.15480 0.20819 0.20834 0.97774-0.97766
  -1   5   0 360.109 44.5590   7-0.62350 0.54643 0.09969 0.31713-0.87764 0.86308
  -1  -5   0 374.267 75.2262   9 0.11719-0.19454-0.23721-0.17933 0.96934-0.98373
   1  -5   0 342.951 52.8418   3-0.55717 0.63484-0.31902-0.09757-0.85675 0.87091
  -1   5   0 310.986 75.0167   6-0.25156 0.17419 0.16880 0.24806-0.98312 0.96875
   1   5   0 315.989 64.4108   6-0.28150 0.35907 0.26779 0.14892-0.95764 0.97198
   1   5   0 288.040 51.3157   5 0.41913-0.34180 0.13755 0.27898 0.95963-0.94521
   1  -5   0 335.949 66.1433   9 0.13682-0.05942-0.19005-0.22650 0.98068-0.96637
   1   5   0 278.252 70.2230   1 0.15955-0.08202 0.18578 0.23082 0.98234-0.96790
  -1   5   0 329.312 56.7915   2 0.45855-0.53604 0.30074 0.11594 0.90681-0.92111
   1  -5   0 281.347 47.1829   8 0.46371-0.38627-0.12937-0.28719 0.94728-0.93300
  -1  -5   0 250.989 56.0663   3-0.37579 0.29851-0.14570-0.27117-0.96902 0.95454
   1  -5   0 334.965 73.6915   4-0.10595 0.18313-0.23522-0.18160-0.96906 0.98336
  -2  -5   0 489.993 86.2023   3-0.33791 0.18311-0.11155-0.30541-0.98102 0.95217
   2  -5   0 503.859 76.7282   8 0.38078-0.22599-0.09559-0.32090 0.97438-0.94574
   2  -5   0 540.518 95.9610   4-0.09130 0.24598-0.27098-0.14575-0.95858 0.98724
   2   5   0 409.512 79.2366   2 0.32095-0.16625 0.11776 0.29872 0.98298-0.95425
  -2   5   0 499.099 95.0393   6-0.24443 0.08958 0.14632 0.27059-0.98726 0.95853
  -2   5   0 671.867 80.6327   2 0.55381-0.70872 0.44294-0.02618 0.79558-0.82423
   2   5   0 476.205 86.8698   1 0.16133-0.00636 0.17708 0.23955 0.98398-0.95517
   2  -5   0 552.268 84.6387   9 0.13867 0.01609-0.18550-0.23104 0.98163-0.95297
  -2   5   0 562.228 69.1566   7-0.45709 0.30253 0.06728 0.34964-0.95626 0.92745
  -2  -5   0 397.141 83.4958   9 0.10123-0.25595-0.27459-0.14194 0.95837-0.98711
   2   5   0 568.714 88.9252   6-0.30455 0.45958 0.35017 0.06641-0.92688 0.95554
  -3   5   0 2782.99 228.203   6-0.24188 0.00954 0.13831 0.27862-0.98859 0.94548
  -3  -5   0 3013.75 216.846   3-0.31941 0.08708-0.09507-0.32196-0.98573 0.94250
   3   5   0 3370.13 238.964   2 0.30789-0.07583 0.10132 0.31509 0.98671-0.94364
   3   5   0 3302.33 206.983   6-0.33178 0.56423 0.45784-0.04139-0.87200 0.91493
   3  -5   0 2930.69 187.982   9 0.13326 0.09887-0.19870-0.21786 0.97881-0.93579
   3  -5   0 2805.88 198.554   8 0.34450-0.11237-0.08099-0.33546 0.98295-0.93997
  -3  -5   0 3112.62 134.276   7-0.69412 0.46176 0.11377-0.53027-0.82723 0.78432
   3   5   0 2913.61 206.560   1 0.15995 0.07244 0.18386 0.23280 0.98271-0.93953
   3  -5   0 2612.28 221.938   4-0.07331 0.30549-0.31382-0.10280-0.94385 0.98686
  -3  -5   0 3008.26 233.009   9 0.08195-0.31405-0.31857-0.09795 0.94313-0.98622
  -3  -5   0 2828.53 186.945   4-0.11679-0.11599-0.20828-0.20877-0.97590 0.93267
  -3   5   0 2947.82 185.414   7-0.39170 0.15962 0.05478 0.36221-0.97518 0.93203
   4   5   0 77.8921 48.1569   2 0.30443 0.00500 0.09699 0.31937 0.98762-0.93021
  -4  -5   0 9.46084 19.4879   7-0.54997 0.24027 0.08526-0.50180-0.91841 0.86105
  -4   5   0 43.8693 32.8658   7-0.36765 0.05810 0.05021 0.36682-0.98069 0.92317
   4  -5   0 73.6075 50.8703   4-0.05241 0.36210-0.36220-0.05429-0.92423 0.98157
   4  -5   0 6.94264 21.3534   9 0.11783 0.19165-0.23571-0.18084 0.96975-0.91238
  -4   5   0 71.8358 44.0339   6-0.24327-0.06652 0.14269 0.27425-0.98787 0.93039
   4  -5   0 43.2239 40.0024   8 0.33253-0.02304-0.07619-0.34023 0.98537-0.92805
  -4  -5   0 42.0363 40.0544   3-0.31391 0.00404-0.09020-0.32687-0.98699 0.92938
  -4  -5   0 26.5991 21.7039   4-0.10020-0.21001-0.24934-0.16774-0.96511 0.90751
   4   5   0 65.4295 37.8019   6-0.35992 0.66974 0.59066-0.17435-0.77638 0.83353
  -4  -5   0 31.1197 34.8841   9 0.05981-0.36927-0.36761-0.04888 0.92301-0.98043
   4   5   0 13.1007 29.2898   1 0.15489 0.15489 0.20824 0.20841 0.97773-0.92018
  -5   5   0 1060.89 144.662   7-0.36444-0.02260 0.04960 0.36744-0.98136 0.90948
  -5  -5   0 1181.48 123.453   7-0.49901 0.11193 0.07536-0.49194-0.94089 0.86914
  -5   5   0 920.781 154.796   6-0.24808-0.13917 0.15776 0.25917-0.98522 0.91338
   5   5   0 788.600 127.772   2 0.30815 0.07865 0.10165 0.31468 0.98664-0.91490
   5  -5   0 776.757 129.458   8 0.33471 0.05211-0.07706-0.33933 0.98495-0.91329
   5  -5   0 991.187 157.993   4-0.02894 0.41611-0.41481-0.00155-0.89907 0.97072
  -5  -5   0 735.766 124.256   3-0.31745-0.06993-0.09334-0.32375-0.98619 0.91417
  -5  -5   0 911.074 144.673   9 0.03512-0.42195-0.42044 0.00397 0.89738-0.96915
  -6  -5   0 34.5583 27.1335   7-0.48424 0.01979 0.07251-0.48913-0.94661 0.86048
   6   5   0 0.70684 41.7003   2 0.31735 0.14681 0.11322 0.30308 0.98406-0.89798
   6  -5   0 57.8820 53.2829   4-0.00317 0.46781-0.47052 0.05429-0.86771 0.95363
  -6   5   0 0.67594 50.3278   7-0.37317-0.09135 0.05125 0.36579-0.97949 0.89322
  -6   5   0 -28.905 59.6403   6-0.25575-0.20894 0.18222 0.23469-0.98036 0.89414
  -6  -5   0 -0.4811 47.1357   9 0.00817-0.47237-0.47595 0.05949 0.86564-0.95175
  -6  -5   0 68.3406 56.7200   3-0.32752-0.13739-0.10229-0.31482-0.98375 0.89734
   6  -5   0 -90.398 59.9397   8 0.34585 0.11833-0.08153-0.33485 0.98267-0.89667
   7  -5   0 491.069 127.007   4 0.02469 0.51741-0.52832 0.11222-0.82943 0.92961
  -7   5   0 548.586 133.819   7-0.38936-0.15262 0.05433 0.36272-0.97575 0.87509
   7   5   0 553.447 132.353   2 0.33079 0.21075 0.13023 0.28604 0.97983-0.87941
  -7   5   0 424.373 98.5469   6-0.26584-0.27627 0.21504 0.20182-0.97271 0.87212
  -7  -5   0 320.264 101.150   9-0.02082-0.52076-0.53316 0.11673 0.82716-0.92760
   7  -5   0 518.095 132.383   8 0.36299 0.17854-0.08842-0.32793 0.97882-0.87849
  -7  -5   0 316.988 97.2875   3-0.34243-0.20001-0.11559-0.30151-0.97975 0.87894
  -8   5   0 91.9542 76.7437   6-0.27792-0.34158 0.25554 0.16130-0.96145 0.84649
  -8  -5   0 93.7010 80.9068   3-0.36098-0.25895-0.13229-0.28481-0.97409 0.85886
  -8   5   0 92.2679 77.6190   7-0.41052-0.20891 0.05836 0.35868-0.97033 0.85528
  -8  -5   0 30.2404 43.5299   9-0.05167-0.56728-0.59121 0.17479 0.78124-0.89601
   8  -5   0 200.009 93.3611   8 0.38437 0.23452-0.09704-0.31930 0.97342-0.85877
   8   5   0 44.5054 49.7889   2 0.34756 0.27134 0.15168 0.26457 0.97373-0.85899
  -9  -5   0 61.0248 63.6592   3-0.38239-0.31506-0.15173-0.26535-0.96659 0.83694
   9  -5   0 121.535 98.8241   8 0.40882 0.28743-0.10695-0.30939 0.96642-0.83744
   9   5   0 2.99748 79.9240   2 0.36698 0.32927 0.17685 0.23939 0.96550-0.83643
  -9   5   0 184.713 104.376   7-0.43518-0.26172 0.06308 0.35397-0.96326 0.83380
 -10  -5   0 66.6844 80.0987   3-0.40603-0.36891-0.17341-0.24364-0.95702 0.81294
  10  -5   0 -101.34 124.249   8 0.43559 0.33803-0.11786-0.29847 0.95770-0.81439
 -10   5   0 -67.756 92.7639   7-0.46238-0.31198 0.06830 0.34874-0.95447 0.81060
  10   5   0 -117.65 81.1339   2 0.38854 0.38507 0.20520 0.21103 0.95479-0.81139
  10   5   0 -152.10 118.401   5 0.42354 0.35033 0.14024 0.27627 0.95800-0.81441
   0  -6   0 1403.73 158.608   9 0.11181-0.11177-0.24992-0.24993 0.96582-0.96585
   0  -6   0 1308.51 124.225   3-0.48723 0.48751-0.24996-0.25013-0.91261 0.91242
   0   6   0 1356.65 158.972   6-0.27629 0.27642 0.24997 0.25019-0.96312 0.96309
   0   6   0 1624.86 121.187   5 0.59748-0.59761 0.24988 0.24994 0.85958-0.85945
   0  -6   0 1230.78 151.067   4-0.09990 0.09950-0.25007-0.25020-0.96490 0.96479
   1   6   0 224.758 71.7808   1 0.14970-0.07214 0.23266 0.26723 0.97208-0.95761
   1   6   0 122.912 30.5040   6-0.29100 0.36861 0.30099 0.19908-0.94634 0.96065
   1   6   0 276.254 69.1936   2 0.38218-0.30486 0.19678 0.30307 0.95813-0.94374
   1  -6   0 165.185 40.8195   8 0.55984-0.48235-0.16933-0.33056 0.90087-0.88664
  -1  -6   0 118.590 46.6642   4-0.10399 0.02609-0.24004-0.26029-0.96774 0.95324
   1   6   0 184.233 46.1380   5 0.48840-0.41110 0.18025 0.31960 0.92960-0.91514
   1  -6   0 240.790 74.7432   4-0.09163 0.16873-0.27019-0.23002-0.95883 0.97309
  -1   6   0 181.653 50.0806   2 0.47926-0.55674 0.33022 0.16979 0.88800-0.90230
   1  -6   0 233.777 67.3078   9 0.11694-0.03954-0.23781-0.26205 0.96918-0.95487
  -1  -6   0 151.522 64.7732   9 0.10245-0.17979-0.27175-0.22809 0.95927-0.97366
  -1  -6   0 192.834 51.2413   3-0.42424 0.34703-0.19028-0.30994-0.94868 0.93415
   1  -6   0 256.801 58.0223   3-0.58382 0.66155-0.34634-0.15358-0.82988 0.84397
  -1   6   0 188.790 69.2162   6-0.26578 0.18843 0.21485 0.28538-0.97276 0.95838
   2  -6   0 1153.42 117.916   8 0.46511-0.31028-0.12994-0.36987 0.94673-0.91813
   2  -6   0 1449.40 178.279   4-0.07975 0.23436-0.29861-0.20150-0.94935 0.97799
   2   6   0 1535.17 168.922   6-0.30976 0.46483 0.36978 0.13016-0.91819 0.94682
  -2   6   0 1462.77 116.836   7-0.58643 0.43200 0.09239 0.40788-0.89952 0.87058
  -2  -6   0 1200.42 140.881   4-0.10308-0.05230-0.24228-0.25809-0.96712 0.93823
  -2   6   0 1309.16 166.884   6-0.25931 0.10448 0.19370 0.30657-0.97783 0.94909
   2  -6   0 1454.93 154.334   9 0.11700 0.03777-0.23766-0.26219 0.96922-0.94056
   2   6   0 1265.69 153.783   1 0.15089 0.00411 0.22713 0.27279 0.97342-0.94458
  -2  -6   0 1298.98 148.966   3-0.38552 0.23080-0.15458-0.34574-0.96540 0.93650
  -2  -6   0 1344.05 163.030   9 0.08948-0.24419-0.30155-0.19829 0.94934-0.97808
  -2   6   0 1635.09 143.666   2 0.55580-0.71072 0.44614 0.05396 0.79242-0.82106
   2   6   0 1493.13 162.983   2 0.35667-0.20198 0.16344 0.33635 0.97003-0.94130
   3   6   0 -8.8081 35.3623   6-0.33179 0.56430 0.45789 0.04192-0.87197 0.91488
  -3  -6   0 31.0841 29.6079   3-0.36390 0.13164-0.13493-0.36547-0.97313 0.92986
  -3   6   0 41.2426 58.4361   6-0.25656 0.02424 0.18481 0.31549-0.97980 0.93668
  -3   6   0 -2.1125 37.6161   7-0.49416 0.26223 0.07443 0.42593-0.94280 0.89957
   3  -6   0 67.2800 50.9836   9 0.11075 0.12138-0.25239-0.24747 0.96510-0.92209
  -3  -6   0 -32.289 27.1799   4-0.09596-0.13689-0.25967-0.24072-0.96207 0.91880
   3   6   0 -14.367 29.9562   2 0.34224-0.11017 0.14486 0.35487 0.97576-0.93269
   3  -6   0 21.1249 39.7545   4-0.06472 0.29685-0.33389-0.16613-0.93610 0.97909
   3   6   0 11.8015 28.6228   1 0.14931 0.08311 0.23449 0.26545 0.97163-0.92842
   3  -6   0 -31.638 35.4802   8 0.41694-0.18476-0.11024-0.38951 0.96390-0.92095
  -3  -6   0 22.2012 33.7246   9 0.07334-0.30543-0.33784-0.16200 0.93563-0.97872
  -4   6   0 982.683 128.825   7-0.45160 0.14216 0.06623 0.43419-0.95808 0.90051
   4  -6   0 963.275 157.623   4-0.04689 0.35652-0.37476-0.12513-0.91860 0.97592
   4   6   0 1166.60 138.451   6-0.35516 0.66506 0.56562-0.06595-0.79719 0.85433
  -4   6   0 931.911 155.235   6-0.25714-0.05265 0.18669 0.31361-0.97940 0.92190
  -4  -6   0 1001.72 150.463   3-0.35446 0.04467-0.12641-0.37405-0.97617 0.91851
   4  -6   0 986.794 122.144   9 0.09620 0.21329-0.28617-0.21368 0.95461-0.89725
   4   6   0 1088.19 160.510   2 0.33641-0.02697 0.13739 0.36229 0.97789-0.92047
   4  -6   0 1069.71 145.630   8 0.39486-0.08535-0.10129-0.39843 0.97053-0.91324
  -4  -6   0 934.221 167.387   9 0.05440-0.36386-0.37935-0.12046 0.91768-0.97511
   5   6   0 -35.649 48.6411   2 0.33729 0.04951 0.13852 0.36111 0.97757-0.90583
  -5   6   0 81.4688 78.8962   6-0.26067-0.12659 0.19810 0.30219-0.97682 0.90496
  -5   6   0 72.5549 54.5881   7-0.43505 0.04811 0.06305 0.43740-0.96330 0.89136
   5  -6   0 28.7675 43.9144   8 0.38872-0.00187-0.09880-0.40088 0.97224-0.90061
  -5  -6   0 56.5595 58.6135   9 0.03293-0.41976-0.42503-0.07477 0.89495-0.96672
  -5  -6   0 -7.2614 65.2826   3-0.35392-0.03340-0.12592-0.37458-0.97634 0.90428
   5  -6   0 27.8407 48.0463   4-0.02653 0.41365-0.42014-0.07963-0.89629 0.96793
  -6  -6   0 324.182 112.182   3-0.36002-0.10484-0.13142-0.36909-0.97441 0.88795
  -6  -6   0 172.659 75.0794   9 0.00918-0.47338-0.47391-0.02586 0.86690-0.95301
  -6   6   0 274.877 99.6860   6-0.26674-0.19796 0.21801 0.28226-0.97195 0.88571
   6  -6   0 298.121 110.120   8 0.39300 0.07120-0.10053-0.39913 0.97105-0.88509
   6   6   0 314.902 113.486   2 0.34347 0.12068 0.14644 0.35316 0.97530-0.88922
   6  -6   0 360.067 122.299   4-0.00386 0.46848-0.46906-0.03058-0.86859 0.95452
  -6   6   0 376.113 97.4264   7-0.43375-0.03066 0.06280 0.43767-0.96370 0.87737
   7  -6   0 123.415 47.8234   4 0.02093 0.52116-0.52066 0.02116-0.83487 0.93506
  -7  -6   0 127.073 83.0410   3-0.37118-0.17120-0.14152-0.35900-0.97065 0.86978
   7   6   0 205.388 90.8094   2 0.35389 0.18764 0.15985 0.33972 0.97119-0.87078
   7  -6   0 64.5463 82.9015   8 0.40443 0.13712-0.10517-0.39447 0.96775-0.86746
  -7   6   0 103.975 57.5211   7-0.44216-0.09973 0.06442 0.43607-0.96111 0.86039
  -7   6   0 49.3140 53.2748   6-0.27501-0.26712 0.24564 0.25459-0.96439 0.86377
  -7  -6   0 111.468 65.6624   9-0.01668-0.52491-0.52515 0.02539 0.83294-0.93338
   8  -6   0 574.807 153.588   4 0.04769 0.57187-0.57412 0.07474-0.79441 0.90884
   8  -6   0 647.127 163.754   8 0.42099 0.19792-0.11189-0.38773 0.96260-0.84798
  -8   6   0 444.963 144.676   6-0.28513-0.33440 0.28039 0.21981-0.95352 0.83853
  -8  -6   0 806.980 184.488   9-0.04448-0.57447-0.57794 0.07821 0.79242-0.90719
  -8  -6   0 876.215 193.974   3-0.38627-0.23362-0.15527-0.34524-0.96511 0.84982
  -8   6   0 509.033 140.019   7-0.45713-0.16224 0.06729 0.43320-0.95625 0.84114
   8   6   0 624.255 159.125   2 0.36771 0.25118 0.17780 0.32175 0.96517-0.85043
  -9  -6   0 20.3737 87.8582   3-0.40449-0.29293-0.17199-0.32851-0.95768 0.82797
  -9   6   0 98.8656 93.4296   7-0.47672-0.22012 0.07106 0.42943-0.94940 0.81988
   9  -6   0 174.814 130.968   8 0.44134 0.25492-0.12021-0.37942 0.95568-0.82673
   9   6   0 179.389 117.510   5 0.42590 0.27061 0.14168 0.35814 0.95712-0.82785
   9   6   0 48.4986 57.5119   2 0.38431 0.31195 0.19959 0.29994 0.95703-0.82797
 -10   6   0 176.400 148.626   7-0.49970-0.27460 0.07549 0.42499-0.94061 0.79668
   0  -7   0 8.73385 25.2217   3-0.52981 0.53016-0.29160-0.29181-0.88089 0.88060
   0   7   0 14.8844 33.6381   6-0.28835 0.28852 0.29162 0.29190-0.94967 0.94961
   0  -7   0 5.24270 45.2576   9 0.09385-0.09381-0.29157-0.29159 0.95279-0.95284
   0   7   0 -15.159 29.1382   2 0.45208-0.45217 0.29166 0.29160 0.91220-0.91214
   0  -7   0 -18.481 44.8796   4-0.08264 0.08216-0.29173-0.29191-0.95174 0.95159
   1  -7   0 372.802 88.3057   9 0.09723-0.01982-0.28381-0.29936 0.95539-0.94108
   1  -7   0 444.921 111.358   4-0.07624 0.15326-0.30692-0.27665-0.94638 0.96061
  -1  -7   0 513.919 109.218   4-0.08520 0.00721-0.28564-0.29805-0.95381 0.93927
   1   7   0 384.610 93.7961   6-0.30088 0.37853 0.33665 0.24678-0.93256 0.94684
  -1   7   0 282.233 89.7016   6-0.27915 0.20183 0.25974 0.32386-0.96016 0.94575
  -1   7   0 457.000 86.3176   2 0.50204-0.57953 0.36346 0.21988 0.86430-0.87859
   1   7   0 411.691 90.5828   2 0.41571-0.33842 0.24160 0.34159 0.93874-0.92434
  -1  -7   0 409.324 80.6515   3-0.47088 0.39374-0.23426-0.34930-0.92313 0.90852
  -1  -7   0 430.009 105.069   9 0.08656-0.16389-0.30818-0.27498 0.94697-0.96136
  -2  -7   0 1295.05 181.315   9 0.07586-0.23057-0.33221-0.25094 0.93787-0.96662
   2   7   0 1315.79 168.598   6-0.31659 0.47171 0.39611 0.18719-0.90563 0.93422
  -2   7   0 1496.98 197.278   6-0.27324 0.11843 0.23970 0.34394-0.96610 0.93733
   2   7   0 1325.45 144.384   5 0.49086-0.33615 0.18178 0.40139 0.92835-0.89952
   2  -7   0 1627.98 182.572   9 0.09600 0.05878-0.28663-0.29652 0.95446-0.92580
   2  -7   0 1526.17 198.839   4-0.06648 0.22102-0.32979-0.25371-0.93773 0.96632
   2  -7   0 1321.42 140.396   8 0.55154-0.39666-0.16584-0.41731 0.90561-0.87705
  -2  -7   0 1235.68 151.782   3-0.43199 0.27734-0.19752-0.38615-0.94486 0.91590
   2   7   0 1165.59 155.645   2 0.39095-0.23626 0.20838 0.37474 0.95349-0.92476
  -2  -7   0 1311.42 164.519   4-0.08323-0.07224-0.29034-0.29338-0.95222 0.92329
   3   7   0 3666.82 280.632   6-0.33487 0.56743 0.47104 0.11213-0.86399 0.90686
   3   7   0 3457.15 288.580   2 0.37568-0.14362 0.18822 0.39483 0.96139-0.91832
   3  -7   0 3229.09 254.261   9 0.08915 0.14299-0.30229-0.28086 0.94908-0.90607
  -3   7   0 3135.46 293.505   6-0.27042 0.03813 0.23025 0.35341-0.96872 0.92558
  -3  -7   0 3246.38 292.215   9 0.06217-0.29424-0.36247-0.22066 0.92528-0.96837
   3  -7   0 3601.61 249.418   8 0.49320-0.26099-0.14153-0.44155 0.93491-0.89199
   3   7   0 2953.81 233.660   5 0.45210-0.21998 0.15775 0.42543 0.94655-0.90338
  -3  -7   0 3146.89 255.458   4-0.07577-0.15716-0.30803-0.27571-0.94598 0.90267
   3  -7   0 3294.94 300.367   4-0.05374 0.28580-0.35917-0.22424-0.92556 0.96851
  -3  -7   0 3072.58 260.069   3-0.40816 0.17598-0.17539-0.40839-0.95608 0.91275
  -4  -7   0 37.8743 40.9745   4-0.06136-0.24900-0.34166-0.24210-0.93296 0.87527
   4   7   0 16.4396 36.8484   5 0.43109-0.12155 0.14485 0.43832 0.95513-0.89761
   4  -7   0 182.574 81.1754   8 0.46190-0.15235-0.12863-0.45441 0.94800-0.89074
   4   7   0 34.5796 54.0922   6-0.35440 0.66436 0.56176 0.02128-0.80027 0.85738
   4  -7   0 2.65607 38.0218   9 0.07514 0.23436-0.33383-0.24933 0.93723-0.87988
  -4   7   0 -24.135 55.6557   6-0.27045-0.03933 0.23032 0.35335-0.96870 0.91118
  -4  -7   0 6.83277 49.9801   9 0.04576-0.35521-0.39793-0.18520 0.90882-0.96626
  -4  -7   0 -18.461 41.8704   3-0.39564 0.08592-0.16385-0.41999-0.96139 0.90367
   4  -7   0 68.6785 69.7772   4-0.03832 0.34789-0.39402-0.18928-0.90951 0.96681
   4   7   0 150.887 86.0656   2 0.36810-0.05868 0.17831 0.40469 0.96499-0.90758
  -5   7   0 140.952 97.6189   6-0.27302-0.11422 0.23896 0.34470-0.96631 0.89441
   5  -7   0 154.210 73.4949   4-0.02045 0.40753-0.43342-0.14977-0.88916 0.96078
   5   7   0 182.000 86.5213   2 0.36676 0.02004 0.17655 0.40640 0.96561-0.89386
  -5  -7   0 104.729 62.3114   3-0.39169 0.00442-0.16022-0.42366-0.96299 0.89087
   5  -7   0 168.247 65.9194   8 0.44784-0.06095-0.12286-0.46013 0.95333-0.88173
   5   7   0 96.1999 58.5237   5 0.42246-0.03552 0.13958 0.44359 0.95840-0.88653
  -5  -7   0 24.3735 82.2171   9 0.02688-0.41371-0.43765-0.14546 0.88809-0.95987
   6  -7   0 547.112 143.419   4-0.00031 0.46490-0.47655-0.10650-0.86399 0.94991
  -6  -7   0 604.792 155.758   9 0.00575-0.46994-0.48083-0.10226 0.86260-0.94872
  -6  -7   0 567.311 134.980   3-0.39434-0.07046-0.16266-0.42125-0.96192 0.87540
  -6   7   0 665.948 145.364   6-0.27787-0.18683 0.25536 0.32828-0.96150 0.87523
   6   7   0 514.946 129.168   2 0.37046 0.09369 0.18140 0.40151 0.96389-0.87782
   6   7   0 423.598 112.301   5 0.42276 0.04158 0.13977 0.44340 0.95829-0.87206
   6  -7   0 843.337 165.008   8 0.44538 0.01885-0.12186-0.46111 0.95422-0.86830
   7  -7   0 67.6945 69.7481   4 0.02192 0.52016-0.52267-0.06025-0.83345 0.93364
   7  -7   0 46.0458 54.4567   8 0.45109 0.09049-0.12419-0.45875 0.95212-0.85187
  -7   7   0 207.578 105.786   6-0.28471-0.25742 0.27891 0.30470-0.95401 0.85337
   7   7   0 152.705 77.1613   2 0.37832 0.16321 0.19168 0.39119 0.96009-0.85969
  -7  -7   0 -67.136 80.6504   3-0.40217-0.14016-0.16985-0.41408-0.95867 0.85774
  -7  -7   0 2.64044 57.3076   9-0.01749-0.52409-0.52672-0.05636 0.83182-0.93227
   7   7   0 24.0781 74.6060   5 0.42968 0.11206 0.14399 0.43916 0.95567-0.85509
  -7   7   0 57.3214 81.6122   7-0.50294-0.03885 0.07612 0.50779-0.93931 0.83851
  -8   7   0 353.674 115.556   6-0.29327-0.32630 0.30906 0.27450-0.94337 0.82834
   8  -7   0 121.102 76.2633   8 0.46275 0.15618-0.12897-0.45395 0.94766-0.83308
   8   7   0 400.080 134.218   5 0.44163 0.17750 0.15131 0.43183 0.95093-0.83600
  -8   7   0 330.061 133.546   7-0.51113-0.10815 0.07771 0.50621-0.93593 0.82074
  -8  -7   0 449.321 162.862   3-0.41412-0.20575-0.18088-0.40304-0.95342 0.83807
   8  -7   0 239.476 105.890   4 0.04613 0.57342-0.57106-0.01172-0.79688 0.91133
   8   7   0 401.246 131.438   2 0.38956 0.22932 0.20655 0.37630 0.95424-0.83951
  -8  -7   0 278.195 128.326   9-0.04269-0.57626-0.57462-0.00844 0.79515-0.90994
  -9   7   0 74.3872 111.237   7-0.52515-0.17161 0.08043 0.50350-0.92990 0.80030
  -9   7   0 -9.1882 67.3085   6-0.30328-0.39369 0.34548 0.23804-0.92888 0.79948
   9  -7   0 20.0364 91.7856   8 0.47886 0.21743-0.13561-0.44729 0.94112-0.81222
   0  -8   0 5222.55 380.224   4-0.06493 0.06436-0.33340-0.33361-0.93630 0.93610
   0   8   0 5862.84 343.257   2 0.48142-0.48151 0.33335 0.33325 0.88589-0.88583
   0   8   0 5280.85 377.034   6-0.29996 0.30016 0.33326 0.33362-0.93395 0.93385
   0  -8   0 5326.85 374.225   9 0.07541-0.07536-0.33322-0.33324 0.93748-0.93752
   1  -8   0 119.031 58.7427   4-0.06000 0.13695-0.34479-0.32217-0.93167 0.94584
  -1  -8   0 216.309 78.8944   4-0.06628-0.01178-0.33027-0.33679-0.93754 0.92295
   1  -8   0 213.406 76.1050   9 0.07742 0.00000-0.32873-0.33774 0.93924-0.92494
  -1  -8   0 133.275 60.1736   9 0.06974-0.14707-0.34579-0.32066 0.93238-0.94678
  -1   8   0 294.452 82.7310   2 0.52562-0.60313 0.39891 0.26777 0.83588-0.85018
  -1   8   0 211.034 77.1475   6-0.29182 0.21452 0.30389 0.36306-0.94528 0.93083
   1   8   0 156.009 65.6240   6-0.31081 0.38850 0.37382 0.29298-0.91633 0.93056
   1   8   0 212.684 67.3914   2 0.44788-0.37059 0.28580 0.38072 0.91559-0.90119
  -1  -8   0 118.535 32.8965   3-0.51588 0.43881-0.27784-0.38905-0.89201 0.87730
   2   8   0 41.7870 60.3648   6-0.32421 0.47936 0.42646 0.24021-0.88985 0.91840
   2   8   0 60.5247 67.5688   2 0.42395-0.26927 0.25279 0.41365 0.93326-0.90452
  -2  -8   0 -84.621 64.3364   4-0.06347-0.09207-0.33679-0.33029-0.93494 0.90596
   2  -8   0 -28.975 64.4440   9 0.07518 0.07961-0.33374-0.33273 0.93727-0.90861
  -2   8   0 -16.547 48.8080   6-0.28639 0.13160 0.28478 0.38223-0.95203 0.92322
   2  -8   0 7.20301 56.5646   4-0.05194 0.20640-0.36331-0.30358-0.92375 0.95230
  -2  -8   0 30.5522 68.4794   9 0.06087-0.21556-0.36529-0.30117 0.92404-0.95278
  -2  -8   0 9.16777 35.0989   3-0.47730 0.32271-0.24040-0.42663-0.91911 0.89006
   3   8   0 154.994 71.7457   2 0.40823-0.17616 0.23148 0.43490 0.94346-0.90039
   3  -8   0 372.214 124.254   4-0.04103 0.27302-0.38794-0.27886-0.91244 0.95534
  -3  -8   0 435.451 119.623   4-0.05571-0.17729-0.35466-0.31242-0.92750 0.88414
   3   8   0 303.398 105.972   6-0.33964 0.57224 0.49191 0.17464-0.85071 0.89353
  -3  -8   0 347.005 103.315   3-0.45197 0.21985-0.21629-0.45083-0.93425 0.89084
   3  -8   0 236.558 97.2717   9 0.06784 0.16432-0.35003-0.31643 0.93061-0.88761
   3   8   0 374.104 98.2055   5 0.51221-0.28010 0.19518 0.47133 0.91690-0.87370
  -3   8   0 256.635 92.4910   6-0.28359 0.05130 0.27499 0.39204-0.95531 0.91213
  -3  -8   0 227.678 87.3489   9 0.04913-0.28119-0.39071-0.27574 0.91232-0.95542
  -4   8   0 262.421 99.3759   6-0.28321-0.02656 0.27371 0.39333-0.95573 0.89818
  -4  -8   0 121.284 109.006   9 0.03477-0.34422-0.42117-0.24527 0.89699-0.95443
   4  -8   0 133.390 46.1790   4-0.02756 0.33707-0.41786-0.24885-0.89749 0.95474
   4   8   0 89.8193 60.0063   5 0.48652-0.17701 0.17908 0.48742 0.93054-0.87299
   4   8   0 122.106 81.6530   2 0.39938-0.08995 0.21961 0.44670 0.94875-0.89134
  -4  -8   0 111.135 69.6995   3-0.43702 0.12737-0.20223-0.46497-0.94229 0.88450
   5   8   0 213.655 106.849   2 0.39627-0.00948 0.21546 0.45080 0.95053-0.87880
  -5   8   0 488.335 144.785   6-0.28508-0.10216 0.28019 0.38685-0.95358 0.88165
  -5  -8   0 190.255 97.5404   9 0.01803-0.40485-0.45590-0.21053 0.87771-0.94949
   5  -8   0 250.466 117.801   4-0.01172 0.39875-0.45225-0.21433-0.87855 0.95014
   5  -8   0 283.929 91.9514   8 0.51106-0.12413-0.14894-0.51736 0.92664-0.85510
   5   8   0 246.902 107.734   5 0.47318-0.08624 0.17078 0.49573 0.93704-0.86514
  -5  -8   0 272.019 87.4056   3-0.43025 0.04306-0.19589-0.47137-0.94573 0.87354
   6  -8   0 879.472 202.908   4 0.00631 0.45824-0.49045-0.17602-0.85520 0.94109
   6   8   0 962.156 192.766   5 0.46898-0.00464 0.16818 0.49831 0.93901-0.85275
  -6   8   0 1388.20 246.879   6-0.28897-0.17573 0.29381 0.37320-0.94890 0.86259
   6  -8   0 730.428 169.266   8 0.50214-0.03786-0.14523-0.52104 0.93084-0.84497
  -6  -8   0 772.174 211.142   9-0.00092-0.46328-0.49417-0.17224 0.85406-0.94018
   6   8   0 870.213 181.859   2 0.39794 0.06622 0.21769 0.44853 0.94958-0.86351
  -6  -8   0 842.502 190.065   3-0.42994-0.03478-0.19561-0.47170-0.94588 0.85929
   7  -8   0 271.971 136.199   4 0.02639 0.51565-0.53176-0.13458-0.82695 0.92712
   7   8   0 22.0441 121.135   2 0.40360 0.13791 0.22528 0.44091 0.94626-0.84587
  -7   8   0 -16.922 104.903   6-0.29466-0.24749 0.31406 0.35293-0.94149 0.84080
   7   8   0 94.5870 85.6108   5 0.47174 0.06999 0.16989 0.49659 0.93772-0.83711
   7  -8   0 80.3528 81.5295   8 0.50221 0.03941-0.14526-0.52097 0.93081-0.83061
  -7  -8   0 19.8395 93.3499   9-0.02195-0.51963-0.53534-0.13105 0.82557-0.92603
  -7  -8   0 174.607 128.749   3-0.43482-0.10744-0.20016-0.46716-0.94343 0.84241
   8  -8   0 41.2839 74.9763   8 0.50896 0.11000-0.14806-0.51815 0.92764-0.81311
  -8   8   0 44.1151 80.7301   6-0.30193-0.31766 0.34048 0.32645-0.93098 0.81590
  -8  -8   0 98.8218 104.772   9-0.04494-0.57402-0.57879-0.08758 0.79172-0.90650
   8   8   0 97.4464 76.8674   5 0.47989 0.13924 0.17495 0.49152 0.93382-0.81886
   8  -8   0 22.5431 96.8181   4 0.04844 0.57109-0.57559-0.09063-0.79321 0.90764
   0  -9   0 -37.860 55.1963   4-0.04676 0.04611-0.37505-0.37532-0.91846 0.91820
   0  -9   0 -32.622 83.1273   9 0.05647-0.05640-0.37487-0.37491 0.91974-0.91978
   0   9   0 -32.492 61.9910   6-0.31110 0.31133 0.37490 0.37534-0.91583 0.91567
   0   9   0 51.3499 53.2668   2 0.50981-0.50991 0.37502 0.37491 0.85540-0.85535
   1   9   0 -54.205 62.0839   6-0.32060 0.39832 0.41196 0.33820-0.89757 0.91174
   1  -9   0 -51.746 63.8793   4-0.04304 0.11991-0.38343-0.36691-0.91458 0.92870
  -1  -9   0 -49.340 61.2675   9 0.05214-0.12944-0.38423-0.36554 0.91540-0.92980
   1  -9   0 132.978 62.5620   9 0.05736 0.02008-0.37295-0.37682 0.92061-0.90631
  -1   9   0 50.8111 76.3391   6-0.30384 0.22657 0.34756 0.40275-0.92800 0.91350
   1   9   0 -2.2984 62.1993   2 0.47880-0.40150 0.32956 0.42029 0.88844-0.87405
  -1  -9   0 94.9253 82.0221   4-0.04711-0.03104-0.37426-0.37614-0.91883 0.90417
   2   9   0 131.763 80.6532   2 0.45578-0.30110 0.29685 0.45293 0.90914-0.88041
   2  -9   0 98.4447 50.9672   4-0.03635 0.19074-0.39841-0.35187-0.90736 0.93585
  -2  -9   0 46.7218 48.5448   4-0.04360-0.11203-0.38218-0.36825-0.91516 0.88612
  -2  -9   0 127.192 68.9150   3-0.52137 0.36686-0.28325-0.46711-0.88771 0.85855
  -2   9   0 258.834 120.095   6-0.29886 0.14409 0.32923 0.42113-0.93557 0.90671
   2   9   0 116.218 74.8819   6-0.33214 0.48733 0.45937 0.29067-0.87108 0.89955
  -2  -9   0 39.9998 61.1067   9 0.04476-0.19943-0.40006-0.34971 0.90777-0.93652
   2  -9   0 234.347 163.937   9 0.05426 0.10054-0.37965-0.37012 0.91754-0.88889
  -3  -9   0 402.176 136.761   4-0.03553-0.19755-0.40023-0.35020-0.90646 0.86303
   3   9   0 423.547 127.596   6-0.34529 0.57795 0.51766 0.23224-0.83324 0.87598
  -3  -9   0 237.647 124.106   9 0.03463-0.26668-0.42148-0.32827 0.89683-0.93993
   3  -9   0 681.405 131.764   9 0.04645 0.18571-0.39644-0.35333 0.90955-0.86655
  -3  -9   0 575.638 139.638   3-0.49510 0.26306-0.25756-0.49290-0.90724 0.86372
  -3   9   0 476.178 134.975   6-0.29610 0.06384 0.31923 0.43117-0.93950 0.89627
   3   9   0 523.696 129.512   2 0.43987-0.20781 0.27467 0.47504 0.92180-0.87874
   3  -9   0 415.446 132.396   4-0.02697 0.25887-0.41917-0.33104-0.89680 0.93966
  -4  -9   0 387.098 132.908   3-0.47832 0.16874-0.24137-0.50918-0.91846 0.86056
  -4  -9   0 333.426 124.526   9 0.02199-0.33142-0.44777-0.30199 0.88240-0.93984
  -4   9   0 358.280 120.514   6-0.29545-0.01430 0.31691 0.43350-0.94040 0.88279
   4  -9   0 329.064 103.631   4-0.01512 0.32455-0.44496-0.30515-0.88273 0.93993
   4   9   0 458.642 138.782   2 0.43012-0.12069 0.26123 0.48842 0.92896-0.87157
   5   9   0 73.6778 96.4597   2 0.42562-0.03883 0.25507 0.49452 0.93211-0.86039
  -5  -9   0 148.415 122.046   9 0.00703-0.39385-0.47824-0.27151 0.86422-0.93600
   5  -9   0 40.9267 59.7657   4-0.00099 0.38795-0.47512-0.27488-0.86488 0.93641
  -5  -9   0 96.7145 71.7173   3-0.46922 0.08211-0.23267-0.51795-0.92415 0.85186
   5   9   0 50.3118 75.5699   5 0.52541-0.13849 0.20351 0.54631 0.90929-0.83736
  -5   9   0 177.235 122.519   6-0.29678-0.09045 0.32170 0.42871-0.93855 0.86657
   6  -9   0 136.570 85.6507   4 0.01527 0.44921-0.50905-0.24084-0.84288 0.92873
   6   9   0 110.654 66.8074   5 0.51717-0.05285 0.19831 0.55151 0.91409-0.82780
  -6   9   0 179.652 102.918   6-0.29990-0.16480 0.33307 0.41732-0.93402 0.84766
   6   9   0 347.327 158.033   2 0.42561 0.03854 0.25506 0.49447 0.93212-0.84607
  -6  -9   0 0.91264 73.3719   9-0.01008-0.45411-0.51227-0.23747 0.84194-0.92807
  -6  -9   0 130.345 109.308   3-0.46638 0.00173-0.22996-0.52071-0.92588 0.83918
   7   9   0 155.203 88.5237   5 0.51610 0.02564 0.19763 0.55218 0.91470-0.81406
   0  10   0 87.5230 68.0167   6-0.32175 0.32201 0.41653 0.41707-0.89517 0.89494
   0 -10   0 183.595 93.8687   4-0.02808 0.02735-0.41671-0.41703-0.89809 0.89775
   0 -10   0 439.573 149.930   9 0.03699-0.03691-0.41651-0.41656 0.89943-0.89948
  -1 -10   0 60.1041 73.1752   4-0.02758-0.05066-0.41782-0.41594-0.89751 0.88278
   1 -10   0 24.2068 57.5658   4-0.02540 0.10217-0.42260-0.41111-0.89499 0.90904
  -1 -10   0 182.135 104.175   9 0.03379-0.11108-0.42324-0.40983 0.89590-0.91030
  -1  10   0 162.746 90.0014   6-0.31524 0.23801 0.39087 0.44281-0.90821 0.89364
   1 -10   0 62.5143 61.8232   9 0.03690 0.04054-0.41669-0.41639 0.89934-0.88504
   1  10   0 274.223 103.950   6-0.33010 0.40785 0.45076 0.38275-0.87616 0.89025
   2 -10   0 274.344 136.068   4-0.01988 0.17417-0.43465-0.39900-0.88848 0.91690
  -2  10   0 264.417 115.424   6-0.31066 0.15592 0.37325 0.46049-0.91659 0.88766
   2  10   0 11.4648 64.2589   2 0.48645-0.33178 0.34064 0.49247 0.88087-0.85215
   2  10   0 179.376 95.4657   6-0.34012 0.49534 0.49404 0.33936-0.84932 0.87770
  -2 -10   0 56.0833 68.4791   4-0.02345-0.13227-0.42688-0.40689-0.89271 0.86359
  -2 -10   0 134.200 65.5376   9 0.02767-0.18234-0.43601-0.39706 0.88900-0.91774
   2 -10   0 305.392 119.854   9 0.03306 0.12175-0.42476-0.40831 0.89509-0.86645
   3 -10   0 44.7744 120.551   4-0.01177 0.24360-0.45215-0.38143-0.87861 0.92140
  -3  10   0 34.9102 71.8597   6-0.30800 0.07575 0.36312 0.47064-0.92120 0.87791
  -3 -10   0 -133.29 100.571   9 0.01891-0.25096-0.45409-0.37898 0.87876-0.92186
   3  10   0 -110.17 121.267   2 0.47060-0.23854 0.31782 0.51522 0.89616-0.85311
  -4 -10   0 -25.636 90.7184   9 0.00773-0.31716-0.47683-0.35623 0.86509-0.92253
  -4 -10   0 9.90517 56.2478   3-0.51924 0.20975-0.28115-0.55276-0.88939 0.83137
   4  10   0 67.7936 81.8074   2 0.46022-0.15078 0.30309 0.52988 0.90538-0.84800
  -5 -10   0 -13.719 108.767   3-0.50827 0.12124-0.27039-0.56360-0.89776 0.82536
   0 -11   0 -112.77 88.6031   4-0.00887 0.00805-0.45837-0.45873-0.87498 0.87457
   0  11   0 -70.388 79.0957   6-0.33186 0.33214 0.45817 0.45880-0.87180 0.87148
   0 -11   0 98.2857 115.386   9 0.01692-0.01684-0.45817-0.45822 0.87638-0.87643
   1 -11   0 419.921 169.695   9 0.01598 0.06147-0.46008-0.45629 0.87524-0.86094
  -1 -11   0 281.223 145.709   4-0.00762-0.07071-0.46107-0.45605-0.87339 0.85858
   1  11   0 271.103 127.899   6-0.33922 0.41699 0.49005 0.42682-0.85193 0.86592
  12   0  -1 709.419 203.474   8 0.55302 0.35618-0.16647 0.16646 0.90477-0.83742
  12   0  -1 948.873 208.768   5 0.55165 0.35743 0.22022-0.22019 0.89286-0.82558
  11   0  -1 8.99709 73.9766   8 0.52592 0.30591-0.15513 0.15511 0.91930-0.86628
 -11   0   1 -1.6590 68.9546   7-0.52679-0.30529 0.08075-0.08102-0.92918 0.87570
  11   0  -1 48.3768 59.2421   5 0.52474 0.30698 0.20309-0.20307 0.90969-0.85674
 -10   0   1 27.8305 91.5468   7-0.50160-0.25305 0.07586-0.07613-0.93985 0.90077
  10   0  -1 79.4343 59.6746   5 0.49981 0.25455 0.18738-0.18737 0.92368-0.88507
  10   0  -1 -18.818 78.4215   8 0.50082 0.25362-0.14469 0.14468 0.93145-0.89276
 -10   0   1 61.4175 75.8904   3-0.49721-0.25772-0.25961 0.25991-0.90576 0.86667
   9   0  -1 18.6788 53.4812   8 0.47841 0.19866-0.13542 0.13540 0.94131-0.91696
  -9   0   1 -23.760 70.0542   7-0.47911-0.19812 0.07152-0.07177-0.94852 0.92382
  -9   0   1 -23.404 37.9282   3-0.47513-0.20235-0.23832 0.23860-0.92048 0.89581
   9   0  -1 -94.170 79.3866   5 0.47752 0.19947 0.17347-0.17347 0.93497-0.91070
   8   0  -1 863.526 119.991   2 0.45316 0.14670 0.29317-0.29321 0.91131-0.90115
  -8   0   1 858.360 149.039   7-0.46033-0.13947 0.06791-0.06814-0.95517 0.94485
   8   0  -1 780.946 134.706   5 0.45888 0.14075 0.16192-0.16194 0.94359-0.93367
   8   0  -1 686.892 128.783   8 0.45968 0.14003-0.12772 0.12770 0.94886-0.93885
  -8   0   1 809.695 128.423   3-0.45659-0.14343-0.22066 0.22092-0.93163 0.92136
  -7   0   1 1.30982 30.8430   7-0.44681-0.07556 0.06531-0.06554-0.95963 0.96369
   7   0  -1 44.0450 43.1526   8 0.44618 0.07615-0.12218 0.12215 0.95393-0.95827
  -7   0   1 3.38341 35.2455   3-0.44309-0.07947-0.20793 0.20816-0.93911 0.94322
   7   0  -1 1.36053 33.6458   5 0.44541 0.07685 0.15363-0.15365 0.94938-0.95380
   7   0  -1 -22.684 23.0741   2 0.43976 0.08273 0.27451-0.27455 0.92189-0.92606
  -6   0   1 154.557 62.1268   7-0.44107-0.00386 0.06421-0.06442-0.96145 0.97987
  -6   0   1 48.6627 17.0222   9-0.04684-0.39799-0.58233 0.58242 0.78877-0.77027
   6   0  -1 166.431 61.9879   8 0.44040 0.00456-0.11982 0.11978 0.95601-0.97470
   6   0  -1 102.549 30.1631   4 0.04437 0.40102-0.56761 0.56803-0.79966 0.78066
   6   0  -1 212.429 50.8455   2 0.43347 0.01164 0.26583-0.26586 0.92655-0.94508
   6   0  -1 125.539 41.5855   5 0.43959 0.00529 0.15006-0.15009 0.95176-0.97053
  -5   0   1 -13.634 25.3582   7-0.44750 0.07999 0.06544-0.06564-0.95941 0.99220
  -5   0   1 -19.829 12.5632   9 0.06181-0.42930-0.36326 0.36333 0.92493-0.89211
   5   0  -1 -18.577 28.2109   5 0.44560-0.07809 0.15375-0.15378 0.94930-0.98242
   5   0  -1 -33.200 36.1916   8 0.44662-0.07903-0.12236 0.12232 0.95377-0.98682
   5   0  -1 3.66562 13.3869   4-0.06507 0.43312-0.33306 0.33339-0.93644 0.90325
   5   0  -1 -21.697 20.4501   2 0.43798-0.07025 0.27205-0.27207 0.92323-0.95611
  -5   0   1 1.46012 28.3824   3-0.44240 0.07479-0.20727 0.20748-0.93948 0.97234
   4   0  -1 3734.16 165.607   2 0.45942-0.16908 0.30198-0.30198 0.90606-0.95331
   4   0  -1 3931.91 123.989   6-0.18527 0.47562-0.02821 0.02833-0.99960 0.95217
  -4   0   1 3827.21 208.118   7-0.47409 0.18402 0.07056-0.07074-0.95035 0.99749
   4   0  -1 3938.62 185.376   5 0.47100-0.18086 0.16942-0.16946 0.93807-0.98555
  -4   0   1 3991.79 183.038   3-0.46619 0.17605-0.22979 0.22999-0.92599 0.97320
   4   0  -1 3998.40 125.307   4-0.18497 0.47571-0.02804 0.02820-0.99961 0.95214
  -4   0   1 3675.86 119.378   9 0.18395-0.47409-0.07078 0.07081 0.99748-0.95033
   4   0  -1 3748.40 198.728   8 0.47265-0.18243-0.13305 0.13299 0.94369-0.99110
   3   0  -1 -1.0741 9.51152   2 0.50723-0.29428 0.37117-0.37116 0.85840-0.92004
  -3   0   1 5.26214 16.3738   7-0.53674 0.32408 0.08268-0.08286-0.92467 0.98615
  -3   0   1 5.03115 14.4071   3-0.52072 0.30804-0.28262 0.28281-0.88822 0.94977
   3   0  -1 -7.3004 9.36979   6-0.30077 0.51357 0.33623-0.33613-0.93273 0.87101
   3   0  -1 -0.1816 7.63239   4-0.30036 0.51370 0.33625-0.33625-0.93279 0.87090
   3   0  -1 3.09498 12.7227   8 0.53358-0.32074-0.15832 0.15826 0.91535-0.97713
   3   0  -1 12.2411 14.7828   5 0.52996-0.31720 0.20639-0.20644 0.90657-0.96841
  -3   0   1 0.05438 5.76317   9 0.30627-0.51906 0.29285-0.29285 0.94690-0.88538
  -2   0   1 1473.78 97.4635   7-0.66656 0.53129 0.10824-0.10842-0.84839 0.92419
  -2   0   1 1772.80 109.563   3-0.62300 0.48771-0.38778 0.38794-0.78314 0.85900
   2   0  -1 1573.45 104.328   8 0.65740-0.52197-0.21101 0.21095 0.83277-0.90893
   2   0  -1 1382.70 94.2724   5 0.64666-0.51130 0.28252-0.28257 0.81621-0.89240
  -4   0  -1 1645.86 158.822   7 0.12880-0.45820-0.04142 0.04155-0.94972 0.78748
   4   0   1 1966.65 154.175   8-0.12834 0.45707 0.10133-0.10119 0.94562-0.78355
   5   0   1 28.4326 21.7536   8-0.03657 0.44267 0.06704-0.06688 0.97300-0.79656
  -5   0  -1 21.9555 31.6488   7 0.03628-0.44312-0.02472 0.02484-0.97497 0.79837
  -6   0  -1 573.847 117.064   7-0.04075-0.44353-0.01068 0.01080-0.98933 0.79837
   6   0   1 499.715 104.780   8 0.04016 0.44331 0.03796-0.03779 0.98860-0.79780
  -7   0  -1 30.7978 66.0272   7-0.10813-0.45357 0.00169-0.00159-0.99694 0.79162
   7   0   1 66.0696 62.9115   8 0.10745 0.45338 0.01216-0.01199 0.99682-0.79167
  -8   0  -1 169.582 122.892   7-0.16914-0.46998 0.01297-0.01288-0.99978 0.78008
   8   0   1 724.446 148.380   8 0.16849 0.46972-0.01147 0.01166 0.99978-0.78029
  12   1  -1 -47.483 64.7627   8 0.57120 0.33806-0.17412 0.25742 0.89415-0.82679
  12   1  -1 103.244 98.7150   5 0.53747 0.37162 0.21117-0.12787 0.90196-0.83466
 -11   1   1 47.1597 99.9818   7-0.52321-0.30891 0.08005 0.00306-0.93076 0.87728
  11   1  -1 313.401 106.091   8 0.54474 0.28713-0.16300 0.24629 0.90937-0.85633
  11   1  -1 311.033 120.429   5 0.51080 0.32094 0.19428-0.11100 0.91769-0.86473
  11  -1  -1 491.654 150.504   8 0.51584 0.31595-0.15092 0.06761 0.92432-0.87133
 -11  -1   1 386.382 127.362   3-0.50194-0.33053-0.26422 0.18117-0.90239 0.84888
 -11  -1   1 138.683 130.943   7-0.53837-0.29367 0.08300-0.16664-0.92392 0.87044
 -10   1   1 12.6136 65.8098   7-0.49816-0.25653 0.07519 0.00792-0.94123 0.90214
  10   1  -1 124.598 83.8802   5 0.48600 0.26836 0.17876-0.09548 0.93080-0.89217
 -10  -1   1 47.0362 110.557   7-0.51385-0.24077 0.07823-0.16186-0.93479 0.89570
  10   1  -1 81.7373 56.2925   8 0.52051 0.23399-0.15286 0.23616 0.92202-0.88332
  10  -1  -1 63.2034 66.1963   5 0.52426 0.23008 0.20278-0.28603 0.90997-0.87140
 -10  -1   1 126.957 72.5440   3-0.47758-0.27744-0.24067 0.15760-0.91893 0.87983
  10  -1  -1 75.2710 58.0239   8 0.49079 0.26362-0.14054 0.05722 0.93598-0.89731
  -9  -1   1 33.1062 69.7734   7-0.49224-0.18496 0.07406-0.15767-0.94356 0.91885
  -9   1   1 44.6612 103.372   7-0.47578-0.20148 0.07088 0.01225-0.94974 0.92505
   9  -1  -1 44.8220 52.7134   8 0.46832 0.20873-0.13126 0.04794 0.94545-0.92112
   9   1  -1 83.6784 60.6127   5 0.46374 0.21326 0.16493-0.08166 0.94141-0.91713
   9   1  -1 168.732 68.8895   8 0.49927 0.17786-0.14404 0.22734 0.93216-0.90780
   9   1  -1 157.562 61.6942   2 0.44578 0.23140 0.28287-0.19963 0.91725-0.89273
   9  -1  -1 148.842 70.7992   5 0.50319 0.17379 0.18951-0.27276 0.92186-0.89762
  -9  -1   1 69.0332 67.6120   3-0.45560-0.22195-0.21972 0.13662-0.93220 0.90753
   8   1  -1 872.107 141.536   5 0.44487 0.15477 0.15330-0.07004 0.94960-0.93966
  -8   1   1 1111.75 171.723   7-0.45704-0.14277 0.06727 0.01587-0.95628 0.94597
  -8  -1   1 656.948 145.479   7-0.47462-0.12515 0.07066-0.15425-0.95016 0.93983
   8   1  -1 1134.74 142.078   2 0.42739 0.17241 0.25749-0.17425 0.93088-0.92070
   8   1  -1 813.079 137.834   8 0.48218 0.11756-0.13698 0.22027 0.93971-0.92969
  -8   1   1 1066.06 136.938   3-0.49267-0.10726-0.25522 0.33881-0.90892 0.89864
   8  -1  -1 1142.03 149.575   5 0.48636 0.11325 0.17898-0.26225 0.93062-0.92072
   8  -1  -1 1221.56 179.686   8 0.44934 0.15034-0.12347 0.04014 0.95277-0.94278
  -8  -1   1 941.508 141.296   3-0.43683-0.16325-0.20204 0.11892-0.94240 0.93212
   7  -1  -1 62.9102 40.2715   4 0.02649 0.49635-0.53196 0.44917-0.82680 0.82210
  -7   1   1 57.5268 35.6553   7-0.44344-0.07893 0.06466 0.01848-0.96070 0.96477
  -7  -1   1 42.0046 34.5462   7-0.46274-0.05962 0.06837-0.15195-0.95435 0.95839
   7   1  -1 53.0302 25.0326   2 0.41310 0.10933 0.23806-0.15481 0.94041-0.94457
  -7  -1   1 110.076 36.5993   9-0.02609-0.49614-0.54327 0.46008 0.81969-0.81554
   7   1  -1 53.9576 31.3992   5 0.43071 0.09155 0.14462-0.06137 0.95528-0.95968
   7  -1  -1 116.261 47.7018   5 0.47570 0.04655 0.17235-0.25563 0.93584-0.94028
  -7   1   1 71.6149 25.3854   6-0.34710-0.17515 0.52609-0.44286-0.82724 0.83152
   7  -1  -1 66.2591 34.0974   2 0.49078 0.03179 0.34694-0.43026 0.87643-0.88063
   7  -1  -1 19.7021 42.5202   8 0.43524 0.08708-0.11771 0.03437 0.95782-0.96217
   7   1  -1 70.6485 29.5864   8 0.47111 0.05126-0.13241 0.21570 0.94432-0.94866
  -7  -1   1 108.589 45.5025   3-0.42249-0.10011-0.18866 0.10553-0.94951 0.95364
   6  -1  -1 1811.56 131.269   4-0.04291 0.48839-0.38374 0.30081-0.91443 0.89554
   6   1  -1 1658.35 154.573   8 0.46904-0.02405-0.13156 0.21485 0.94516-0.96385
   6  -1  -1 1787.72 125.512   2 0.49197-0.04678 0.34865-0.43199 0.87519-0.89375
   6   1  -1 1465.00 150.759   5 0.42334 0.02155 0.14012-0.05687 0.95808-0.97683
  -6   1   1 1660.09 126.480   6-0.33806-0.10683 0.48495-0.40172-0.85523 0.87387
   6   1  -1 1589.00 142.807   2 0.40457 0.04048 0.22657-0.14331 0.94569-0.96419
   6  -1  -1 1678.10 170.879   8 0.42821 0.01673-0.11484 0.03150 0.96022-0.97891
  -6   1   1 1509.17 132.133   3-0.48253 0.03751-0.24543 0.32897-0.91573 0.93421
  -6  -1   1 1663.87 158.775   3-0.41446-0.03066-0.18120 0.09806-0.95326 0.97177
  -6  -1   1 1592.03 162.489   7-0.45940 0.01447 0.06773-0.15129-0.95549 0.97390
  -6  -1   1 1688.24 123.099   9 0.04434-0.48920-0.40093 0.31771 0.90734-0.88887
   6  -1  -1 1652.36 142.881   5 0.47439-0.02950 0.17153-0.25482 0.93647-0.95526
  -6   1   1 1717.32 179.001   7-0.43738-0.00755 0.06350 0.01965-0.96259 0.98103
   5   1  -1 11.0277 24.0731   2 0.40432-0.03665 0.22624-0.14296 0.94583-0.97870
   5  -1  -1 40.4708 27.5674   5 0.48804-0.12053 0.18003-0.26333 0.92978-0.96292
  -5   1   1 51.8679 43.9450   7-0.44292 0.07543 0.06456 0.01860-0.96087 0.99367
  -5  -1   1 58.4588 28.6661   7-0.46950 0.10198 0.06967-0.15322-0.95199 0.98476
  -5   1   1 65.1993 26.1585   6-0.33295-0.03457 0.46279-0.37959-0.86903 0.90201
  -5  -1   1 54.9561 25.5306   9 0.11624-0.48375-0.23947 0.15621 0.96873-0.93593
   5  -1  -1 49.7168 29.2480   4-0.11304 0.48115-0.21765 0.13458-0.97362 0.94048
   5  -1  -1 68.2157 27.4286   2 0.50939-0.14160 0.37439-0.45772 0.85590-0.88882
   5   1  -1 64.6507 34.8216   5 0.42612-0.05862 0.14182-0.05858 0.95703-0.99014
   5  -1  -1 50.6231 33.4446   8 0.43194-0.06437-0.11636 0.03300 0.95896-0.99201
   5   1  -1 8.68976 24.8643   8 0.48131-0.11369-0.13662 0.21990 0.94008-0.97313
  -5   1   1 36.4878 23.5462   3-0.49814 0.13057-0.26051 0.34404-0.90511 0.93795
   4  -1  -1 12558.1 296.349   4-0.18286 0.47358-0.03392-0.04933-0.99942 0.95195
  -4   1   1 12988.8 306.348   3-0.54042 0.25030-0.30216 0.38567-0.87191 0.91909
  -4  -1   1 12472.6 294.436   9 0.18870-0.47884-0.05826-0.02503 0.99829-0.95114
   4  -1  -1 14514.7 305.650   2 0.55266-0.26225 0.44111-0.52444 0.79738-0.84469
   4   1  -1 12139.7 333.985   2 0.41629-0.12600 0.24239-0.15908 0.93836-0.98559
  -4   1   1 12931.3 315.087   6-0.33329 0.04316 0.46424-0.38107-0.86815 0.91548
  -4  -1   1 12833.8 367.484   7-0.50218 0.21207 0.07597-0.15951-0.93962 0.98674
   4  -1  -1 12878.7 316.460   5 0.52718-0.23702 0.20463-0.28794 0.90824-0.95574
  -4  -1   1 12608.7 361.269   3-0.43102 0.14087-0.19662 0.11348-0.94534 0.99258
   4  -1  -1 12178.0 371.568   8 0.45287-0.16266-0.12492 0.04155 0.95146-0.99887
   4   1  -1 12289.3 343.289   8 0.51783-0.22759-0.15175 0.23503 0.92335-0.97076
   4   1  -1 12403.4 354.410   5 0.44485-0.15472 0.15329-0.07005 0.94961-0.99708
  -4   1   1 12503.4 253.747   1 0.18595-0.47629 0.04747 0.03589 0.99888-0.95165
  -4   1   1 12171.0 380.103   7-0.46742 0.17737 0.06927 0.01390-0.95272 0.99987
  -3   1   1 186.825 42.4127   7-0.52514 0.31252 0.08042 0.00274-0.92991 0.99139
   3   1  -1 187.176 38.5734   2 0.44653-0.23362 0.28391-0.20058 0.91666-0.97826
  -3   1   1 158.888 35.0632   6-0.34043 0.12769 0.49547-0.41231-0.84837 0.91004
  -3   1   1 158.363 24.3845   2 0.36192-0.57488 0.17027-0.08690 0.96777-0.90613
  -3   1   1 160.469 28.9228   1 0.22580-0.43880-0.21766 0.30115 0.97493-0.91330
   3  -1  -1 137.315 28.9408   4-0.24971 0.46296 0.16416-0.24757-0.98405 0.92219
  -3  -1   1 126.751 30.9530   7-0.57549 0.36279 0.09024-0.17375-0.90545 0.96692
   3  -1  -1 138.400 30.4781   5 0.61146-0.39869 0.25906-0.34238 0.84813-0.91000
  -3   1   1 184.590 36.4377   3-0.62664 0.41393-0.39173 0.47518-0.77827 0.83979
  -3  -1   1 141.256 31.6129   9 0.25900-0.47178 0.14050-0.22380 0.98708-0.92557
   3  -1  -1 151.165 38.1608   8 0.50307-0.29024-0.14562 0.06224 0.93041-0.99219
   3   1  -1 132.780 30.7709   8 0.59786-0.38501-0.18542 0.26871 0.87722-0.93900
  -3  -1   1 162.727 35.5599   3-0.46870 0.25601-0.23217 0.14905-0.92447 0.98604
  -2  -1   1 35902.2 484.783   7-0.72273 0.58739 0.11955-0.20302-0.80295 0.87877
  -2  -1   1 35362.8 461.498   9 0.32184-0.45724 0.34801-0.43133 0.92496-0.84910
   2   1  -1 34625.1 477.243   2 0.50300-0.36749 0.36489-0.28154 0.86322-0.93920
   2  -1  -1 33283.8 497.461   8 0.60513-0.46968-0.18852 0.10511 0.87230-0.94846
  -2   1   1 35105.3 492.079   6-0.35455 0.21920 0.56251-0.47937-0.79967 0.87567
  -2   1   1 32994.0 480.651   7-0.64385 0.50864 0.10373-0.02056-0.86436 0.94014
   4  -1   1 2276.90 178.396   8-0.09663 0.42534 0.08954-0.17267 0.95617-0.79411
  -4  -1  -1 1893.16 167.901   7 0.12876-0.45812-0.04142-0.04186-0.94973 0.78751
  -4   1  -1 2115.02 183.161   7 0.10937-0.43882-0.03793 0.12149-0.95575 0.79349
  -5  -1  -1 341.280 83.8223   7 0.03273-0.43952-0.02408-0.05920-0.97576 0.79919
   5   1   1 324.953 67.4185   8-0.04208 0.44821 0.06911 0.01434 0.97162-0.79516
  -5   1  -1 471.881 93.5607   7 0.02324-0.43012-0.02235 0.10589-0.97782 0.80121
   5  -1   1 323.352 73.6178   8-0.01616 0.42223 0.05933-0.14245 0.97779-0.80138
  -6   1  -1 480.916 104.615   7-0.04959-0.43473-0.00907 0.09259-0.99059 0.79961
   6   1   1 399.811 85.6188   8 0.04088 0.44262 0.03769 0.04578 0.98871-0.79789
  -6  -1  -1 579.467 117.018   7-0.04630-0.43793-0.00967-0.07362-0.99013 0.79920
   6  -1   1 345.842 83.0951   8 0.05308 0.43035 0.03303-0.11614 0.99057-0.79981
  -7   1  -1 722.576 106.706   6-0.13938-0.42226-0.15153 0.23519-0.98746 0.78194
   7   1   1 1334.94 171.748   8 0.11222 0.44864 0.01032 0.07314 0.99720-0.79202
   7  -1   1 1410.78 181.483   8 0.11513 0.44568 0.00920-0.09231 0.99743-0.79231
  -7   1  -1 1250.95 195.412   7-0.11404-0.44770 0.00278 0.08074-0.99738 0.79204
  -7  -1  -1 1444.83 202.282   7-0.11488-0.44677 0.00293-0.08622-0.99744 0.79215
  -8  -1  -1 2.70739 48.5541   7-0.17665-0.46241 0.01436-0.09766-0.99986 0.78019
   8   1   1 280.250 88.3978   8 0.17606 0.46219-0.01442 0.09789 0.99985-0.78032
  -8   1  -1 135.552 106.462   7-0.17291-0.46626 0.01367 0.06983-0.99982 0.78010
   8  -1   1 181.775 77.0318   8 0.17232 0.46586-0.01296-0.07013 0.99983-0.78036
 -11   2   1 2.15988 70.7974   7-0.52722-0.30493 0.08083 0.08569-0.92899 0.87550
 -11  -2   1 29.6066 95.0997   7-0.55833-0.27366 0.08689-0.25387-0.91430 0.86083
 -11  -2   1 4.37000 61.3116   3-0.49127-0.34128-0.25386 0.08742-0.90988 0.85635
  11  -2  -1 89.7716 60.5538   8 0.51361 0.31814-0.15000-0.01661 0.92541-0.87243
  11   2  -1 258.747 131.789   8 0.57327 0.25866-0.17500 0.34162 0.89289-0.83984
  11   2  -1 123.901 96.4412   5 0.50510 0.32666 0.19070-0.02414 0.92083-0.86784
 -10   2   1 166.449 105.365   7-0.50303-0.25167 0.07614 0.09039-0.93927 0.90018
 -10  -2   1 6.54473 88.3756   7-0.53537-0.21921 0.08241-0.24937-0.92530 0.88621
  10   2  -1 106.732 68.1924   2 0.45288 0.30162 0.29278-0.12627 0.91154-0.87269
  10   2  -1 190.619 79.1318   5 0.48118 0.27320 0.17575-0.00920 0.93319-0.89454
 -10  -2   1 236.043 108.350   3-0.46793-0.28715-0.23144 0.06497-0.92494 0.88583
  10  -2  -1 150.186 97.3544   8 0.48933 0.26506-0.13993-0.02667 0.93662-0.89797
  10   2  -1 100.857 81.7484   8 0.55101 0.20355-0.16562 0.33224 0.90590-0.86719
   9  -2  -1 399.813 123.896   8 0.46767 0.20936-0.13099-0.03562 0.94571-0.92140
   9   2  -1 417.266 111.002   5 0.45980 0.21722 0.16250 0.00405 0.94318-0.91888
  -9  -2   1 333.289 100.873   7-0.51572-0.16144 0.07859-0.24554-0.93400 0.90929
   9  -2  -1 213.021 89.0075   5 0.54332 0.13366 0.21490-0.38140 0.89827-0.87407
  -9   2   1 153.404 125.612   7-0.48163-0.19563 0.07201 0.09453-0.94759 0.92289
   9   2  -1 435.278 110.860   8 0.53232 0.14484-0.15780 0.32442 0.91600-0.89163
  -9  -2   1 309.822 108.500   3-0.44694-0.23067-0.21155 0.04506-0.93703 0.91234
   9   2  -1 310.383 98.0204   2 0.43269 0.24445 0.26476-0.09824 0.92712-0.90260
   8   2  -1 845.232 133.478   2 0.41532 0.18443 0.24107-0.07455 0.93899-0.92880
  -8   2   1 626.428 147.525   7-0.46402-0.13580 0.06862 0.09793-0.95391 0.94359
   8   2  -1 903.998 146.115   5 0.44177 0.15787 0.15140 0.01515 0.95087-0.94092
  -8  -2   1 1174.51 164.635   7-0.50065-0.09910 0.07568-0.24260-0.94023 0.92990
   8  -2  -1 877.605 127.414   5 0.53060 0.06901 0.20681-0.37333 0.90618-0.89631
   8  -2  -1 877.894 161.711   8 0.44950 0.15015-0.12354-0.04308 0.95271-0.94273
   8   2  -1 799.133 129.589   8 0.51869 0.08110-0.15211 0.31873 0.92292-0.91290
  -8  -2   1 899.067 151.968   3-0.42907-0.17106-0.19479 0.02827-0.94632 0.93603
  -7  -2   1 86.4521 59.0092   3-0.41536-0.10726-0.18205 0.01552-0.95285 0.95696
  -7   2   1 76.2541 48.5265   7-0.45169-0.07067 0.06625 0.10031-0.95805 0.96212
   7   2  -1 172.558 60.2174   2 0.40173 0.12065 0.22277-0.05624 0.94737-0.95152
  -7  -2   1 141.426 53.4271   7-0.49216-0.03016 0.07405-0.24095-0.94358 0.94761
   7  -2  -1 406.696 147.606   4-0.01865 0.54157-0.43732 0.27115-0.88701 0.88240
   7   2  -1 192.626 72.4209   5 0.42831 0.09396 0.14315 0.02339 0.95620-0.96060
  -7  -2   1 172.130 57.1104   9 0.02128-0.54351-0.44923 0.28270 0.88157-0.87745
  -7   2   1 -76.746 39.4470   3-0.54990 0.02751-0.31168 0.47854-0.86347 0.86755
  -7   2   1 187.157 61.4409   6-0.32568-0.19665 0.43249-0.26599-0.88655 0.89082
   7  -2  -1 158.872 62.2891   8 0.43617 0.08611-0.11809-0.04854 0.95750-0.96186
   7  -2  -1 -6.4812 62.6395   5 0.52590-0.00365 0.20382-0.37036 0.90900-0.91347
   7   2  -1 117.262 53.0335   8 0.51242 0.00999-0.14950 0.31612 0.92599-0.93032
   6   2  -1 2252.16 178.884   8 0.51740-0.07237-0.15157 0.31820 0.92356-0.94225
  -6   2   1 2316.88 168.717   6-0.31664-0.12832 0.39631-0.22982-0.90553 0.92417
   6   2  -1 2362.68 190.183   2 0.39323 0.05178 0.21142-0.04487 0.95223-0.97073
  -6  -2   1 1895.92 147.581   9 0.07600-0.52087-0.33192 0.16536 0.93799-0.91954
  -6  -2   1 2127.43 187.954   3-0.40741-0.03774-0.17469 0.00815-0.95641 0.97491
  -6   2   1 2497.63 163.439   3-0.56290 0.11795-0.32485 0.49167-0.85126 0.86971
   6  -2  -1 2279.68 163.470   5 0.53367-0.08878 0.20875-0.37530 0.90431-0.92313
   6   2  -1 2077.46 178.735   5 0.42124 0.02365 0.13884 0.02769 0.95886-0.97760
   6  -2  -1 2322.47 208.548   8 0.42971 0.01522-0.11545-0.05119 0.95972-0.97842
   6  -2  -1 2311.59 173.208   4-0.07185 0.51737-0.31726 0.15094-0.94256 0.92371
  -6   2   1 2252.72 204.533   7-0.44704 0.00212 0.06535 0.10120-0.95956 0.97800
  -6  -2   1 2318.80 190.965   7-0.49357 0.04864 0.07432-0.24120-0.94304 0.96143
  -5  -2   1 6095.88 282.336   7-0.51059 0.14307 0.07760-0.24447-0.93616 0.96892
  -5   2   1 6373.20 263.822   6-0.31098-0.05659 0.37445-0.20797-0.91604 0.94903
   5   2  -1 6136.37 282.012   2 0.39171-0.02407 0.20939-0.04283 0.95308-0.98593
  -5  -2   1 5760.20 250.487   9 0.12946-0.49698-0.20789 0.04131 0.97672-0.94392
  -5   2   1 6996.36 246.122   3-0.60007 0.23254-0.36332 0.53010-0.81165 0.84446
   5  -2  -1 6529.63 246.389   5 0.56196-0.19444 0.22684-0.39339 0.88591-0.91908
  -5  -2   1 6325.30 297.820   3-0.40755 0.03990-0.17481 0.00828-0.95636 0.98923
   5  -2  -1 6459.35 312.187   8 0.43341-0.06584-0.11696-0.04970 0.95845-0.99151
   5   2  -1 6518.27 275.460   8 0.54055-0.17292-0.16124 0.32787 0.91164-0.94469
   5   2  -1 6148.64 289.647   5 0.42345-0.05594 0.14019 0.02634 0.95804-0.99114
   5  -2  -1 6032.25 261.886   4-0.12343 0.49154-0.19156 0.02507-0.97970 0.94657
  -5   2   1 6048.41 303.263   7-0.45401 0.08654 0.06669 0.09986-0.95729 0.99009
   3   2  -1 38.1463 24.9286   2 0.42191-0.20903 0.25001-0.08338 0.93464-0.99622
   3  -2  -1 28.5364 10.1921   3-0.34682 0.55964-0.11954-0.04730-0.97848 0.91683
  -3   2   1 13.5465 17.4990   7-0.53700 0.32443 0.08273 0.08380-0.92455 0.98603
  -3  -2   1 18.3477 14.5905   9 0.22988-0.44265 0.05486-0.22149 0.99746-0.93596
  -3  -2   1 32.0909 21.0095   7-0.64394 0.43119 0.10375-0.27054-0.86430 0.92577
   3   2  -1 29.0554 12.9668   4-0.12260 0.33582-0.19366 0.36048-0.97925 0.91744
   3   2  -1 32.2815 13.1565   6-0.12304 0.33604-0.19331 0.36032-0.97934 0.91746
  -3   2   1 31.6644 11.8090   9 0.14859-0.36135-0.16107 0.32772 0.98631-0.92479
   3  -2  -1 16.5519 11.9514   4-0.21913 0.43231 0.07031-0.23713-0.99691 0.93506
  -3   2   1 6.59867 16.4604   6-0.31402 0.10125 0.38609-0.21964-0.91053 0.97223
   3  -2  -1 13.2663 15.6746   8 0.49817-0.28533-0.14359-0.02312 0.93266-0.99445
  -3   2   1 35.1011 20.5709   1 0.20763-0.42061-0.08495 0.25177 0.99611-0.93448
   3   2  -1 28.5608 22.1319   8 0.70320-0.49037-0.23111 0.39776 0.79114-0.85292
  -2  -2   1 84.9534 20.1505   8 0.61042-0.74581-0.19078 0.02416 0.86863-0.79251
  -2   2   1 82.7582 28.0206   7-0.65063 0.51548 0.10507 0.06144-0.85972 0.93549
   2  -2  -1 81.6554 28.1250   4-0.26115 0.39680 0.20096-0.36790-0.97619 0.89993
  -2   2   1 105.481 29.6396   1 0.22719-0.36273-0.22908 0.39601 0.97222-0.89618
   2   2  -1 118.775 28.6942   6-0.05273 0.18825-0.36204 0.52911-0.92433 0.84802
  -2  -2   1 63.0849 26.7208   9 0.27452-0.40991 0.18844-0.35508 0.97751-0.90166
   2   2  -1 91.3840 27.9020   5 0.55143-0.41609 0.22007-0.05355 0.89301-0.96918
   2  -2  -1 76.3226 26.0984   8 0.58722-0.45175-0.18090 0.01416 0.88418-0.96035
  -2   2   1 85.9196 30.6675   6-0.32455 0.18920 0.42782-0.26140-0.88911 0.96515
   1   2  -1 7438.78 250.249   5 0.67785-0.61992 0.30373-0.13724 0.78367-0.87416
  -1  -2   1 7472.54 244.902   9 0.31338-0.37139 0.31767-0.48432 0.93754-0.84733
  -1   2   1 7158.71 241.825   6-0.34119 0.28324 0.49886-0.33249-0.84612 0.93647
  -1  -2   1 7319.56 245.707   3-0.59695 0.53916-0.36004 0.19362-0.81527 0.90545
   0   2   1 11.7593 10.7548   6-0.36155 0.38100 0.59961-0.43325-0.76860 0.87325
   0  -2  -1 37.5628 19.9909   9-0.05702 0.03768-0.60098 0.43438 0.77276-0.87729
  -3   2  -1 5498.45 278.898   7 0.16787-0.41988-0.04843 0.21543-0.93640 0.78848
  -4   2  -1 1662.70 160.064   6-0.07862-0.25078-0.30193 0.46902-0.94821 0.78567
  -4   2  -1 1988.07 183.756   7 0.07255-0.40201-0.03129 0.19827-0.96612 0.80385
   4  -2   1 1914.51 173.297   8-0.05222 0.38091 0.07292-0.23932 0.96901-0.80697
  -4  -2  -1 2199.17 183.428   7 0.10645-0.43575-0.03740-0.12925-0.95663 0.79443
  -5   2  -1 870.228 120.741   6-0.10440-0.30244-0.23975 0.40684-0.96784 0.79096
  -5   2  -1 990.754 145.533   7-0.00482-0.40208-0.01724 0.18422-0.98338 0.80675
   5   2   1 854.955 110.541   8-0.02875 0.43491 0.06409 0.10265 0.97489-0.79839
   5  -2   1 777.893 119.518   8 0.01639 0.38967 0.04700-0.21339 0.98447-0.80808
  -5  -2  -1 1080.95 143.845   7 0.01053-0.41727-0.02004-0.14661-0.98044 0.80389
  -6   2  -1 1012.02 152.422   7-0.07159-0.41274-0.00503 0.17199-0.99339 0.80240
  -6   2  -1 955.376 138.469   6-0.13236-0.35190-0.16961 0.33668-0.98420 0.79299
   6   2   1 977.286 133.673   8 0.05837 0.42516 0.03101 0.13575 0.99133-0.80047
   6  -2   1 950.196 140.256   8 0.07735 0.40606 0.02374-0.19012 0.99377-0.80303
  -6  -2  -1 1153.86 160.426   7-0.06775-0.41641-0.00574-0.16092-0.99294 0.80203
  -7  -2  -1 46.9020 53.3130   7-0.13546-0.42612 0.00673-0.17339-0.99869 0.79342
  -7   2  -1 13.7540 38.7636   6-0.16202-0.39964-0.09185 0.25890-0.99551 0.78998
   7  -2   1 80.6463 66.9095   8 0.13336 0.42743 0.00216-0.16854 0.99860-0.79352
   7   2   1 -72.938 64.7146   8 0.13199 0.42893 0.00269 0.16407 0.99853-0.79331
  -7   2  -1 -59.565 53.0122   7-0.13164-0.43012 0.00602 0.16092-0.99849 0.79313
  -8   2  -1 1.82875 45.4453   7-0.18719-0.45200 0.01632 0.15061-0.99986 0.78012
  -8  -2  -1 -1.7561 46.8133   7-0.19639-0.44260 0.01803-0.18470-0.99977 0.78014
   8   2   1 255.775 85.4736   8 0.19709 0.44121-0.02263 0.18940 0.99967-0.78010
   8  -2   1 199.342 90.6451   8 0.18595 0.45221-0.01827-0.14810 0.99983-0.78040
 -11   3   1 863.713 253.542   7-0.53841-0.29375 0.08301 0.16694-0.92390 0.87038
 -11  -3   1 724.641 207.289   7-0.58703-0.24491 0.09250-0.34281-0.89919 0.84572
  11   3  -1 1105.00 210.627   5 0.50645 0.32531 0.19156 0.05828 0.92009-0.86708
  11  -3  -1 850.104 207.721   8 0.51844 0.31330-0.15200-0.09788 0.92305-0.87010
 -11  -3   1 900.137 195.496   3-0.48800-0.34461-0.25070 0.00085-0.91210 0.85853
 -10   3   1 51.7395 99.8054   7-0.51573-0.23898 0.07860 0.17135-0.93399 0.89488
 -10  -3   1 298.062 134.613   7-0.56660-0.18793 0.08851-0.33879-0.91010 0.87101
 -10  -3   1 481.336 144.790   3-0.46612-0.28900-0.22972-0.02016-0.92603 0.88689
  10  -3  -1 305.058 115.616   8 0.49549 0.25887-0.14248-0.10742 0.93388-0.89525
  10   3  -1 266.412 122.307   5 0.48394 0.27046 0.17747 0.07237 0.93183-0.89317
  10   3  -1 260.558 94.4353   2 0.44704 0.30742 0.28462-0.03483 0.91626-0.87741
   9   3  -1 1708.28 229.739   5 0.46404 0.21299 0.16512 0.08472 0.94128-0.91696
   9   3  -1 1684.23 213.224   2 0.42845 0.24864 0.25894-0.00915 0.93014-0.90562
  -9   3   1 1447.22 220.832   7-0.49608-0.18117 0.07479 0.17516-0.94205 0.91734
   9   3  -1 1821.37 218.084   8 0.57919 0.09803-0.17750 0.42747 0.88925-0.86488
  -9  -3   1 1444.38 205.422   7-0.55011-0.12702 0.08529-0.33554-0.91834 0.89363
  -9  -3   1 1617.01 224.447   3-0.44666-0.23099-0.21128-0.03862-0.93718 0.91247
   9  -3  -1 1712.98 244.926   8 0.47531 0.20169-0.13414-0.11576 0.94260-0.91830
   8   3  -1 109.458 59.8942   2 0.41264 0.18708 0.23744 0.01236 0.94070-0.93052
   8  -3  -1 109.043 55.7108   4 0.00669 0.59367-0.49124 0.24183-0.85469 0.86433
  -8   3   1 160.829 91.3316   7-0.48051-0.11928 0.07179 0.17817-0.94800 0.93768
  -8  -3   1 45.0093 64.0336   7-0.53909-0.06063 0.08314-0.33337-0.92358 0.91324
  -8  -3   1 95.5383 59.4874   9-0.00384-0.59576-0.49997 0.25016 0.85024-0.86046
  -8   3   1 15.9917 49.6591   6-0.32543-0.27436 0.43146-0.18164-0.88712 0.87702
   8  -3  -1 2.71489 65.4243   8 0.45878 0.14085-0.12735-0.12257 0.94921-0.93925
   8   3  -1 43.6001 61.1190   5 0.44757 0.15209 0.15496 0.09487 0.94847-0.93851
   8   3  -1 104.967 47.7553   8 0.57124 0.02859-0.17413 0.42411 0.89413-0.88411
  -8  -3   1 115.150 62.6465   3-0.43031-0.16985-0.19594-0.05397-0.94571 0.93540
  -7  -3   1 1604.62 201.319   7-0.53596 0.01365 0.08253-0.33273-0.92503 0.92906
  -7   3   1 580.908 115.066   7-0.47059-0.05174 0.06988 0.18008-0.95160 0.95566
   7  -3  -1 617.399 104.144   4-0.03829 0.56125-0.39407 0.14450-0.90949 0.90491
   7  -3  -1 592.991 92.5318   5 0.60154-0.07927 0.25254-0.50232 0.85632-0.86085
  -7  -3   1 792.237 164.508   3-0.41802-0.10463-0.18451-0.06543-0.95162 0.95572
   7   3  -1 516.597 160.317   2 0.40043 0.12191 0.22103 0.02878 0.94813-0.95229
  -7   3   1 523.774 97.9370   6-0.31505-0.20737 0.39008-0.14026-0.90860 0.91287
  -7  -3   1 488.968 91.8618   9 0.04249-0.56472-0.40488 0.15504 0.90537-0.90126
   7  -3  -1 517.017 116.233   8 0.44721 0.07507-0.12260-0.12732 0.95356-0.95794
  -6  -3   1 152.434 71.3789   3-0.41117-0.03398-0.17816-0.07177-0.95475 0.97323
  -6   3   1 44.8955 31.7332   7-0.46876 0.02388 0.06953 0.18043-0.95225 0.97068
  -6  -3   1 12.9748 40.9799   7-0.54468 0.09975 0.08423-0.33441-0.92095 0.93934
   6  -3  -1 17.3482 40.9791   4-0.08127 0.52679-0.29501 0.04527-0.95061 0.93178
  -6  -3   1 37.7239 23.5770   9 0.08699-0.53187-0.30720 0.05733 0.94732-0.92887
  -6   3   1 63.7348 37.4910   6-0.30691-0.13811 0.35903-0.10921-0.92302 0.94166
   6  -3  -1 68.3974 36.1649   5 0.62505-0.18013 0.26806-0.51785 0.83636-0.85524
   6  -3  -1 17.3817 43.1798   8 0.44255 0.00237-0.12070-0.12925 0.95524-0.97397
   6   3  -1 -32.248 29.1819   8 0.58905-0.14400-0.18168 0.43167 0.88300-0.90168
   5   3  -1 823.822 116.509   2 0.39159-0.02398 0.20923 0.04063 0.95314-0.98599
   5  -3  -1 740.107 104.063   4-0.12199 0.49007-0.19520-0.05470-0.97890 0.94577
  -5  -3   1 847.176 118.156   3-0.41173 0.04408-0.17867-0.07124-0.95450 0.98736
  -5   3   1 848.169 110.947   6-0.30173-0.06589 0.33976-0.08995-0.93128 0.96429
  -5  -3   1 685.120 99.7062   9 0.12943-0.49695-0.20796-0.04193 0.97670-0.94391
  -5  -3   1 872.032 105.703   7-0.57212 0.20458 0.08958-0.33973-0.90724 0.93999
   5   3  -1 787.347 109.367   5 0.43322-0.06571 0.14616 0.10367 0.95430-0.98739
   5  -3  -1 901.081 122.051   8 0.44787-0.08032-0.12288-0.12709 0.95331-0.98639
   5   3  -1 886.269 101.601   8 0.62910-0.26144-0.19879 0.44879 0.85512-0.88817
   5  -3  -1 797.223 91.2386   5 0.67754-0.30998 0.30352-0.55334 0.78401-0.81726
  -5   3   1 908.916 121.490   7-0.47900 0.11158 0.07150 0.17845-0.94856 0.98135
  -4  -3   1 501.662 74.5092   7-0.63069 0.34053 0.10112-0.35122-0.87305 0.92017
  -4   3   1 397.018 74.8498   7-0.50815 0.21819 0.07713 0.17280-0.93717 0.98431
   4   3  -1 534.455 86.1856   2 0.39850-0.10826 0.21845 0.03146 0.94925-0.99646
  -4   3   1 488.909 47.8478   9 0.30910-0.59928 0.30265-0.05269 0.94330-0.89611
  -4   3   1 473.100 78.6344   1 0.17374-0.46408 0.11402 0.13597 0.99343-0.94618
   4   3  -1 420.568 43.7176   6-0.27806 0.56847 0.25601-0.00592-0.96131 0.91386
   4  -3  -1 474.060 81.3560   4-0.16013 0.45074-0.09601-0.15406-0.99508 0.94760
  -4   3   1 490.483 80.3525   6-0.30022 0.01001 0.33419-0.08438-0.93357 0.98094
  -4  -3   1 515.764 86.3985   9 0.16944-0.45958-0.10845-0.14147 0.99398-0.94684
   4   3  -1 687.152 91.4970   8 0.70868-0.41844-0.23354 0.48355 0.78565-0.83306
   4  -3  -1 510.814 86.3868   8 0.46824-0.17803-0.13123-0.11876 0.94548-0.99291
  -3   3   1 1674.24 140.551   7-0.56847 0.35596 0.08886 0.16103-0.90914 0.97059
   3  -3  -1 1541.51 136.769   4-0.19524 0.40836 0.00089-0.25111-0.99995 0.93810
  -3  -3   1 1917.51 133.823   7-0.74164 0.52883 0.12339-0.37347-0.78547 0.84698
  -3   3   1 1622.63 137.115   1 0.19432-0.40728-0.00119 0.25133 0.99996-0.93833
   3   3  -1 1591.24 103.474   6-0.19479 0.40780-0.00141 0.25172-0.99995 0.93812
  -3   3   1 1831.02 155.734   6-0.30309 0.09031 0.34477-0.09498-0.92918 0.99091
  -3  -3   1 1774.02 154.539   9 0.20655-0.41931-0.01024-0.23970 0.99972-0.93823
  -3  -3   1 1282.49 130.866   3-0.44805 0.23540-0.21259-0.03725-0.93642 0.99799
   3   3  -1 1704.66 147.093   5 0.48437-0.27165 0.17774 0.07209 0.93162-0.99342
   3  -3  -1 1533.57 142.005   8 0.51219-0.29935-0.14941-0.10061 0.92610-0.98789
  -2   3   1 8425.65 267.645   7-0.68120 0.54611 0.11117 0.13870-0.83741 0.91313
   2  -3  -1 7364.73 293.500   4-0.22687 0.36245 0.09348-0.34383-0.99468 0.91843
  -2   3   1 8360.17 298.603   1 0.21031-0.34583-0.10298 0.35324 0.99433-0.91830
   2  -3  -1 8617.89 272.720   9-0.02529 0.16067-0.54175 0.29183 0.82083-0.89668
   2   3  -1 8078.99 249.334   6-0.14255 0.27809-0.14328 0.39372-0.98882 0.91257
  -2   3   1 8149.40 301.308   6-0.31095 0.17561 0.37433-0.12458-0.91609 0.99216
  -2  -3   1 8053.43 301.771   9 0.24022-0.37560 0.08467-0.33463 0.99480-0.91896
   2  -3  -1 8501.73 284.472   8 0.59418-0.45871-0.18386-0.06621 0.87965-0.95583
   2   3  -1 8554.83 281.036   5 0.54884-0.41352 0.21842 0.03139 0.89471-0.97087
  -2  -3   1 9052.79 182.288   8 0.59824-0.73361-0.18559-0.06436 0.87696-0.80086
  -2  -3   1 8473.93 296.827   3-0.49430 0.35913-0.25679 0.00700-0.90779 0.98368
  -2  -3   1 9029.96 291.766   4 0.03353-0.16930-0.54611 0.29610-0.81635 0.89235
  -1  -3   1 656.400 85.3949   9 0.26987-0.32787 0.17388-0.42384 0.98071-0.89051
   1   3  -1 650.935 81.5823   2 0.50018-0.44213 0.36072-0.11070 0.86636-0.95667
  -1   3   1 728.438 88.8770   6-0.32404 0.26612 0.42576-0.17607-0.89023 0.98062
   1   3  -1 582.979 73.6263   6-0.11236 0.17040-0.22007 0.47057-0.97304 0.88238
   1  -3  -1 700.744 80.9229   9-0.00821 0.06623-0.50859 0.25868 0.84446-0.93465
  -1  -3   1 668.648 80.9013   3-0.56874 0.51101-0.33081 0.08106-0.84551 0.93569
   1   3  -1 697.137 81.9957   5 0.65571-0.59780 0.28862-0.03882 0.80721-0.89770
  -1  -3   1 749.494 87.9528   4 0.01616-0.07451-0.51089 0.26097-0.84163 0.93197
   0  -3   1 6.13579 14.1259   4 0.01198 0.00713-0.50226 0.25242-0.84745 0.95215
   0  -3   1 2.18210 11.2925   9 0.29498-0.27560 0.25461-0.50458 0.95971-0.85516
   0   3  -1 30.7768 18.5755   6-0.09750 0.07804-0.25661 0.50714-0.96301 0.85795
   0   3   1 19.1287 23.9463   6-0.34166 0.36115 0.50101-0.25137-0.84468 0.94937
   0  -3  -1 -9.7949 22.9850   9-0.00484-0.01450-0.50193 0.25204 0.84894-0.95348
   0  -3  -1 29.1026 20.7155   4-0.27762 0.25810 0.25590-0.50640-0.96138 0.85632
  -1   3  -1 12048.1 389.629   6-0.09351-0.00345-0.26630 0.51684-0.96007 0.84063
   1   3   1 11496.0 368.886   1 0.23577-0.13887-0.30560 0.55604 0.95021-0.83096
   1  -3   1 11807.3 347.568   9 0.31514-0.21838 0.32388-0.57385 0.93508-0.81617
  -1  -3  -1 11517.3 372.723   9-0.01064-0.08606-0.51336 0.26348 0.84119-0.96008
  -1  -3  -1 12176.5 362.460   4-0.29594 0.19886 0.32017-0.57071-0.93920 0.81971
   2  -3   1 1700.26 153.885   4 0.02803 0.14598-0.53508 0.28542-0.82453 0.95789
  -2  -3  -1 1819.37 158.845   9-0.02294-0.15113-0.53724 0.28738 0.82417-0.95741
  -2   3  -1 1745.00 157.926   6-0.09740-0.07705-0.25686 0.50739-0.96293 0.82913
  -2   3  -1 1712.97 144.298   7 0.20160-0.37615-0.05445 0.30492-0.92359 0.79002
  -3   3  -1 3471.10 235.203   6-0.10717-0.14476-0.23293 0.48346-0.96970 0.82153
   3  -3   1 3541.88 229.473   8-0.06090 0.31222 0.07618-0.32586 0.96667-0.81901
  -3  -3  -1 3878.66 251.654   9-0.04004-0.21140-0.56966 0.31981 0.79917-0.94675
   3  -3   1 3616.26 237.126   4 0.04410 0.20737-0.56708 0.31752-0.80008 0.94774
  -3  -3  -1 2600.69 178.440   7 0.18052-0.43231-0.05069-0.19933-0.93174 0.78394
  -3   3  -1 3626.92 231.549   7 0.09904-0.35104-0.03607 0.28652-0.95880 0.81089
  -4  -3  -1 -17.348 47.5246   7 0.05783-0.38708-0.02863-0.22138-0.96987 0.80771
  -4   3  -1 19.7911 23.3546   7 0.01990-0.34935-0.02174 0.27217-0.97853 0.81626
  -4   3  -1 11.1704 31.7780   6-0.12141-0.20799-0.19744 0.44795-0.97843 0.81590
   4   3   1 23.4803 16.7851   8-0.10479 0.43362 0.09258 0.15743 0.95356-0.79139
   4  -3   1 59.4042 35.3413   8 0.00246 0.32622 0.05228-0.30196 0.98176-0.81974
  -4  -3  -1 14.3633 28.1181   9-0.06078-0.26801-0.60779 0.35795 0.76669-0.92861
  -5   3  -1 3635.00 275.074   6-0.13911-0.26773-0.15224 0.40273-0.98734 0.81048
   5   3   1 2822.00 178.074   1 0.23360 0.17310-0.28512 0.53559 0.95676-0.78004
   5   3   1 3824.02 224.642   8 0.00943 0.39677 0.04964 0.20040 0.98314-0.80660
   5  -3   1 3711.54 276.860   8 0.05896 0.34708 0.03078-0.28044 0.99141-0.81504
  -5  -3  -1 3518.17 249.771   7-0.03304-0.37364-0.01209-0.23790-0.98817 0.81165
  -5   3  -1 3521.36 291.872   7-0.04666-0.36024-0.00960 0.26001-0.99018 0.81355
   6  -3   1 2150.83 235.555   8 0.11120 0.37220 0.01072-0.26038 0.99712-0.80640
   6   3   1 2218.36 192.941   8 0.09721 0.38638 0.01611 0.23395 0.99590-0.80500
   6   3   1 2079.17 146.754   1 0.22509 0.25899-0.21194 0.46240 0.97624-0.78520
  -6   3  -1 2303.93 225.094   6-0.15953-0.32473-0.09851 0.34898-0.99482 0.80361
  -6  -3  -1 2207.63 225.632   7-0.10711-0.37700 0.00150-0.25150-0.99686 0.80598
  -6   3  -1 1768.42 210.751   7-0.10577-0.37856 0.00125 0.24914-0.99675 0.80575
  -7   3  -1 2774.48 255.754   6-0.18213-0.37954-0.03694 0.28739-0.99932 0.79378
   7  -3   1 2481.88 266.384   8 0.16063 0.40015-0.00841-0.24125 0.99965-0.79458
   7   3   1 3001.71 247.192   8 0.17025 0.39072-0.01216 0.26223 0.99981-0.79454
  -7   3  -1 2383.34 263.917   7-0.16013-0.40164 0.01130 0.23908-0.99960 0.79422
  -7  -3  -1 3060.63 288.217   7-0.17138-0.39013 0.01338-0.26339-0.99981 0.79457
  -8  -3  -1 174.305 90.4623   7-0.22952-0.40941 0.02420-0.27422-0.99869 0.77909
   8  -3   1 109.478 69.4210   8 0.20809 0.43006-0.02693-0.22273 0.99937-0.77996
  -8   3  -1 -75.368 71.0028   7-0.21131-0.42790 0.02081 0.22957-0.99943 0.77967
  -8   3  -1 26.1469 51.1126   6-0.20649-0.43256 0.03212 0.21830-0.99925 0.77938
   8   3   1 155.681 79.8584   8 0.23439 0.40397-0.03725 0.28734 0.99804-0.77843
  11   4  -1 -64.478 60.8521   2 0.46648 0.36531 0.31196 0.02110 0.89988-0.84673
 -11  -4   1 69.1115 86.2013   3-0.49074-0.34191-0.25334-0.07994-0.91025 0.85664
 -10   4   1 27.5940 69.8244   7-0.53576-0.21893 0.08249 0.25089-0.92512 0.88598
 -10  -4   1 18.9045 77.7435   7-0.60794-0.14655 0.09662-0.43018-0.88717 0.84808
 -10  -4   1 124.792 84.4973   3-0.47058-0.28458-0.23397-0.09933-0.92332 0.88415
  10   4  -1 92.8742 85.4447   2 0.44747 0.30695 0.28521 0.04785 0.91592-0.87708
  10   4  -1 -18.502 75.1683   5 0.49312 0.26130 0.18320 0.14993 0.92718-0.88851
  10  -4  -1 10.4133 60.7435   8 0.50844 0.24592-0.14785-0.18533 0.92789-0.88930
  -9   4   1 739.309 165.495   7-0.51852-0.15870 0.07914 0.25425-0.93280 0.90806
   9   4  -1 832.221 167.157   5 0.47510 0.20195 0.17197 0.16116 0.93613-0.91180
  -9  -4   1 706.742 132.226   7-0.59589-0.08122 0.09424-0.42778-0.89421 0.86949
   9  -4  -1 728.699 162.772   8 0.49025 0.18675-0.14031-0.19288 0.93621-0.91195
  -9  -4   1 745.871 155.685   3-0.45291-0.22475-0.21719-0.11614-0.93372 0.90898
   9   4  -1 507.662 125.726   2 0.43065 0.24640 0.26197 0.07111 0.92858-0.90407
   8   4  -1 319.443 100.283   2 0.41661 0.18309 0.24280 0.09028 0.93816-0.92798
   8  -4  -1 534.892 133.224   4-0.00737 0.60775-0.46159 0.12877-0.87308 0.88276
  -8   4   1 178.907 83.3120   7-0.50578-0.09399 0.07667 0.25672-0.93815 0.92780
  -8  -4   1 348.762 102.884   7-0.59051-0.00919 0.09319-0.42670-0.89725 0.88691
  -8  -4   1 368.756 95.9381   9 0.01121-0.61082-0.46980 0.13666 0.86942-0.87965
  -8   4   1 342.708 99.6280   6-0.32011-0.27975 0.40999-0.07685-0.89859 0.88848
   8  -4  -1 356.185 119.498   8 0.47594 0.12369-0.13440-0.19880 0.94234-0.93241
   8   4  -1 456.810 104.390   5 0.46064 0.13903 0.16302 0.17012 0.94281-0.93283
  -8  -4   1 418.917 121.808   3-0.43838-0.16177-0.20351-0.12982-0.94159 0.93125
  -7   4   1 2126.49 233.685   7-0.49919-0.02310 0.07539 0.25798-0.94082 0.94485
  -7  -4   1 2158.63 208.944   7-0.59478 0.07246 0.09403-0.42750-0.89484 0.89887
  -7   4   1 2154.93 218.639   6-0.31097-0.21150 0.37441-0.04125-0.91606 0.92032
   7   4  -1 1929.63 212.597   2 0.40603 0.11630 0.22852 0.10458 0.94481-0.94897
  -7  -4   1 1942.54 199.710   9 0.05074-0.57298-0.38725 0.05408 0.91398-0.90987
  -7  -4   1 1940.56 215.070   3-0.42790-0.09475-0.19370-0.13964-0.94690 0.95096
   7   4  -1 1968.80 213.143   5 0.45085 0.07144 0.15698 0.17615 0.94708-0.95146
   7  -4  -1 1923.56 223.094   8 0.46682 0.05546-0.13065-0.20257 0.94605-0.95046
   7  -4  -1 1886.13 203.071   4-0.04556 0.56851-0.37777 0.04479-0.91721 0.91266
  -6  -4   1 713.381 125.331   3-0.42266-0.02248-0.18881-0.14451-0.94944 0.96789
   6   4  -1 758.208 129.239   2 0.39984 0.04511 0.22025 0.11289 0.94848-0.96698
  -6   4   1 817.111 137.458   7-0.50131 0.05648 0.07580 0.25757-0.93997 0.95837
  -6  -4   1 787.039 113.707   7-0.61347 0.16853 0.09771-0.43115-0.88384 0.90224
   6  -4  -1 799.431 126.755   4-0.08152 0.52703-0.29441-0.03875-0.95082 0.93199
  -6   4   1 831.566 128.714   6-0.30392-0.14115 0.34785-0.01470-0.92788 0.94652
   6   4  -1 1066.94 134.706   8 0.68716-0.24208-0.22402 0.55740 0.80656-0.82524
  -6  -4   1 604.531 111.471   9 0.08814-0.53302-0.30459-0.02859 0.94826-0.92982
   6  -4  -1 720.835 125.370   8 0.46479-0.01987-0.12982-0.20342 0.94686-0.96561
   6   4  -1 761.967 115.691   5 0.44730-0.00240 0.15479 0.17834 0.94859-0.96732
   5   4  -1 35.8574 57.4103   2 0.39929-0.03170 0.21950 0.11367 0.94880-0.98165
  -5   4   1 -10.131 33.8767   7-0.51619 0.14882 0.07869 0.25466-0.93380 0.96656
  -5  -4   1 4.94989 23.3949   7-0.65467 0.28710 0.10587-0.43928-0.85691 0.88968
   5  -4  -1 39.1809 42.4638   4-0.11509 0.48313-0.21254-0.12078-0.97488 0.94174
  -5  -4   1 -19.557 32.4029   9 0.12325-0.49076-0.22281-0.11040 0.97310-0.94032
  -5   4   1 3.51112 29.4454   6-0.29946-0.06820 0.33142 0.00174-0.93469 0.96771
   5   4  -1 15.9246 17.9623   6-0.34790 0.71571 0.52991-0.19672-0.82448 0.79124
   5  -4  -1 -43.584 45.1300   8 0.47280-0.10523-0.13311-0.20015 0.94363-0.97673
   5   4  -1 10.4461 31.9298   5 0.45230-0.08479 0.15787 0.17526 0.94646-0.97955
  -5  -4   1 25.4006 40.8670   3-0.42434 0.05671-0.19038-0.14293-0.94863 0.98146
  -4   4   1 1214.24 131.486   7-0.55054 0.26065 0.08537 0.24795-0.91814 0.96523
  -4  -4   1 1430.25 127.003   7-0.73182 0.44159 0.12139-0.45476-0.79471 0.84188
   4   4  -1 1374.06 104.507   6-0.28219 0.57265 0.27016 0.06328-0.95688 0.90940
  -4   4   1 1417.81 152.028   6-0.29810 0.00787 0.32646 0.00669-0.93667 0.98405
   4   4  -1 1222.55 140.157   2 0.40595-0.11574 0.22842 0.10478 0.94485-0.99205
  -4  -4   1 1226.13 142.735   9 0.15582-0.44595-0.14304-0.19020 0.98930-0.94218
  -4  -4   1 1287.41 144.819   3-0.43531 0.14520-0.20062-0.13265-0.94318 0.99037
   4   4  -1 1235.28 136.557   5 0.46929-0.17918 0.16837 0.16477 0.93887-0.98631
   4  -4  -1 1423.38 147.182   8 0.49544-0.20523-0.14246-0.19084 0.93390-0.98136
   4  -4  -1 1232.97 141.145   4-0.14604 0.43660-0.13332-0.20016-0.99034 0.94286
  -3  -4   1 101.873 36.8580   4 0.02496-0.23826-0.52887 0.19544-0.82904 0.89065
  -3   4   1 98.9324 37.7836   7-0.61579 0.40336 0.09817 0.23511-0.88242 0.94382
   3  -4  -1 44.1918 33.1845   4-0.17413 0.38717-0.05807-0.27555-0.99825 0.93640
   3   4  -1 93.9845 35.1790   6-0.22844 0.44148 0.09710 0.23654-0.99426 0.93242
  -3   4   1 51.0700 26.9900   6-0.30034 0.08756 0.33467-0.00154-0.93337 0.99511
  -3  -4   1 62.9968 38.3055   9 0.18556-0.39831-0.06655-0.26670 0.99778-0.93630
   3  -4  -1 81.0057 32.6518   9-0.01558 0.22832-0.52301 0.18977 0.83446-0.89597
  -3  -4   1 73.0068 17.9285   8 0.01936-0.23211 0.04587-0.37901 0.98502-0.92336
   3  -4  -1 50.0265 32.6133   8 0.54013-0.32727-0.16106-0.17227 0.91187-0.97369
  -3  -4   1 60.5017 34.1771   3-0.45888 0.24626-0.22284-0.11038-0.93031 0.99186
  -3   4   1 64.7840 14.7793   2 0.42419-0.63718 0.25312 0.08025 0.93310-0.87141
  -2   4   1 2142.28 144.730   7-0.72968 0.59465 0.12095 0.21228-0.79668 0.87232
   2   4  -1 1921.90 139.373   6-0.18958 0.32514-0.01614 0.34993-0.99986 0.92364
  -2   4   1 1993.20 168.367   6-0.30662 0.17128 0.35795-0.02486-0.92350 0.99959
   2  -4  -1 1784.86 140.862   9 0.00725 0.12814-0.47780 0.14457 0.86449-0.94035
   2   4  -1 1763.85 140.502   5 0.56269-0.42740 0.22731 0.10582 0.88540-0.96154
   2  -4  -1 2207.95 159.527   8 0.61853-0.48304-0.19426-0.13913 0.86288-0.93908
  -2  -4   1 2262.61 168.886   4 0.00222-0.13809-0.48190 0.14855-0.86065 0.93662
  -2  -4   1 2159.13 174.753   9 0.21215-0.34753 0.00516-0.33842 0.99962-0.92379
  -2  -4   1 2111.19 162.093   3-0.49953 0.36441-0.26187-0.07128-0.90412 0.97998
   2   4  -1 1984.05 88.4226   7-0.29785 0.43335 0.03701 0.29667-0.99259 0.91664
   1   4  -1 7785.19 304.688   6-0.16367 0.22174-0.08738 0.42125-0.99595 0.90533
   1   4  -1 7984.96 309.028   2 0.49171-0.43367 0.34829-0.01493 0.87546-0.96576
  -1   4   1 8118.79 334.076   6-0.31714 0.25925 0.39828-0.06524-0.90455 0.99497
  -1  -4   1 8263.30 308.375   3-0.56244 0.50475-0.32438-0.00871-0.85171 0.94187
   1   4  -1 9223.88 314.316   5 0.65628-0.59840 0.28901 0.04410 0.80663-0.89710
   1  -4  -1 7923.48 308.415   9 0.01676 0.04127-0.45849 0.12528 0.87619-0.96639
  -1  -4   1 8376.40 334.011   4-0.00784-0.05058-0.46058 0.12731-0.87368 0.96401
  -1  -4   1 7695.51 323.466   9 0.23530-0.29329 0.07040-0.40368 0.99620-0.90602
  -1   4  -1 186.931 52.3251   6-0.14124 0.04430-0.14670 0.48064-0.98827 0.86886
   1   4   1 112.468 35.2029   1 0.21883-0.12193-0.16351 0.49730 0.98585-0.86663
  -1  -4  -1 135.735 39.8120   4-0.25172 0.15460 0.17057-0.50451-0.98280 0.86334
   1   4   1 164.849 51.3219   6-0.34908 0.44601 0.53549-0.20258-0.82038 0.93939
  -1  -4  -1 146.283 37.8185   9 0.01044-0.10714-0.47135 0.13816 0.86847-0.98737
  -1   4  -1 126.856 33.0787   7 0.18600-0.28307-0.05167 0.38559-0.92966 0.81047
   1  -4   1 129.925 33.4837   8-0.08556 0.18220 0.08541-0.41840 0.95957-0.84060
   1  -4   1 220.661 52.5818   9 0.26985-0.17308 0.17382-0.50710 0.98072-0.86183
  -2  -4  -1 -16.640 19.9106   7 0.25517-0.42945-0.06397-0.26940-0.90071 0.76732
  -2   4  -1 15.0451 27.4784   7 0.08603-0.26055-0.03373 0.36762-0.96248 0.82894
   2  -4   1 -12.904 33.2049   8-0.03008 0.20407 0.06459-0.39757 0.97457-0.84125
  -2   4  -1 -9.9014 23.4850   6-0.14083-0.03359-0.14775 0.48169-0.98810 0.85432
  -2  -4  -1 20.0132 30.3397   4-0.26075 0.08609 0.19967-0.53364-0.97649 0.84263
  -2  -4  -1 -17.106 26.0789   9-0.00136-0.17271-0.49503 0.16186 0.85349-0.98674
   2  -4   1 -28.615 29.9313   9 0.28055-0.10641 0.20754-0.54082 0.97293-0.83969
   2   4   1 34.6939 39.5061   1 0.22140-0.04703-0.18290 0.51671 0.98231-0.84871
  -3  -4  -1 1667.17 146.480   4-0.26463 0.01244 0.21239-0.54638-0.97341 0.82516
   3   4   1 1669.17 154.938   1 0.22166 0.03016-0.18488 0.51871 0.98192-0.83394
  -3   4  -1 1768.20 181.458   6-0.14572-0.10618-0.13500 0.46893-0.99011 0.84196
   3  -4   1 1790.69 149.142   9 0.28618-0.03466 0.22568-0.55896 0.96816-0.82058
  -3  -4  -1 1714.69 176.347   9-0.01728-0.23416-0.52632 0.19315 0.83210-0.97970
  -3   4  -1 1792.87 165.174   7 0.01316-0.26513-0.02052 0.35441-0.97991 0.83201
   3  -4   1 1681.97 159.311   8 0.01931 0.23203 0.04589-0.37886 0.98501-0.83734
   3  -4   1 1751.02 183.777   4 0.02237 0.22907-0.52359 0.19067-0.83280 0.98050
  -3  -4  -1 1902.56 139.276   7 0.08313-0.33490-0.03320-0.30012-0.96328 0.81552
  -4  -4  -1 20.7256 20.0915   7-0.02316-0.30605-0.01390-0.31941-0.98658 0.82446
  -4   4  -1 53.5746 51.4511   7-0.04734-0.28208-0.00948 0.34335-0.99028 0.82801
   4  -4   1 21.4623 34.8699   4 0.04062 0.28828-0.56022 0.22741-0.80551 0.96750
  -4   4  -1 -44.106 49.5353   6-0.15487-0.17451-0.11090 0.44482-0.99339 0.83088
   4   4   1 5.64415 22.5623   1 0.21940 0.10985-0.16780 0.50163 0.98510-0.82276
  -4  -4  -1 51.2313 44.4368   9-0.03653-0.29228-0.56309 0.22994 0.80443-0.96636
  -4  -4  -1 12.9706 20.7484   4-0.26229-0.06739 0.20470-0.53869-0.97530 0.81267
   4   4   1 15.9334 17.3772   8-0.02721 0.35609 0.06350 0.26983 0.97526-0.81303
   4  -4   1 4.55733 29.5563   9 0.28582 0.04307 0.22452-0.55779 0.96848-0.80655
   4  -4   1 -30.652 46.5534   8 0.06556 0.26314 0.02826-0.36122 0.99230-0.83029
  -5  -4  -1 4788.55 228.872   4-0.25153-0.15562 0.16996-0.50396-0.98292 0.80593
   5   4   1 4655.09 249.665   1 0.21407 0.19260-0.12904 0.46285 0.99115-0.81447
  -5   4  -1 4392.21 317.285   6-0.16747-0.23936-0.07714 0.41104-0.99687 0.82001
   5  -4   1 4394.02 216.263   9 0.27759 0.12867 0.19810-0.53136 0.97525-0.79897
   5   4   1 4697.78 234.829   8 0.08259 0.32368 0.02173 0.31164 0.99438-0.81779
   5  -4   1 4332.29 313.970   8 0.10997 0.29607 0.01119-0.34414 0.99702-0.82067
  -5  -4  -1 4485.98 271.905   7-0.10187-0.30476 0.00053-0.33384-0.99643 0.81996
  -5   4  -1 4179.20 306.412   7-0.10126-0.30561 0.00042 0.33344-0.99638 0.81973
  -6   4  -1 211.042 82.4684   7-0.15128-0.33302 0.00966 0.32418-0.99935 0.80834
  -6  -4  -1 279.719 91.8402   7-0.16699-0.31706 0.01257-0.34587-0.99974 0.80891
  -6   4  -1 160.696 70.8280   6-0.18287-0.30139-0.03488 0.36875-0.99939 0.80818
   6   4   1 188.385 58.3188   8 0.16453 0.31913-0.00993 0.34332 0.99972-0.80878
   6  -4   1 182.573 80.1142   8 0.15325 0.33018-0.00555-0.32740 0.99945-0.80875
  -7   4  -1 322.486 130.830   7-0.19882-0.36292 0.01848 0.31534-0.99973 0.79433
  -7  -4  -1 196.162 92.8539   7-0.22453-0.33691 0.02327-0.35659-0.99893 0.79374
  -7   4  -1 275.220 99.3431   6-0.20059-0.36110 0.01511 0.31873-0.99977 0.79421
   7  -4   1 355.898 137.300   8 0.19573 0.36504-0.02210-0.31084 0.99970-0.79465
  -8  -4  -1 88.5726 82.2168   7-0.27747-0.36138 0.03319-0.36650-0.99496 0.77541
 -10   5   1 474.866 167.103   7-0.56265-0.19202 0.08774 0.32910-0.91212 0.87294
  10   5  -1 266.333 91.5257   5 0.50775 0.24670 0.19237 0.22407 0.91938-0.88068
  10   5  -1 376.479 157.326   2 0.45265 0.30175 0.29245 0.12389 0.91174-0.87291
 -10  -5   1 156.670 99.8913   3-0.48004-0.27512-0.24304-0.17369-0.91734 0.87813
  10  -5  -1 198.781 133.121   8 0.52738 0.22696-0.15573-0.26072 0.91855-0.88000
  -9   5   1 880.877 197.035   7-0.54837-0.12882 0.08495 0.33188-0.91918 0.89440
   9   5  -1 1044.41 180.607   5 0.49186 0.18520 0.18241 0.23402 0.92783-0.90348
   9  -5  -1 1049.77 212.672   8 0.51156 0.16543-0.14915-0.26732 0.92640-0.90217
  -9  -5   1 830.264 170.750   3-0.46430-0.21336-0.22799-0.18876-0.92712 0.90233
   9   5  -1 808.907 178.788   2 0.43764 0.23940 0.27158 0.14478 0.92348-0.89898
  -8  -5   1 -35.495 47.9433   9 0.01712-0.61673-0.45777 0.04131 0.87661-0.88684
  -8   5   1 -24.701 63.3024   6-0.31893-0.28099 0.40532 0.01117-0.90100 0.89087
   8  -5  -1 -36.573 46.9256   4-0.01262 0.61301-0.45035 0.03411-0.87966 0.88935
  -8   5   1 119.943 85.1658   7-0.53908-0.06063 0.08314 0.33369-0.92359 0.91319
   8   5  -1 -79.562 78.2569   5 0.47969 0.12000 0.17482 0.24161 0.93392-0.92393
   8   5  -1 59.9164 67.5110   2 0.42536 0.17432 0.25471 0.16166 0.93229-0.92212
   8  -5  -1 41.6520 76.2744   8 0.49989 0.09975-0.14430-0.27219 0.93188-0.92197
  -8  -5   1 11.9498 61.2216   3-0.45174-0.14841-0.21608-0.20067-0.93438 0.92400
   7   5  -1 679.978 136.808   2 0.41645 0.10586 0.24259 0.17381 0.93826-0.94243
  -7   5   1 548.382 118.808   7-0.53656 0.01432 0.08265 0.33416-0.92475 0.92874
   7  -5  -1 791.243 155.961   4-0.04574 0.56869-0.37734-0.03905-0.91741 0.91285
  -7   5   1 873.057 156.307   6-0.31099-0.21153 0.37447 0.04204-0.91603 0.92029
  -7  -5   1 611.370 143.704   9 0.05152-0.57376-0.38558-0.03090 0.91477-0.91067
   7  -5  -1 581.109 128.381   8 0.49368 0.02860-0.14173-0.27478 0.93469-0.93912
   7   5  -1 646.899 126.582   5 0.47229 0.05000 0.17023 0.24621 0.93746-0.94183
  -7  -5   1 370.383 103.303   3-0.44320-0.07943-0.20803-0.20871-0.93905 0.94307
   6   5  -1 552.223 120.469   2 0.41169 0.03324 0.23616 0.18027 0.94130-0.95981
  -6   5   1 508.879 107.753   7-0.54347 0.09869 0.08399 0.33280-0.92153 0.93988
   6   5  -1 430.005 106.925   5 0.47116-0.02625 0.16952 0.24691 0.93800-0.95672
  -6  -5   1 425.769 93.5058   7-0.69996 0.25498 0.11495-0.53163-0.82247 0.84092
   6  -5  -1 393.086 101.174   4-0.07661 0.52209-0.30604-0.11053-0.94670 0.92786
  -6  -5   1 385.367 98.5329   9 0.08371-0.52859-0.31462-0.10189 0.94461-0.92618
  -6   5   1 368.305 100.376   6-0.30495-0.14015 0.35169 0.06483-0.92623 0.94487
   6  -5  -1 382.810 95.9863   8 0.49482-0.04989-0.14221-0.27433 0.93418-0.95295
  -6  -5   1 280.626 79.5038   3-0.43975-0.00536-0.20479-0.21194-0.94087 0.95929
  -5   5   1 1143.41 140.740   7-0.56391 0.19662 0.08798 0.32878-0.91148 0.94418
  -5  -5   1 765.284 109.269   7-0.75708 0.38946 0.12655-0.54321-0.77025 0.80310
  -5  -5   1 1005.10 151.581   9 0.11357-0.48108-0.24577-0.17076 0.96699-0.93422
   5   5  -1 1156.36 148.743   5 0.47838-0.11087 0.17401 0.24243 0.93455-0.96763
   5  -5  -1 999.710 146.507   4-0.10509 0.47310-0.23732-0.17941-0.96849 0.93532
  -5   5   1 1319.59 168.095   6-0.30120-0.06647 0.33781 0.07871-0.93208 0.96510
   5   5  -1 1229.92 160.144   2 0.41211-0.04454 0.23672 0.17975 0.94104-0.97389
  -5  -5   1 1155.85 153.207   3-0.44285 0.07525-0.20770-0.20900-0.93924 0.97203
   5  -5  -1 1022.56 139.936   8 0.50611-0.13852-0.14688-0.26968 0.92899-0.96212
  -4   5   1 1695.08 159.871   7-0.60446 0.31464 0.09593 0.32079-0.88923 0.93625
  -4   5   1 1654.30 177.431   1 0.15804-0.44837 0.19313 0.22350 0.98089-0.93359
   4   5  -1 1710.47 142.464   6-0.29073 0.58124 0.30005 0.11675-0.94668 0.89916
  -4   5   1 1707.62 184.239   6-0.30013 0.00989 0.33387 0.08264-0.93370 0.98108
   4   5  -1 1557.03 169.768   2 0.41896-0.12876 0.24599 0.17051 0.93662-0.98382
  -4  -5   1 1722.43 186.046   9 0.14093-0.43106-0.17998-0.23657 0.98275-0.93563
  -4  -5   1 1554.73 168.562   3-0.45444 0.16436-0.21864-0.19802-0.93286 0.98002
   4   5  -1 1651.02 165.646   5 0.49698-0.20687 0.18561 0.23084 0.92517-0.97260
   4  -5  -1 1664.11 167.644   8 0.53176-0.24153-0.15757-0.25904 0.91629-0.96378
  -4  -5   1 1719.43 160.406   4 0.03761-0.32839-0.55424 0.13741-0.81016 0.85737
   4  -5  -1 2152.53 175.816   9-0.02857 0.31867-0.54802 0.13148 0.81611-0.86328
   4  -5  -1 1661.24 179.658   4-0.13105 0.42154-0.17217-0.24471-0.98369 0.93619
   3   5  -1 905.212 114.192   5 0.53128-0.31859 0.20723 0.20921 0.90577-0.96755
  -3   5   1 1091.43 118.953   7-0.67547 0.46310 0.11003 0.30663-0.84177 0.90307
   3  -5  -1 1008.01 120.624   8 0.57823-0.36535-0.17710-0.23955 0.88984-0.95170
  -3   5   1 994.552 140.263   1 0.17219-0.38511 0.12209 0.29468 0.99246-0.93079
  -3   5   1 1091.67 75.4886   2 0.46251-0.67551 0.30634 0.11038 0.90339-0.84169
   3   5  -1 978.691 112.069   6-0.25139 0.46445 0.16825 0.24873-0.98322 0.92137
   3   5  -1 1048.65 133.873   2 0.43379-0.22096 0.26627 0.15030 0.92632-0.98788
  -3   5   1 928.042 132.130   6-0.30208 0.08930 0.34106 0.07543-0.93074 0.99248
  -3  -5   1 928.880 132.230   9 0.16558-0.37832-0.11834-0.29823 0.99278-0.93131
   3  -5  -1 1364.02 136.728   9 0.00137 0.21139-0.48960 0.07307 0.85702-0.91853
  -3  -5   1 1141.15 134.950   4 0.00837-0.22175-0.49475 0.07798-0.85241 0.91399
   3  -5  -1 1049.77 143.136   4-0.15427 0.36724-0.11163-0.30538-0.99329 0.93142
  -3  -5   1 1029.37 133.814   3-0.47714 0.26456-0.24025-0.17634-0.91921 0.98071
   2  -5  -1 20.9224 15.4924   3-0.36139 0.49693-0.13266-0.28432-0.97396 0.89782
  -2  -5   1 147.290 62.6386   9 0.18728-0.32265-0.06200-0.35458 0.99807-0.92224
  -2   5   1 35.2442 31.8591   6-0.30736 0.17204 0.36073 0.05573-0.92227 0.99836
   2   5  -1 69.1425 36.6712   6-0.22094 0.35654 0.07459 0.34253-0.99653 0.92031
   2  -5  -1 -0.9403 23.6651   4-0.17455 0.30997-0.05693-0.36019-0.99833 0.92207
  -2   5   1 32.7784 38.9052   1 0.18361-0.31909 0.06062 0.35627 0.99817-0.92213
  -2   5   1 22.4504 23.8443   2 0.31805-0.45361 0.11409 0.30251 0.98386-0.90786
   2  -5  -1 26.7516 26.2596   9 0.01771 0.11769-0.45655 0.04003 0.87733-0.95319
   2   5  -1 29.5247 20.5463   2 0.45839-0.32296 0.30052 0.11610 0.90694-0.98286
  -2  -5   1 25.9135 24.4759   3-0.51425 0.37917-0.27624-0.14027-0.89326 0.96908
   2  -5  -1 54.4283 21.0894   8 0.65483-0.51932-0.20990-0.20680 0.83490-0.91114
  -1  -5   1 226.664 54.1388   9 0.20579-0.26378-0.01229-0.40429 0.99971-0.90953
   1   5  -1 145.761 42.5619   6-0.19906 0.25715 0.01072 0.40650-0.99985 0.90924
   1  -5  -1 169.091 58.1569   4-0.19163 0.24953-0.00934-0.40787-0.99994 0.90929
  -1   5   1 223.808 63.2887   6-0.31612 0.25823 0.39427 0.02213-0.90654 0.99697
   1  -5  -1 211.268 57.0051   9 0.02448 0.03356-0.44262 0.02611 0.88532-0.97553
   1   5  -1 231.283 59.9351   5 0.67144-0.61358 0.29933 0.11708 0.79072-0.88116
  -1  -5   1 250.915 61.6542   3-0.56936 0.51173-0.33144-0.08499-0.84490 0.93501
  -1  -5   1 204.554 26.6033   8 0.13666-0.19468 0.00088-0.41727 0.99878-0.90843
  -1   5   1 197.019 63.2573   1 0.19248-0.25051 0.00979 0.40720 0.99993-0.90950
   0  -5  -1 2445.07 206.262   4-0.20526 0.18563 0.02964-0.44692-0.99935 0.89431
   0   5   1 2804.43 226.252   1 0.19896-0.17953-0.02940 0.44646 0.99947-0.89466
   0   5  -1 3106.77 211.570   2 0.54282-0.56222 0.42553-0.00880 0.81222-0.91688
   0   5  -1 2761.65 216.074   6-0.18472 0.16532-0.02974 0.44703-0.99956 0.89456
   0   5   1 2983.47 221.982   6-0.32822 0.34777 0.44289-0.02656-0.88070 0.98545
   0  -5   1 2758.82 213.705   9 0.22084-0.20144 0.02931-0.44590 0.99892-0.89439
   0  -5   1 2943.97 141.843   8 0.06556-0.04624 0.02826-0.44458 0.99230-0.88764
   0  -5  -1 2682.24 207.256   9 0.02408-0.04340-0.44346 0.02695 0.88485-0.98941
   0  -5   1 2820.76 221.696   4-0.01570 0.03466-0.44370 0.02714-0.88344 0.98812
   0   5  -1 2711.09 108.310   7 0.02911-0.04860-0.02342 0.44074-0.97656 0.87179
   0  -5  -1 2792.44 98.4055   7-0.25480 0.23515 0.02893-0.44532-0.99705 0.89253
   1  -5   1 1809.40 172.371   9 0.23207-0.13530 0.06114-0.47772 0.99698-0.87811
   1   5   1 1638.39 174.778   1 0.20319-0.10628-0.05602 0.47312 0.99826-0.87906
  -1   5  -1 1687.20 177.390   6-0.17685 0.07994-0.05154 0.46886-0.99864 0.87925
   1   5   1 1683.06 161.645   6-0.34304 0.44003 0.50726-0.09101-0.84045 0.95947
  -1  -5  -1 1652.70 174.113   9 0.01807-0.11477-0.45581 0.03931 0.87776-0.99667
   1  -5   1 1654.06 130.526   8 0.06322 0.03344 0.02915-0.44544 0.99199-0.87300
   1  -5   1 1735.22 178.899   4-0.01055 0.10699-0.45478 0.03830-0.87709 0.99613
  -1   5  -1 1675.83 115.035   7-0.00970-0.08726-0.01635 0.43367-0.98427 0.86513
   2   5   1 1434.87 161.136   1 0.20522-0.03085-0.06910 0.48623 0.99739-0.86381
  -2   5  -1 1585.25 180.801   6-0.17443 0.00002-0.05819 0.47552-0.99825 0.86449
   2   5   1 1359.79 144.458   6-0.35921 0.53360 0.58685-0.17067-0.77964 0.91293
   2  -5   1 1754.59 165.920   9 0.23903-0.06488 0.08121-0.49780 0.99516-0.86194
  -2  -5  -1 1338.68 164.343   9 0.00756-0.18163-0.47717 0.06068 0.86488-0.99815
   2  -5   1 1594.74 145.889   8 0.08027 0.09373 0.02262-0.43889 0.99411-0.86078
   2  -5   1 1439.53 174.265   4-0.00096 0.17488-0.47520 0.05882-0.86483 0.99822
  -2  -5  -1 1645.63 87.2282   7 0.03030-0.20462-0.02364-0.39295-0.97630 0.84295
  -2   5  -1 1643.67 136.254   7-0.04905-0.12537-0.00916 0.42649-0.99052 0.85700
  -3   5  -1 709.915 105.022   7-0.08857-0.16332-0.00191 0.41923-0.99521 0.84732
   3  -5   1 511.937 111.193   4 0.01233 0.23907-0.50298 0.08669-0.84697 0.99469
  -3  -5  -1 705.152 124.899   9-0.00666-0.24477-0.50555 0.08907 0.84651-0.99412
   3  -5   1 690.358 105.808   9 0.24103 0.01049 0.08703-0.50362 0.99455-0.84697
  -3   5  -1 436.202 110.981   6-0.17658-0.07531-0.05228 0.46962-0.99860 0.85046
   3   5   1 529.665 103.285   1 0.20498 0.04684-0.06753 0.48467 0.99750-0.84955
   3   5   1 629.392 51.5546   8-0.01310 0.26466 0.05817 0.35849 0.97847-0.83056
   3  -5   1 767.007 115.243   8 0.10572 0.14564 0.01283-0.42909 0.99667-0.84900
  -3  -5  -1 651.988 72.5031   7-0.07835-0.17341-0.00379-0.41277-0.99415 0.84645
  -4   5  -1 41.8020 46.6305   7-0.12817-0.20118 0.00538 0.41193-0.99830 0.83603
  -4  -5  -1 -9.8802 24.0074   7-0.14660-0.18258 0.00879-0.42535-0.99918 0.83712
   4  -5   1 -7.4337 49.1012   4 0.02873 0.30015-0.53648 0.12029-0.82351 0.98554
   4   5   1 16.1415 24.7243   1 0.20223 0.12702-0.04989 0.46701 0.99860-0.83628
  -4   5  -1 35.1900 42.3647   6-0.18256-0.14680-0.03576 0.45307-0.99936 0.83686
  -4  -5  -1 33.0910 36.5924   4-0.21549-0.11419 0.05955-0.47692-0.99774 0.83514
  -4  -5  -1 0.11735 35.9305   9-0.02401-0.30479-0.53931 0.12285 0.82265-0.98460
   4  -5   1 39.5975 33.7513   9 0.23695 0.09194 0.07517-0.49175 0.99576-0.83384
   4  -5   1 5.50095 30.3715   8 0.13561 0.19311 0.00129-0.41754 0.99872-0.83671
   5  -5   1 208.012 88.4046   4 0.04780 0.35855-0.57433 0.15824-0.79423 0.97056
  -5   5  -1 192.287 79.1124   7-0.16780-0.23901 0.01272 0.40458-0.99976 0.82310
  -5  -5  -1 189.847 65.1802   7-0.20172-0.20486 0.01902-0.43559-0.99968 0.82327
  -5   5  -1 100.026 60.5362   6-0.19175-0.21507-0.01001 0.42730-0.99993 0.82307
  -5  -5  -1 141.448 68.2122   9-0.04403-0.36215-0.57710 0.16065 0.79311-0.96940
   5  -5   1 166.954 73.8533   8 0.16812 0.23795-0.01133-0.40491 0.99978-0.82344
   5   5   1 126.346 55.4915   1 0.19647 0.21020-0.01407 0.43118 0.99984-0.82317
  -6   5  -1 611.232 121.796   7-0.20746-0.27680 0.02009 0.39720-0.99954 0.80851
  -6  -5  -1 669.745 112.032   7-0.25111-0.23289 0.02824-0.44481-0.99733 0.80656
  -6   5  -1 564.910 128.254   6-0.20365-0.28061 0.02392 0.39333-0.99954 0.80832
  -6  -5  -1 -135.21 65.2377   9-0.06633-0.41721-0.61776 0.20133 0.75760-0.94822
   6  -5   1 639.471 147.390   8 0.20233 0.28110-0.02467-0.39155 0.99955-0.80886
  -7   5  -1 996.549 208.012   7-0.24715-0.31455 0.02750 0.38978-0.99762 0.79220
   7  -5   1 856.721 178.115   8 0.23770 0.32309-0.03856-0.37766 0.99782-0.79280
  -7   5  -1 871.897 187.399   6-0.21782-0.34387 0.06531 0.35190-0.99730 0.79173
   7   5   1 779.546 161.830   2 0.24715 0.31361 0.02658 0.38959 0.99765-0.79271
   8   5   1 -40.872 82.2637   2 0.27168 0.36645 0.05644 0.35972 0.99446-0.77518
 -10   6   1 148.845 79.1666   7-0.59589-0.15873 0.09424 0.40603-0.89421 0.85495
  -9   6   1 162.892 119.530   7-0.58502-0.09211 0.09211 0.40815-0.90030 0.87545
  -9  -6   1 73.5476 74.1639   9-0.01542-0.66156-0.52270 0.02295 0.83467-0.85925
   9   6  -1 20.0762 54.4153   5 0.51339 0.16368 0.19592 0.30382 0.91624-0.89188
   9  -6  -1 78.0714 70.9401   8 0.53846 0.13855-0.16037-0.33939 0.91277-0.88857
   9   6  -1 51.3589 96.7861   2 0.44821 0.22881 0.28625 0.21340 0.91533-0.89084
  -9  -6   1 -26.789 87.2994   3-0.47976-0.19789-0.24277-0.25740-0.91752 0.89267
   8  -6  -1 251.548 106.623   4-0.01221 0.61261-0.45122-0.04844-0.87915 0.88884
  -8   6   1 148.135 97.4298   7-0.57969-0.01996 0.09106 0.40918-0.90320 0.89274
  -8   6   1 345.060 107.375   6-0.32049-0.27948 0.41152 0.08834-0.89780 0.88765
  -8  -6   1 217.050 107.139   9 0.01710-0.61671-0.45781-0.04196 0.87659-0.88683
   8   6  -1 196.233 91.3103   5 0.50363 0.09605 0.18978 0.30997 0.92163-0.91162
   8  -6  -1 244.839 97.7126   8 0.52970 0.06996-0.15670-0.34308 0.91736-0.90750
  -8  -6   1 363.002 120.328   3-0.46919-0.13093-0.23265-0.26751-0.92417 0.91373
   8   6  -1 253.784 110.862   2 0.43764 0.16202 0.27158 0.22809 0.92348-0.91333
  -7   6   1 121.640 78.6147   7-0.58178 0.05961 0.09147 0.40875-0.90207 0.90599
   7  -6  -1 -38.604 70.9590   4-0.04142 0.56435-0.38706-0.11275-0.91286 0.90828
  -7   6   1 108.020 61.4192   6-0.31362-0.20893 0.38456 0.11531-0.91127 0.91551
  -7  -6   1 102.303 68.4155   9 0.04750-0.56975-0.39419-0.10561 0.91065-0.90656
   7   6  -1 -60.240 43.5883   5 0.49876 0.02353 0.18673 0.31303 0.92423-0.92858
   7  -6  -1 38.2588 85.2144   8 0.52669-0.00438-0.15544-0.34436 0.91891-0.92338
  -7  -6   1 6.40483 39.5309   3-0.46261-0.06000-0.22638-0.27378-0.92813 0.93210
   7   6  -1 24.3878 58.8352   2 0.43033 0.09196 0.26152 0.23818 0.92881-0.93299
  -6   6   1 167.557 67.5579   7-0.59403 0.14934 0.09388 0.40632-0.89527 0.91354
   6  -6  -1 159.231 84.2706   4-0.06842 0.51386-0.32528-0.17470-0.93950 0.92063
  -6   6   1 251.850 89.6300   6-0.30848-0.13665 0.36492 0.13496-0.92039 0.93902
  -6  -6   1 98.7982 76.4872   9 0.07571-0.52059-0.33255-0.16727 0.93774-0.91931
   6   6  -1 109.547 57.7754   5 0.50017-0.05527 0.18761 0.31215 0.92348-0.94219
   6  -6  -1 129.223 86.4508   8 0.53128-0.08632-0.15736-0.34248 0.91655-0.93536
  -6  -6   1 106.103 69.8018   3-0.46096 0.01589-0.22482-0.27531-0.92910 0.94746
   6   6  -1 46.9478 57.3835   2 0.42695 0.01798 0.25688 0.24285 0.93119-0.94971
  -5   6   1 1652.69 187.115   7-0.62057 0.25336 0.09911 0.40105-0.87947 0.91208
  -5  -6   1 1579.43 196.668   3-0.46554 0.09798-0.22916-0.27093-0.92638 0.95913
   5   6  -1 1436.98 186.506   2 0.42835-0.06079 0.25881 0.24097 0.93021-0.96307
  -5   6   1 1782.56 212.576   6-0.30537-0.06231 0.35326 0.14663-0.92555 0.95855
   5   6  -1 1626.19 191.029   5 0.50976-0.14226 0.19364 0.30612 0.91827-0.95133
  -5  -6   1 1692.18 207.294   9 0.10163-0.46913-0.27365-0.22618 0.95867-0.92590
   5  -6  -1 1439.05 178.755   8 0.54612-0.17851-0.16357-0.33629 0.90861-0.94178
   5  -6  -1 1447.08 192.847   4-0.09309 0.46104-0.26663-0.23351-0.95994 0.92675
  -4   6   1 406.742 85.9954   7-0.66764 0.37790 0.10846 0.39165-0.84760 0.89450
   4  -6  -1 234.296 68.5541   4-0.11534 0.40576-0.21193-0.28835-0.97503 0.92750
  -4  -6   1 257.751 82.2123   9 0.12512-0.41523-0.21834-0.28152 0.97421-0.92709
  -4   6   1 246.300 82.1431   1 0.14945-0.43977 0.23384 0.26611 0.97179-0.92445
   4   6  -1 232.333 68.7259   6-0.30052 0.59108 0.33533 0.16481-0.93310 0.88555
  -4   6   1 247.172 81.5222   6-0.30460 0.01435 0.35036 0.14952-0.92680 0.97417
   4  -6  -1 308.317 85.4634   9-0.01920 0.30932-0.53003 0.03020 0.82943-0.87660
   4   6  -1 280.242 73.7097   5 0.53017-0.24008 0.20653 0.29323 0.90644-0.95385
   4  -6  -1 262.839 79.2976   8 0.57507-0.28481-0.17576-0.32415 0.89179-0.93932
  -4  -6   1 294.665 83.2086   3-0.47794 0.18790-0.24101-0.25903-0.91870 0.96581
   4   6  -1 225.502 66.6553   2 0.43554-0.14535 0.26868 0.23114 0.92504-0.97225
  -3  -6   1 569.484 109.870   4 0.00519-0.21866-0.48811-0.01199-0.85670 0.91823
  -3   6   1 457.204 89.2764   7-0.74411 0.53181 0.12389 0.37614-0.78310 0.84426
   3  -6  -1 355.644 96.0120   4-0.13498 0.34787-0.16207-0.33832-0.98559 0.92370
   3   6  -1 338.019 76.7514   6-0.26976 0.48287 0.22805 0.27228-0.96932 0.90743
  -3   6   1 349.560 93.9884   6-0.30640 0.09362 0.35712 0.14274-0.92387 0.98560
  -3   6   1 366.529 105.250   1 0.16176-0.37466 0.17492 0.32516 0.98437-0.92268
  -3  -6   1 377.623 99.6857   9 0.14601-0.35874-0.16748-0.33239 0.98515-0.92369
   3  -6  -1 472.871 90.4576   9 0.00427 0.20850-0.48379-0.01604 0.86073-0.92225
  -3  -6   1 449.227 97.3759   3-0.50023 0.28771-0.26255-0.23741-0.90362 0.96507
   3   6  -1 452.377 90.0718   5 0.56497-0.35230 0.22877 0.27098 0.88382-0.94558
   3   6  -1 302.031 80.6315   2 0.44970-0.23689 0.28833 0.21154 0.91413-0.97569
   3  -6  -1 473.811 98.1910   8 0.62366-0.41077-0.19646-0.30351 0.85915-0.92104
  -2  -6   1 916.845 131.117   3-0.53490 0.39986-0.29666-0.20322-0.87663 0.95241
   2   6  -1 972.282 134.465   2 0.47213-0.33672 0.32001 0.17993 0.89474-0.97066
   2   6  -1 879.595 123.168   6-0.24497 0.38059 0.14800 0.35247-0.98697 0.91073
  -2   6   1 955.769 97.8216   2 0.38211-0.51769 0.19670 0.30325 0.95817-0.88214
   2  -6  -1 1057.03 87.3156   3-0.46549 0.60110-0.22912-0.27112-0.92641 0.85022
  -2   6   1 933.940 147.161   6-0.31100 0.17568 0.37451 0.12531-0.91601 0.99209
  -2  -6   1 866.323 140.790   9 0.16412-0.29947-0.12206-0.37782 0.99230-0.91649
  -2  -6   1 945.302 137.512   4-0.00823-0.12782-0.45977-0.04029-0.87416 0.95007
   2  -6  -1 1216.41 154.619   8 0.69910-0.56358-0.22929-0.27072 0.79517-0.87146
  -2   6   1 1052.41 154.003   1 0.17174-0.30719 0.12444 0.37576 0.99216-0.91610
   2  -6  -1 890.387 127.651   9 0.01758 0.11783-0.45683-0.04300 0.87716-0.95303
   2  -6  -1 922.581 143.287   4-0.15186 0.28721-0.11804-0.38246-0.99248 0.91620
   1   6  -1 4739.91 284.227   2 0.50401-0.44599 0.36639 0.13362 0.86208-0.95237
   1   6  -1 4778.21 294.174   6-0.22628 0.28441 0.09057 0.41000-0.99498 0.90436
  -1   6   1 5136.40 326.529   6-0.31849 0.26063 0.40355 0.09621-0.90189 0.99232
  -1   6   1 5021.38 248.280   2 0.31145-0.36964 0.10579 0.39406 0.98575-0.89541
  -1  -6   1 5128.11 289.158   3-0.58440 0.52681-0.34694-0.15285-0.82926 0.91933
   1  -6  -1 4943.19 302.492   9 0.02328 0.03477-0.44511-0.05472 0.88391-0.97413
  -1  -6   1 4896.95 318.572   9 0.17922-0.23720-0.08316-0.41673 0.99651-0.90635
  -1   6   1 4130.70 301.133   1 0.17950-0.23750 0.08322 0.41708 0.99652-0.90608
  -1  -6   1 4976.59 315.579   4-0.01434-0.04424-0.44663-0.05337-0.88178 0.97207
   1  -6  -1 5033.45 326.725   4-0.16574 0.22356-0.08090-0.41968-0.99654 0.90588
   1  -6  -1 5393.50 224.678   3-0.33701 0.39511-0.11074-0.38972-0.98126 0.89069
   0  -6   1 100.636 56.0463   4-0.01470 0.03359-0.44587-0.05406-0.88222 0.98688
   0   6   1 181.641 66.9853   6-0.32876 0.34835 0.44514 0.05456-0.87942 0.98416
   0   6  -1 175.728 66.8514   6-0.21327 0.19390 0.05190 0.44874-0.99824 0.89324
   0  -6  -1 178.802 68.7709   4-0.17638 0.15666-0.05188-0.44876-0.99862 0.89356
   0   6   1 176.862 89.6035   1 0.18514-0.16568 0.05204 0.44833 0.99865-0.89383
   0   6  -1 362.475 83.8962   2 0.54573-0.56514 0.43012 0.06995 0.80793-0.91258
   0  -6  -1 200.133 65.8997   9 0.02302-0.04233-0.44565-0.05417 0.88361-0.98818
   0  -6   1 233.194 42.2181   8 0.27269-0.25332-0.05237-0.44731 0.99458-0.88990
   0  -6   1 282.633 76.8908   9 0.19105-0.17165-0.05200-0.44790 0.99862-0.89411
  -1  -6  -1 5093.20 317.549   4-0.18342 0.08618-0.03237-0.46832-0.99948 0.88003
   1   6   1 4867.93 328.694   1 0.18872-0.09179 0.03167 0.46873 0.99950-0.88029
  -1   6  -1 5620.21 354.940   6-0.20537 0.10850 0.02889 0.47179-0.99937 0.87999
   1  -6   1 5151.70 319.985   9 0.19928-0.10250-0.02998-0.46992 0.99945-0.88058
   1   6   1 4607.93 302.916   6-0.34140 0.43844 0.49984-0.00023-0.84546 0.96449
  -1  -6  -1 5542.59 339.867   9 0.01792-0.11460-0.45614-0.04367 0.87757-0.99649
   1  -6   1 5743.30 249.910   8 0.21030-0.11359-0.02779-0.47183 0.99929-0.88028
   1  -6   1 5312.12 346.400   4-0.01033 0.10671-0.45525-0.04461-0.87681 0.99584
  -1   6  -1 6052.75 207.557   7-0.23409 0.13732 0.02506 0.47560-0.99845 0.87932
  -2   6  -1 76.7207 35.0638   7-0.20286 0.02859 0.01923 0.48147-0.99966 0.86614
   2  -6   1 55.0915 34.8342   4-0.00201 0.17587-0.47296-0.02681-0.86621 0.99959
  -2   6  -1 81.9599 69.3956   6-0.20197 0.02760 0.01909 0.48161-0.99967 0.86592
  -2  -6  -1 122.274 53.1429   4-0.18640 0.01164-0.02406-0.47666-0.99971 0.86587
   2   6   1 40.2307 25.9260   6-0.35555 0.52999 0.56758-0.06805-0.79561 0.92891
  -2  -6  -1 63.5455 54.5325   9 0.00879-0.18284-0.47469-0.02510 0.86642-0.99968
   2  -6   1 102.683 47.6861   8 0.19360-0.01955-0.02126-0.47832 0.99974-0.86640
   2  -6   1 87.6398 43.6980   9 0.20341-0.02926-0.01878-0.48112 0.99965-0.86644
   2   6   1 83.1086 62.2146   1 0.19023-0.01585 0.02295 0.47748 0.99973-0.86615
  -3   6  -1 67.3938 26.1029   7-0.20529-0.04647 0.01969 0.48103-0.99960 0.85170
   3  -6   1 65.8174 36.0177   4 0.00967 0.24167-0.49748-0.00220-0.85062 0.99834
  -3   6  -1 34.5195 63.5116   6-0.20249-0.04937 0.02059 0.48011-0.99964 0.85150
  -3  -6  -1 -19.318 30.7369   4-0.18459-0.06766-0.02913-0.47160-0.99958 0.85136
   3  -6   1 33.8412 43.5936   9 0.20276 0.04875-0.02054-0.47935 0.99963-0.85207
  -3  -6  -1 -43.572 61.9002   9-0.00376-0.24768-0.49980 0.00001 0.85035-0.99797
   3   6   1 47.3952 51.7403   1 0.18956 0.06227 0.02681 0.47363 0.99963-0.85168
   3  -6   1 72.9180 42.7906   8 0.19708 0.05431-0.02262-0.47694 0.99967-0.85200
   4   6   1 1906.14 196.811   1 0.18649 0.14278 0.04447 0.45596 0.99901-0.83670
  -4  -6  -1 1981.44 192.693   4-0.17686-0.15287-0.05057-0.45016-0.99869 0.83609
  -4   6  -1 2298.99 258.251   6-0.20640-0.12294 0.03187 0.46882-0.99926 0.83676
   4  -6   1 2054.31 197.225   9 0.19621 0.13267-0.03822-0.46167 0.99920-0.83729
   4  -6   1 1887.70 213.256   8 0.21143 0.11732-0.02824-0.47130 0.99925-0.83725
  -4  -6  -1 1654.68 222.798   9-0.01925-0.30955-0.53013 0.03036 0.82936-0.99132
   4  -6   1 2022.31 247.317   4 0.02430 0.30454-0.52750 0.02791-0.83002 0.99206
  -4   6  -1 2230.73 209.198   7-0.22179-0.10744 0.02276 0.47797-0.99905 0.83677
  -5   6  -1 2728.18 294.296   6-0.21323-0.19358 0.05180 0.44888-0.99824 0.82137
   5  -6   1 2245.54 251.355   8 0.23233 0.17377-0.03644-0.46308 0.99818-0.82185
   5  -6   1 2338.13 273.148   4 0.04147 0.36486-0.56190 0.06243-0.80419 0.98053
  -5   6  -1 2746.97 255.347   7-0.24560-0.16111 0.02721 0.47352-0.99773 0.82106
  -6   6  -1 118.171 97.3719   7-0.27372-0.21045 0.03248 0.46825-0.99535 0.80429
  -6   6  -1 22.8552 71.8925   6-0.22258-0.26167 0.07948 0.42115-0.99609 0.80486
  -6  -6  -1 -63.182 73.5754   9-0.05767-0.42587-0.60215 0.10241 0.77172-0.96236
   6   6   1 98.7975 73.7009   2 0.26100 0.22239 0.04338 0.45611 0.99605-0.80543
   6  -6   1 60.0006 52.0610   8 0.25753 0.22592-0.04637-0.45314 0.99617-0.80551
  -7   6  -1 185.493 85.4226   7-0.30461-0.25702 0.03828 0.46243-0.99169 0.78623
  -7  -6  -1 306.159 138.949   3-0.28222-0.27993-0.06235-0.43851-0.99306 0.78722
  -7   6  -1 222.986 114.818   6-0.23409-0.32761 0.11429 0.38631-0.99213 0.78654
   7   6   1 45.9326 53.5563   2 0.27878 0.28198 0.06516 0.43431 0.99323-0.78829
   7  -6   1 274.774 120.607   8 0.28569 0.27513-0.05753-0.44198 0.99298-0.78799
  -8  -6  -1 -29.507 77.1057   3-0.30593-0.33374-0.08315-0.41769-0.98871 0.76846
   8   6   1 21.8737 55.8957   2 0.29920 0.33892 0.09046 0.40900 0.98892-0.76964
   9  -7  -1 137.366 100.964   4 0.02030 0.65753-0.51936-0.06355-0.83577 0.85968
  -9   7   1 141.912 100.253   7-0.62787-0.04919 0.10056 0.48315-0.87486 0.84991
  -9   7   1 137.801 93.4559   6-0.33115-0.34627 0.45516 0.12802-0.87358 0.84901
  -9  -7   1 232.529 139.998   9-0.01634-0.66064-0.52449-0.05858 0.83340-0.85798
   9  -7  -1 220.602 112.249   8 0.57021 0.10682-0.17370-0.40934 0.89475-0.87061
   8  -7  -1 124.109 66.0764   4-0.00790 0.60826-0.46046-0.12262-0.87375 0.88342
  -8   7   1 165.363 59.6173   7-0.62687 0.02729 0.10036 0.48332-0.87550 0.86494
  -8   7   1 229.723 117.679   6-0.32389-0.27612 0.42516 0.15806-0.89056 0.88038
  -8  -7   1 133.823 122.484   9 0.01296-0.61257-0.46626-0.11683 0.87156-0.88181
   8   7  -1 148.567 78.7865   5 0.53159 0.06810 0.20743 0.37563 0.90558-0.89555
   8  -7  -1 86.7424 72.8834   8 0.56452 0.03516-0.17130-0.41176 0.89814-0.88833
   8   7  -1 192.462 107.455   2 0.45251 0.14713 0.29226 0.29071 0.91185-0.90170
  -8  -7   1 -65.403 67.7073   3-0.48982-0.11027-0.25245-0.33112-0.91087 0.90037
   7  -7  -1 182.776 107.295   4-0.03399 0.55688-0.40365-0.17959-0.90476 0.90016
  -7   7   1 243.027 94.4197   7-0.63391 0.11182 0.10176 0.48190-0.87096 0.87476
  -7   7   1 366.931 143.265   6-0.31795-0.20464 0.40144 0.18179-0.90296 0.90718
  -7  -7   1 59.0268 53.1187   9 0.04017-0.56240-0.40979-0.17332 0.90289-0.89880
   7   7  -1 140.721 84.6785   5 0.52926-0.00697 0.20595 0.37712 0.90699-0.91132
   7  -7  -1 40.4379 56.3229   8 0.56484-0.04251-0.17144-0.41165 0.89795-0.90247
  -7  -7   1 190.112 89.1832   3-0.48512-0.03745-0.24791-0.33564-0.91403 0.91793
   7   7  -1 312.832 105.499   2 0.44668 0.07560 0.28412 0.29888 0.91654-0.92073
   6  -7  -1 234.994 84.7542   4-0.05793 0.50332-0.34957-0.23383-0.92967 0.91077
  -6   7   1 322.589 100.179   6-0.31359-0.13156 0.38443 0.19882-0.91133 0.92993
  -6  -7   1 169.189 117.374   9 0.06522-0.51009-0.35575-0.22739 0.92819-0.90976
   6   7  -1 359.560 104.110   5 0.53320-0.08830 0.20845 0.37463 0.90460-0.92329
   6  -7  -1 482.036 118.510   8 0.57297-0.12798-0.17486-0.40826 0.89308-0.91194
  -6  -7   1 472.584 120.067   3-0.48520 0.04018-0.24800-0.33552-0.91396 0.93226
   6   7  -1 341.997 115.945   2 0.44458 0.00034 0.28119 0.30185 0.91819-0.93672
   5  -7  -1 43.1306 60.9433   4-0.07964 0.44751-0.29888-0.28466-0.94926 0.91604
  -5  -7   1 165.499 96.4218   9 0.08805-0.45554-0.30479-0.27837 0.94819-0.91542
  -5   7   1 298.428 108.300   6-0.31103-0.05666 0.37465 0.20861-0.91595 0.94892
   5   7  -1 166.626 79.2947   5 0.54512-0.17763 0.21604 0.36704 0.89712-0.93016
   5  -7  -1 93.3075 41.7991   8 0.59140-0.22377-0.18268-0.40049 0.88147-0.91468
  -5  -7   1 5.49693 48.6126   3-0.49119 0.12369-0.25378-0.32970-0.90994 0.94262
   5   7  -1 127.510 76.3226   2 0.44690-0.07935 0.28442 0.29867 0.91637-0.94924
  -4  -7   1 935.083 150.641   4 0.02873-0.31970-0.53648-0.04703-0.82351 0.87062
   4  -7  -1 722.487 134.356   9-0.02019 0.31032-0.53195-0.05118 0.82805-0.87522
   4  -7  -1 645.899 134.148   4-0.09899 0.38935-0.25228-0.33139-0.96426 0.91669
   4   7  -1 848.034 132.306   6-0.31063 0.60123 0.37311 0.21038-0.91666 0.86905
  -4   7   1 1045.12 175.069   6-0.31052 0.02029 0.37271 0.21055-0.91684 0.96419
  -4  -7   1 571.725 134.568   9 0.10853-0.39864-0.25761-0.32557 0.96358-0.91647
   4   7  -1 867.842 143.861   5 0.56731-0.27724 0.23028 0.35281 0.88218-0.92957
   4   7  -1 674.583 133.998   2 0.45445-0.16428 0.29498 0.28816 0.91025-0.95746
  -4  -7   1 690.356 134.970   3-0.50441 0.21442-0.26661-0.31681-0.90061 0.94765
   4  -7  -1 800.205 145.397   8 0.62361-0.33333-0.19643-0.38679 0.85918-0.90676
  -3  -7   1 289.421 95.1107   4 0.00915-0.22271-0.49639-0.08706-0.85133 0.91282
   3  -7  -1 217.574 85.1098   4-0.11589 0.32870-0.21054-0.37325-0.97536 0.91343
  -3   7   1 52.5534 44.5978   1 0.15135-0.36422 0.22498 0.35842 0.97393-0.91220
   3   7  -1 168.248 69.9864   6-0.28562 0.49877 0.28209 0.30158-0.95295 0.89102
   3  -7  -1 252.860 77.3194   9-0.00023 0.21301-0.49279-0.09034 0.85496-0.91648
  -3   7   1 278.076 89.6384   6-0.31225 0.09947 0.37929 0.20394-0.91377 0.97549
  -3  -7   1 178.131 69.9554   9 0.12652-0.33925-0.21497-0.36821 0.97503-0.91358
   3   7  -1 252.800 76.2857   5 0.60269-0.39004 0.25329 0.32979 0.85539-0.91712
   3   7  -1 170.155 70.5421   2 0.46816-0.25536 0.31434 0.26885 0.89838-0.95994
  -3  -7   1 92.4051 32.6021   3-0.52650 0.31403-0.28832-0.29502-0.88360 0.94498
   3  -7  -1 194.141 75.0558   8 0.67420-0.46128-0.21834-0.36494 0.81834-0.88029
   2   7  -1 1449.86 182.169   2 0.48896-0.35355 0.34427 0.23899 0.87831-0.95424
   2   7  -1 1738.71 196.514   6-0.26490 0.40055 0.21195 0.37187-0.97349 0.89722
  -2   7   1 1848.24 221.760   6-0.31634 0.18104 0.39514 0.18805-0.90611 0.98218
  -2  -7   1 1765.07 217.137   9 0.14186-0.27721-0.17770-0.40548 0.98320-0.90740
   2  -7  -1 1851.41 208.482   9 0.01150 0.12392-0.46921-0.11392 0.86978-0.94565
  -2  -7   1 1742.77 190.461   3-0.55931 0.42433-0.32120-0.26205-0.85471 0.93041
   2   7  -1 2372.45 216.390   5 0.65465-0.51943 0.28791 0.29516 0.80828-0.88433
  -2   7   1 1842.58 220.764   1 0.16021-0.29563 0.18258 0.40093 0.98295-0.90685
  -2  -7   1 1963.27 224.184   4-0.00263-0.13349-0.47167-0.11174-0.86700 0.94287
   2  -7  -1 1623.34 206.497   4-0.13015 0.26543-0.17447-0.40941-0.98324 0.90694
  -1  -7   1 89.8322 63.3277   4-0.00828-0.05038-0.45965-0.12371-0.87423 0.96448
  -1   7   1 230.825 66.4308   2 0.36902-0.42721 0.17951 0.40369 0.96456-0.87420
   1  -7  -1 147.483 50.1419   4-0.14158 0.19932-0.14498-0.43897-0.98853 0.89784
   1   7  -1 81.9301 56.2990   6-0.24873 0.30689 0.15981 0.42411-0.98484 0.89421
  -1   7   1 131.773 59.6958   6-0.32286 0.26503 0.42102 0.16212-0.89279 0.98319
  -1  -7   1 107.054 58.4582   9 0.15435-0.21231-0.14674-0.43647 0.98872-0.89856
   1   7  -1 168.675 73.7151   2 0.51762-0.45961 0.38675 0.19657 0.84602-0.93630
   1  -7  -1 290.362 87.6754   9 0.01683 0.04123-0.45836-0.12477 0.87626-0.96649
  -1  -7   1 157.498 61.9426   3-0.60445 0.54692-0.36795-0.21519-0.80647 0.89645
  -1   7   1 237.983 81.9033   1 0.16707-0.22504 0.14839 0.43520 0.98880-0.89833
   0   7   1 115.555 58.8013   1 0.17200-0.15251 0.12307 0.46058 0.99233-0.88749
   0  -7  -1 92.8041 28.4044   3-0.35393 0.33460-0.12593-0.45800-0.97633 0.87131
   0  -7   1 161.800 113.642   4-0.00893 0.02775-0.45825-0.12505-0.87506 0.97968
   0  -7   1 63.6170 58.6897   9 0.16371-0.14431-0.12309-0.46012 0.99217-0.88766
   0  -7  -1 93.0406 57.4473   4-0.14993 0.13014-0.12311-0.46090-0.99180 0.88672
   0   7  -1 60.7761 44.8628   6-0.23699 0.21765 0.12319 0.46080-0.99089 0.88588
   0   7   1 218.431 58.5213   2 0.32662-0.30742 0.12494 0.45817 0.98120-0.87652
   0   7  -1 128.942 66.8880   2 0.55429-0.57370 0.44371 0.13968 0.79482-0.89947
   0   7   1 69.2404 57.1093   6-0.33172 0.35135 0.45757 0.12549-0.87216 0.97688
   0  -7  -1 48.2272 53.1684   9 0.01698-0.03629-0.45805-0.12507 0.87644-0.98102
   1  -7   1 1215.59 185.319   4-0.00540 0.10169-0.46580-0.11744-0.87057 0.98957
   1   7   1 945.662 150.304   1 0.17502-0.07806 0.10726 0.47644 0.99419-0.87497
   1   7   1 1116.13 152.647   2 0.29999-0.20341 0.09144 0.49160 0.98873-0.86973
  -1   7  -1 1247.57 181.556   6-0.22938 0.13254 0.09994 0.48409-0.99393 0.87454
   1  -7   1 1173.45 173.522   9 0.16964-0.07285-0.10796-0.47525 0.99403-0.87517
  -1  -7  -1 1231.76 152.495   3-0.31382 0.21696-0.09013-0.49392-0.98701 0.86759
   1   7   1 1198.05 173.544   6-0.34260 0.43968 0.50526 0.07771-0.84181 0.96082
  -1  -7  -1 1057.96 165.143   9 0.01282-0.10949-0.46654-0.11658 0.87139-0.99032
  -1  -7  -1 1160.04 178.517   4-0.15487 0.05756-0.11003-0.47402-0.99349 0.87402
  -2   7  -1 3549.88 321.478   6-0.22553 0.05118 0.08831 0.49576-0.99521 0.86145
   2   7   1 3688.72 291.996   6-0.35487 0.52937 0.56413 0.01876-0.79838 0.93166
   2   7   1 4121.42 313.956   2 0.28509-0.11114 0.07294 0.51004 0.99202-0.85870
   2  -7   1 3255.11 276.448   9 0.17165 0.00251-0.10279-0.48041 0.99461-0.86140
  -2  -7  -1 3392.03 303.320   9 0.00498-0.17903-0.48237-0.10074 0.86163-0.99491
  -2  -7  -1 3305.57 269.731   3-0.29255 0.11814-0.07138-0.51275-0.99131 0.85748
   2  -7   1 3980.04 251.773   8 0.30904-0.13493-0.06681-0.51610 0.98956-0.85623
   2   7   1 3564.20 306.035   1 0.17607-0.00166 0.10166 0.48206 0.99479-0.86119
   2  -7   1 3396.91 313.641   4 0.00173 0.17206-0.48087-0.10229-0.86130 0.99466
  -2  -7  -1 3443.07 283.234   4-0.15594-0.01888-0.10719-0.47687-0.99383 0.85997
   3  -7   1 448.132 126.275   4 0.01198 0.23931-0.50226-0.08081-0.84745 0.99517
  -3  -7  -1 480.057 114.325   3-0.28409 0.03214-0.06397-0.52022-0.99276 0.84452
   3   7   1 299.977 81.5792   1 0.17505 0.07680 0.10708 0.47664 0.99421-0.84624
   3  -7   1 246.127 73.4594   8 0.29241-0.04096-0.06020-0.52268 0.99207-0.84441
  -3  -7  -1 414.859 102.694   4-0.15245-0.09985-0.11643-0.46764-0.99269 0.84445
  -3   7  -1 596.055 125.102   6-0.22504-0.02681 0.08683 0.49724-0.99537 0.84722
   3  -7   1 307.523 80.0483   9 0.16907 0.08246-0.10941-0.47378 0.99386-0.84631
  -3  -7  -1 475.451 122.250   9-0.00603-0.24539-0.50430-0.07879 0.84735-0.99497
   3   7   1 419.274 104.219   2 0.27907-0.02775 0.06551 0.51742 0.99318-0.84554
   4   7   1 685.126 129.907   1 0.17172 0.15757 0.12452 0.45917 0.99215-0.82981
   4  -7   1 514.257 131.687   4 0.02498 0.30380-0.52892-0.05407-0.82900 0.99104
  -4  -7  -1 624.511 140.844   3-0.28473-0.04477-0.06453-0.51971-0.99266 0.83001
  -4  -7  -1 606.435 118.398   4-0.14341-0.18636-0.14021-0.44385-0.98929 0.82668
  -4   7  -1 786.906 159.479   6-0.22753-0.10180 0.09434 0.48973-0.99457 0.83205
   4  -7   1 695.746 124.200   9 0.16086 0.16802-0.13032-0.45287 0.99118-0.82928
   4  -7   1 821.218 149.252   8 0.29207 0.03672-0.06006-0.52279 0.99212-0.83013
   4   7   1 781.800 152.788   2 0.27990 0.04878 0.06654 0.51634 0.99303-0.83106
  -4  -7  -1 721.207 158.107   9-0.01985-0.30895-0.53128-0.05180 0.82853-0.99050
   5  -7   1 213.479 110.352   4 0.04045 0.36584-0.55990-0.02298-0.80576 0.98211
  -5  -7  -1 92.5194 71.9348   3-0.29207-0.11497-0.07095-0.51330-0.99139 0.81434
  -5   7  -1 86.1368 95.1819   6-0.23265-0.17414 0.10990 0.47415-0.99271 0.81582
   5   7   1 85.4708 84.6352   2 0.28614 0.11990 0.07424 0.50860 0.99181-0.81552
  -5  -7  -1 -193.09 94.9744   9-0.03615-0.37003-0.56236-0.02071 0.80500-0.98131
   5  -7   1 146.932 82.7001   8 0.30174 0.10439-0.06391-0.51892 0.99070-0.81439
   5   7   1 180.047 83.6954   1 0.16569 0.24100 0.15533 0.42834 0.98772-0.81102
  -6  -7  -1 135.401 106.427   3-0.30447-0.18009-0.08187-0.50240-0.98901 0.79754
  -6   7  -1 -54.043 69.7122   6-0.24009-0.24417 0.13277 0.45125-0.98946 0.79821
   6   7   1 148.541 89.8510   2 0.29668 0.18673 0.08731 0.49549 0.98951-0.79890
  -6  -7  -1 48.8329 75.7235   9-0.05467-0.42887-0.59671 0.01365 0.77649-0.96714
   6  -7   1 90.0360 79.1677   8 0.31805 0.16544-0.07040-0.51240 0.98804-0.79740
  -7  -7  -1 31.0117 59.2055   3-0.32082-0.24127-0.09633-0.48793-0.98540 0.77951
   7   7   1 108.642 69.2851   2 0.31071 0.25006 0.10486 0.47791 0.98595-0.78101
  -8  -7  -1 89.0395 119.183   3-0.34028-0.29934-0.11367-0.47058-0.98036 0.76005
   8   7   1 64.2523 76.6880   2 0.32760 0.31053 0.12618 0.45657 0.98088-0.76161
   8  -8  -1 1145.54 243.631   4-0.00070 0.60103-0.47574-0.19077-0.86450 0.87413
  -8   8   1 961.196 224.094   6-0.32852-0.27152 0.44413 0.22245-0.87999 0.86978
  -8  -8   1 988.001 245.938   9 0.00577-0.60537-0.48079-0.18562 0.86262-0.87287
   8   8  -1 1211.21 234.129   5 0.56281 0.03687 0.22739 0.43900 0.88532-0.87527
   8  -8  -1 1234.56 246.656   8 0.60357-0.00388-0.18786-0.47850 0.87336-0.86361
   7  -8  -1 176.729 74.4838   4-0.02426 0.54709-0.42510-0.24156-0.89366 0.88902
  -7   8   1 124.078 100.123   6-0.32339-0.19922 0.42314 0.24347-0.89165 0.89583
  -7  -8   1 57.6484 88.8395   9 0.03037-0.55259-0.43039-0.23604 0.89206-0.88798
   7   8  -1 -59.562 84.3768   5 0.56296-0.04067 0.22747 0.43892 0.88522-0.88953
   7   8  -1 -90.298 77.5187   2 0.46481 0.05745 0.30960 0.35670 0.90137-0.90557
  -7  -8   1 37.3603 55.3183   3-0.50996-0.01255-0.27204-0.39492-0.89650 0.90032
   7  -8  -1 6.63075 62.2881   8 0.60724-0.08489-0.18942-0.47697 0.87084-0.87542
   6  -8  -1 477.893 125.474   4-0.04573 0.49105-0.37738-0.28943-0.91739 0.89845
  -6   8   1 559.253 160.986   6-0.31969-0.12547 0.40833 0.25830-0.89945 0.91801
  -6  -8   1 449.912 151.407   9 0.05287-0.49772-0.38265-0.28379 0.91614-0.89772
   6   8  -1 651.326 154.233   5 0.56930-0.12442 0.23157 0.43483 0.88077-0.89943
   6   8  -1 571.565 151.910   2 0.46385-0.01894 0.30823 0.35812 0.90222-0.92076
  -6  -8   1 584.258 157.201   3-0.51166 0.06667-0.27370-0.39322-0.89523 0.91344
   6  -8  -1 601.773 150.126   8 0.61887-0.17386-0.19440-0.47203 0.86263-0.88156
   5  -8  -1 1.37548 84.2594   4-0.06503 0.43284-0.33316-0.33379-0.93640 0.90313
  -5  -8   1 151.193 84.4329   9 0.07320-0.44068-0.33815-0.32832 0.93551-0.90274
   5   8  -1 60.2864 54.5700   5 0.58340-0.21593 0.24070 0.42571 0.87047-0.90348
   5   8  -1 35.8292 75.4110   2 0.46697-0.09944 0.31267 0.35373 0.89944-0.93232
  -5  -8   1 -46.227 45.1569   3-0.51892 0.15146-0.28083-0.38603-0.88965 0.92223
   5  -8  -1 168.516 102.313   8 0.64074-0.27309-0.20380-0.46267 0.84621-0.87948
   4  -8  -1 400.390 131.699   4-0.08210 0.37236-0.29304-0.37402-0.95129 0.90368
  -4   8   1 572.404 149.157   6-0.31734 0.02710 0.39903 0.26759-0.90417 0.95149
  -4  -8   1 278.078 102.394   9 0.09126-0.38136-0.29749-0.36899 0.95076-0.90365
   4   8  -1 542.170 125.236   5 0.60719-0.31714 0.25625 0.41016 0.85170-0.89905
   4   8  -1 350.796 120.367   2 0.47486-0.18470 0.32392 0.34253 0.89219-0.93941
  -4  -8   1 317.731 119.209   3-0.53286 0.24294-0.29463-0.37215-0.87835 0.92530
  -3  -8   1 255.155 86.6281   4 0.01747-0.23111-0.51356-0.15325-0.83980 0.90122
   3  -8  -1 151.332 75.8700   4-0.09679 0.30951-0.25768-0.40949-0.96266 0.90069
   3   8  -1 111.248 66.1265   6-0.29985 0.51303 0.33286 0.33415-0.93411 0.87213
  -3   8   1 153.213 77.4156   6-0.31900 0.10624 0.40557 0.26103-0.90086 0.96255
   3  -8  -1 173.050 98.2332   9-0.00921 0.22200-0.51056-0.15587 0.84311-0.90464
  -3  -8   1 79.9716 58.2205   9 0.10693-0.31965-0.26134-0.40516 0.96247-0.90101
   3   8  -1 101.996 83.7616   5 0.64300-0.43037 0.28006 0.38634 0.81975-0.88144
   3   8  -1 -114.58 93.2088   2 0.48820-0.27542 0.34317 0.32334 0.87909-0.94066
  -3  -8   1 -30.329 63.5951   3-0.55479 0.34238-0.31663-0.35008-0.85897 0.92026
  -2  -8   1 237.311 94.3122   4 0.00660-0.14281-0.49106-0.17571-0.85481 0.93062
   2  -8  -1 99.6958 67.6400   4-0.10896 0.24416-0.22779-0.43947-0.97104 0.89469
  -2   8   1 170.762 94.9135   1 0.14876-0.28415 0.23703 0.42977 0.97100-0.89486
   2   8  -1 161.820 56.5177   6-0.28220 0.41789 0.27019 0.39696-0.95687 0.88055
  -2   8   1 180.012 96.1852   6-0.32269 0.18740 0.42032 0.24625-0.89316 0.96920
  -2  -8   1 178.136 71.2661   9 0.12006-0.25540-0.23042-0.43608 0.97115-0.89534
   2  -8  -1 132.785 76.1978   9 0.00167 0.13376-0.48899-0.17744 0.85741-0.93328
   2   8  -1 100.573 52.2287   2 0.50766-0.37227 0.37182 0.29476 0.85790-0.93383
  -2  -8   1 129.045 68.8326   3-0.58603 0.45110-0.34863-0.31797-0.82749 0.90309
  -1   8   1 600.237 104.460   2 0.41842-0.47662 0.24528 0.42126 0.93697-0.84659
  -1  -8   1 762.194 150.777   4 0.00108-0.05982-0.47950-0.18723-0.86216 0.95236
   1  -8  -1 765.632 160.999   4-0.11844 0.17610-0.20414-0.46318-0.97687 0.88614
   1   8  -1 640.125 151.268   6-0.26806 0.32626 0.22240 0.44486-0.97082 0.88014
   1   8  -1 698.751 127.473   2 0.53374-0.47574 0.41138 0.25528 0.82506-0.91535
  -1   8   1 716.469 151.759   1 0.15489-0.21283 0.20823 0.45865 0.97773-0.88722
  -1   8   1 587.603 135.788   6-0.32844 0.27063 0.44382 0.22268-0.88017 0.97054
  -1  -8   1 685.079 148.799   9 0.13045-0.18841-0.20551-0.46099 0.97727-0.88712
  -1  -8   1 636.267 129.111   3-0.62756 0.57007-0.39273-0.27377-0.77703 0.86692
   1  -8  -1 565.018 134.809   9 0.00695 0.05111-0.47840-0.18803 0.86412-0.95435
   0  -8   1 282.027 96.4129   4 0.00003 0.01871-0.47727-0.18941-0.86355 0.96813
   0   8   1 292.834 83.7458   2 0.37757-0.35837 0.19071 0.47574 0.96046-0.85577
   0  -8  -1 396.727 123.967   4-0.12498 0.10511-0.18763-0.47973-0.98055 0.87543
   0   8  -1 283.880 95.3874   6-0.25747 0.23817 0.18775 0.47959-0.97916 0.87412
   0   8  -1 55.3212 52.4638   2 0.56634-0.58577 0.46327 0.20346 0.77491-0.87955
   0   8   1 25.6311 49.0495   6-0.33616 0.35582 0.47661 0.18983-0.86053 0.96521
   0   8   1 318.453 116.941   1 0.15923-0.13969 0.18738 0.47957 0.98203-0.87714
   0  -8  -1 220.131 86.3375   9 0.00761-0.02691-0.47708-0.18935 0.86494-0.96952
   0  -8   1 335.238 104.311   9 0.13786-0.11845-0.18751-0.47899 0.98122-0.87671
  -1  -8  -1 546.090 110.162   3-0.38290 0.28612-0.15218-0.51518-0.96640 0.84692
   1  -8   1 477.171 122.870   4 0.00277 0.09345-0.48305-0.18358-0.85993 0.97889
   1   8   1 524.857 116.720   2 0.35001-0.25342 0.15484 0.51153 0.97277-0.85376
  -1  -8  -1 418.770 114.217   4-0.12827 0.03088-0.17928-0.48811-0.98228 0.86278
  -1   8  -1 401.167 110.211   6-0.25027 0.15347 0.16473 0.50268-0.98391 0.86449
   1   8   1 266.225 83.5742   6-0.34559 0.44271 0.51902 0.14733-0.83228 0.95126
   1  -8   1 451.100 125.697   9 0.14195-0.04517-0.17746-0.48905 0.98325-0.86440
  -1  -8  -1 617.943 151.468   9 0.00433-0.10100-0.48367-0.18275 0.86080-0.97974
   1   8   1 564.778 143.507   1 0.16175-0.06476 0.17501 0.49197 0.98436-0.86510
   2  -8   1 65.1800 66.4141   4 0.00882 0.16490-0.49571-0.17085-0.85178 0.98511
  -2  -8  -1 156.161 79.6462   3-0.35645 0.18214-0.12820-0.53926-0.97555 0.84167
  -2  -8  -1 200.975 97.1584   4-0.12786-0.04704-0.18032-0.48708-0.98207 0.84818
   2   8   1 93.7469 64.3287   2 0.33286-0.15891 0.13287 0.53344 0.97912-0.84579
   2  -8   1 56.8237 47.8957   9 0.14231 0.03185-0.17660-0.48990 0.98342-0.85022
  -2   8  -1 251.174 114.404   6-0.24625 0.07193 0.15199 0.51544-0.98627 0.85248
   2   8   1 171.793 81.1504   6-0.35623 0.53078 0.57111 0.09515-0.79275 0.92600
  -2  -8  -1 40.6292 66.9256   9-0.00234-0.17170-0.49699-0.16943 0.85221-0.98549
   2   8   1 233.490 103.882   1 0.16241 0.01204 0.17175 0.49526 0.98494-0.85131
   3  -8   1 -106.95 99.7364   4 0.01780 0.23343-0.51425-0.15223-0.83932 0.98700
  -3  -8  -1 41.3991 62.3461   3-0.34260 0.09074-0.11575-0.55180-0.97970 0.83142
  -3  -8  -1 -38.099 53.4257   4-0.12313-0.12925-0.19232-0.47509-0.97954 0.83127
  -3   8  -1 43.4932 87.0139   6-0.24511-0.00670 0.14844 0.51900-0.98689 0.83872
   3   8   1 9.58804 41.4316   2 0.32394-0.07262 0.12155 0.54470 0.98205-0.83440
   3  -8   1 60.3806 62.1629   9 0.13828 0.11326-0.18650-0.47999 0.98143-0.83387
   3   8   1 95.2069 71.9551   1 0.16108 0.09080 0.17828 0.48872 0.98375-0.83575
  -3  -8  -1 -16.880 54.5867   9-0.01200-0.23942-0.51602-0.15039 0.83935-0.98698
   4  -8   1 646.726 171.102   4 0.02939 0.29935-0.53781-0.12858-0.82253 0.98455
  -4  -8  -1 671.960 155.300   3-0.33802 0.00862-0.11165-0.55594-0.98099 0.81829
  -4   8  -1 1051.65 200.966   6-0.24661-0.08269 0.15314 0.51429-0.98606 0.82352
   4   8   1 710.792 157.847   2 0.32160 0.00709 0.11858 0.54762 0.98278-0.82081
   4   8   1 563.400 126.657   1 0.15755 0.17176 0.19546 0.47152 0.98042-0.81804
  -4  -8  -1 628.067 168.499   9-0.02432-0.30448-0.53989-0.12651 0.82222-0.98419
   5  -8   1 -74.418 91.0380   4 0.04334 0.36290-0.56559-0.10069-0.80127 0.97760
  -5  -8  -1 92.4470 71.8884   3-0.34046-0.06649-0.11383-0.55380-0.98031 0.80320
  -5   8  -1 -91.335 88.0661   6-0.25047-0.15631 0.16534 0.50208-0.98379 0.80688
   5   8   1 -40.431 86.9650   2 0.32456 0.08149 0.12233 0.54383 0.98186-0.80556
  -5  -8  -1 118.280 132.975   9-0.03904-0.36713-0.56780-0.09859 0.80067-0.97699
   5  -8   1 23.1839 65.0805   8 0.37563 0.03055-0.09352-0.57262 0.97571-0.79943
  -6  -8  -1 415.034 141.630   3-0.34834-0.13614-0.12091-0.54676-0.97803 0.78650
   6   8   1 460.290 145.553   2 0.33185 0.15156 0.13158 0.53454 0.97947-0.78884
  -6   8  -1 118.768 75.5775   6-0.25643-0.22780 0.18441 0.48298-0.97989 0.78860
  -6  -8  -1 44.0344 99.3103   9-0.05594-0.42759-0.59901-0.06737 0.77448-0.96514
  -7  -8  -1 43.6433 107.055   3-0.36052-0.20150-0.13187-0.53579-0.97424 0.76829
   7   8   1 39.6113 81.9925   2 0.34271 0.21805 0.14547 0.52062 0.97559-0.77064
   7   9  -1 8.90675 79.0314   5 0.59912-0.07684 0.25095 0.49877 0.85827-0.86255
  -6   9   1 140.004 134.194   6-0.32640-0.11877 0.43543 0.31458-0.88491 0.90343
   6  -9  -1 122.927 113.560   4-0.03214 0.47739-0.40776-0.34246-0.90269 0.88369
  -6  -9   1 35.0613 94.9675   9 0.03901-0.48385-0.41225-0.33752 0.90164-0.88321
   6   9  -1 41.1497 67.7618   5 0.60770-0.16282 0.25659 0.49315 0.85128-0.86990
   6   9  -1 -39.644 111.009   2 0.48422-0.03932 0.33740 0.41226 0.88311-0.90167
  -6  -9   1 108.873 100.500   3-0.53967 0.09474-0.30141-0.44890-0.87256 0.89066
   5  -9  -1 -106.37 72.1676   4-0.04948 0.41719-0.36890-0.38145-0.92126 0.88793
  -5   9   1 -53.455 83.0119   6-0.32473-0.04297 0.42857 0.32144-0.88870 0.92160
  -5  -9   1 -36.223 77.1805   9 0.05728-0.42474-0.37311-0.37667 0.92054-0.88777
   5   9  -1 16.0657 64.6110   5 0.62373-0.25628 0.26718 0.48254 0.83753-0.87050
   5   9  -1 26.5475 84.5272   2 0.48804-0.12051 0.34294 0.40677 0.87925-0.91215
  -5  -9   1 18.5079 98.8135   3-0.54805 0.18066-0.30982-0.44043-0.86515 0.89763
   4  -9  -1 416.565 144.584   4-0.06463 0.35482-0.33409-0.41637-0.93602 0.88835
  -4   9   1 880.191 180.950   6-0.32464 0.03441 0.42820 0.32180-0.88890 0.93617
  -4  -9   1 499.788 129.756   9 0.07334-0.36344-0.33781-0.41197 0.93564-0.88853
  -4  -9   1 571.983 152.162   3-0.56259 0.27272-0.32453-0.42563-0.85156 0.89840
   4   9  -1 665.470 162.610   2 0.49618-0.20603 0.35484 0.39493 0.87071-0.91795
  -3  -9   1 127.899 106.148   4 0.02870-0.24243-0.53642-0.21374-0.82355 0.88491
   3  -9  -1 64.8610 81.2515   4-0.07752 0.29016-0.30389-0.44665-0.94748 0.88545
   3   9  -1 -92.816 75.2184   6-0.31284 0.52606 0.38156 0.36879-0.91270 0.85064
  -3   9   1 181.560 114.787   6-0.32624 0.11349 0.43474 0.31524-0.88530 0.94693
  -3  -9   1 59.1455 78.9924   9 0.08711-0.29982-0.30693-0.44287 0.94742-0.88596
   3  -9  -1 -40.516 47.3591   9-0.02121 0.23401-0.53392-0.21582 0.82662-0.88814
   3   9  -1 -144.49 108.184   2 0.50917-0.29638 0.37406 0.37578 0.85615-0.91774
  -3  -9   1 47.0860 77.8408   3-0.58429 0.37192-0.34682-0.40324-0.82938 0.89055
  -2  -9   1 1344.29 223.723   4 0.01834-0.15463-0.51536-0.23478-0.83856 0.91431
   2   9  -1 1288.92 210.443   2 0.52747-0.39208 0.40173 0.34819 0.83348-0.90942
   2  -9  -1 1112.39 201.264   4-0.08799 0.22309-0.27894-0.47167-0.95602 0.87962
   2   9  -1 1230.10 195.229   6-0.29763 0.43336 0.32477 0.42573-0.93734 0.86096
  -2  -9   1 1574.19 223.123   3-0.61406 0.47918-0.37818-0.37179-0.79466 0.87015
  -2   9   1 1053.24 199.900   6-0.32960 0.19433 0.44864 0.30130-0.87740 0.95339
  -2  -9   1 1214.96 207.544   9 0.09841-0.23375-0.28109-0.46872 0.95628-0.88048
   2  -9  -1 1364.63 218.918   9-0.01077 0.14620-0.51362-0.23612 0.84101-0.91690
  -1  -9   1 579.499 145.553   4 0.01278-0.07162-0.50392-0.24618-0.84635 0.93649
   1  -9  -1 430.103 129.962   4-0.09587 0.15343-0.25992-0.49076-0.96199 0.87121
   1   9  -1 395.292 117.932   6-0.28518 0.34342 0.28057 0.47003-0.95346 0.86273
   1   9  -1 414.079 120.841   2 0.55134-0.49335 0.43899 0.31098 0.79944-0.88973
  -1   9   1 295.582 124.054   6-0.33471 0.27691 0.47031 0.27957-0.86444 0.95476
  -1  -9   1 242.491 90.6628   9 0.10708-0.16504-0.26098-0.48882 0.96257-0.87242
   1  -9  -1 593.234 155.580   9-0.00536 0.06344-0.50298-0.24676 0.84824-0.93847
   0  -9   1 47.1739 59.8274   4 0.01128 0.00737-0.50081-0.24925-0.84842 0.95295
   0  -9  -1 -4.9501 54.4998   4-0.10092 0.08096-0.24758-0.50312-0.96562 0.86045
   0   9   1 0.32855 57.5184   6-0.34148 0.36117 0.50016 0.24965-0.84525 0.94988
   0   9  -1 -45.951 85.2665   6-0.27562 0.25635 0.24773 0.50296-0.96378 0.85869
   0  -9   1 64.6111 74.5651   9 0.11288-0.09346-0.24740-0.50241 0.96653-0.86203
   0  -9  -1 133.570 103.954   9-0.00418-0.01511-0.50064-0.24910 0.84980-0.95438
   1  -9   1 153.464 93.6485   4 0.01329 0.08285-0.50498-0.24504-0.84564 0.96455
   1   9   1 259.828 88.5739   2 0.39569-0.29910 0.21468 0.53503 0.95086-0.83184
  -1  -9  -1 178.769 81.7611   4-0.10285 0.00538-0.24285-0.50789-0.96696 0.84740
   1   9   1 235.145 105.719   1 0.14867-0.05165 0.23743 0.51284 0.97090-0.85159
  -1   9  -1 234.126 107.022   6-0.26888 0.17211 0.22513 0.52562-0.97010 0.85064
   1  -9   1 153.472 76.2221   9 0.11549-0.01870-0.24124-0.50856 0.96825-0.84940
   1   9   1 280.006 112.697   6-0.34968 0.44684 0.53845 0.21128-0.81819 0.93712
  -1  -9  -1 387.607 132.622   9-0.00663-0.09003-0.50548-0.24425 0.84656-0.96549
   2  -9   1 1429.08 239.890   4 0.01840 0.15526-0.51547-0.23448-0.83848 0.97176
   2   9   1 1170.88 197.966   2 0.37721-0.20326 0.19024 0.55940 0.96063-0.82729
  -2  -9  -1 1255.16 208.495   4-0.10126-0.07371-0.24678-0.50397-0.96585 0.83191
   2   9   1 1054.68 202.058   1 0.14898 0.02550 0.23598 0.51430 0.97126-0.83757
  -2   9  -1 1396.10 228.766   6-0.26483 0.09055 0.21174 0.53905-0.97354 0.83971
  -2  -9  -1 1383.42 203.840   3-0.41686 0.24265-0.18343-0.56736-0.95216 0.81821
   2   9   1 1192.34 203.341   6-0.35891 0.53351 0.58521 0.16442-0.78103 0.91424
  -2  -9  -1 1234.85 226.255   9-0.01226-0.16177-0.51655-0.23319 0.83899-0.97227
   2  -9   1 1308.52 203.115   9 0.11449 0.05967-0.24360-0.50620 0.96760-0.83440
  -3  -9  -1 183.016 112.512   3-0.39893 0.14717-0.16687-0.58401-0.96004 0.81168
   3  -9   1 73.1994 68.3703   4 0.02624 0.22492-0.53146-0.21842-0.82716 0.97480
  -3  -9  -1 90.0757 48.4038   4-0.09554-0.15690-0.26072-0.49002-0.96175 0.81344
   3   9   1 -28.111 54.9971   2 0.36626-0.11494 0.17591 0.57368 0.96583-0.81817
  -3   9  -1 124.395 59.7182   6-0.26330 0.01151 0.20670 0.54409-0.97478 0.82657
   3  -9   1 -30.442 53.3563   9 0.10928 0.14225-0.25585-0.49395 0.96410-0.81656
  -3  -9  -1 224.067 100.117   9-0.02072-0.23068-0.53297-0.21675 0.82730-0.97493
  -4  -9  -1 381.834 114.305   3-0.39016 0.06086-0.15882-0.59213-0.96359 0.80083
   4  -9   1 525.867 168.450   4 0.03659 0.29209-0.55223-0.19757-0.81170 0.97369
   4   9   1 573.232 146.476   2 0.36149-0.03280 0.16970 0.57982 0.96796-0.80598
  -4   9  -1 983.085 207.734   6-0.26408-0.06520 0.20927 0.54153-0.97415 0.81156
  -4  -9  -1 562.339 191.593   9-0.03173-0.29706-0.55402-0.19569 0.81152-0.97349
   5  -9   1 60.1416 99.0711   4 0.04921 0.35699-0.57707-0.17263-0.79199 0.96829
  -5  -9  -1 202.917 115.688   3-0.38851-0.01835-0.15731-0.59369-0.96424 0.78706
   5   9   1 48.0311 109.476   2 0.36183 0.04422 0.17015 0.57933 0.96781-0.79151
  -5   9  -1 63.8458 71.3887   6-0.26699-0.13978 0.21882 0.53196-0.97175 0.79479
  -5  -9  -1 86.3043 79.4751   9-0.04505-0.36111-0.57901-0.17070 0.79153-0.96786
   5   9   1 29.6671 60.9607   5 0.42284-0.01645 0.13981 0.61010 0.95826-0.78140
  -6  -9  -1 57.9713 82.3105   3-0.39248-0.09192-0.16095-0.59008-0.96267 0.77107
   6   9   1 61.8247 78.3755   5 0.42479 0.05899 0.14100 0.60889 0.95753-0.76632
  -5 -10   1 813.214 212.675   3-0.57804 0.21070-0.34035-0.49326-0.83602 0.86837
  -4  10   1 181.215 96.7786   6-0.33216 0.04194 0.45946 0.37393-0.87103 0.91824
  -4 -10   1 151.264 124.199   9 0.05480-0.34488-0.37848-0.45462 0.91808-0.87097
   4  10  -1 191.771 126.083   2 0.51797-0.22782 0.38728 0.44582 0.84558-0.89284
  -4 -10   1 289.712 109.318   3-0.59300 0.30317-0.35589-0.47764-0.81977 0.86647
   3 -10  -1 -36.550 119.586   4-0.05798 0.27054-0.34945-0.48448-0.92972 0.86762
   3  10  -1 120.984 99.7684   2 0.53057-0.31780 0.40650 0.42667 0.82935-0.89095
  -3 -10   1 160.406 111.749   9 0.06695-0.27965-0.35197-0.48114 0.92980-0.86834
  -2 -10   1 297.779 104.383   4 0.03198-0.16836-0.54303-0.29048-0.81867 0.89434
   2 -10  -1 183.766 93.3456   4-0.06701 0.20202-0.32855-0.50543-0.93822 0.86175
   2  10  -1 238.437 115.555   6-0.31161 0.44738 0.37685 0.45699-0.91492 0.83845
   2  10  -1 365.214 129.764   2 0.54778-0.41240 0.43336 0.39987 0.80486-0.88081
  -2  10   1 98.9256 95.9388   6-0.33676 0.20151 0.47922 0.35410-0.85888 0.93480
  -2 -10   1 165.381 83.7396   9 0.07672-0.21204-0.33031-0.50281 0.93862-0.86282
   2 -10  -1 84.4753 98.6611   9-0.02519 0.16063-0.54155-0.29148 0.82098-0.89686
  -1 -10   1 903.683 204.452   4 0.02627-0.08519-0.53152-0.30195-0.82713 0.91720
   1 -10  -1 783.348 190.834   9-0.01955 0.07763-0.53071-0.30233 0.82895-0.91918
   1 -10  -1 738.680 197.917   4-0.07354 0.13102-0.31328-0.52076-0.94405 0.85321
   1  10  -1 1311.59 258.196   6-0.30061 0.35888 0.33567 0.49829-0.93297 0.84217
  -1  10   1 712.372 173.328   6-0.34131 0.28355 0.49943 0.33384-0.84574 0.93600
  -1 -10   1 747.888 201.023   9 0.08394-0.14188-0.31411-0.51901 0.94480-0.85465
   0 -10   1 105.859 124.993   4 0.02433-0.00576-0.52757-0.30587-0.82997 0.93443
   0 -10  -1 105.760 106.371   4-0.07735 0.05730-0.30430-0.52976-0.94733 0.84210
   0  10  -1 94.9481 69.3470   6-0.29197 0.27274 0.30446 0.52958-0.94507 0.83992
   0  10   1 60.7489 68.5205   6-0.34727 0.36700 0.52692 0.30627-0.82664 0.93122
   0 -10   1 211.611 110.463   9 0.08837-0.06894-0.30407-0.52904 0.94844-0.84395
   0 -10  -1 -38.010 84.8604   9-0.01784-0.00145-0.52739-0.30566 0.83133-0.93592
   1 -10   1 896.141 209.071   4 0.02565 0.07041-0.53026-0.30314-0.82803 0.94688
  -1 -10  -1 1027.32 214.163   4-0.07814-0.01941-0.30242-0.53165-0.94800 0.82839
  -1  10  -1 1260.68 238.685   6-0.28570 0.18895 0.28236 0.55173-0.95285 0.83334
   1  10   1 883.626 188.973   6-0.35443 0.45161 0.56188 0.27122-0.80017 0.91904
  -1 -10  -1 749.536 180.816   9-0.01953-0.07713-0.53067-0.30237 0.82898-0.94791
   1 -10   1 1267.55 235.994   9 0.08972 0.00708-0.30099-0.53211 0.94954-0.83069
   2  10   1 172.401 85.0317   2 0.41872-0.24476 0.24568 0.58731 0.93677-0.80343
   2 -10   1 356.373 148.852   4 0.02989 0.14368-0.53882-0.29452-0.82179 0.95501
  -2 -10  -1 100.937 63.5092   4-0.07553-0.09951-0.30859-0.52549-0.94578 0.81178
  -2  10  -1 29.0498 76.8642   6-0.28173 0.10748 0.26860 0.56553-0.95738 0.82349
   2 -10   1 343.311 127.471   9 0.08758 0.08659-0.30586-0.52724 0.94780-0.81461
   2  10   1 11.2641 51.9224   6-0.36241 0.53704 0.60435 0.22866-0.76438 0.89752
  -2 -10  -1 347.098 137.435   9-0.02423-0.14980-0.53971-0.29333 0.82235-0.95563
   3 -10   1 -87.777 75.4555   4 0.03675 0.21434-0.55255-0.28074-0.81146 0.95904
   3  10   1 -49.819 56.8246   2 0.40637-0.15503 0.22898 0.60394 0.94460-0.79694
  -3  10  -1 -61.449 96.9073   6-0.27995 0.02819 0.26249 0.57167-0.95931 0.81105
  -3 -10  -1 65.4899 127.785   9-0.03162-0.21978-0.55382-0.27921 0.81167-0.95931
   4  10   1 227.982 112.779   2 0.39976-0.07106 0.22012 0.61274 0.94853-0.78655
  -4 -10  -1 137.335 90.2445   3-0.44113 0.11192-0.20608-0.62820-0.94015 0.77730
  -5 -10  -1 -6.3407 63.9704   3-0.43606 0.02929-0.20132-0.63302-0.94279 0.76553
  -1 -11   1 68.5314 106.583   4 0.04122-0.10023-0.56142-0.35542-0.80457 0.89456
   1  11  -1 105.133 89.7826   6-0.31465 0.37295 0.38854 0.52874-0.90935 0.81845
   1 -11  -1 146.205 102.394   9-0.03527 0.09337-0.56072-0.35563 0.80630-0.89653
   0  11  -1 54.9264 72.2018   6-0.30685 0.28764 0.35880 0.55857-0.92312 0.81789
   0  11   1 241.510 144.929   6-0.35326 0.37300 0.55600 0.36057-0.80480 0.90929
   0 -11   1 264.575 131.423   9 0.06403-0.04459-0.35838-0.55804 0.92706-0.82256
   0 -11  -1 347.315 139.755   9-0.03303 0.01375-0.55648-0.35987 0.80961-0.91420
  -1 -11  -1 -6.6191 95.9545   4-0.05377-0.04387-0.35911-0.55830-0.92558 0.80590
   1 -11   1 117.995 103.198   9 0.06429 0.03253-0.35783-0.55858 0.92729-0.80845
   1  11   1 0.21629 71.5412   6-0.35947 0.45669 0.58824 0.32825-0.77846 0.89724
  12   0  -2 625.452 195.400   5 0.63586 0.25383 0.27527-0.27530 0.82650-0.86410
  12   0  -2 567.374 170.587   8 0.64036 0.24956-0.20364 0.20354 0.84650-0.88398
 -11   0   2 27.9173 107.888   7-0.62744-0.18502 0.10047-0.10090-0.87514 0.92625
  11   0  -2 64.5753 94.3613   5 0.61986 0.19247 0.26461-0.26465 0.84093-0.89287
  11   0  -2 197.804 120.203   8 0.62419 0.18836-0.19668 0.19657 0.85876-0.91057
 -10   0   2 637.878 182.494   7-0.61493-0.12009 0.09800-0.09842-0.88295 0.94844
  10   0  -2 1033.26 185.944   5 0.60735 0.12761 0.25636-0.25640 0.85156-0.91784
  10   0  -2 915.725 157.274   8 0.61165 0.12352-0.19130 0.19120 0.86777-0.93392
  -9   0   2 42.8699 61.8167   7-0.60729-0.05031 0.09649-0.09689-0.88756 0.96743
  -9   0   2 -41.982 36.8562   3-0.58868-0.06905-0.35138 0.35185-0.82459 0.90453
   9   0  -2 65.5254 59.6664   5 0.59942 0.05818 0.25115-0.25121 0.85803-0.93865
   9   0  -2 -18.604 59.7077   8 0.60385 0.05396-0.18797 0.18786 0.87317-0.95366
  -8   0   2 66.7712 83.4217   7-0.60608 0.02591 0.09625-0.09665-0.88827 0.98251
  -8   0   2 141.084 47.2219   3-0.58591 0.00564-0.34850 0.34895-0.82762 0.92194
   8   0  -2 105.046 57.1346   5 0.59750-0.01728 0.24990-0.24997 0.85956-0.95453
   8   0  -2 126.899 66.5862   8 0.60230-0.02187-0.18731 0.18720 0.87423-0.96907
  -7   0   2 -15.416 49.2917   7-0.61356 0.11082 0.09773-0.09811-0.88378 0.99237
  -7   0   2 13.5395 32.8228   3-0.59035 0.08753-0.35314 0.35355-0.82273 0.93142
   7   0  -2 45.9372 32.0592   5 0.60360-0.10074 0.25389-0.25397 0.85465-0.96397
   7   0  -2 -20.489 35.1774   8 0.60913-0.10608-0.19023 0.19011 0.86953-0.97874
  -6   0   2 1796.80 181.442   7-0.63298 0.20765 0.10157-0.10193-0.87157 0.99450
   6   0  -2 1745.34 109.592   4-0.20964 0.63615 0.04234-0.04219-0.99879 0.87504
  -6   0   2 1591.40 77.4659   1 0.20800-0.63390-0.08735 0.08753 0.99589-0.87269
  -6   0   2 1593.04 103.284   9 0.20982-0.63538-0.00126 0.00129 0.99969-0.87666
   6   0  -2 1724.12 169.300   5 0.62042-0.19494 0.26499-0.26508 0.84044-0.96411
   6   0  -2 1642.14 174.539   8 0.62735-0.20168-0.19804 0.19791 0.85642-0.97999
  -5   0   2 -3.6882 23.6547   7-0.66881 0.32088 0.10869-0.10905-0.84674 0.98400
   5   0  -2 16.0214 21.7757   4-0.29637 0.64549 0.32171-0.32173-0.93860 0.80039
  -5   0   2 19.9485 22.4779   9 0.30284-0.65103 0.28108-0.28108 0.95104-0.81364
  -5   0   2 -24.364 30.2688   3-0.62988 0.28191-0.39524 0.39561-0.77387 0.91124
   5   0  -2 -7.9279 24.4020   5 0.65145-0.30334 0.28575-0.28584 0.81149-0.94952
   5   0  -2 -4.7649 29.1213   8 0.66100-0.31272-0.21259 0.21245 0.82976-0.96771
  -4   0   2 15332.5 455.602   7-0.72669 0.45614 0.12035-0.12069-0.79940 0.95099
   4   0  -2 12913.3 493.313   8 0.71477-0.44389-0.23625 0.23611 0.77940-0.93173
  12   1  -2 223.429 126.186   5 0.61927 0.27043 0.26422-0.18099 0.84145-0.87902
  12   1  -2 297.584 139.939   8 0.65961 0.23036-0.21198 0.29519 0.83093-0.86840
 -11   1   2 -108.57 94.5032   7-0.62251-0.18997 0.09950-0.01655-0.87825 0.92937
 -11  -1   2 -38.539 78.4853   7-0.63966-0.17276 0.10290-0.18668-0.86717 0.91826
 -11  -1   2 70.7069 95.8615   3-0.58598-0.22675-0.34857 0.26575-0.82755 0.87870
  11   1  -2 -46.259 56.9410   5 0.60270 0.20963 0.25330-0.17008 0.85539-0.90729
  11  -1  -2 41.2641 91.9727   8 0.61174 0.20077-0.19134 0.10793 0.86771-0.91952
  11   1  -2 -75.980 57.2173   8 0.64455 0.16804-0.20545 0.28867 0.84320-0.89501
 -10   1   2 781.818 232.341   7-0.60979-0.12526 0.09698-0.01403-0.88606 0.95157
 -10  -1   2 1210.32 230.022   7-0.62807-0.10693 0.10060-0.18436-0.87473 0.94021
 -10  -1   2 1035.46 180.203   3-0.57252-0.16273-0.33468 0.25184-0.84171 0.90727
  10  -1  -2 942.642 170.053   5 0.63487 0.10009 0.27460-0.35790 0.82743-0.89374
  10   1  -2 1032.26 184.653   5 0.58939 0.14558 0.24460-0.16139 0.86592-0.93217
  10  -1  -2 1073.04 204.654   8 0.59857 0.13657-0.18573 0.10231 0.87673-0.94289
  10   1  -2 1231.75 207.795   8 0.63344 0.10178-0.20065 0.28387 0.85184-0.91799
  -9   1   2 22.0291 54.6092   7-0.60178-0.05581 0.09541-0.01244-0.89080 0.97068
  -9  -1   2 12.9384 57.9153   7-0.62157-0.03602 0.09931-0.18306-0.87884 0.95869
   9   1  -2 97.5757 78.4470   2 0.54062 0.11737 0.42207-0.33873 0.81542-0.89560
  -9  -1   2 128.353 72.6297   3-0.56283-0.09494-0.32478 0.24192-0.85133 0.93129
   9   1  -2 102.581 73.6084   5 0.58029 0.07731 0.23868-0.15547 0.87280-0.95339
   9  -1  -2 97.5994 78.9310   8 0.58986 0.06791-0.18203 0.09859 0.88247-0.96297
   9  -1  -2 96.4370 69.3193   5 0.62916 0.02843 0.27080-0.35411 0.83266-0.91331
   9   1  -2 29.9451 58.1070   8 0.62747 0.03037-0.19809 0.28130 0.85634-0.93683
  -8   1   2 58.8667 76.5031   7-0.60004 0.01987 0.09506-0.01209-0.89181 0.98606
  -8  -1   2 242.498 89.7889   7-0.62186 0.04168 0.09937-0.18310-0.87867 0.97288
   8   1  -2 279.352 77.3006   2 0.53477 0.04583 0.41298-0.32964 0.82364-0.91816
  -8   1   2 269.775 84.4073   3-0.62733 0.04709-0.39248 0.47620-0.77734 0.87162
   8  -1  -2 235.387 68.5944   5 0.63021-0.04999 0.27150-0.35482 0.83171-0.92670
  -8  -1   2 176.991 66.6679   3-0.55803-0.02229-0.31990 0.23702-0.85593 0.95028
   8   1  -2 308.638 81.5941   5 0.57668 0.00355 0.23634-0.15314 0.87546-0.97041
   8  -1  -2 102.485 47.7522   8 0.58700-0.00659-0.18081 0.09737 0.88432-0.97917
   8   1  -2 271.941 85.1089   8 0.62834-0.04788-0.19846 0.28167 0.85569-0.95054
  -7  -1   2 1978.75 204.858   7-0.63130 0.12854 0.10124-0.18495-0.87266 0.98122
   7   1  -2 1896.80 187.376   2 0.53419-0.03098 0.41209-0.32875 0.82443-0.93331
  -7  -1   2 1694.30 131.568   9 0.13016-0.63307-0.20622 0.12297 0.97710-0.86843
  -7  -1   2 1873.88 190.931   3-0.55957 0.05672-0.32146 0.23857-0.85447 0.96319
   7  -1  -2 1733.07 185.006   5 0.64029-0.13743 0.27824-0.36157 0.82234-0.93168
   7   1  -2 1861.06 193.740   5 0.58030-0.07745 0.23869-0.15550 0.87279-0.98209
   7  -1  -2 1611.78 187.006   8 0.59191-0.08887-0.18290 0.09945 0.88114-0.99034
   7   1  -2 1766.10 201.166   8 0.63841-0.13533-0.20280 0.28601 0.84802-0.95724
   7  -1  -2 1899.35 143.000   4-0.12816 0.63202-0.17955 0.09648-0.98223 0.87282
  -6   1   2 24.6444 19.3990   1 0.19800-0.62390-0.02347 0.10698 0.99964-0.87644
  -6   1   2 -8.0666 46.0664   7-0.62482 0.19951 0.09995-0.01697-0.87680 0.99975
  -6  -1   2 20.4872 31.8557   7-0.65330 0.22794 0.10560-0.18930-0.85787 0.98079
   6  -1  -2 25.6832 25.9171   4-0.20003 0.62652 0.01456-0.09783-0.99978 0.87603
   6   1  -2 7.84330 10.4209   4-0.20980 0.63632 0.04280 0.04077-0.99877 0.87501
   6   1  -2 21.5694 32.7101   2 0.54028-0.11444 0.42154-0.33819 0.81590-0.93914
  -6   1   2 16.3271 10.3382   9 0.19422-0.61978-0.04354 0.12690 0.99901-0.87597
  -6  -1   2 -31.953 32.9560   9 0.20497-0.63053-0.01455-0.06874 0.99970-0.87667
   6  -1  -2 21.1745 22.7830   5 0.66239-0.23689 0.29316-0.37651 0.80035-0.92404
  -6  -1   2 -0.9240 35.6032   3-0.56936 0.14397-0.33144 0.24854-0.84490 0.96797
   6  -1  -2 -62.196 55.8768   8 0.60733-0.18166-0.18946 0.10601 0.87078-0.99435
   6   1  -2 -29.134 32.9204   8 0.66095-0.23527-0.21256 0.29578 0.82980-0.95338
  -5   1   2 29.0155 28.1883   7-0.65870 0.31081 0.10668-0.02369-0.85406 0.99134
  -5  -1   2 63.7608 42.8120   7-0.69245 0.34448 0.11344-0.19711-0.82856 0.96582
   5  -1  -2 20.7614 26.3731   4-0.26275 0.61180 0.20620-0.28966-0.97494 0.83676
   5   1  -2 37.0222 32.2738   2 0.55449-0.20605 0.44404-0.36068 0.79450-0.93211
  -5  -1   2 36.8617 18.2018   9 0.27115-0.61934 0.17787-0.26118 0.97986-0.84247
   5   1  -2 43.8072 39.1186   5 0.61957-0.27147 0.26442-0.18125 0.84119-0.97920
   5  -1  -2 -29.441 45.9152   8 0.63696-0.28868-0.20217 0.11871 0.84914-0.98709
  -5   1   2 55.0018 31.2746   1 0.23399-0.58258-0.28878 0.37241 0.95563-0.81794
   5   1  -2 107.829 50.0341   8 0.70015-0.35187-0.22975 0.31298 0.79415-0.93211
  -4   1   2 983.006 128.052   7-0.71382 0.44333 0.11775-0.03475-0.81078 0.96237
  -4  -1   2 522.914 89.2773   7-0.75418 0.48357 0.12595-0.20961-0.77318 0.92477
  -4  -1   2 838.557 119.363   3-0.62304 0.35251-0.38783 0.30490-0.78308 0.93481
   4   1  -2 869.523 120.424   5 0.66203-0.39132 0.29291-0.20975 0.80072-0.95309
   4  -1  -2 1057.05 150.553   8 0.68541-0.41454-0.22325 0.13978 0.80819-0.96051
 -11   2   2 -3.7631 120.510   7-0.62457-0.18793 0.09991 0.06644-0.87696 0.92807
 -11  -2   2 27.5751 58.3467   7-0.65943-0.15298 0.10682-0.27394-0.85354 0.90462
 -11  -2   2 66.1114 59.8720   3-0.57098-0.24181-0.33310 0.16690-0.84327 0.89443
  11   2  -2 142.583 88.8430   5 0.59321 0.21914 0.24709-0.08060 0.86295-0.91484
  11  -2  -2 123.914 89.9386   8 0.60657 0.20592-0.18913 0.02243 0.87131-0.92313
  11   2  -2 20.5838 79.5538   8 0.67341 0.13923-0.21800 0.38454 0.81904-0.87084
 -10   2   2 25.9508 111.152   7-0.61225-0.12279 0.09747 0.06888-0.88458 0.95009
 -10  -2   2 101.530 85.2882   7-0.64947-0.08552 0.10484-0.27193-0.86052 0.92598
  10   2  -2 131.828 81.0247   2 0.53103 0.20426 0.40720-0.24057 0.82874-0.89456
 -10  -2   2 236.159 119.479   3-0.55730-0.17801-0.31916 0.15296-0.85662 0.92219
  10   2  -2 113.549 85.0900   5 0.57980 0.15518 0.23836-0.07188 0.87316-0.93939
  10  -2  -2 304.435 138.373   8 0.59343 0.14168-0.18354 0.01682 0.88014-0.94631
  10   2  -2 273.733 128.859   8 0.66460 0.07066-0.21415 0.38070 0.82670-0.89285
  -9   2   2 -2.2643 51.9678   7-0.60464-0.05296 0.09597 0.07038-0.88912 0.96901
  -9  -2   2 -1.0919 59.0186   7-0.64498-0.01260 0.10394-0.27102-0.86359 0.94342
   9   2  -2 195.417 87.4883   2 0.52054 0.13738 0.39118-0.22455 0.84237-0.92253
   9  -2  -2 262.917 92.1638   5 0.67080-0.01320 0.29891-0.46547 0.79141-0.87210
   9   2  -2 312.365 105.574   5 0.57038 0.08723 0.23226-0.06578 0.88001-0.96059
  -9  -2   2 93.5266 45.9382   3-0.54713-0.11070-0.30889 0.14267-0.86599 0.94597
   9  -2  -2 32.3702 54.9409   8 0.58460 0.07316-0.17979 0.01306 0.88585-0.96636
   9   2  -2 360.500 116.762   8 0.66151-0.00364-0.21280 0.37936 0.82932-0.90982
  -8   2   2 28.5472 62.2851   7-0.60322 0.02308 0.09569 0.07067-0.88996 0.98421
  -8  -2   2 113.855 52.3422   7-0.64775 0.06758 0.10449-0.27154-0.86171 0.95590
   8   2  -2 246.182 77.6977   2 0.51377 0.06678 0.38095-0.21431 0.85071-0.94520
   8  -2  -2 259.748 89.3729   5 0.67627-0.09603 0.30265-0.46923 0.78542-0.88046
   8   2  -2 234.504 78.6767   5 0.56609 0.01415 0.22949-0.06302 0.88304-0.97797
  -8  -2   2 190.006 84.6819   3-0.54140-0.03895-0.30314 0.13692-0.87105 0.96543
   8  -2  -2 152.956 63.4604   8 0.58134-0.00096-0.17842 0.01167 0.88790-0.98275
   8   2  -2 197.280 78.3016   8 0.66603-0.08555-0.21478 0.38134 0.82547-0.92033
  -7   2   2 1443.20 187.893   7-0.61006 0.10736 0.09704 0.06931-0.88590 0.99451
  -7  -2   2 1499.90 177.360   7-0.66030 0.15752 0.10700-0.27402-0.85292 0.96146
   7   2  -2 1425.02 167.129   2 0.51167-0.00850 0.37781-0.21117 0.85320-0.96205
  -7  -2   2 1311.21 167.961   3-0.54138 0.03851-0.30312 0.13688-0.87107 0.97982
  -7  -2   2 1485.88 140.791   9 0.13826-0.64118-0.18652 0.01995 0.98142-0.87275
   7   2  -2 1473.03 172.269   5 0.56847-0.06561 0.23103-0.06456 0.88136-0.99065
   7  -2  -2 1147.27 161.823   8 0.58547-0.08245-0.18016 0.01340 0.88529-0.99450
   7   2  -2 1947.78 222.097   8 0.68074-0.17765-0.22120 0.38777 0.81247-0.92170
  -6   2   2 635.915 79.6549   1 0.18951-0.61541 0.02711 0.13972 0.99963-0.87641
  -6  -2   2 816.224 125.086   7-0.68614 0.26075 0.11217-0.27916-0.83356 0.95647
  -6   2   2 603.380 111.635   7-0.62808 0.20282 0.10060 0.06576-0.87473 0.99768
   6   2  -2 799.658 121.470   2 0.51546-0.08967 0.38350-0.21684 0.84866-0.97186
   6  -2  -2 622.257 90.4484   4-0.18764 0.61409-0.02059-0.14611-0.99979 0.87603
  -6  -2   2 703.532 102.125   9 0.19476-0.62032-0.04210-0.12451 0.99906-0.87604
   6   2  -2 809.907 123.741   5 0.57962-0.15415 0.23825-0.07179 0.87329-0.99694
  -6  -2   2 547.996 104.345   3-0.54868 0.12329-0.31045 0.14422-0.86458 0.98768
   6  -2  -2 738.808 128.342   8 0.59942-0.17376-0.18609 0.01931 0.87617-0.99974
   6   2  -2 765.185 144.009   8 0.70901-0.28333-0.23369 0.40026 0.78531-0.90890
  -5   2   2 51.4154 39.4683   7-0.66133 0.31348 0.10720 0.05915-0.85218 0.98946
  -5  -2   2 79.8584 36.3358   7-0.72981 0.38178 0.12099-0.28795-0.79655 0.93380
  -5   2   2 68.5993 28.1425   1 0.21808-0.56663-0.15799 0.32498 0.98678-0.84912
   5  -2  -2 26.3704 35.9500   4-0.23632 0.58531 0.12231-0.28919-0.99104 0.85289
  -5  -2   2 101.162 44.4245   9 0.24592-0.59409 0.10138-0.26801 0.99287-0.85550
   5   2  -2 74.5799 34.6729   2 0.52646-0.17806 0.40019-0.23351 0.83479-0.97237
  -5  -2   2 44.0557 30.6853   3-0.56533 0.21739-0.32732 0.16108-0.84890 0.98633
   5   2  -2 112.280 45.5259   5 0.60229-0.25420 0.25303-0.08658 0.85572-0.99371
   5  -2  -2 68.1612 51.3652   8 0.62656-0.27827-0.19769 0.03090 0.85701-0.99496
  -4   2   2 274.256 67.0549   7-0.71492 0.44449 0.11797 0.04837-0.80983 0.96141
   4  -2  -2 289.300 65.0295   4-0.27854 0.55000 0.25903-0.42604-0.96043 0.80785
   4   2  -2 186.598 51.0116   2 0.54596-0.27497 0.43048-0.26379 0.80759-0.95954
  -4  -2   2 244.534 56.4310   9 0.29060-0.56139 0.24012-0.40676 0.96408-0.81234
   4  -2  -2 192.200 64.9736   8 0.67110-0.40021-0.21699 0.05018 0.82107-0.97340
   3  -2  -2 1.30002 18.1331   8 0.73701-0.54352-0.24620 0.07938 0.75522-0.92195
 -11   3   2 -12.935 60.2933   7-0.63327-0.17923 0.10163 0.14813-0.87138 0.92248
 -11  -3   2 7.68169 84.8537   7-0.68687-0.12550 0.11231-0.36273-0.83299 0.88406
 -11  -3   2 -20.985 64.9719   3-0.56305-0.24980-0.32500 0.07542-0.85112 0.90227
  11   3  -2 52.6426 101.367   5 0.59045 0.22191 0.24529 0.00448 0.86510-0.91697
  11  -3  -2 -30.897 67.3567   8 0.60802 0.20444-0.18975-0.06025 0.87030-0.92215
 -10   3   2 515.162 174.347   7-0.62192-0.11312 0.09938 0.15038-0.87863 0.94412
 -10  -3   2 694.415 166.473   7-0.67929-0.05568 0.11079-0.36118-0.83887 0.90431
  10   3  -2 631.358 143.286   2 0.51940 0.21584 0.38945-0.13954 0.84380-0.90961
 -10  -3   2 711.093 168.345   3-0.54972-0.18564-0.31150 0.06191-0.86364 0.92922
  10   3  -2 919.473 174.882   5 0.57749 0.15749 0.23687 0.01290 0.87486-0.94108
  10  -3  -2 696.297 171.563   8 0.59546 0.13964-0.18441-0.06561 0.87880-0.94498
  -9   3   2 100.163 45.0684   7-0.61535-0.04223 0.09808 0.15167-0.88269 0.96257
  -9  -3   2 -1.5209 40.1759   7-0.67766 0.02008 0.11047-0.36083-0.84011 0.91992
   9   3  -2 190.768 83.1492   2 0.50904 0.14884 0.37387-0.12396 0.85630-0.93644
   9   3  -2 317.693 110.911   5 0.56839 0.08923 0.23097 0.01879 0.88142-0.96200
  -9  -3   2 39.0817 46.3075   3-0.53971-0.11816-0.30145 0.05184-0.87253 0.95252
   9  -3  -2 -57.456 83.6117   8 0.58714 0.07060-0.18087-0.06916 0.88423-0.96475
   9   3  -2 204.835 120.189   8 0.70651-0.04861-0.23257 0.48248 0.78784-0.86835
  -8   3   2 952.855 172.584   7-0.61501 0.03488 0.09802 0.15175-0.88290 0.97715
  -8  -3   2 926.942 155.769   7-0.68389 0.10371 0.11172-0.36205-0.83532 0.92950
   8  -3  -2 995.299 143.163   4-0.08279 0.66406-0.29137 0.04166-0.95187 0.85675
  -8  -3   2 703.930 121.552   9 0.08736-0.66764-0.30637 0.05652 0.94762-0.85329
  -8   3   2 -4.4350 46.8464   6-0.36417-0.21607 0.61446-0.36485-0.75523 0.84981
   8   3  -2 927.368 157.841   2 0.50211 0.07841 0.36357-0.11364 0.86422-0.95870
   8   3  -2 776.427 143.039   5 0.56416 0.01607 0.22826 0.02151 0.88438-0.97931
  -8  -3   2 895.013 159.283   3-0.53384-0.04653-0.29560 0.04599-0.87754 0.97191
   8  -3  -2 777.086 146.964   8 0.58426-0.00389-0.17965-0.07040 0.88606-0.98093
   8   3  -2 903.742 183.464   8 0.71586-0.13536-0.23673 0.48666 0.77826-0.87313
  -7   3   2 426.925 110.674   7-0.62291 0.12023 0.09958 0.15017-0.87801 0.98661
  -7  -3   2 364.570 86.3958   7-0.70062 0.19781 0.11508-0.36538-0.82193 0.93047
   7  -3  -2 574.508 99.9390   4-0.13018 0.63404-0.17438-0.07554-0.98326 0.87385
  -7  -3   2 497.358 97.2588   9 0.13653-0.63945-0.19074-0.05915 0.98054-0.87187
  -7   3   2 481.854 102.016   6-0.35956-0.14331 0.58870-0.33910-0.77807 0.88701
   7   3  -2 567.150 108.918   2 0.49941 0.00372 0.35959-0.10965 0.86720-0.97603
   7   3  -2 495.056 111.490   5 0.56623-0.06337 0.22958 0.02017 0.88294-0.99222
  -7  -3   2 494.450 111.314   3-0.53321 0.03033-0.29498 0.04537-0.87806 0.98681
   7  -3  -2 574.453 131.210   8 0.58848-0.08546-0.18144-0.06862 0.88336-0.99258
   7   3  -2 13.9258 41.1620   8 0.73634-0.23324-0.24591 0.49585 0.75597-0.86520
   6  -3  -2 1199.45 141.290   4-0.17385 0.60026-0.05883-0.19130-0.99821 0.87445
  -6   3   2 1082.60 153.941   7-0.64183 0.21660 0.10333 0.14642-0.86572 0.98866
  -6  -3   2 1419.52 164.670   7-0.73132 0.30589 0.12129-0.37156-0.79517 0.91807
   6   3  -2 1246.80 154.376   2 0.50196-0.07620 0.36334-0.11338 0.86439-0.98758
  -6   3   2 994.297 134.961   6-0.35657-0.06891 0.57292-0.32335-0.79127 0.91457
  -6  -3   2 1318.60 152.382   9 0.18211-0.60766-0.07560-0.17432 0.99713-0.87411
  -6  -3   2 1411.69 174.701   3-0.53921 0.11381-0.30096 0.05135-0.87296 0.99607
   6   3  -2 1228.42 157.747   5 0.57640-0.15094 0.23616 0.01359 0.87566-0.99929
   6  -3  -2 1213.32 168.964   8 0.60204-0.17638-0.18720-0.06289 0.87440-0.99799
  -5   3   2 313.132 81.3947   7-0.67554 0.32775 0.11004 0.13968-0.84172 0.97897
   5   3  -2 336.356 45.1994   6-0.13373 0.48226-0.16609 0.41666-0.98487 0.84671
   5  -3  -2 250.282 64.9786   4-0.21344 0.56237 0.05351-0.30380-0.99815 0.86000
  -5  -3   2 348.489 77.0574   9 0.22369-0.57186 0.03732-0.28727 0.99854-0.86118
  -5   3   2 212.821 59.4767   6-0.35567 0.00757 0.56821-0.31865-0.79510 0.93276
   5   3  -2 273.328 70.1496   2 0.51086-0.16248 0.37659-0.12660 0.85417-0.99172
  -5  -3   2 313.623 78.8002   3-0.55350 0.20557-0.31531 0.06572-0.86017 0.99763
   5   3  -2 305.487 76.3254   5 0.59709-0.24902 0.24962 0.00012 0.85989-0.99788
   5  -3  -2 261.665 67.5753   8 0.62793-0.27966-0.19829-0.05182 0.85599-0.99394
  -4   3   2 379.481 76.4406   1 0.22222-0.49334-0.18929 0.43974 0.98105-0.82895
  -4   3   2 414.222 88.5182   7-0.72865 0.45827 0.12075 0.12896-0.79761 0.94916
   4   3  -2 363.303 79.9126   2 0.52729-0.25631 0.40145-0.15143 0.83372-0.98565
   4  -3  -2 370.464 83.0963   4-0.24861 0.52000 0.16068-0.41111-0.98471 0.83215
  -4  -3   2 419.514 84.7146   9 0.26081-0.53160 0.14599-0.39595 0.98612-0.83440
  -4   3   2 445.339 83.6371   6-0.35710 0.08640 0.57565-0.32612-0.78903 0.94103
   4   3  -2 428.696 87.3883   5 0.63116-0.36048 0.27212-0.02238 0.83084-0.98319
   4  -3  -2 471.298 96.0970   8 0.66992-0.39902-0.21647-0.03366 0.82210-0.97444
  -3   3   2 223.552 60.1495   1 0.23470-0.42834-0.29535 0.54589 0.95355-0.78701
   3  -3  -2 273.760 72.3208   4-0.27900 0.47283 0.26060-0.51114-0.95994 0.79296
  -3  -3   2 195.251 57.9707   9 0.29304-0.48645 0.24818-0.49815 0.96168-0.79560
  -3   3   2 112.726 38.0529   6-0.36094 0.16762 0.59619-0.34667-0.77159 0.93793
   3  -3  -2 3.70545 16.7012   8 0.73159-0.53809-0.24377-0.00639 0.76131-0.92805
  11   4  -2 186.754 96.6249   2 0.52651 0.28606 0.40026-0.06708 0.83474-0.88621
 -11  -4   2 218.796 103.280   3-0.56104-0.25185-0.32295-0.01003-0.85306 0.90420
 -10   4   2 24.5080 56.5092   7-0.63832-0.09670 0.10263 0.23055-0.86806 0.93353
 -10  -4   2 113.345 89.4501   7-0.71751-0.01745 0.11849-0.45215-0.80757 0.87301
  10   4  -2 -176.68 92.6801   2 0.51408 0.22112 0.38141-0.04823 0.85033-0.91613
  10   4  -2 117.786 102.778   5 0.58146 0.15354 0.23944 0.09361 0.87193-0.93813
 -10  -4   2 77.4556 57.8154   3-0.54842-0.18696-0.31020-0.02280-0.86482 0.93037
  10  -4  -2 43.1238 75.3499   8 0.60393 0.13115-0.18801-0.14530 0.87312-0.93932
  -9   4   2 2206.09 277.488   7-0.63335-0.02421 0.10164 0.23154-0.87133 0.95118
  -9  -4   2 2408.82 273.730   7-0.71953 0.06196 0.11890-0.45253-0.80579 0.88560
  -9  -4   2 2262.53 281.304   3-0.53901-0.11889-0.30076-0.03225-0.87313 0.95310
   9   4  -2 2355.25 266.659   2 0.50426 0.15359 0.36674-0.03355 0.86181-0.94194
   9   4  -2 2257.36 264.471   5 0.57312 0.08450 0.23404 0.09902 0.87804-0.95860
   9  -4  -2 2479.39 305.189   8 0.59662 0.06112-0.18490-0.14842 0.87804-0.95858
  -8   4   2 91.1129 72.4647   7-0.63471 0.05462 0.10191 0.23126-0.87044 0.96465
  -8  -4   2 82.9575 56.2525   7-0.73007 0.14986 0.12103-0.45463-0.79632 0.89050
   8  -4  -2 90.2450 42.3553   4-0.08279 0.66405-0.29138-0.04176-0.95186 0.85674
  -8  -4   2 158.691 74.0258   9 0.08838-0.66866-0.30404-0.02913 0.94845-0.85414
  -8   4   2 -2.5409 44.2608   6-0.35632-0.22399 0.57161-0.23872-0.79234 0.88693
   8   4  -2 12.5782 47.6022   2 0.49763 0.08284 0.35696-0.02375 0.86915-0.96362
   8   4  -2 156.184 91.5024   5 0.56953 0.01072 0.23171 0.10134 0.88061-0.97553
  -8  -4   2 7.75302 51.5681   3-0.53352-0.04686-0.29528-0.03772-0.87780 0.97217
   8  -4  -2 48.0166 82.4143   8 0.59469-0.01432-0.18408-0.14927 0.87931-0.97420
  -7   4   2 2054.36 229.340   7-0.64437 0.14174 0.10382 0.22933-0.86401 0.97258
  -7  -4   2 1637.63 192.826   7-0.75173 0.24888 0.12545-0.45901-0.77563 0.88418
   7   4  -2 2089.86 221.894   2 0.49491 0.00820 0.35297-0.01973 0.87208-0.98090
  -7   4   2 2418.61 232.794   6-0.35164-0.15129 0.54797-0.21509-0.81101 0.91998
  -7  -4   2 2141.32 218.763   9 0.12974-0.63266-0.20721-0.12601 0.97687-0.86821
  -7  -4   2 2239.97 243.845   3-0.53292 0.03004-0.29469-0.03831-0.87830 0.98705
   7   4  -2 2124.63 221.868   5 0.57191-0.06906 0.23325 0.09980 0.87891-0.98818
   7  -4  -2 2158.86 237.775   8 0.59968-0.09665-0.18620-0.14717 0.87600-0.98524
   7  -4  -2 2255.12 225.638   4-0.12255 0.62638-0.19379-0.13956-0.97922 0.86979
  -6   4   2 31.8389 47.1979   1 0.17271-0.59862 0.11938 0.21410 0.99279-0.86952
  -6   4   2 8.73774 34.9335   7-0.66497 0.23979 0.10793 0.22520-0.84955 0.97245
   6  -4  -2 -86.800 53.5380   4-0.15914 0.58549-0.09865-0.23488-0.99480 0.87103
  -6  -4   2 -51.810 41.5014   9 0.16799-0.59353-0.11216-0.22108 0.99354-0.87054
  -6   4   2 -31.200 31.8710   6-0.34858-0.07695 0.53310-0.20023-0.82214 0.94548
   6   4  -2 86.8845 54.2164   2 0.49691-0.07118 0.35591-0.02265 0.86993-0.99311
   6   4  -2 -46.538 45.3782   5 0.58191-0.15645 0.23973 0.09331 0.87159-0.99522
  -6  -4   2 -80.264 50.5573   3-0.53839 0.11300-0.30013-0.03285-0.87367 0.99677
   6  -4  -2 -51.904 61.9146   8 0.61363-0.18797-0.19215-0.14124 0.86638-0.98998
  -5   4   2 272.264 73.4571   7-0.69995 0.35222 0.11494 0.21817-0.82248 0.95969
   5   4  -2 348.370 59.9680   6-0.20147 0.55002 0.01767 0.31621-0.99971 0.86161
   5  -4  -2 379.538 95.2241   4-0.19239 0.54124-0.00719-0.32651-0.99995 0.86181
  -5  -4   2 469.234 102.121   9 0.20293-0.55109-0.02010-0.31316 0.99964-0.86228
  -5   4   2 472.359 106.881   6-0.34748-0.00064 0.52789-0.19504-0.82594 0.96364
   5   4  -2 314.665 78.4902   2 0.50457-0.15623 0.36722-0.03392 0.86145-0.99899
   5   4  -2 330.489 85.6864   5 0.60159-0.25352 0.25257 0.08048 0.85629-0.99427
  -5  -4   2 176.102 65.5260   3-0.55132 0.20341-0.31310-0.01985-0.86218 0.99963
  -5   4   2 301.706 74.1627   1 0.19274-0.54125 0.00828 0.32537 0.99994-0.86228
   5  -4  -2 453.226 107.980   8 0.63922-0.29094-0.20315-0.13027 0.84739-0.98536
  -4   4   2 135.181 53.8080   7-0.75327 0.48295 0.12577 0.20732-0.77410 0.92559
   4   4  -2 209.452 53.3839   6-0.13971 0.41078-0.15068 0.48473-0.98761 0.83504
   4  -4  -2 164.100 66.7700   4-0.22215 0.49348 0.07933-0.41318-0.99612 0.84358
  -4  -4   2 182.117 63.5746   9 0.23434-0.50512 0.06766-0.40093 0.99644-0.84473
  -4   4   2 150.641 55.1528   6-0.34860 0.07789 0.53323-0.20040-0.82205 0.97409
   4   4  -2 222.675 74.8469   2 0.51884-0.24789 0.38860-0.05527 0.84450-0.99641
  -4   4   2 240.637 68.4982   1 0.20853-0.47961-0.09089 0.42467 0.99556-0.84348
  -4  -4   2 194.460 64.1337   3-0.57331 0.30287-0.33550 0.00257-0.84090 0.99267
   4   4  -2 138.031 51.7734   5 0.63337-0.36270 0.27361 0.05944 0.82881-0.98114
   4  -4  -2 148.794 66.8741   8 0.67971-0.40880-0.22075-0.11270 0.81341-0.96576
   3   4  -2 56.6814 40.4062   6-0.10010 0.29368-0.25027 0.58439-0.96487 0.79786
   3  -4  -2 36.4809 32.9198   4-0.24827 0.44203 0.15960-0.49357-0.98491 0.81795
   3   4  -2 58.2729 39.5699   2 0.54051-0.34697 0.42191-0.08854 0.81556-0.98185
  -3  -4   2 49.2418 51.4417   9 0.26204-0.45544 0.14974-0.48303 0.98544-0.81938
  -3   4   2 46.3077 36.0516   6-0.35204 0.15874 0.54998-0.21717-0.80947 0.97585
  -3  -4   2 66.9015 42.5955   3-0.60585 0.41285-0.36943 0.03653-0.80479 0.97086
  -3   4   2 52.2927 33.6291   1 0.22063-0.41426-0.17711 0.51101 0.98341-0.81690
   3  -4  -2 -6.3167 41.9257   8 0.73806-0.54455-0.24668-0.08680 0.75402-0.92077
   2  -4  -2 55.2119 52.1485   4-0.27063 0.38683 0.23230-0.56635-0.96820 0.78683
  -2  -4   2 -8.1681 35.0480   9 0.28589-0.40190 0.22473-0.55803 0.96842-0.78800
  -2   4   2 28.9557 29.2725   6-0.35768 0.24179 0.57873-0.24595-0.78648 0.96718
 -10   5   2 119.503 84.9556   7-0.66096-0.07403 0.10713 0.30949-0.85244 0.91786
  10   5  -2 298.456 145.140   2 0.51374 0.22143 0.38091 0.03555 0.85073-0.91654
 -10  -5   2 -170.83 103.628   3-0.55230-0.18311-0.31410-0.10231-0.86128 0.92681
  10   5  -2 11.7960 96.1478   5 0.59082 0.14420 0.24553 0.17083 0.86481-0.93101
  10  -5  -2 -2.4127 92.8068   8 0.61812 0.11696-0.19408-0.22252 0.86317-0.92942
  -9   5   2 182.307 114.298   7-0.65802 0.00050 0.10654 0.31006-0.85454 0.93434
   9   5  -2 96.2046 74.6072   2 0.50469 0.15312 0.36740 0.04909 0.86131-0.94145
   9   5  -2 107.008 89.8435   5 0.58358 0.07405 0.24081 0.17554 0.87034-0.95089
  -9  -5   2 -4.3040 68.7717   3-0.54375-0.11415-0.30550-0.11091-0.86899 0.94893
   9  -5  -2 25.7973 67.3336   8 0.61219 0.04553-0.19154-0.22508 0.86739-0.94796
  -8   5   2 84.3699 63.0001   7-0.66159 0.08153 0.10725 0.30934-0.85199 0.94616
   8  -5  -2 -8.4046 48.6311   4-0.07795 0.65919-0.30288-0.11369-0.94784 0.85270
  -8  -5   2 -21.135 42.3972   9 0.08414-0.66442-0.31365-0.10285 0.94497-0.85066
  -8   5   2 16.9085 51.4969   6-0.35171-0.22866 0.54833-0.13213-0.81073 0.90533
   8   5  -2 13.4583 67.0146   2 0.49865 0.08179 0.35846 0.05804 0.86804-0.96251
   8   5  -2 240.938 107.273   5 0.58096-0.00072 0.23912 0.17724 0.87230-0.96720
  -8  -5   2 28.9548 46.1301   3-0.53897-0.04142-0.30072-0.11569-0.87316 0.96750
   8  -5  -2 3.43265 70.2357   8 0.61164-0.03126-0.19130-0.22534 0.86778-0.96270
  -7   5   2 320.714 104.830   7-0.67353 0.17095 0.10964 0.30693-0.84323 0.95174
   7  -5  -2 227.335 81.2878   4-0.11223 0.61602-0.21964-0.19712-0.97312 0.86369
  -7  -5   2 136.927 80.1209   9 0.11988-0.62279-0.23084-0.18568 0.97104-0.86238
  -7   5   2 266.084 100.693   6-0.34726-0.15571 0.52687-0.11067-0.82668 0.93565
   7   5  -2 221.130 78.3452   2 0.49623 0.00684 0.35491 0.06162 0.87066-0.97948
   7   5  -2 344.814 99.3496   5 0.58411-0.08126 0.24116 0.17519 0.86994-0.97920
  -7  -5   2 312.545 98.4940   3-0.53879 0.03591-0.30054-0.11586-0.87332 0.98204
   7  -5  -2 385.827 122.211   8 0.61787-0.11485-0.19397-0.22270 0.86335-0.97262
  -6   5   2 35.1005 52.9897   7-0.69633 0.27121 0.11421 0.30233-0.82544 0.94828
   6  -5  -2 83.1101 64.7483   4-0.14371 0.57002-0.13942-0.27753-0.98942 0.86564
  -6  -5   2 68.7847 57.6689   9 0.15282-0.57836-0.15052-0.26603 0.98811-0.86511
  -6   5   2 91.8339 89.9823   6-0.34435-0.08121 0.51325-0.09706-0.83632 0.95967
   6   5  -2 148.279 71.6474   2 0.49812-0.07242 0.35769 0.05887 0.86861-0.99178
   6   5  -2 40.2377 49.5511   5 0.59445-0.16900 0.24790 0.16846 0.86198-0.98559
  -6  -5   2 11.9344 52.5123   3-0.54421 0.11884-0.30596-0.11041-0.86858 0.99166
  -6   5   2 44.3304 33.9954   1 0.16397-0.58987 0.16398 0.25282 0.98629-0.86299
   6  -5  -2 -21.655 43.6307   8 0.63277-0.20710-0.20037-0.21632 0.85235-0.97598
  -5   5   2 1829.31 199.105   7-0.73304 0.38536 0.12163 0.29487-0.79358 0.93072
   5   5  -2 1653.19 194.657   2 0.50509-0.15676 0.36799 0.04861 0.86086-0.99839
  -5   5   2 1806.89 205.951   6-0.34324-0.00491 0.50816-0.09198-0.83983 0.97755
  -5  -5   2 1809.04 207.073   9 0.18287-0.53102-0.07361-0.34297 0.99728-0.85993
  -5  -5   2 1539.36 196.480   3-0.55642 0.20855-0.31827-0.09806-0.85745 0.99487
   5   5  -2 2004.79 215.093   5 0.61377-0.26571 0.26059 0.15577 0.84618-0.98415
   5  -5  -2 1807.88 217.306   8 0.65869-0.31039-0.21157-0.20515 0.83169-0.96970
  -5   5   2 1702.93 193.012   1 0.18148-0.52998 0.07242 0.34456 0.99737-0.85969
   5  -5  -2 1689.58 205.489   4-0.17230 0.52107-0.06308-0.35402-0.99793 0.85978
   4   5  -2 907.068 111.393   6-0.19031 0.46140-0.01410 0.43147-0.99989 0.84737
   4  -5  -2 947.173 149.028   4-0.19787 0.46913 0.00839-0.42564-0.99988 0.84735
  -4  -5   2 974.679 148.494   3-0.57672 0.30632-0.33900-0.07729-0.83739 0.98913
  -4  -5   2 857.992 141.158   9 0.20990-0.48067-0.00105-0.41553 0.99969-0.84799
  -4   5   2 861.411 142.910   6-0.34415 0.07342 0.51232-0.09616-0.83697 0.98904
   4   5  -2 925.619 143.583   2 0.51790-0.24696 0.38717 0.02947 0.84567-0.99758
   4   5  -2 955.735 143.757   5 0.64408-0.37342 0.28078 0.13557 0.81871-0.97103
   4  -5  -2 1225.16 188.814   8 0.69835-0.42744-0.22896-0.18780 0.79590-0.94828
  -4   5   2 814.841 134.456   1 0.19569-0.46677-0.00943 0.42656 0.99990-0.84782
   3  -5  -2 2717.02 249.440   4-0.22039 0.41408 0.07407-0.49143-0.99659 0.82965
  -3   5   2 2422.97 224.367   1 0.20701-0.40063-0.08083 0.49807 0.99646-0.82997
   3   5  -2 2928.08 253.644   2 0.53719-0.34366 0.41675-0.00006 0.82027-0.98654
   3   5  -2 2585.52 198.465   6-0.15571 0.34931-0.10867 0.52616-0.99366 0.82671
  -3   5   2 2526.46 231.887   6-0.34717 0.15387 0.52643-0.11030-0.82699 0.99341
  -3  -5   2 2623.52 236.902   9 0.23381-0.42720 0.06613-0.48273 0.99657-0.83052
  -3  -5   2 2838.00 245.077   3-0.60631 0.41335-0.36992-0.04633-0.80423 0.97028
   3   5  -2 629.721 116.014   5 0.68725-0.49400 0.31022 0.10611 0.77295-0.93961
  -2   5   2 23.6026 25.4408   1 0.21578-0.33192-0.14121 0.55853 0.98942-0.80851
   2   5  -2 75.1067 41.6967   6-0.13211 0.24820-0.17026 0.58781-0.98408 0.80271
   2  -5  -2 -19.835 27.3942   4-0.23976 0.35589 0.13296-0.55041-0.98946 0.80811
   2   5  -2 -8.0471 34.2676   2 0.56317-0.44706 0.45808-0.04136 0.78031-0.96097
  -2  -5   2 -23.812 40.3548   9 0.25451-0.37051 0.12693-0.54354 0.98929-0.80888
  -2   5   2 -11.020 30.0094   6-0.35226 0.23639 0.55106-0.13496-0.80864 0.98938
  -1   5   2 312.167 84.6588   1 0.22233-0.26099-0.19013 0.60750 0.98088-0.78556
   1  -5  -2 288.073 80.6615   4-0.25593 0.29450 0.18407-0.60157-0.98000 0.78424
  -1  -5   2 312.475 82.7799   9 0.27194-0.31056 0.18032-0.59693 0.97932-0.78456
  -1   5   2 334.337 81.8708   6-0.35914 0.32068 0.58644-0.17039-0.77999 0.97504
 -10   6   2 112.551 81.5105   7-0.68929-0.04566 0.11280 0.38725-0.83108 0.89643
  -9   6   2 395.709 153.605   7-0.68873 0.03126 0.11269 0.38735-0.83153 0.91125
  -9  -6   2 51.2267 48.9716   9 0.04243-0.70007-0.40500-0.09479 0.90531-0.82534
   9   6  -2 285.260 125.801   2 0.50919 0.14860 0.37409 0.12568 0.85613-0.93628
   9   6  -2 181.809 118.363   5 0.59884 0.05879 0.25077 0.24890 0.85850-0.93903
  -9  -6   2 225.647 88.0076   3-0.55289-0.10500-0.31470-0.18514-0.86074 0.94063
   9  -6  -2 83.1391 85.7468   8 0.63310 0.02463-0.20051-0.29940 0.85210-0.93272
  -8   6   2 84.5656 67.4388   7-0.69484 0.11485 0.11391 0.38610-0.82665 0.92073
   8  -6  -2 150.232 90.2576   4-0.06993 0.65115-0.32174-0.17825-0.94086 0.84569
  -8   6   2 2.20881 55.4645   6-0.34975-0.23068 0.53874-0.03920-0.81798 0.91257
  -8  -6   2 85.5839 71.3931   9 0.07643-0.65671-0.33094-0.16887 0.93838-0.84407
   8   6  -2 65.6305 77.0917   2 0.50388 0.07654 0.36619 0.13361 0.86223-0.95671
   8   6  -2 189.760 96.7167   5 0.59744-0.01719 0.24986 0.24981 0.85961-0.95450
  -8  -6   2 38.5251 63.5086   3-0.54899-0.03138-0.31078-0.18905-0.86430 0.95859
   8  -6  -2 -89.231 111.294   8 0.63419-0.05381-0.20098-0.29895 0.85127-0.94623
  -7   6   2 1518.55 222.872   7-0.70939 0.20687 0.11685 0.38315-0.81458 0.92301
   7   6  -2 1334.87 215.987   2 0.50195 0.00111 0.36333 0.13650 0.86440-0.97323
   7  -6  -2 1244.90 210.686   4-0.10010 0.60383-0.24961-0.25057-0.96503 0.85557
  -7   6   2 1530.55 221.190   6-0.34566-0.15735 0.51936-0.01983-0.83204 0.94102
  -7  -6   2 1094.43 185.575   9 0.10791-0.61082-0.25905-0.24079 0.96315-0.85450
   7   6  -2 1444.53 210.008   5 0.60161-0.09876 0.25259 0.24708 0.85627-0.96552
  -7  -6   2 1120.33 190.659   3-0.54946 0.04660-0.31123-0.18856-0.86388 0.97256
   7  -6  -2 1317.58 223.209   8 0.64198-0.13895-0.20434-0.29561 0.84524-0.95455
  -6   6   2 37.4880 59.1036   7-0.73464 0.30957 0.12196 0.37798-0.79209 0.91484
   6  -6  -2 104.620 86.2470   4-0.12768 0.55391-0.18077-0.31959-0.98198 0.85818
  -6   6   2 45.1351 50.9232   1 0.15491-0.58081 0.20814 0.29198 0.97775-0.85440
  -6   6   2 22.9110 48.6441   6-0.34300-0.08259 0.50706-0.00753-0.84058 0.96394
  -6  -6   2 55.0370 79.9413   9 0.13682-0.56235-0.19003-0.30983 0.98069-0.85769
   6   6  -2 128.494 77.3062   2 0.50397-0.07828 0.36632 0.13354 0.86213-0.98531
   6   6  -2 33.9638 52.1000   5 0.61261-0.18716 0.25983 0.23985 0.84716-0.97076
  -6  -6   2 17.2639 51.3250   3-0.55513 0.12978-0.31697-0.18279-0.85865 0.98169
   6  -6  -2 -17.731 63.9037   8 0.65815-0.23247-0.21134-0.28865 0.83214-0.95581
   5  -6  -2 -39.344 47.4273   4-0.15265 0.50136-0.11592-0.38459-0.99275 0.85459
  -5  -6   2 49.7124 55.6318   9 0.16311-0.51125-0.12463-0.37526 0.99196-0.85462
  -5   6   2 29.1747 58.6699   6-0.34197-0.00619 0.50240-0.00288-0.84375 0.98147
   5   6  -2 111.494 63.3871   2 0.51056-0.16226 0.37614 0.12376 0.85452-0.99205
  -5  -6   2 82.1016 55.8888   3-0.56702 0.21917-0.32904-0.17067-0.84723 0.98461
   5   6  -2 77.4298 46.7284   5 0.63196-0.28391 0.27266 0.22701 0.83011-0.96807
   5  -6  -2 75.7865 71.5990   8 0.68475-0.33644-0.22296-0.27706 0.80880-0.94684
  -5   6   2 56.7005 47.3579   1 0.17052-0.51902 0.13074 0.36954 0.99134-0.85362
  -4   6   2 48.9318 43.0928   1 0.18343-0.45447 0.06164 0.43879 0.99810-0.84600
   4   6  -2 89.8021 46.1140   6-0.22558 0.49671 0.08846 0.41224-0.99520 0.84268
   4  -6  -2 73.9329 68.9041   4-0.17495 0.44611-0.05583-0.44482-0.99839 0.84584
  -4  -6   2 -70.373 58.6491   9 0.18668-0.45744-0.06358-0.43632 0.99797-0.84628
  -4   6   2 158.544 72.5189   6-0.34275 0.07202 0.50594-0.00644-0.84135 0.99343
   4   6  -2 80.2273 59.0560   2 0.52235-0.25144 0.39393 0.10602 0.84008-0.99198
  -4  -6   2 53.5441 70.7025   3-0.58616 0.31579-0.34876-0.15090-0.82735 0.97906
   4   6  -2 -34.929 48.4609   5 0.66129-0.39066 0.29242 0.20725 0.80149-0.95379
   4  -6  -2 44.0591 77.3651   8 0.72398-0.45304-0.24036-0.25971 0.76965-0.92208
   3   6  -2 431.506 92.0440   6-0.19597 0.38960 0.00192 0.49892-0.99994 0.83302
   3  -6  -2 331.112 93.4910   4-0.19449 0.38811-0.00125-0.49951-0.99996 0.83302
   3   6  -2 321.324 90.2698   2 0.53985-0.34633 0.42088 0.07913 0.81651-0.98278
  -3  -6   2 386.687 86.9564   9 0.20747-0.40086-0.00770-0.49221 0.99972-0.83367
  -3   6   2 432.879 109.241   6-0.34542 0.15213 0.51825-0.01878-0.83282 0.99925
  -3  -6   2 425.856 102.842   3-0.61348 0.42056-0.37754-0.12206-0.79541 0.96142
  -3   6   2 318.256 84.6848   1 0.19388-0.38747 0.00145 0.49911 0.99996-0.83347
   2  -6  -2 1801.16 213.803   4-0.21123 0.32728 0.04700-0.54785-0.99854 0.81720
  -2   6   2 2135.53 228.911   1 0.20215-0.31827-0.04936 0.55001 0.99863-0.81773
   2   6  -2 1097.53 164.828   2 0.56320-0.44709 0.45811 0.04194 0.78028-0.96093
   2   6  -2 1821.19 196.276   6-0.17439 0.29051-0.05831 0.55922-0.99824 0.81691
  -2   6   2 1941.35 213.591   6-0.34997 0.23411 0.53981-0.04037-0.81718 0.99794
  -2  -6   2 1789.09 207.192   9 0.22541-0.34141 0.04218-0.54210 0.99827-0.81788
   1   6  -2 626.849 124.366   6-0.15969 0.19830-0.09810 0.59907-0.99486 0.79913
   1  -6  -2 751.658 144.760   4-0.22508 0.26358 0.08811-0.58902-0.99525 0.79951
  -1  -6   2 594.249 125.665   9 0.24041-0.27903 0.08523-0.58516 0.99474-0.80000
  -1   6   2 632.406 128.074   6-0.35618 0.31776 0.57089-0.07149-0.79293 0.98800
   1  -6  -2 -10.369 51.2156   9-0.06765 0.10634-0.62010 0.12030 0.75542-0.95016
  -1   6   2 631.956 130.565   1 0.20845-0.24708-0.09036 0.59107 0.99561-0.80030
   0  -6  -2 1106.18 170.871   4-0.23596 0.19689 0.12119-0.62214-0.99120 0.78106
   0   6   2 1410.03 187.371   1 0.21295-0.17410-0.12115 0.62190 0.99219-0.78249
   1   6   2 40.4685 51.6534   1 0.21580-0.09947-0.14136 0.64214 0.98940-0.76531
  -1  -6  -2 111.202 75.6991   4-0.24372 0.12711 0.14529-0.64626-0.98745 0.76291
  -1  -6  -2 -22.702 57.2036   9-0.06424-0.05180-0.61401 0.11422 0.76105-0.98448
   9  -7  -2 166.317 110.942   4-0.03035 0.68900-0.41170-0.17153-0.90068 0.81975
  -9   7   2 20.8754 62.6395   7-0.72478 0.06737 0.11997 0.46351-0.80112 0.88073
  -9   7   2 -3.4104 103.953   6-0.35455-0.30333 0.56250 0.02038-0.79968 0.87987
  -9  -7   2 -53.701 86.6268   9 0.03576-0.69340-0.41910-0.16400 0.89808-0.81810
   9  -7  -2 39.0306 78.8711   8 0.65858-0.00084-0.21153-0.37166 0.83178-0.91245
   8  -7  -2 102.869 78.0709   4-0.05964 0.64082-0.34562-0.23780-0.93132 0.83612
  -8   7   2 126.816 100.417   7-0.73361 0.15368 0.12175 0.46169-0.79305 0.88702
  -8   7   2 146.643 118.291   6-0.34980-0.23068 0.53897 0.04391-0.81780 0.91238
  -8  -7   2 -102.87 92.8060   9 0.06625-0.64652-0.35350-0.22963 0.92915-0.83484
   8   7  -2 102.896 69.0378   2 0.51231 0.06808 0.37877 0.20432 0.85244-0.94694
   8   7  -2 -10.426 73.6675   5 0.61807-0.03782 0.26343 0.31956 0.84249-0.93736
  -8  -7   2 -4.8684 76.7538   3-0.56265-0.01771-0.32459-0.25864-0.85151 0.94574
   8  -7  -2 145.899 111.689   8 0.66150-0.08111-0.21280-0.37041 0.82934-0.92434
  -7   7   2 874.306 171.030   7-0.75088 0.24841 0.12528 0.45813-0.77647 0.88478
   7  -7  -2 987.056 201.306   4-0.08656 0.59023-0.28237-0.30123-0.95489 0.84539
  -7   7   2 1115.73 203.846   6-0.34612-0.15693 0.52151 0.06138-0.83052 0.93949
  -7  -7   2 1075.90 210.979   9 0.09437-0.59727-0.29038-0.29277 0.95320-0.84455
   7   7  -2 874.813 176.646   2 0.51094-0.00792 0.37672 0.20641 0.85407-0.96290
  -7  -7   2 779.949 175.808   3-0.56386 0.06103-0.32583-0.25737-0.85033 0.95894
   7   7  -2 1315.84 225.822   5 0.62339-0.12054 0.26696 0.31602 0.83783-0.94706
   7  -7  -2 1142.91 215.057   8 0.67100-0.16796-0.21694-0.36631 0.82116-0.93051
   6  -7  -2 1027.80 207.996   4-0.11107 0.53724-0.22253-0.36123-0.97239 0.84856
  -6   7   2 975.578 185.813   6-0.34375-0.08188 0.51050 0.07240-0.83822 0.96158
  -6  -7   2 789.966 184.320   9 0.12009-0.54562-0.23033-0.35285 0.97117-0.84818
   6   7  -2 955.496 188.599   2 0.51322-0.08756 0.38012 0.20304 0.85136-0.97454
  -6  -7   2 791.718 164.814   3-0.56995 0.14463-0.33204-0.25111-0.84431 0.96729
   6   7  -2 748.647 162.518   5 0.63521-0.20976 0.27482 0.30816 0.82711-0.95070
   6  -7  -2 1185.84 229.912   8 0.68859-0.26290-0.22465-0.35863 0.80522-0.92895
   5  -7  -2 1102.02 197.697   4-0.13318 0.48181-0.16670-0.41721-0.98474 0.84655
  -5   7   2 947.077 156.686   6-0.34285-0.00533 0.50639 0.07650-0.84104 0.97877
  -5  -7   2 774.261 176.320   9 0.14339-0.49152-0.17396-0.40923 0.98393-0.84659
   5   7  -2 965.287 181.660   2 0.51964-0.17136 0.38981 0.19340 0.84350-0.98104
  -5   7   2 791.416 157.227   1 0.15964-0.50810 0.18536 0.39824 0.98242-0.84467
  -5  -7   2 1006.59 184.260   3-0.58173 0.23391-0.34417-0.23894-0.83213 0.96945
   5   7  -2 1155.74 189.982   5 0.65477-0.30674 0.28799 0.29499 0.80816-0.94609
   5  -7  -2 564.176 152.919   8 0.71598-0.36765-0.23679-0.34655 0.77813-0.91623
   4  -7  -2 150.461 82.0234   4-0.15281 0.42390-0.11549-0.46854-0.99281 0.84024
   4   7  -2 304.865 78.3885   6-0.25261 0.52377 0.17213 0.41188-0.98245 0.82991
  -4  -7   2 227.036 83.7905   9 0.16417-0.43491-0.12193-0.46129 0.99232-0.84064
   4   7  -2 345.631 102.857   2 0.53070-0.25980 0.40669 0.17657 0.82918-0.98108
  -4   7   2 198.523 79.4888   6-0.34356 0.07283 0.50963 0.07323-0.83882 0.99091
  -4  -7   2 241.444 98.9917   3-0.60002 0.32969-0.36327-0.21978-0.81171 0.96335
   4   7  -2 92.0662 62.5478   5 0.68340-0.41278 0.30756 0.27542 0.77740-0.92967
  -4   7   2 419.189 121.002   1 0.17144-0.44246 0.12601 0.45773 0.99196-0.83983
   3   7  -2 3430.25 315.210   2 0.54676-0.35326 0.43175 0.15157 0.80639-0.97266
   3   7  -2 3175.86 269.331   6-0.22720 0.42088 0.09337 0.49079-0.99467 0.82775
  -3   7   2 3202.08 302.655   6-0.34595 0.15267 0.52070 0.06215-0.83109 0.99753
  -3  -7   2 2931.27 294.404   9 0.18239-0.37576-0.07488-0.50834 0.99718-0.83115
  -3  -7   2 3163.09 298.678   3-0.62552 0.43265-0.39051-0.19247-0.77978 0.94573
  -3   7   2 2813.04 287.362   1 0.18111-0.37467 0.07448 0.50939 0.99722-0.83071
   3  -7  -2 2989.33 307.296   4-0.16991 0.36345-0.06958-0.51456-0.99746 0.83051
   2   7  -2 0.47332 48.5521   6-0.20783 0.32399 0.03601 0.54826-0.99909 0.81777
   2  -7  -2 -53.833 67.9951   4-0.18440 0.30039-0.02963-0.55459-0.99956 0.81822
  -2  -7   2 47.7145 61.4956   9 0.19796-0.31395-0.03353-0.54970 0.99935-0.81897
  -2   7   2 50.8158 57.4332   6-0.35000 0.23416 0.53995 0.04284-0.81707 0.99784
  -2   7   2 36.4476 60.1208   1 0.18881-0.30490 0.03119 0.55277 0.99951-0.81860
   1  -7  -2 3565.28 325.345   4-0.19620 0.23462 0.00362-0.58790-0.99993 0.80420
  -1   7   2 3810.11 331.494   1 0.19470-0.23333-0.00346 0.58749 0.99995-0.80465
   1   7  -2 3915.41 329.026   6-0.19390 0.23255-0.00396 0.58829-0.99996 0.80424
  -1   7   2 3825.78 321.639   6-0.35556 0.31716 0.56766 0.01510-0.79555 0.99063
  -1  -7   2 3729.49 320.983   9 0.21079-0.24940 0.00140-0.58462 0.99967-0.80494
   0   7   2 5.46422 55.6149   1 0.19891-0.16005-0.02908 0.61315 0.99948-0.78979
   0   7  -2 48.8976 52.4845   6-0.18481 0.14594-0.02950 0.61388-0.99957 0.78945
   0  -7  -2 67.5529 51.4974   4-0.20517 0.16605 0.02938-0.61370-0.99936 0.78923
   0  -7   2 21.5636 51.1176   9 0.22075-0.18198 0.02908-0.61232 0.99893-0.78984
   0   7   2 24.1905 35.4984   6-0.36230 0.40134 0.60381-0.02111-0.76487 0.97424
   0  -7  -2 0.43756 41.5838   9-0.05916 0.02050-0.60487 0.02177 0.76931-0.97840
   8  -8  -2 168.384 117.380   4-0.04763 0.62874-0.37309-0.29375-0.91936 0.82411
  -8   8   2 172.198 136.174   6-0.35133-0.22918 0.54646 0.11979-0.81216 0.90672
  -8  -8   2 87.9026 87.7679   9 0.05417-0.63442-0.37985-0.28659 0.91745-0.82314
   8   8  -2 70.9663 117.930   5 0.64205-0.06181 0.27942 0.38688 0.82066-0.91552
   8  -8  -2 181.006 146.191   8 0.69276-0.11236-0.22649-0.44001 0.80128-0.89635
   7  -8  -2 59.4460 94.6684   4-0.07191 0.57551-0.31711-0.34989-0.94261 0.83307
  -7   8   2 -53.005 76.5851   6-0.34807-0.15501 0.53071 0.13555-0.82390 0.93285
   7   8  -2 -51.566 66.7715   2 0.52242-0.01940 0.39401 0.27241 0.84001-0.94886
  -7  -8   2 59.6285 71.3746   9 0.07956-0.58245-0.32394-0.34253 0.94109-0.83245
  -7  -8   2 55.5741 62.1425   3-0.58115 0.07834-0.34357-0.32303-0.83274 0.94127
   7   8  -2 -26.100 88.0190   5 0.64857-0.14573 0.28380 0.38250 0.81434-0.92355
   7  -8  -2 149.230 110.857   8 0.70401-0.20095-0.23146-0.43508 0.79034-0.89976
   6  -8  -2 452.002 160.281   4-0.09394 0.52002-0.26459-0.40258-0.96057 0.83669
  -6   8   2 442.002 144.413   6-0.34599-0.07965 0.52089 0.14537-0.83096 0.95429
   6   8  -2 426.904 147.631   2 0.52499-0.09935 0.39794 0.26854 0.83671-0.95991
  -6  -8   2 200.368 147.991   9 0.10270-0.52821-0.27119-0.39530 0.95945-0.83646
  -6  -8   2 470.653 159.097   3-0.58770 0.16242-0.35037-0.31619-0.82567 0.94857
   6   8  -2 446.392 150.783   5 0.66123-0.23580 0.29236 0.37394 0.80156-0.92512
   6  -8  -2 140.198 114.561   8 0.72299-0.29728-0.23991-0.42668 0.77072-0.89451
   5  -8  -2 97.6427 76.7248   4-0.11370 0.46224-0.21602-0.45127-0.97403 0.83580
  -5   8   2 38.3882 52.7432   1 0.14866-0.49710 0.23750 0.42941 0.97088-0.83308
   5   8  -2 28.7407 61.3515   2 0.53133-0.18306 0.40766 0.25886 0.82833-0.96588
  -5   8   2 -66.717 58.5496   6-0.34523-0.00296 0.51736 0.14889-0.83345 0.97115
  -5  -8   2 -151.02 88.7793   9 0.12353-0.47165-0.22214-0.44437 0.97327-0.83593
  -5  -8   2 -64.963 72.8197   3-0.59946 0.25169-0.36269-0.30382-0.81236 0.94960
   5   8  -2 7.18122 47.3592   5 0.68106-0.33305 0.30595 0.36035 0.78006-0.91796
   4   8  -2 2896.11 320.944   2 0.54182-0.27093 0.42396 0.24262 0.81368-0.96559
  -4   8   2 2888.40 308.255   6-0.34591 0.07517 0.52051 0.14573-0.83122 0.98330
  -4  -8   2 2833.95 323.675   9 0.14202-0.41275-0.17733-0.48919 0.98328-0.83160
  -4  -8   2 2456.27 290.349   3-0.61709 0.34680-0.38142-0.28501-0.79082 0.94239
  -4   8   2 2894.37 314.505   1 0.15954-0.43054 0.18583 0.48122 0.98233-0.83016
   4  -8  -2 2901.03 336.760   4-0.13113 0.40213-0.17197-0.49546-0.98373 0.83113
   3  -8  -2 -67.352 65.3045   4-0.14617 0.33963-0.13298-0.53454-0.99040 0.82342
   3   8  -2 9.31023 61.3918   6-0.25275 0.44646 0.17259 0.49489-0.98236 0.81541
   3   8  -2 19.4093 49.8362   2 0.55671-0.36322 0.44761 0.21903 0.79096-0.95723
  -3  -8   2 113.819 78.8185   9 0.15808-0.35144-0.13736-0.52918 0.99017-0.82414
  -3   8   2 27.7936 69.8454   6-0.34806 0.15479 0.53067 0.13554-0.82392 0.99035
  -3   8   2 -13.134 67.5592   1 0.16850-0.36203 0.14116 0.52600 0.98988-0.82334
  -2   8   2 1209.30 196.658   1 0.17566-0.29172 0.10388 0.56338 0.99456-0.81363
   2  -8  -2 1054.08 200.220   4-0.15877 0.27466-0.09966-0.56794-0.99469 0.81333
   2   8  -2 1075.07 181.581   6-0.23543 0.35163 0.11841 0.54919-0.99157 0.81024
  -2  -8   2 992.149 182.856   9 0.17164-0.28761-0.10281-0.56373 0.99461-0.81423
  -2   8   2 894.845 169.293   6-0.35168 0.23586 0.54816 0.11801-0.81086 0.99162
  -1   8   2 650.300 155.621   1 0.18113-0.21971 0.07434 0.59298 0.99723-0.80192
   1  -8  -2 549.450 151.701   4-0.16878 0.20712-0.07265-0.59499-0.99723 0.80147
   1   8  -2 694.034 163.674   6-0.22249 0.26118 0.07921 0.58847-0.99611 0.80039
  -1  -8   2 418.075 117.622   9 0.18258-0.22118-0.07437-0.59217 0.99722-0.80250
  -1   8   2 484.600 145.056   6-0.35663 0.31826 0.57320 0.09292-0.79104 0.98611
   1  -8  -2 -18.133 40.9581   9-0.06342 0.10213-0.61254-0.05387 0.76239-0.95713
   0  -8  -2 2357.08 289.934   4-0.17608 0.13687-0.05271-0.61498-0.99857 0.78843
   0   8  -2 2079.78 260.801   6-0.21357 0.17474 0.05277 0.61497-0.99818 0.78807
   0   8   2 2943.65 262.163   2 0.26945-0.23098 0.05370 0.61260 0.99482-0.78556
   0  -8   2 2637.64 290.309   9 0.19077-0.15199-0.05276-0.61378 0.99859-0.78951
   0   8   2 2865.20 317.295   1 0.18498-0.14610 0.05293 0.61445 0.99860-0.78890
  -1  -8  -2 -25.775 66.3406   4-0.18045 0.06372-0.04063-0.62707-0.99917 0.77464
   1   8   2 57.9528 63.1148   1 0.18727-0.07090 0.04003 0.62737 0.99920-0.77512
  -1  -8  -2 9.80206 45.8045   9-0.06106-0.05497-0.60828-0.05812 0.76625-0.98970
   1   8   2 67.8933 55.9386   2 0.25217-0.13631 0.03265 0.63361 0.99713-0.77356
   7   9  -2 465.873 167.461   5 0.67636-0.17352 0.30271 0.44692 0.78532-0.89450
   6  -9  -2 386.000 146.116   4-0.07626 0.50226-0.30688-0.44369-0.94640 0.82246
   6   9  -2 399.371 151.735   2 0.53857-0.11294 0.41889 0.33090 0.81833-0.94154
  -6   9   2 320.659 133.472   6-0.34928-0.07638 0.53646 0.21318-0.81967 0.94297
  -6  -9   2 392.077 166.475   9 0.08466-0.51015-0.31248-0.43732 0.94540-0.82242
  -6  -9   2 500.928 155.257   3-0.60761 0.18236-0.37131-0.37866-0.80265 0.92544
   6   9  -2 118.893 61.9348   5 0.68980-0.26437 0.31199 0.43763 0.76997-0.89350
   5  -9  -2 243.089 151.274   4-0.09406 0.44251-0.26431-0.48638-0.96065 0.82238
   5   9  -2 168.328 107.711   2 0.54487-0.19661 0.42875 0.32108 0.80922-0.94678
  -5  -9   2 141.854 125.392   9 0.10344-0.45156-0.26946-0.48035 0.95998-0.82266
  -5   9   2 -169.62 86.4044   6-0.34866 0.00046 0.53350 0.21613-0.82185 0.95953
  -5  -9   2 32.9279 63.0984   3-0.61939 0.27165-0.38390-0.36600-0.78786 0.92500
   4  -9  -2 1224.71 246.483   4-0.10964 0.38055-0.22611-0.52469-0.97147 0.81883
   4   9  -2 1510.50 250.969   2 0.55487-0.28400 0.44465 0.30524 0.79390-0.94582
  -4  -9   2 1076.11 233.670   9 0.11998-0.39072-0.23061-0.51923 0.97110-0.81942
  -4   9   2 1288.07 228.359   6-0.34931 0.07858 0.53663 0.21299-0.81954 0.97158
   3  -9  -2 -121.02 84.8000   4-0.12295 0.31631-0.19278-0.55811-0.97944 0.81243
   3   9  -2 37.8484 81.7251   6-0.27442 0.46817 0.24368 0.50712-0.96496 0.79796
  -3   9   2 -87.848 82.4902   1 0.15591-0.34942 0.20332 0.54714 0.97878-0.81219
  -3  -9   2 -17.173 60.3874   9 0.13421-0.32756-0.19640-0.55344 0.97932-0.81329
  -3   9   2 -151.42 68.4286   6-0.35126 0.15799 0.54613 0.20346-0.81241 0.97881
   2  -9  -2 421.153 144.144   4-0.13390 0.24971-0.16485-0.58611-0.98508 0.80369
   2   9  -2 50.2638 60.0179   6-0.25897 0.37520 0.19258 0.55835-0.97809 0.79671
  -2  -9   2 321.934 119.093   9 0.14603-0.26200-0.16741-0.58243 0.98516-0.80479
  -2   9   2 247.937 103.680   6-0.35450 0.23869 0.56223 0.18731-0.79989 0.98062
  -2   9   2 127.707 90.0893   1 0.16257-0.27860 0.17093 0.57963 0.98509-0.80411
   1  -9  -2 280.499 113.551   4-0.14237 0.18063-0.14292-0.60808-0.98887 0.79308
   1   9  -2 283.216 106.920   6-0.24705 0.28578 0.15452 0.59650-0.98581 0.79006
  -1  -9   2 357.747 141.094   9 0.15534-0.19393-0.14423-0.60561 0.98912-0.79440
  -1   9   2 159.994 87.4661   6-0.35889 0.32055 0.58513 0.16437-0.78110 0.97615
  -1   9   2 378.695 142.786   1 0.16763-0.20618 0.14558 0.60504 0.98923-0.79388
   0  -9  -2 133.719 101.015   4-0.14820 0.10893-0.12765-0.62338-0.99117 0.78101
   0   9   2 -18.478 63.5693   6-0.36424 0.40335 0.61484 0.13461-0.75487 0.96422
   0  -9  -2 23.5084 45.7273   9-0.06523 0.02658-0.61578-0.13392 0.75942-0.96853
   0   9   2 35.1663 85.4582   1 0.17113-0.13220 0.12762 0.62304 0.99175-0.78202
   1   9   2 117.438 112.349   1 0.17308-0.05670 0.11743 0.63326 0.99303-0.76892
  -1  -9  -2 -48.283 54.7637   4-0.15118 0.03437-0.11981-0.63123-0.99224 0.76770
   1   9   2 80.5391 60.9013   2 0.31067-0.19481 0.10481 0.64479 0.98596-0.76237
  -1  -9  -2 4.78112 45.2836   9-0.06576-0.05025-0.61673-0.13298 0.75855-0.98200
   2   9   2 -12.223 56.3679   1 0.17346 0.02040 0.11544 0.63526 0.99326-0.75478
  -2  -9  -2 0.59477 70.8449   4-0.15098-0.04333-0.12032-0.63072-0.99218 0.75325
   2   9   2 -54.760 77.4299   2 0.29903-0.10581 0.09024 0.65929 0.98896-0.75106
   3 -10  -2 -129.38 108.359   4-0.09997 0.29323-0.24990-0.58435-0.96495 0.79788
  -3 -10   2 65.6186 78.7837   9 0.11054-0.30388-0.25291-0.58024 0.96496-0.79893
  -3  10   2 88.3768 83.8661   6-0.35517 0.16191 0.56568 0.26730-0.79714 0.96349
   2 -10  -2 1085.17 250.667   4-0.10949 0.22522-0.22645-0.60786-0.97138 0.78994
  -2  10   2 948.724 206.786   1 0.14945-0.26544 0.23383 0.60000 0.97179-0.79077
   2  10  -2 200.762 134.650   6-0.27948 0.39577 0.26088 0.57337-0.95981 0.77838
  -2 -10   2 988.565 214.551   9 0.12085-0.23682-0.22852-0.60463 0.97164-0.79127
  -2  10   2 1355.85 247.458   6-0.35805 0.24227 0.58066 0.25227-0.78486 0.96554
   1 -10  -2 82.2866 65.3083   4-0.11663 0.15479-0.20870-0.62565-0.97580 0.77998
  -1  10   2 137.467 103.537   1 0.15410-0.19262 0.21196 0.62194 0.97691-0.78150
  -1  10   2 96.0672 76.0572   6-0.36195 0.32362 0.60179 0.23110-0.76666 0.96166
   0 -10  -2 -10.467 80.4810   4-0.12117 0.08180-0.19727-0.63710-0.97844 0.76824
   0  10   2 219.935 80.4508   1 0.15725-0.11830 0.19689 0.63706 0.98013-0.77035
  -1 -10  -2 71.4919 79.4368   4-0.12292 0.00602-0.19287-0.64151-0.97942 0.75484
   1  10   2 -33.059 70.7853   1 0.15890-0.04246 0.18896 0.64501 0.98172-0.75756
  12   0  -3 181.838 132.176   8 0.72112 0.14951-0.23907 0.23888 0.77272-0.91506
 -11   0   3 49.0936 112.680   7-0.72142-0.07145 0.11928-0.11986-0.80412 0.95976
  11   0  -3 -132.19 84.9251   8 0.71385 0.07939-0.23584 0.23564 0.78035-0.93703
 -10   0   3 -6.6260 76.4897   7-0.71901 0.00356 0.11880-0.11937-0.80625 0.97626
  10   0  -3 134.002 103.975   8 0.71098 0.00489-0.23456 0.23436 0.78331-0.95434
  -9   0   3 -87.118 56.1810   7-0.72237 0.08434 0.11947-0.12003-0.80328 0.98765
   9   0  -3 -87.029 106.686   8 0.71354-0.07506-0.23570 0.23550 0.78067-0.96605
  -7   0   3 -0.9850 32.7442   7-0.75225 0.26903 0.12556-0.12609-0.77511 0.98816
 -11   1   3 18.1257 87.0638   7-0.71573-0.07715 0.11813-0.03535-0.80913 0.96478
 -11  -1   3 -49.968 97.1482   7-0.73343-0.05942 0.12172-0.20565-0.79321 0.94882
  11   1  -3 188.140 108.447   5 0.68570 0.10723 0.30916-0.22601 0.77474-0.93154
  11  -1  -3 310.305 165.445   8 0.70043 0.09278-0.22988 0.14636 0.79387-0.95055
  11   1  -3 -58.005 108.689   8 0.73390 0.05937-0.24481 0.32794 0.75873-0.91542
 -10   1   3 3.21824 83.2354   7-0.71293-0.00251 0.11757-0.03477-0.81155 0.98158
 -10  -1   3 12.3114 87.5395   7-0.73191 0.01646 0.12141-0.20531-0.79462 0.96461
  10   1  -3 145.759 102.941   5 0.68125 0.03431 0.30609-0.22293 0.77984-0.95098
  10  -1  -3 124.755 68.4260   8 0.69668 0.01917-0.22822 0.14470 0.79752-0.96855
  10   1  -3 -146.32 79.8280   8 0.73243-0.01654-0.24415 0.32729 0.76038-0.93142
  -9   1   3 131.540 99.5361   7-0.71577 0.07776 0.11814-0.03534-0.80909 0.99347
  -9  -1   3 49.2439 100.873   7-0.73630 0.09826 0.12230-0.20619-0.79053 0.97488
   9   1  -3 106.292 79.8006   5 0.68156-0.04336 0.30629-0.22316 0.77949-0.96498
   9  -1  -3 263.730 111.944   8 0.69814-0.05966-0.22886 0.14533 0.79611-0.98150
   9   1  -3 -67.842 93.1090   8 0.73664-0.09815-0.24604 0.32919 0.75563-0.94103
  -8   1   3 982.789 190.873   7-0.72563 0.16504 0.12014-0.03733-0.80035 0.99909
  -8  -1   3 802.571 174.204   7-0.74804 0.18739 0.12469-0.20856-0.77927 0.97797
   8   1  -3 225.079 87.9673   5 0.68767-0.12685 0.31053-0.22739 0.77246-0.97230
   8  -1  -3 1238.01 224.492   8 0.70601-0.14492-0.23236 0.14882 0.78834-0.98808
  -7   1   3 28.9111 46.9335   7-0.74414 0.26096 0.12390-0.04109-0.78307 0.99614
  -7  -1   3 -124.65 56.8246   7-0.76874 0.28548 0.12894-0.21279-0.75815 0.97118
   7  -1  -3 9.24986 47.1035   4-0.24146 0.72624 0.13823-0.22165-0.98862 0.77414
  -7  -1   3 67.0739 34.8392   9 0.24804-0.73162 0.10765-0.19095 0.99206-0.77879
   7  -1  -3 42.1244 65.6343   8 0.72173-0.23803-0.23935 0.15581 0.77206-0.98618
 -11   2   3 21.2534 65.3659   7-0.71618-0.07670 0.11822 0.04794-0.80873 0.96439
 -11  -2   3 6.59201 86.2462   7-0.75185-0.04101 0.12548-0.29271-0.77550 0.93110
  11   2  -3 169.670 119.900   5 0.67407 0.11887 0.30115-0.13472 0.78785-0.94462
  11  -2  -3 161.166 127.182   8 0.69333 0.09986-0.22674 0.05991 0.80074-0.95743
  -9   2   3 688.129 185.532   7-0.71630 0.07830 0.11825 0.04793-0.80863 0.99302
  -9  -2   3 180.181 110.920   7-0.75761 0.11954 0.12666-0.29385-0.76971 0.95404
   9   2  -3 948.449 185.467   5 0.66850-0.03030 0.29732-0.13091 0.79389-0.97937
   9  -2  -3 764.356 183.217   8 0.69007-0.05161-0.22530 0.05846 0.80384-0.98922
  -8   2   3 1216.51 237.727   7-0.72602 0.16545 0.12021 0.04596-0.80000 0.99874
   8   2  -3 1911.23 242.155   5 0.67347-0.11265 0.30073-0.13433 0.78851-0.98834
   8  -2  -3 2119.86 292.241   8 0.69711-0.13602-0.22840 0.06155 0.79711-0.99686
  -7   2   3 105.493 79.1973   7-0.74419 0.26105 0.12391 0.04226-0.78302 0.99609
   7  -2  -3 65.7033 57.9086   4-0.22279 0.70752 0.08123-0.24808-0.99594 0.78146
  -7  -2   3 142.963 61.2371   9 0.23075-0.71432 0.05737-0.22399 0.99727-0.78401
   7   2  -3 31.1884 39.5281   5 0.68507-0.20162 0.30872-0.14233 0.77548-0.98966
   7  -2  -3 -5.6135 64.5673   8 0.71166-0.22797-0.23487 0.06800 0.78260-0.99672
   6  -2  -3 -59.307 59.0651   8 0.73520-0.32889-0.24539 0.07851 0.75727-0.98577
 -11   3   3 1400.60 295.619   7-0.72252-0.07036 0.11951 0.13006-0.80314 0.95880
 -11  -3   3 1070.47 215.553   3-0.63060-0.16255-0.39603 0.14669-0.77288 0.92866
  11   3  -3 1994.43 321.684   5 0.66839 0.12456 0.29725-0.04755 0.79401-0.95077
  11  -3  -3 2241.81 378.128   8 0.69212 0.10105-0.22621-0.02392 0.80189-0.95859
 -10   3   3 308.375 152.965   7-0.72030 0.00488 0.11906 0.13052-0.80511 0.97515
 -10  -3   3 84.8238 74.3365   3-0.62408-0.09157-0.38896 0.13960-0.78170 0.95188
  10   3  -3 -99.388 108.580   5 0.66318 0.05239 0.29370-0.04401 0.79952-0.97063
  10  -3  -3 128.918 88.0233   8 0.68803 0.02778-0.22440-0.02573 0.80575-0.97679
  -9   3   3 455.656 138.153   7-0.72358 0.08561 0.11972 0.12985-0.80220 0.98658
  -9  -3   3 374.281 116.620   3-0.62113-0.01704-0.38576 0.13640-0.78560 0.97017
   9   3  -3 312.780 117.389   5 0.66230-0.02410 0.29309-0.04341 0.80044-0.98591
   9  -3  -3 383.067 118.270   8 0.68879-0.05036-0.22474-0.02541 0.80503-0.99042
  -8   3   3 143.817 75.5092   7-0.73364 0.17312 0.12176 0.12780-0.79302 0.99175
   8  -3  -3 146.320 73.6342   4-0.16099 0.72312-0.09369-0.15639-0.99532 0.79523
  -8  -3   3 277.036 94.6778   9 0.16772-0.72866-0.11287-0.13704 0.99346-0.79456
  -8  -3   3 153.287 82.8566   3-0.62242 0.06173-0.38715 0.13779-0.78391 0.98284
   8   3  -3 287.991 110.136   5 0.66663-0.10581 0.29606-0.04637 0.79588-0.99570
   8  -3  -3 226.122 105.487   8 0.69550-0.13442-0.22770-0.02247 0.79866-0.99841
   7  -3  -3 1564.85 217.590   4-0.20476 0.68944 0.02819-0.27847-0.99941 0.78494
  -7   3   3 1060.76 180.052   7-0.75195 0.26886 0.12550 0.12405-0.77540 0.98846
  -7   3   3 1486.76 181.030   1 0.20018-0.68424-0.03694 0.28735 0.99920-0.78553
  -7  -3   3 1406.96 186.796   9 0.21354-0.69711 0.00899-0.25893 0.99955-0.78630
  -7  -3   3 995.045 167.769   3-0.62871 0.14548-0.39399 0.14461-0.77546 0.98875
   7   3  -3 1157.34 183.239   5 0.67723-0.19379 0.30331-0.05364 0.78436-0.99853
   7  -3  -3 1519.68 255.017   8 0.70941-0.22571-0.23386-0.01632 0.78490-0.99902
   6  -3  -3 95.4133 90.8535   4-0.24314 0.65032 0.14349-0.39393-0.98776 0.75887
 -11  -4   3 614.633 199.658   3-0.62527-0.16791-0.39024 0.05752-0.78012 0.93590
 -10   4   3 12.3191 73.6060   7-0.73304 0.01764 0.12163 0.21135-0.79358 0.96358
 -10  -4   3 132.284 115.959   3-0.61881-0.09687-0.38327 0.05054-0.78861 0.95880
  10   4  -3 106.355 96.9422   5 0.66304 0.05255 0.29360 0.03938 0.79967-0.97077
  10  -4  -3 253.966 177.128   8 0.69264 0.02316-0.22644-0.10699 0.80140-0.97245
  -9   4   3 73.9178 49.8991   7-0.73715 0.09922 0.12247 0.21050-0.78973 0.97409
   9   4  -3 71.4182 69.7385   2 0.56714 0.07146 0.46457-0.13127 0.77353-0.95837
  -9  -4   3 3.07192 70.4531   3-0.61572-0.02246-0.37996 0.04723-0.79256 0.97714
   9   4  -3 -75.477 94.7999   5 0.66218-0.02398 0.29301 0.03996 0.80057-0.98602
   9  -4  -3 72.3134 87.5141   8 0.69369-0.05526-0.22690-0.10654 0.80039-0.98580
  -8   4   3 154.577 74.7974   7-0.74795 0.18746 0.12468 0.20828-0.77936 0.97807
   8  -4  -3 341.693 110.208   4-0.14925 0.71135-0.12488-0.20862-0.99156 0.79145
   8   4  -3 152.274 93.7354   2 0.56566-0.00443 0.46213-0.12882 0.77609-0.97528
  -8  -4   3 327.092 105.129   9 0.15674-0.71767-0.14072-0.19251 0.98966-0.79077
  -8  -4   3 382.242 137.160   3-0.61664 0.05594-0.38094 0.04821-0.79140 0.99034
   8   4  -3 224.635 106.694   5 0.66630-0.10548 0.29582 0.03715 0.79623-0.99604
   8  -4  -3 351.214 146.011   8 0.70048-0.13942-0.22990-0.10357 0.79382-0.99358
  -7   4   3 -79.282 57.2450   7-0.76677 0.28372 0.12854 0.20440-0.76023 0.97326
   7  -4  -3 296.775 112.847   4-0.18697 0.67159-0.02248-0.31123-0.99975 0.78527
  -7  -4   3 80.5072 68.1604   9 0.19619-0.67976-0.03827-0.29498 0.99920-0.78596
  -7  -4   3 334.987 122.791   3-0.62224 0.13902-0.38696 0.05425-0.78414 0.99743
  -7   4   3 185.466 79.0496   1 0.18947-0.67352 0.02739 0.30636 0.99962-0.78593
   7   4  -3 152.728 80.1777   5 0.67634-0.19291 0.30270 0.03027 0.78534-0.99951
   7  -4  -3 115.693 72.4390   8 0.71418-0.23048-0.23599-0.09751 0.78001-0.99414
   6  -4  -3 8.32834 80.4929   4-0.22054 0.62765 0.07451-0.40837-0.99655 0.76768
  -6   4   3 28.5950 64.5187   1 0.20836-0.61501-0.08979 0.42369 0.99566-0.76753
   6  -4  -3 -39.191 76.8158   8 0.73602-0.32970-0.24576-0.08775 0.75634-0.98485
 -10   5   3 90.7251 67.7051   7-0.75120 0.03582 0.12534 0.29107-0.77616 0.94611
 -10  -5   3 136.556 93.3129   3-0.61836-0.09735-0.38279-0.03334-0.78919 0.95937
  10   5  -3 -4.6739 83.3736   5 0.66789 0.04770 0.29691 0.11937 0.79454-0.96563
  10  -5  -3 260.033 157.910   8 0.70246 0.01334-0.23077-0.18595 0.79188-0.96296
  -9   5   3 142.054 86.2416   7-0.75645 0.11855 0.12642 0.28998-0.77089 0.95520
   9   5  -3 352.998 146.050   2 0.56324 0.07533 0.45818-0.04159 0.78021-0.96503
  -9  -5   3 120.833 108.932   3-0.61543-0.02277-0.37964-0.03648-0.79293 0.97751
   9   5  -3 295.141 141.372   5 0.66736-0.02915 0.29655 0.11972 0.79511-0.98055
   9  -5  -3 162.163 114.467   8 0.70410-0.06567-0.23150-0.18524 0.79025-0.97568
  -8   5   3 -1.0211 46.8800   7-0.76826 0.20781 0.12885 0.28753-0.75866 0.95730
   8  -5  -3 -45.761 81.7669   4-0.13603 0.69808-0.15936-0.25756-0.98608 0.78597
   8   5  -3 45.4046 57.3211   2 0.56168-0.00049 0.45565-0.03904 0.78282-0.98199
  -8  -5   3 14.2002 64.8212   9 0.14393-0.70486-0.17262-0.24392 0.98419-0.78530
  -8  -5   3 -45.293 70.7233   3-0.61627 0.05557-0.38054-0.03557-0.79187 0.99081
   8   5  -3 92.3012 87.4493   5 0.67159-0.11077 0.29944 0.11684 0.79056-0.99036
   8  -5  -3 -9.0995 91.9864   8 0.71130-0.15024-0.23471-0.18206 0.78297-0.98276
  -7   5   3 214.258 84.8584   1 0.17902-0.66307 0.08580 0.33127 0.99630-0.78259
   7  -5  -3 128.250 111.235   4-0.16915 0.65372-0.07163-0.34548-0.99731 0.78283
   7   5  -3 54.3897 76.5499   2 0.56342-0.07960 0.45848-0.04185 0.77990-0.99343
  -7  -5   3 127.639 88.9623   9 0.17858-0.66214-0.08481-0.33175 0.99637-0.78314
   7   5  -3 194.875 96.8863   5 0.68141-0.19799 0.30620 0.11008 0.77966-0.99382
   7  -5  -3 88.8175 91.6078   8 0.72512-0.24142-0.24087-0.17593 0.76842-0.98258
  -6   5   3 33.6735 57.6731   1 0.19635-0.60299-0.01338 0.43062 0.99985-0.77171
   6  -5  -3 29.2007 165.246   4-0.19888 0.60592 0.01125-0.42854-0.99984 0.77097
  -6  -5   3 239.641 106.323   9 0.20980-0.61597-0.00133-0.41525 0.99969-0.77211
   9   6  -3 494.435 163.921   2 0.56324 0.07528 0.45818 0.04169 0.78021-0.96503
  -9  -6   3 236.499 98.6950   3-0.61941-0.01880-0.38391-0.11562-0.78784 0.97238
   9   6  -3 550.440 181.929   5 0.67709-0.03888 0.30321 0.19636 0.78451-0.96995
   9  -6  -3 299.207 147.609   8 0.71934-0.08091-0.23828-0.26175 0.77461-0.96008
   8  -6  -3 446.500 164.049   4-0.12168 0.68367-0.19600-0.30434-0.97873 0.77859
   8   6  -3 621.615 183.113   2 0.56180-0.00063 0.45583 0.04407 0.78263-0.98180
  -8  -6   3 303.275 146.636   9 0.12973-0.69066-0.20723-0.29262 0.97687-0.77799
  -8  -6   3 814.158 190.636   3-0.62039 0.05970-0.38497-0.11455-0.78656 0.98548
   8   6  -3 457.104 168.467   5 0.68164-0.12083 0.30635 0.19323 0.77939-0.97918
   8  -6  -3 169.158 124.906   8 0.72718-0.16611-0.24179-0.25827 0.76618-0.96600
   7  -6  -3 419.839 168.955   4-0.15119 0.63569-0.11977-0.38075-0.99225 0.77775
   7   6  -3 472.920 140.588   2 0.56341-0.07962 0.45846 0.04147 0.77992-0.99344
  -7  -6   3 701.247 170.938   9 0.16064-0.64418-0.13089-0.36899 0.99110-0.77788
  -7  -6   3 687.325 174.854   3-0.62548 0.14228-0.39046-0.10902-0.77984 0.99311
  -7   6   3 340.045 122.377   1 0.16862-0.65264 0.14053 0.35985 0.98997-0.77622
   6  -6  -3 78.2648 98.4665   4-0.17777 0.58474-0.04805-0.45265-0.99882 0.76995
  -6   6   3 123.597 107.929   1 0.18459-0.59121 0.05514 0.44542 0.99848-0.77033
   9  -7  -3 -116.62 127.027   4-0.07711 0.71653-0.30486-0.27870-0.94713 0.76126
   9  -7  -3 -530.95 206.573   8 0.73873-0.10029-0.24698-0.33634 0.75325-0.93877
   8  -7  -3 -7.2975 131.055   4-0.10637 0.66832-0.23417-0.34958-0.96934 0.76917
   8   7  -3 63.2697 43.8298   2 0.56520-0.00406 0.46138 0.12182 0.77688-0.97606
  -8  -7   3 245.474 93.6228   3-0.62818 0.06750-0.39340-0.18952-0.77619 0.97506
   7  -7  -3 -85.966 123.038   4-0.13298 0.61741-0.16722-0.41672-0.98464 0.77012
   7   7  -3 17.7459 69.7294   2 0.56682-0.08306 0.46404 0.11919 0.77408-0.98762
  -7   7   3 66.2491 66.1975   1 0.15809-0.64211 0.19287 0.39083 0.98094-0.76714
   5  -7  -3 58.4198 102.518   4-0.17832 0.50766-0.04654-0.53769-0.99890 0.75563
  -5   7   3 51.2627 64.5719   1 0.18520-0.51435 0.05172 0.53230 0.99867-0.75608
   7  -8  -3 -136.41 130.671   4-0.11445 0.59879-0.21415-0.45320-0.97449 0.75993
   6  -8  -3 28.4279 122.745   4-0.13622 0.54303-0.15887-0.50861-0.98617 0.75725
  -6   8   3 104.505 91.9018   1 0.16120-0.56777 0.17769 0.48949 0.98386-0.75564
   0   0   0    0.00    0.00
  -2  -2  -1 -3.2264 8.37683   9-0.06684-0.10722-0.61867 0.45210 0.75675-0.88998
  -5   6   3 50.5138 43.6854   1 0.19760-0.52677-0.02096 0.52166 0.99970-0.75713
   5  -6  -3 -54.577 56.4761   4-0.20144 0.53087 0.01860-0.51943-0.99969 0.75642
   5  -5  -3 33.4684 100.523   4-0.22521 0.55471 0.08852-0.50595-0.99521 0.75194
  -5   5   3 -3.1569 34.6094   1 0.21007-0.53926-0.10131 0.51868 0.99450-0.75193
  -6   3   3 -20.961 54.1900   1 0.22078-0.62744-0.17820 0.42876 0.98320-0.75506
   6  -3  -3 -7.1739 44.7701   8 0.73189-0.32558-0.24390-0.00630 0.76098-0.98948
   0  -5  -2 59.0314 44.0068   4-0.26887 0.22987 0.22641-0.64397-0.96979 0.75962
   0   5   2 26.2703 33.6082   1 0.22697-0.18814-0.22726 0.64467 0.97266-0.76293
  -5   8   3 6.19732 56.6533   1 0.17280-0.50193 0.11888 0.54845 0.99285-0.75024
   5  -8  -3 -121.83 106.950   4-0.15560 0.48486-0.10809-0.55952-0.99372 0.75043
   0  -4   1 224.192 83.2140   4-0.00892 0.02796-0.45826 0.12507-0.87505 0.97974
   0  -4  -1 219.313 47.2264   7-0.60496 0.58528 0.09603-0.42909-0.88894 0.78458
   0  -4   1 327.841 90.3247   9 0.25464-0.23525 0.12732-0.46060 0.98923-0.88469
   0   4  -1 232.872 88.0645   6-0.14828 0.12884-0.12831 0.46222-0.99109 0.88607
   0  -4  -1 211.929 80.4265   4-0.23816 0.21859 0.12800-0.46190-0.99021 0.88516
   0   4  -1 124.767 62.6445   2 0.54900-0.56839 0.43527-0.10187 0.80303-0.90770
   0   4   1 366.169 88.6786   6-0.33165 0.35118 0.45730-0.12432-0.87232 0.97704
   0  -4  -1 275.205 87.0967   9 0.01701-0.03634-0.45798 0.12478 0.87648-0.98104
   0   4   1 275.467 92.2432   1 0.21391-0.19449-0.12793 0.46167 0.99130-0.88648
   2   7   2 18.7492 50.2307   1 0.20250-0.00869-0.05158 0.63569 0.99851-0.76005
  -2  -7  -2 -20.314 39.3947   4-0.21385 0.01966 0.05470-0.63904-0.99807 0.75916
  -2  -7  -2 -12.848 40.2671   9-0.06486-0.12854-0.61512 0.03204 0.76003-0.99782
  -1   4   2 -58.210 30.2048   6-0.36504 0.32655 0.61953-0.28677-0.75054 0.94554
  -1  -2  -1 1032.81 107.034   9-0.05716-0.03955-0.60123 0.43465 0.77253-0.89141
  -2  -8  -2 -19.289 52.2031   4-0.18161-0.01264-0.03743-0.63027-0.99930 0.76039
   2   8   2 -22.083 62.2370   1 0.18796 0.00587 0.03609 0.63132 0.99935-0.76089
  -2  -8  -2 -63.752 88.0256   9-0.06533-0.12806-0.61596-0.05043 0.75926-0.99705
  -6   7   3 205.447 111.213   1 0.17291-0.57952 0.11831 0.46557 0.99292-0.76474
   6  -7  -3 46.9378 135.569   4-0.15695 0.56384-0.10449-0.47960-0.99414 0.76525
   4   2  -1 190.021 77.9669   2 0.39993-0.10968 0.22036-0.05376 0.94843-0.99564
  -4   2   1 119.248 65.8557   7-0.47962 0.18962 0.07162 0.09492-0.94833 0.99548
  -4  -2   1 148.109 70.3199   7-0.55391 0.26379 0.08603-0.25286-0.91649 0.96360
   4   2  -1 184.655 61.3341   8 0.59481-0.30457-0.18413 0.35077 0.87923-0.92665
  -4   2   1 249.069 62.2456   1 0.18057-0.47092 0.07739 0.08929 0.99700-0.94976
   4  -2  -1 192.146 54.7318   5 0.62568-0.33552 0.26848-0.43505 0.83579-0.88333
   4  -2  -1 200.930 69.9263   4-0.17283 0.46350-0.06162-0.10504-0.99803 0.95055
  -4   2   1 167.804 70.6481   6-0.30976 0.01958 0.36977-0.20330-0.91819 0.96554
  -4  -2   1 119.065 56.6397   3-0.41944 0.12927-0.18582 0.01931-0.95096 0.99820
   4  -2  -1 319.187 96.4210   8 0.45289-0.16269-0.12493-0.04175 0.95145-0.99887
  -4  -2   1 156.770 57.1011   9 0.18108-0.47122-0.07831-0.08830 0.99691-0.94977
  -4  -2   1 179.914 41.1186   1 0.21715-0.50750-0.15114-0.01547 0.98790-0.94070
   8  -8  -3 77.4977 115.589   4-0.09027 0.65213-0.27347-0.39370-0.95779 0.75756
 -10   2   3 74.3408 132.843   7-0.71346-0.00197 0.11767 0.04850-0.81109 0.98113
 -10  -2   3 56.1106 72.9905   7-0.75168 0.03623 0.12544-0.29266-0.77568 0.94564
   4   1   0 49.7946 33.2497   8 0.16913 0.14036-0.01172 0.09507 0.99979-0.94237
   4  -1   0 33.7383 19.7357   4 0.02417 0.28558-0.52724 0.44430-0.83020 0.88742
   4  -1   0 30.6974 26.0387   8 0.16339 0.14606-0.00949-0.07375 0.99970-0.94232
  -4  -1   0 56.3820 34.8814   7-0.16959-0.14014 0.01305-0.09645-0.99978 0.94232
  -4   1   0 49.6029 31.7376   7-0.16289-0.14687 0.01181 0.07156-0.99967 0.94221
  -4   1   0 23.1744 19.6013   6-0.17866-0.13114-0.04657 0.13001-0.99890 0.94143
  -4  -1   0 36.8394 24.2542   9-0.02186-0.28760-0.53516 0.45193 0.82570-0.88308
  -1  -7  -2 223.508 97.1978   4-0.21115 0.09448 0.04676-0.63110-0.99855 0.77403
  -1  -7  -2 32.2158 31.2389   9-0.06012-0.05591-0.60659 0.02351 0.76776-0.99120
  12   1   0 -16.246 65.2324   8 0.48034 0.44819-0.13622 0.21961 0.94050-0.76834
;
_shelx_hkl_checksum              50650
loop_
_space_group_symop_operation_xyz
'x, y, z'
'-x+1/2, y+1/2, -z'
'-x, -y, -z'
'x-1/2, -y-1/2, z'
loop_
_atom_site_label
_atom_site_type_symbol
_atom_site_fract_x
_atom_site_fract_y
_atom_site_fract_z
_atom_site_U_iso_or_equiv
_atom_site_adp_type
_atom_site_occupancy
_atom_site_site_symmetry_order
_atom_site_calc_flag
_atom_site_refinement_flags_posn
_atom_site_refinement_flags_adp
_atom_site_refinement_flags_occupancy
_atom_site_disorder_assembly
_atom_site_disorder_group
C1 C 0.6842(7) 0.2902(7) 0.795(3) 0.033(12) Uani 1 1 d . . . . .
H1D H 0.589349 0.240301 0.780966 0.040 Uiso 1 1 calc R U . . .
H1E H 0.713034 0.324907 0.931217 0.040 Uiso 1 1 calc R U . . .
C2 C 0.7954(8) 0.1754(6) 0.744(3) 0.055(12) Uani 1 1 d . . . . .
N1 N 0.6774(6) 0.4254(5) 0.660(2) 0.028(9) Uani 1 1 d . . . . .
H1A H 0.643987 0.393631 0.536624 0.033 Uiso 1 1 calc R U . . .
H1B H 0.766290 0.465894 0.667638 0.033 Uiso 1 1 calc R U . . .
H1C H 0.617911 0.498076 0.693332 0.033 Uiso 1 1 calc R U . . .
O1 O 0.5166(7) 0.8629(6) 0.973(3) 0.035(11) Uani 1 1 d D . . . .
H1 H 0.532782 0.957590 0.981973 0.042 Uiso 0.5 1 calc DR U P . .
O2 O 0.4628(5) 0.6444(4) 0.724(2) 0.024(9) Uani 1 1 d . . . . .
O3 O 0.4431(5) 0.9259(5) 0.6194(19) 0.033(9) Uani 1 1 d D . . . .
H3 H 0.502288 0.974210 0.567815 0.039 Uiso 0.5 1 calc DR U P . .
O4 O 0.8587(6) 0.1887(5) 0.6128(19) 0.035(8) Uani 1 1 d . . . . .
O5 O 0.8108(6) 0.0573(5) 0.877(2) 0.060(9) Uani 1 1 d . . . . .
H5 H 0.870118 -0.006536 0.850051 0.072 Uiso 1 1 calc R U . . .
P1 P 0.5228(2) 0.8089(2) 0.7660(9) 0.030(4) Uani 1 1 d . . . . .
H1P H 0.625409 0.807980 0.751799 0.036 Uiso 1 1 calc R U . . .
loop_
_atom_site_aniso_label
_atom_site_aniso_U_11
_atom_site_aniso_U_22
_atom_site_aniso_U_33
_atom_site_aniso_U_23
_atom_site_aniso_U_13
_atom_site_aniso_U_12
C1 0.026(4) 0.024(3) 0.05(4) 0.005(6) 0.014(9) 0.004(3)
C2 0.020(4) 0.012(3) 0.14(4) 0.002(6) 0.020(10) -0.005(2)
N1 0.020(3) 0.016(2) 0.05(3) 0.002(5) 0.004(7) 0.000(2)
O1 0.060(4) 0.016(3) 0.04(4) -0.006(6) 0.027(10) 0.008(3)
O2 0.029(3) 0.015(2) 0.03(3) -0.007(4) 0.000(6) -0.0062(17)
O3 0.028(3) 0.023(2) 0.05(3) 0.017(5) 0.005(7) 0.0047(19)
O4 0.025(3) 0.022(2) 0.06(3) -0.001(5) 0.018(7) 0.0009(19)
O5 0.039(3) 0.017(2) 0.13(3) 0.010(5) 0.033(7) 0.0067(18)
P1 0.0184(10) 0.0128(9) 0.059(12) 0.0020(19) 0.011(3) -0.0005(7)
loop_
_atom_type_symbol
_atom_type_description
_atom_type_scat_dispersion_real
_atom_type_scat_dispersion_imag
_atom_type_scat_source
C C 0.0033 0.0016 'International Tables Vol C Tables 4.2.6.8 and 6.1.1.4'
H H 0.0000 0.0000 'International Tables Vol C Tables 4.2.6.8 and 6.1.1.4'
N N 0.0061 0.0033 'International Tables Vol C Tables 4.2.6.8 and 6.1.1.4'
O O 0.0106 0.0060 'International Tables Vol C Tables 4.2.6.8 and 6.1.1.4'
P P 0.1023 0.0942 'International Tables Vol C Tables 4.2.6.8 and 6.1.1.4'
loop_
_geom_angle_atom_site_label_1
_geom_angle_atom_site_label_2
_geom_angle_atom_site_label_3
_geom_angle
_geom_angle_site_symmetry_1
_geom_angle_site_symmetry_3
_geom_angle_publ_flag
N1 C1 C2 107.7(12) . . ?
N1 C1 H1D 110.2 . . ?
C2 C1 H1D 110.2 . . ?
N1 C1 H1E 110.2 . . ?
C2 C1 H1E 110.2 . . ?
H1D C1 H1E 108.5 . . ?
O4 C2 O5 126.1(7) . . ?
O4 C2 C1 125.7(12) . . ?
O5 C2 C1 108.2(14) . . ?
C1 N1 H1A 109.5 . . ?
C1 N1 H1B 109.5 . . ?
H1A N1 H1B 109.5 . . ?
C1 N1 H1C 109.5 . . ?
H1A N1 H1C 109.5 . . ?
H1B N1 H1C 109.5 . . ?
P1 O1 H1 109.5 . . ?
P1 O3 H3 109.5 . . ?
C2 O5 H5 109.5 . . ?
O1 P1 O3 109.3(5) . . ?
O1 P1 O2 112.7(6) . . ?
O3 P1 O2 111.2(6) . . ?
O1 P1 H1P 107.8 . . ?
O3 P1 H1P 107.8 . . ?
O2 P1 H1P 107.8 . . ?
loop_
_geom_bond_atom_site_label_1
_geom_bond_atom_site_label_2
_geom_bond_distance
_geom_bond_site_symmetry_2
_geom_bond_publ_flag
C1 N1 1.476(14) . ?
C1 C2 1.515(12) . ?
C1 H1D 0.9700 . ?
C1 H1E 0.9700 . ?
C2 O4 1.171(18) . ?
C2 O5 1.350(17) . ?
N1 H1A 0.8900 . ?
N1 H1B 0.8900 . ?
N1 H1C 0.8900 . ?
O1 P1 1.508(18) . ?
O1 H1 0.8200 . ?
O2 P1 1.516(5) . ?
O3 P1 1.512(10) . ?
O3 H3 0.8200 . ?
O5 H5 0.8200 . ?
P1 H1P 0.9800 . ?
loop_
_geom_hbond_atom_site_label_D
_geom_hbond_atom_site_label_H
_geom_hbond_atom_site_label_A
_geom_hbond_distance_DH
_geom_hbond_distance_HA
_geom_hbond_distance_DA
_geom_hbond_angle_DHA
_geom_hbond_site_symmetry_A
_geom_hbond_publ_flag
N1 H1A O2 0.89 1.91 2.78(2) 167.4 3_666 yes
N1 H1B O3 0.89 1.97 2.842(7) 165.9 4_675 yes
N1 H1C O2 0.89 1.95 2.829(7) 169.4 . yes
O1 H1 O1 0.82 1.64 2.392(11) 151.0 3_677 yes
O3 H3 O3 0.82 1.70 2.464(18) 154.1 3_676 yes
O5 H5 O2 0.82 1.78 2.573(9) 162.9 4_665 yes
loop_
_geom_torsion_atom_site_label_1
_geom_torsion_atom_site_label_2
_geom_torsion_atom_site_label_3
_geom_torsion_atom_site_label_4
_geom_torsion
_geom_torsion_site_symmetry_1
_geom_torsion_site_symmetry_2
_geom_torsion_site_symmetry_3
_geom_torsion_site_symmetry_4
_geom_torsion_publ_flag
N1 C1 C2 O4 -3.5(19) . . . . ?
N1 C1 C2 O5 175.2(9) . . . . ?

_cod_database_fobs_code 2109036
