#------------------------------------------------------------------------------
#$Date: 2022-09-02 04:49:51 +0300 (Fri, 02 Sep 2022) $
#$Revision: 277573 $
#$URL: file:///home/coder/svn-repositories/cod/cif/2/10/90/2109042.cif $
#------------------------------------------------------------------------------
#
# This file is available in the Crystallography Open Database (COD),
# http://www.crystallography.net/. The original data for this entry
# were provided by IUCr Journals, http://journals.iucr.org/.
#
# The file may be used within the scientific community so long as
# proper attribution is given to the journal article from which the
# data were obtained.
#
data_2109042
loop_
_publ_author_name
'Bogdanov, Nikita E.'
'Korabel'nikov, Dmitry V.'
'Fedorov, Igor A.'
'Zakharov, Boris A.'
'Boldyreva, Elena V.'
_publ_section_title
;
 The effect of hydrostatic compression on the crystal structure of
 glycinium phosphite
;
_journal_issue                   5
_journal_name_full               'Acta Crystallographica Section B'
_journal_page_first
;
;
_journal_paper_doi               10.1107/S2052520622008289
_journal_volume                  78
_journal_year                    2022
_chemical_formula_moiety         'C2 H6 N O2, H2 O3 P'
_chemical_formula_sum            'C2 H8 N O5 P'
_chemical_formula_weight         157.06
_space_group_crystal_system      monoclinic
_space_group_IT_number           14
_space_group_name_Hall           '-P 2yab'
_space_group_name_H-M_alt        'P 1 21/a 1'
_atom_sites_solution_hydrogens   geom
_atom_sites_solution_primary     direct
_atom_sites_solution_secondary   difmap
_audit_creation_method           SHELXL-2018/3
_cell_angle_alpha                90
_cell_angle_beta                 100.98(5)
_cell_angle_gamma                90
_cell_formula_units_Z            4
_cell_length_a                   9.1044(14)
_cell_length_b                   8.4959(8)
_cell_length_c                   6.628(9)
_cell_measurement_pressure       6000000
_cell_measurement_reflns_used    492
_cell_measurement_temperature    293(2)
_cell_measurement_theta_max      25.1340
_cell_measurement_theta_min      3.2930
_cell_volume                     503.3(7)
_computing_structure_refinement  'SHELXL-2018/3 (Sheldrick, 2018)'
_diffrn_ambient_pressure         6000000
_diffrn_ambient_temperature      293(2)
_diffrn_detector                 'CCD plate'
_diffrn_detector_area_resol_mean 10.3457
_diffrn_detector_type            Ruby
_diffrn_measured_fraction_theta_full 0.358
_diffrn_measured_fraction_theta_max 0.318
_diffrn_measurement_device       'four-circle diffractometer'
_diffrn_measurement_device_type  'Xcalibur, Ruby, Gemini ultra'
_diffrn_radiation_monochromator  graphite
_diffrn_radiation_probe          x-ray
_diffrn_radiation_type           'Mo K\a'
_diffrn_radiation_wavelength     0.71073
_diffrn_reflns_av_R_equivalents  0.1292
_diffrn_reflns_av_unetI/netI     0.0950
_diffrn_reflns_Laue_measured_fraction_full 0.358
_diffrn_reflns_Laue_measured_fraction_max 0.318
_diffrn_reflns_limit_h_max       11
_diffrn_reflns_limit_h_min       -12
_diffrn_reflns_limit_k_max       11
_diffrn_reflns_limit_k_min       -11
_diffrn_reflns_limit_l_max       3
_diffrn_reflns_limit_l_min       -3
_diffrn_reflns_number            2522
_diffrn_reflns_point_group_measured_fraction_full 0.358
_diffrn_reflns_point_group_measured_fraction_max 0.318
_diffrn_reflns_theta_full        25.242
_diffrn_reflns_theta_max         28.082
_diffrn_reflns_theta_min         3.308
_diffrn_source                   'fine-focus sealed X-ray tube'
_diffrn_source_type              'Enhance (Mo) X-ray Source'
_exptl_absorpt_coefficient_mu    0.493
_exptl_absorpt_correction_T_max  1.00000
_exptl_absorpt_correction_T_min  0.24632
_exptl_absorpt_correction_type   multi-scan
_exptl_absorpt_process_details
;
CrysAlisPro 1.171.40.53 (Rigaku Oxford Diffraction, 2019)
Empirical absorption correction using spherical harmonics,
 implemented in SCALE3 ABSPACK scaling algorithm.
;
_exptl_crystal_colour            white
_exptl_crystal_density_diffrn    2.073
_exptl_crystal_description       plates
_exptl_crystal_F_000             328
_exptl_crystal_size_max          0.21
_exptl_crystal_size_mid          0.10
_exptl_crystal_size_min          0.05
_refine_diff_density_max         0.331
_refine_diff_density_min         -0.387
_refine_diff_density_rms         0.090
_refine_ls_extinction_method     none
_refine_ls_goodness_of_fit_ref   1.079
_refine_ls_hydrogen_treatment    constr
_refine_ls_matrix_type           full
_refine_ls_number_parameters     86
_refine_ls_number_reflns         391
_refine_ls_number_restraints     44
_refine_ls_restrained_S_all      1.035
_refine_ls_R_factor_all          0.1258
_refine_ls_R_factor_gt           0.0714
_refine_ls_shift/su_max          0.000
_refine_ls_shift/su_mean         0.000
_refine_ls_structure_factor_coef Fsqd
_refine_ls_weighting_details
'w=1/[\s^2^(Fo^2^)+(0.1119P)^2^] where P=(Fo^2^+2Fc^2^)/3'
_refine_ls_weighting_scheme      calc
_refine_ls_wR_factor_gt          0.1586
_refine_ls_wR_factor_ref         0.1890
_reflns_Friedel_coverage         0.000
_reflns_number_gt                251
_reflns_number_total             391
_reflns_threshold_expression     'I > 2\s(I)'
_cod_data_source_file            xk5096sup1.cif
_cod_data_source_block           6.00
_cod_original_sg_symbol_H-M      'P 21/a'
_cod_database_code               2109042
_shelx_shelxl_version_number     2018/3
_shelx_space_group_comment
;
The symmetry employed for this shelxl refinement is uniquely defined
by the following loop, which should always be used as a source of
symmetry information in preference to the above space-group names.
They are only intended as comments.
;
_oxdiff_exptl_absorpt_empirical_full_min 0.699
_oxdiff_exptl_absorpt_empirical_full_max 3.166
_oxdiff_exptl_absorpt_empirical_details
;
Empirical correction (ABSPACK) includes:
- Absorption correction using spherical harmonics
- Frame scaling
;
_shelx_res_file
;
TITL GPI_6 in P2(1)/c
    6.00.res
    created by SHELXL-2018/3 at 17:46:08 on 15-Aug-2022
REM  transformed to space group : P21/a:b3
REM P2(1)/c (#14 in standard setting)
CELL   0.71073  9.1044  8.4959  6.6285   90.000  100.978   90.000
ZERR   4        0.0014  0.0008  0.0094    0.000    0.050    0.000
LATT    1
SYMM   1/2-X,1/2+Y,-Z
SFAC C H N O P
UNIT 8 32 4 20 4
LIST 4 ! automatically inserted. Change 6 to 4 for CHECKCIF!!
PLAN 30
FMAP 2
L.S. 20
BOND
BOND $H
CONF
ACTA
EQIV $1 1-X, 1-Y,1-Z
EQIV $2 1/2+X, 3/2-Y,Z
EQIV $3 1-X, 2-Y, 2-Z
EQIV $4 1-X, 2-Y, 1-Z
EQIV $5 1/2+X, 1/2-Y, Z
HTAB N1 O2_$1
HTAB N1 O3_$2
HTAB N1 O2
HTAB O1 O1_$3
HTAB O3 O3_$4
HTAB O5 O2_$5
DFIX 1.66  H1 O1_$3
DFIX 1.70  H3 O3_$4
SIMU 0.005
WGHT    0.111900
FVAR       1.72260
C1    1    0.674154    0.281160    0.798135    11.00000    0.02397    0.01258 =
         0.02674    0.00281   -0.00554   -0.00033
AFIX  23
H1D   2    0.575299    0.234077    0.774590    11.00000   -1.20000
H1E   2    0.702205    0.309185    0.942198    11.00000   -1.20000
AFIX   0
C2    1    0.786708    0.168943    0.737378    11.00000    0.01418    0.01063 =
         0.02480    0.00436   -0.00063    0.00258
N1    3    0.676248    0.423217    0.664684    11.00000    0.02692    0.01328 =
         0.02833    0.01243    0.00597    0.00475
AFIX 137
H1A   2    0.620261    0.498733    0.704453    11.00000   -1.20000
H1B   2    0.639875    0.397869    0.534476    11.00000   -1.20000
H1C   2    0.769852    0.457414    0.675870    11.00000   -1.20000
AFIX   0
O1    4    0.534190    0.864836    0.982128    11.00000    0.03746    0.01153 =
         0.06915   -0.00156    0.01437    0.00646
AFIX 147
H1    2    0.534895    0.961351    0.982290    10.50000   -1.20000
AFIX   0
O2    4    0.462562    0.645560    0.736317    11.00000    0.02364    0.01333 =
         0.06678   -0.00474    0.00198   -0.00652
O3    4    0.444234    0.927409    0.625013    11.00000    0.02525    0.01575 =
         0.07116    0.00777   -0.00025    0.00449
AFIX 147
H3    2    0.486945    0.940669    0.528027    10.50000   -1.20000
AFIX   0
O4    4    0.852070    0.179458    0.601134    11.00000    0.01953    0.01874 =
         0.02137    0.00253    0.00513   -0.00026
O5    4    0.806869    0.052031    0.883551    11.00000    0.03157    0.01852 =
         0.02477    0.00801   -0.00053    0.00601
AFIX 147
H5    2    0.874393   -0.006650    0.864377    11.00000   -1.20000
AFIX   0
P1    5    0.530740    0.807494    0.773409    11.00000    0.02276    0.00996 =
         0.07136   -0.00002    0.00772    0.00043
AFIX  13
H1P   2    0.633710    0.803041    0.749858    11.00000   -1.20000
AFIX   0
HKLF 4




REM  GPI_6 in P2(1)/c
REM wR2 = 0.1890, GooF = S = 1.079, Restrained GooF = 1.035 for all data
REM R1 = 0.0714 for 251 Fo > 4sig(Fo) and 0.1258 for all 391 data
REM 86 parameters refined using 44 restraints

END

WGHT      0.1081      0.2544

REM Highest difference peak  0.331,  deepest hole -0.387,  1-sigma level  0.090
Q1    1   0.6796  0.3180  0.5413  11.00000  0.05    0.33
Q2    1   0.4013  0.6252  0.7663  11.00000  0.05    0.30
Q3    1   0.9038  0.2211  0.6997  11.00000  0.05    0.29
Q4    1   0.9047  0.2023  0.6326  11.00000  0.05    0.28
Q5    1   0.5596  0.1301  0.7659  11.00000  0.05    0.28
Q6    1   0.8354  0.4340  0.4990  11.00000  0.05    0.27
Q7    1   0.5453  0.2569  0.7526  11.00000  0.05    0.25
Q8    1   0.6794  0.2224  1.1212  11.00000  0.05    0.24
Q9    1   0.6640  0.7490  0.7526  11.00000  0.05    0.24
Q10   1   0.7339  0.8533  0.8160  11.00000  0.05    0.23
Q11   1   0.6421  0.6263  0.6479  11.00000  0.05    0.23
Q12   1   0.3983  0.7554  0.7451  11.00000  0.05    0.23
Q13   1   0.6968  0.0147  0.6939  11.00000  0.05    0.23
Q14   1   0.4466  0.8052  0.9270  11.00000  0.05    0.23
Q15   1   0.6151  0.8172  0.7009  11.00000  0.05    0.22
Q16   1   0.8820  0.1842  0.9871  11.00000  0.05    0.22
Q17   1   0.3143  0.9451  0.4548  11.00000  0.05    0.22
Q18   1   0.5395  0.6231  0.7391  11.00000  0.05    0.21
Q19   1   0.5628  0.2935  0.4400  11.00000  0.05    0.21
Q20   1   0.8990  0.1346  0.7901  11.00000  0.05    0.21
Q21   1   0.7224  0.7507  0.6825  11.00000  0.05    0.20
Q22   1   0.7719  0.1429  0.6390  11.00000  0.05    0.20
Q23   1   0.7608  0.2470  0.6891  11.00000  0.05    0.20
Q24   1   0.8065  0.1983  0.4575  11.00000  0.05    0.20
Q25   1   0.7691  0.3100  0.9979  11.00000  0.05    0.20
Q26   1   0.9065  0.0570  0.9770  11.00000  0.05    0.20
Q27   1   0.6603  1.0055  0.9406  11.00000  0.05    0.19
Q28   1   0.7227  0.0514  0.9463  11.00000  0.05    0.19
Q29   1   0.7679  0.3160  1.0632  11.00000  0.05    0.18
Q30   1   0.8580  0.3502  0.7704  11.00000  0.05    0.18
;
_shelx_res_checksum              75765
_shelx_hkl_file
;
   1   0   0 -1.3038 6.30520   7 0.03969 0.03970-0.01573 0.01574 0.98810-0.97285
  -1   0   0 9.45887 5.99235   8-0.03966-0.03967 0.04552-0.04548-0.98719 0.97195
  -2   0   0 5785.79 213.858   8-0.07934-0.07935 0.03038-0.03028-0.99306 0.96258
  -2   0   0 5920.05 162.816   9-0.07933-0.07933-0.35427 0.35418-0.92976 0.89931
   2   0   0 5650.32 226.170   7 0.07939 0.07940-0.00847 0.00846 0.99349-0.96299
   2   0   0 6052.04 161.150   6 0.07945 0.07945-0.33448 0.33463 0.93672-0.90615
  -3   0   0 -17.347 25.8680   8-0.11900-0.11903 0.01513-0.01496-0.99714 0.95142
  -3   0   0 8.14797 15.3991   9-0.11900-0.11900-0.26541 0.26528-0.96188 0.91619
   3   0   0 -2.6231 21.8374   7 0.11906 0.11911-0.00117 0.00115 0.99727-0.95151
   3   0   0 13.3563 13.0160   4 0.11911 0.11908-0.23934 0.23906 0.96847-0.92278
   3   0   0 1.92157 10.6512   6 0.11916 0.11917-0.24054 0.24077 0.96818-0.92234
   4   0   0 3147.66 161.502   6 0.15885 0.15886-0.14057 0.14089 0.98952-0.92844
   4   0   0 3436.09 263.128   7 0.15874 0.15882 0.00618-0.00620 0.99941-0.93839
  -4   0   0 3293.86 243.418   8-0.15866-0.15871-0.00024 0.00046-0.99942 0.93845
   4   0   0 3195.60 160.543   4 0.15883 0.15878-0.13918 0.13881 0.98971-0.92876
  -5   0   0 44.0234 57.6579   8-0.19832-0.19841-0.01571 0.01600-0.99986 0.92363
   5   0   0 32.7113 32.3942   6 0.19854 0.19856-0.03377 0.03417 0.99940-0.92309
   5   0   0 -18.987 47.2725   7 0.19841 0.19853 0.01356-0.01359 0.99989-0.92361
  -5   0   0 31.8887 22.5343   1-0.19837-0.19862 0.05696-0.05726-0.99834 0.92201
   6   0   0 4896.91 249.519   6 0.23821 0.23825 0.08119-0.08074 0.99557-0.90407
   6   0   0 5275.19 429.464   7 0.23807 0.23824 0.02098-0.02102 0.99868-0.90713
  -6   0   0 4774.65 388.028   8-0.23798-0.23810-0.03130 0.03166-0.99841 0.90691
  -7   0   0 53.6476 91.2225   8-0.27764-0.27779-0.04702 0.04744-0.99501 0.88824
  -7   0   0 49.0374 62.0537   2-0.27840-0.27844 0.04552-0.04548-0.99499 0.88800
   7   0   0 5.80510 92.5926   7 0.27774 0.27797 0.02845-0.02850 0.99571-0.88889
   8   0   0 1494.03 244.113   3 0.31771 0.31818-0.07884 0.07863 0.98832-0.86602
  -8   0   0 1129.81 209.305   2-0.31820-0.31825 0.09493-0.09490-0.98679 0.86451
   8   0   0 1602.98 307.038   7 0.31739 0.31770 0.03595-0.03602 0.99095-0.86884
  -8   0   0 1427.56 273.473   8-0.31730-0.31750-0.06285 0.06334-0.98959 0.86754
   9   0   0 -273.25 202.279   7 0.35704 0.35742 0.04350-0.04358 0.98430-0.84690
   9   0   0 10.6750 109.089   3 0.35739 0.35798-0.11434 0.11415 0.97829-0.84066
  -9   0   0 -235.87 176.245   8-0.35697-0.35721-0.07882 0.07937-0.98205 0.84471
 -10   0   0 309.848 207.146   8-0.39662-0.39691-0.09492 0.09555-0.97228 0.81964
  10   0   0 1030.54 368.406   7 0.39669 0.39715 0.05110-0.05120 0.97568-0.82298
 -11   0   0 -18.778 102.776   5-0.43692-0.43699 0.13942-0.14003-0.95597 0.78796
  11   0   0 157.400 254.109   7 0.43634 0.43688 0.05875-0.05887 0.96498-0.79696
 -11   0   0 63.4256 184.020   8-0.43628-0.43662-0.11116 0.11186-0.96013 0.79219
   0  -1   0 7.73439 6.50045   9-0.20906 0.20902-0.04173-0.04173-0.99899 0.99896
   0   1   0 -0.7670 5.44895   6 0.22496-0.22491 0.04178 0.04178 0.99857-0.99855
   0  -1   0 4.42997 5.84293   1-0.21496 0.21488-0.04174-0.04173-0.99886 0.99884
   0   1   0 -3.1692 6.08226   4 0.22437-0.22443 0.04175 0.04175 0.99859-0.99856
  -1   1   0 374.813 37.8583   1-0.22918 0.14992-0.13843 0.22196-0.98961 0.97438
   1  -1   0 359.583 35.0593   7 0.07363 0.00575-0.00952-0.07403 0.99281-0.97758
  -1  -1   0 334.995 41.9342   8-0.10513 0.02585 0.02047-0.10393-0.99592 0.98067
  -1   1   0 377.219 36.2348   6 0.32874-0.40806 0.39178-0.30837 0.90658-0.92178
   1  -1   0 415.817 36.2865   4 0.26757-0.18803 0.17488-0.25847 0.98134-0.96609
  -1  -1   0 368.264 45.5020   7-0.04997-0.02942-0.03201-0.05153 0.97004-0.98531
   1   1   0 414.451 54.0631   6 0.17811-0.09863-0.08965 0.17334 0.99586-0.98056
   1  -1   0 350.800 46.4465   9-0.14109 0.22039-0.21352 0.13011-0.97586 0.99107
  -1  -1   0 404.573 46.2625   1-0.19023 0.11085 0.10135-0.18488-0.99482 0.97954
   1   1   0 354.542 42.3977   7 0.09043-0.01105-0.00644 0.08999 0.99470-0.97943
  -1  -1   0 400.128 36.9855   9-0.29085 0.21147 0.19700-0.28050-0.97465 0.95937
   1  -1   0 389.420 35.4511   6 0.26840-0.18908 0.17564-0.25908 0.98113-0.96592
   2  -1   0 879.480 85.0555   9-0.08202 0.24065-0.34841 0.26505-0.93221 0.96264
  -2  -1   0 979.296 96.1520   8-0.11087-0.04773 0.01826-0.10167-0.99645 0.96597
  -2   1   0 917.941 77.4265   8-0.08690-0.07184 0.02747 0.05617-0.99398 0.96350
  -2  -1   0 932.824 78.2575   1-0.18066 0.02193 0.15080-0.23443-0.98848 0.95793
  -2  -1   0 1039.03 97.1246   4 0.07696-0.23572-0.33901 0.25575 0.93485-0.96531
   2  -1   0 856.172 82.7858   7 0.09879 0.05999-0.00490-0.07866 0.99554-0.96506
   2   1   0 954.179 89.6459   6 0.16584-0.00691-0.12229 0.20606 0.99214-0.96156
  -2   1   0 979.888 60.7690   1-0.24567 0.08703-0.27450 0.35813-0.95963 0.92911
   2   1   0 882.294 93.4372   7 0.10348 0.05528-0.00404 0.08759 0.99598-0.96545
   3   1   0 18964.0 526.025   7 0.13320 0.10495 0.00145 0.08211 0.99822-0.95244
  -3  -1   0 19346.6 494.582   4 0.02514-0.26328-0.45301 0.36988 0.87925-0.92487
   3  -1   0 17927.1 487.351   7 0.13429 0.10387 0.00165-0.08523 0.99828-0.95255
   3   1   0 17832.1 439.541   6 0.17152 0.06685-0.10730 0.19114 0.99400-0.94815
   3  -1   0 19030.6 468.145   9-0.02816 0.26611-0.46125 0.37793-0.87585 0.92148
  -3  -1   0 18380.6 505.533   8-0.13652-0.10141 0.00835-0.09170-0.99837 0.95265
  -3   1   0 17662.9 438.226   8-0.12988-0.10822 0.01092 0.07279-0.99795 0.95222
   4   1   0 84.2948 38.4591   7 0.16766 0.14989 0.00783 0.07571 0.99966-0.93862
   4  -1   0 103.700 49.3432   9 0.02255 0.29473-0.55912 0.47583-0.80917 0.87001
   4   1   0 179.364 55.6615   6 0.18710 0.13069-0.06533 0.14924 0.99783-0.93672
  -4  -1   0 137.202 43.5409   4-0.02424-0.29329-0.55327 0.47023 0.81233-0.87309
  -4  -1   0 158.097 63.7052   8-0.16852-0.14876-0.00407-0.07923-0.99971 0.93873
  -4   1   0 129.592 55.5318   8-0.17104-0.14641-0.00505 0.08884-0.99976 0.93878
  -4  -1   0 47.5820 18.9003   9-0.07278-0.24457-0.36843 0.28481-0.92363 0.86269
   4  -1   0 94.7275 47.9979   7 0.17200 0.14554 0.00864-0.09223 0.99976-0.93876
  -5  -1   0 964.014 163.785   8-0.20333-0.19331-0.01768-0.06557-0.99978 0.92356
  -5   1   0 991.614 150.421   8-0.21158-0.18523-0.02091 0.10476-0.99959 0.92334
   5  -1   0 989.029 163.416   7 0.21053 0.18639 0.01583-0.09942 0.99970-0.92345
  -5  -1   0 391.412 50.7151   9-0.18524-0.21147-0.10420 0.02054-0.99457 0.91835
   5   1   0 821.854 118.274   6 0.20857 0.18861-0.00554 0.08952 0.99984-0.92349
   5   1   0 839.235 154.803   7 0.20412 0.19282 0.01463 0.06892 0.99982-0.92352
   6  -1   0 297.680 39.7746   6 0.28715 0.18908 0.23809-0.32121 0.96577-0.87442
   6   1   0 787.228 182.328   7 0.24160 0.23473 0.02165 0.06189 0.99848-0.90691
  -6  -1   0 675.727 157.107   8-0.23964-0.23634-0.03196-0.05123-0.99831 0.90683
   6  -1   0 756.634 173.500   7 0.24946 0.22685 0.02312-0.10673 0.99801-0.90649
   6   1   0 811.781 124.153   6 0.23373 0.24283 0.06776 0.01626 0.99679-0.90521
  -6   1   0 690.724 147.760   8-0.25182-0.22434-0.03677 0.12070-0.99745 0.90593
  -7   1   0 -35.980 63.6214   2-0.27794-0.27889 0.04494 0.03865-0.99505 0.88811
   7  -1   0 323.339 138.820   7 0.28860 0.26708 0.03050-0.11413 0.99459-0.88779
  -7  -1   0 141.349 110.671   8-0.27684-0.27850-0.04670-0.03644-0.99510 0.88836
   7   1   0 -48.768 88.1832   7 0.27968 0.27603 0.02882 0.05472 0.99552-0.88867
   7   1   0 59.1109 69.9944   6 0.26127 0.29464 0.15272-0.06865 0.98559-0.87880
  -7   1   0 58.6246 78.0460   8-0.29190-0.26362-0.05270 0.13669-0.99330 0.88650
  -7  -1   0 59.3771 55.9572   2-0.29448-0.26242 0.06532-0.14887-0.99222 0.88519
  -8  -1   0 455.547 171.935   8-0.31461-0.32009-0.06177-0.02130-0.99002 0.86801
   8  -1   0 608.268 202.435   3 0.31340 0.32257-0.07502-0.00883 0.98921-0.86691
  -8   1   0 626.692 183.231   8-0.33190-0.30299-0.06871 0.15278-0.98707 0.86498
   8   1   0 783.799 212.979   7 0.31813 0.31695 0.03609 0.04743 0.99084-0.86871
  -8   1   0 645.597 183.397   2-0.31221-0.32420 0.08742-0.00381-0.98831 0.86608
   8   1   0 450.515 145.059   3 0.33560 0.30020-0.09475 0.17818 0.98421-0.86191
   8  -1   0 484.123 183.819   7 0.32788 0.30718 0.03794-0.12159 0.98937-0.86729
   9   1   0 -237.83 180.332   7 0.35684 0.35763 0.04346 0.04004 0.98434-0.84691
   9  -1   0 137.619 149.406   7 0.36725 0.34719 0.04545-0.12912 0.98227-0.84490
  -9   1   0 -130.17 144.719   2-0.34745-0.36856 0.13212-0.04850-0.97776 0.84023
  -9  -1   0 219.299 172.396   8-0.35277-0.36130-0.07712-0.00588-0.98295 0.84566
  -9   1   0 -5.9977 139.799   8-0.37183-0.34243-0.08483 0.16898-0.97865 0.84127
   9  -1   0 174.414 139.790   3 0.34977 0.36568-0.10746 0.02364 0.98048-0.84285
  10  -1   0 1916.60 371.603   3 0.38669 0.40825-0.14098 0.05717 0.96864-0.81567
  10  -1   0 1695.90 384.430   7 0.40667 0.38715 0.05302-0.13670 0.97319-0.82051
 -10  -1   0 1802.23 395.688   8-0.39121-0.40223-0.09271 0.00977-0.97375 0.82117
  10   1   0 2133.66 428.496   7 0.39572 0.39813 0.05091 0.03258 0.97591-0.82318
 -10   1   0 1754.58 388.444   8-0.41173-0.38191-0.10108 0.18531-0.96794 0.81525
 -11  -1   0 383.490 230.244   8-0.42984-0.44296-0.10851 0.02564-0.96227 0.79439
  11   1   0 553.244 287.102   7 0.43474 0.43849 0.05844 0.02504 0.96545-0.79741
  11  -1   0 394.923 307.750   7 0.44613 0.42705 0.06065-0.14436 0.96200-0.79401
 -11   1   0 321.749 277.543   8-0.45158-0.42141-0.11747 0.20177-0.95477 0.78677
   0  -2   0 4821.27 170.582   3 0.32297-0.32290-0.08350-0.08351 0.98718-0.98724
   0   2   0 4689.58 213.362   6 0.23899-0.23889 0.08356 0.08358 0.99534-0.99529
   0  -2   0 4690.55 204.696   9-0.19326 0.19318-0.08346-0.08346-0.99653 0.99649
   0   2   0 4734.66 185.126   2-0.30913 0.30903 0.08356 0.08354-0.98906 0.98912
   1  -2   0 120.845 32.7958   9-0.15636 0.23562-0.17659 0.00972-0.98377 0.99896
  -1  -2   0 169.620 37.7040   9-0.22629 0.14687 0.00520-0.17217-0.99937 0.98408
   1  -2   0 177.597 38.0186   4 0.20882-0.12923-0.00316-0.16394 0.99985-0.98463
   1   2   0 147.705 28.5575   2-0.49928 0.57871 0.34018-0.17300-0.87784 0.89325
  -1   2   0 170.192 37.5865   1-0.20759 0.12840 0.00362 0.16336-0.99987 0.98467
  -1  -2   0 149.405 32.7070   8-0.18954 0.11030-0.01228-0.15466-0.99992 0.98465
  -1   2   0 143.396 35.4179   6 0.28737-0.36667 0.23886-0.07188 0.96556-0.98075
  -1  -2   0 172.241 36.2550   7-0.12125 0.04185-0.04481-0.12229 0.94983-0.96514
   1   2   0 177.768 45.4503   6 0.21127-0.13172 0.00213 0.16512 0.99981-0.98449
   1   2   0 197.755 35.7007   7 0.19017-0.11084 0.01202 0.15505 0.99993-0.98463
  -2   2   0 2253.05 135.595   1-0.21565 0.05707-0.04617 0.21320-0.99865 0.96820
  -2   2   0 2183.98 102.432   8-0.17384 0.01507-0.00615 0.17337-0.99981 0.96934
  -2   2   0 2640.87 150.020   6 0.35223-0.51084 0.49346-0.32666 0.84825-0.87862
   2  -2   0 2408.50 173.760   9-0.11700 0.27560-0.27001 0.10319-0.96048 0.99089
  -2  -2   0 2292.51 156.875   8-0.16449 0.00595-0.00251-0.16438-0.99960 0.96910
  -2  -2   0 2311.42 124.358   9-0.25320 0.09443 0.08172-0.24873-0.99462 0.96407
   2  -2   0 2369.24 127.390   6 0.23152-0.07286 0.06114-0.22806 0.99732-0.96689
   2  -2   0 2195.30 124.426   7 0.17744-0.01870 0.00965-0.17675 0.99985-0.96939
  -2  -2   0 2301.68 180.305   4 0.10940-0.26812-0.26290 0.09612 0.96169-0.99220
   2   2   0 2143.09 148.930   7 0.16044-0.00171 0.00649 0.16061 0.99946-0.96892
   2   2   0 2331.97 175.728   6 0.19969-0.04070-0.03056 0.19791 0.99949-0.96889
   2  -2   0 2325.10 125.307   4 0.23056-0.07152 0.06007-0.22725 0.99742-0.96692
  -3  -2   0 2481.83 195.515   8-0.17332-0.06455-0.00594-0.16090-0.99980 0.95407
   3   2   0 2604.42 201.715   6 0.19958 0.03884-0.03087 0.19831 0.99948-0.95361
   3  -2   0 2480.74 193.733   9-0.07603 0.31396-0.36142 0.19464-0.92670 0.97233
   3  -2   0 2499.75 119.635   6 0.24148-0.00345 0.09112-0.25797 0.99454-0.94889
  -3   2   0 2530.46 152.284   8-0.18513-0.05300-0.01055 0.17785-0.99992 0.95420
  -3   2   0 2597.51 143.449   1-0.21730-0.02070-0.05676 0.22382-0.99806 0.95235
  -3  -2   0 2950.34 224.560   4 0.07050-0.30863-0.35373 0.18708 0.92876-0.97447
  -3  -2   0 2463.88 116.941   9-0.26992 0.03180 0.13159-0.29862-0.98790 0.94210
   3   2   0 2572.58 200.235   7 0.17164 0.06649 0.00857 0.15853 0.99975-0.95395
   3  -2   0 2597.77 178.352   7 0.18548 0.05264 0.01115-0.17827 0.99992-0.95421
   5   2   0 2287.55 257.657   7 0.22570 0.17121 0.01866 0.14846 0.99924-0.92291
  -5  -2   0 2402.96 245.812   4-0.01137-0.38553-0.52794 0.36155 0.83105-0.90706
  -5  -2   0 2123.19 246.214   8-0.22272-0.17382-0.02529-0.14147-0.99920 0.92298
  -5   2   0 2258.74 214.027   8-0.24854-0.14832-0.03548 0.20293-0.99770 0.92143
   5   2   0 2239.90 223.346   6 0.22107 0.17620 0.03039 0.13717 0.99911-0.92271
   5  -2   0 2274.85 232.071   9 0.00886 0.38772-0.53350 0.36681-0.82845 0.90449
   5  -2   0 2632.98 256.241   7 0.24277 0.15412 0.02187-0.18903 0.99842-0.92218
   6   2   0 476.577 146.734   7 0.25864 0.21766 0.02485 0.14227 0.99736-0.90576
  -6  -2   0 429.231 78.4628   2-0.28791-0.18943 0.05719-0.22435-0.99344 0.90166
  -6  -2   0 512.032 143.669   8-0.25396-0.22192-0.03762-0.12909-0.99728 0.90581
   6   2   0 702.895 138.768   6 0.23869 0.23797 0.08265 0.08496 0.99543-0.90379
   6  -2   0 490.486 134.313   7 0.27732 0.19894 0.02837-0.19555 0.99575-0.90425
   6  -2   0 -22.291 41.0496   9 0.05228 0.42361-0.61280 0.44613-0.76395 0.85519
  -6   2   0 495.225 121.643   8-0.28492-0.19131-0.04991 0.21744-0.99417 0.90263
   7  -2   0 2776.98 342.730   7 0.31343 0.24222 0.03520-0.20241 0.99151-0.88473
  -7   2   0 2417.43 317.002   2-0.28676-0.27005 0.05578 0.11135-0.99364 0.88673
   7   2   0 2971.19 296.035   6 0.25921 0.29682 0.14616 0.02148 0.98675-0.87988
   7   2   0 2854.82 358.488   7 0.29339 0.26230 0.03140 0.13571 0.99405-0.88717
  -7   2   0 2509.43 294.134   8-0.32240-0.23319-0.06489 0.23250-0.98874 0.88191
  -7  -2   0 2691.95 340.104   8-0.28734-0.26789-0.05088-0.11578-0.99388 0.88715
   7   2   0 2116.03 219.029   3 0.32993 0.22626-0.08970 0.25672 0.98559-0.87859
  -8   2   0 297.362 136.902   8-0.36052-0.27444-0.08025 0.24794-0.98127 0.85914
  -8   2   0 87.5727 99.0297   2-0.31596-0.32042 0.09212 0.07503-0.98737 0.86518
  -8  -2   0 31.0022 99.4161   8-0.32211-0.31248-0.06478-0.10182-0.98879 0.86680
   8  -2   0 220.137 136.259   7 0.35047 0.28455 0.04225-0.20947 0.98553-0.86347
   8  -2   0 -13.480 107.356   3 0.31878 0.31722-0.07978-0.08767 0.98809-0.86579
   8   2   0 84.8457 119.243   7 0.32929 0.30578 0.03821 0.12889 0.98915-0.86699
   9  -2   0 1229.00 295.563   7 0.38813 0.32626 0.04945-0.21670 0.97771-0.84035
  -9   2   0 1020.43 253.302   8-0.39906-0.31528-0.09591 0.26367-0.97160 0.83416
  -9  -2   0 1162.52 294.460   8-0.35786-0.35609-0.07918-0.08737-0.98185 0.84460
   9  -2   0 1212.71 299.769   3 0.35152 0.36397-0.10903-0.05841 0.97999-0.84236
  -9   2   0 805.181 242.534   2-0.34685-0.36912 0.13134 0.03583-0.97798 0.84049
   9   2   0 884.403 249.330   7 0.36599 0.34847 0.04521 0.12189 0.98253-0.84508
 -10  -2   0 236.356 194.878   8-0.39431-0.39901-0.09397-0.07252-0.97291 0.82037
  10   2   0 199.498 177.439   7 0.40323 0.39061 0.05235 0.11473 0.97406-0.82130
  10  -2   0 684.863 283.574   7 0.42621 0.36755 0.05679-0.22406 0.96792-0.81525
  10  -2   0 162.898 152.993   3 0.38533 0.40964-0.13974-0.02770 0.96913-0.81615
 -10   2   0 251.664 193.233   8-0.43786-0.35583-0.11181 0.27966-0.95960 0.80684
 -10   2   0 222.006 168.964   2-0.37899-0.41658 0.17309-0.00590-0.96489 0.81212
 -11  -2   0 543.951 257.702   8-0.43127-0.44142-0.10910-0.05733-0.96180 0.79398
  11  -2   0 368.442 263.365   7 0.46459 0.40853 0.06422-0.23152 0.95601-0.78803
  11  -2   0 4.35574 162.801   3 0.41996 0.45450-0.17171 0.00432 0.95518-0.78683
   0  -3   0 11.2801 24.0596   3 0.36942-0.36934-0.12523-0.12525 0.97457-0.97465
   0  -3   0 6.80239 18.9138   9-0.17700 0.17690-0.12519-0.12519-0.99207 0.99200
   0   3   0 23.8509 17.7126   2-0.34217 0.34203 0.12534 0.12529-0.97959 0.97970
   0  -3   0 8.81901 12.5990   8-0.47041 0.47034-0.12527-0.12520-0.94765 0.94760
   0  -3   0 -35.607 34.1344   4 0.16416-0.16394-0.12524-0.12527 0.99173-0.99179
   0   3   0 -3.3260 19.3642   6 0.25259-0.25243 0.12532 0.12537 0.99011-0.99004
  -1  -3   0 801.273 97.4650   9-0.19627 0.11680-0.07561-0.17481-0.99715 0.98183
  -1   3   0 717.456 102.282   2-0.28105 0.20141 0.04876 0.20183-0.99458 0.97939
   1  -3   0 746.683 107.358   9-0.15249 0.23172-0.18603-0.06430-0.98191 0.99707
  -1   3   0 674.174 94.7978   1-0.19494 0.11580 0.07596 0.17451-0.99708 0.98191
   1  -3   0 856.127 103.525   4 0.18093-0.10126-0.08056-0.17005 0.99667-0.98146
   1   3   0 709.605 77.7948   2-0.46052 0.53988 0.28412-0.03340-0.91367 0.92912
   1   3   0 730.895 110.043   6 0.23258-0.15299 0.06432 0.18650 0.99707-0.98173
  -1   3   0 853.160 104.668   6 0.28412-0.36339 0.22779 0.02274 0.96864-0.98381
   1   3   0 782.999 73.0441   7 0.32004-0.24076 0.03645 0.21411 0.99056-0.97523
  -1  -3   0 765.391 84.9096   8-0.28162 0.20238-0.04860-0.20179-0.99456 0.97926
  -1  -3   0 800.277 74.7780   3 0.57010-0.64934-0.31849 0.06818 0.85265-0.86805
  -2   3   0 807.495 103.116   1-0.19982 0.04130 0.04878 0.20173-0.99876 0.96834
  -2  -3   0 893.204 132.217   4 0.11533-0.27400-0.24855-0.00174 0.96590-0.99645
   2   3   0 884.300 126.979   6 0.22258-0.06354 0.03480 0.21613 0.99892-0.96829
  -2   3   0 816.419 98.9037   6 0.32634-0.48497 0.38213-0.13179 0.91127-0.94164
   2  -3   0 827.047 70.8786   7 0.34091-0.18223 0.04042-0.29099 0.98724-0.95681
   2   3   0 821.036 96.9968   7 0.24264-0.08396 0.02184 0.22878 0.99842-0.96785
   2  -3   0 797.018 119.034   9-0.12395 0.28252-0.25393 0.00364-0.96526 0.99566
  -2  -3   0 832.551 102.304   8-0.23154 0.07304-0.02876-0.22158-0.99878 0.96826
  -2  -3   0 854.278 95.6838   9-0.20841 0.04960-0.04348-0.20699-0.99893 0.96836
   2  -3   0 872.347 102.648   4 0.19024-0.03114-0.05515-0.19552 0.99846-0.96799
  -3   3   0 6655.78 348.924   6 0.37089-0.60880 0.59056-0.34037 0.77479-0.82030
   3   3   0 5769.45 363.559   6 0.22063 0.01785 0.02911 0.22190 0.99916-0.95326
   3  -3   0 5223.17 258.584   7 0.28158-0.04352 0.02918-0.27980 0.99533-0.94965
   3   3   0 5748.44 317.178   7 0.23032 0.00775 0.01953 0.23112 0.99905-0.95322
  -3   3   0 5630.78 283.625   1-0.19993-0.03802 0.04817 0.20235-0.99879 0.95310
  -3  -3   0 5374.13 239.046   9-0.21023-0.02791-0.03860-0.21189-0.99909 0.95328
   3  -3   0 5156.53 239.790   4 0.18873 0.04978-0.05930-0.19143 0.99822-0.95248
  -3   3   0 5989.24 215.371   8-0.31713 0.07904-0.06278 0.31370-0.98962 0.94387
  -3  -3   0 5785.19 370.024   4 0.08543-0.32352-0.31950 0.06935 0.94247-0.98823
   3  -3   0 5600.11 348.793   9-0.09226 0.33016-0.32588 0.07565-0.94119 0.98681
  -3  -3   0 5818.42 327.126   8-0.22368-0.01413-0.02567-0.22465-0.99915 0.95341
   4  -3   0 2262.31 196.232   7 0.28046 0.03699 0.02896-0.27963 0.99545-0.93450
  -4  -3   0 2370.02 261.288   4 0.05282-0.37032-0.39325 0.14323 0.91085-0.97180
   4  -3   0 2097.73 215.252   9-0.05807 0.37530-0.39972 0.14954-0.90903 0.96986
   4  -3   0 1970.00 133.757   4 0.16885 0.14904-0.11287-0.13792 0.99333-0.93234
  -4  -3   0 1991.18 126.407   9-0.19471-0.12275-0.07968-0.17086-0.99684 0.93578
  -4   3   0 2016.67 157.018   1-0.19419-0.12323 0.08004 0.17044-0.99676 0.93580
   4   3   0 2223.98 221.821   7 0.24064 0.07682 0.02147 0.22920 0.99854-0.93745
  -4  -3   0 2089.22 220.340   8-0.23392-0.08319-0.02971-0.22057-0.99865 0.93767
  -4   3   0 2157.76 162.572   8-0.30276-0.01473-0.05703 0.30803-0.99182 0.93080
   4   3   0 1816.54 208.569   6 0.22497 0.09293 0.04183 0.20926 0.99857-0.93739
   5   3   0 306.473 93.2075   7 0.26146 0.13541 0.02538 0.22530 0.99714-0.92079
   5  -3   0 234.920 83.0241   9-0.02187 0.41842-0.47383 0.22370-0.86828 0.94432
  -5  -3   0 261.654 96.8364   8-0.25359-0.14285-0.03747-0.21277-0.99731 0.92110
   5   3   0 202.543 43.5424   3 0.33927 0.05778-0.09803 0.34861 0.98329-0.90686
   5  -3   0 369.629 96.8874   7 0.29786 0.09896 0.03224-0.28294 0.99352-0.91732
  -5   3   0 354.825 69.6674   1-0.18001-0.21692 0.15404 0.09629-0.98797 0.91169
  -5  -3   0 218.063 40.9581   9-0.13790-0.25887-0.22113-0.02945-0.97402 0.89774
  -5   3   0 222.204 67.2007   8-0.31732-0.07956-0.06286 0.31393-0.98959 0.91329
   5   3   0 229.163 92.1361   6 0.23420 0.16312 0.06918 0.18196 0.99667-0.92023
   5  -3   0 181.523 37.7976   4 0.10449 0.29270-0.27466 0.02382 0.95804-0.88187
  -5  -3   0 282.617 102.085   4 0.01801-0.41492-0.46798 0.21810 0.87042-0.94652
   6  -3   0 339.200 113.030   9 0.01601 0.45987-0.54696 0.29686-0.81849 0.90974
   6   3   0 404.064 116.316   6 0.24720 0.22953 0.10866 0.14253 0.99244-0.90074
  -6  -3   0 235.553 105.126   4-0.01864-0.45766-0.54231 0.29255 0.82059-0.91182
  -6   3   0 253.802 127.175   2-0.27972-0.19752 0.04713 0.20351-0.99479 0.90320
  -6   3   0 301.377 97.4544   8-0.34251-0.13375-0.07298 0.32414-0.98505 0.89346
   6  -3   0 448.751 124.023   7 0.32350 0.15269 0.03711-0.28784 0.99005-0.89857
   6   3   0 286.682 119.701   7 0.28797 0.18828 0.03038 0.22030 0.99466-0.90303
  -6  -3   0 199.638 93.7590   8-0.27876-0.19703-0.04746-0.20274-0.99489 0.90343
   6   3   0 225.923 59.7851   3 0.37009 0.10640-0.12583 0.37644 0.97435-0.88262
   7   3   0 -25.047 74.5318   6 0.26311 0.29302 0.15859 0.09264 0.98451-0.87757
   7  -3   0 269.529 127.406   7 0.35353 0.20204 0.04283-0.29359 0.98497-0.87821
  -7   3   0 206.235 119.505   8-0.37279-0.18284-0.08522 0.33645-0.97842 0.87154
   7  -3   0 -281.07 112.413   9 0.05530 0.49990-0.61808 0.36802-0.75911 0.86554
   7   3   0 304.691 141.790   7 0.31794 0.23770 0.03605 0.21463 0.99087-0.88396
  -7   3   0 2.00370 98.8513   2-0.30151-0.25528 0.07407 0.17660-0.99078 0.88390
  -7  -3   0 63.5123 95.0761   8-0.30741-0.24772-0.05889-0.19127-0.99114 0.88443
   7  -3   0 -74.696 102.361   3 0.30437 0.25212-0.06704-0.18400 0.99095-0.88396
  -8   3   0 772.001 192.343   8-0.40589-0.22911-0.09870 0.35002-0.96966 0.84746
   8  -3   0 529.094 192.206   3 0.33135 0.30466-0.09097-0.16010 0.98525-0.86294
   8   3   0 609.781 200.340   7 0.35015 0.28489 0.04219 0.20850 0.98559-0.86340
   8  -3   0 615.640 176.838   7 0.38617 0.24877 0.04907-0.29986 0.97816-0.85612
  -8  -3   0 381.895 174.875   8-0.33842-0.29607-0.07133-0.17878-0.98584 0.86388
  -8   3   0 183.332 151.373   2-0.32622-0.31014 0.10504 0.14565-0.98458 0.86243
   9   3   0 -137.09 142.875   7 0.38389 0.33053 0.04864 0.20204 0.97868-0.84119
  -9   3   0 -96.160 134.150   2-0.35310-0.36284 0.13938 0.11134-0.97571 0.83827
  -9  -3   0 90.2991 127.195   8-0.37108-0.34276-0.08453-0.16553-0.97883 0.84161
   9  -3   0 210.883 180.711   3 0.36038 0.35511-0.11705-0.13402 0.97739-0.83975
   9  -3   0 -131.99 138.022   7 0.42050 0.29382 0.05568-0.30650 0.96951-0.83217
  10  -3   0 244.394 173.351   7 0.45596 0.33772 0.06254-0.31338 0.95887-0.80623
  10   3   0 30.6313 129.139   7 0.41874 0.37507 0.05534 0.19534 0.96999-0.81719
 -10  -3   0 72.2892 128.819   8-0.40495-0.38824-0.09832-0.15170-0.96993 0.81743
  10  -3   0 468.829 251.472   3 0.39099 0.40401-0.14492-0.10614 0.96705-0.81407
  11  -3   0 -3.2315 208.418   3 0.42278 0.45171-0.17435-0.07668 0.95391-0.78555
  11  -3   0 174.268 175.546   7 0.49224 0.38081 0.06962-0.32048 0.94609-0.77812
   0   4   0 3436.95 256.099   6 0.26575-0.26556 0.16708 0.16717 0.98287-0.98277
   0   4   0 2971.10 223.639   1-0.17742 0.17768 0.16693 0.16701-0.98585 0.98593
   0  -4   0 3405.52 249.178   4 0.14806-0.14776-0.16698-0.16703 0.98502-0.98509
   0  -4   0 3037.10 133.416   8-0.56965 0.56951-0.16702-0.16690-0.89923 0.89923
   0   4   0 2709.23 135.430   5-0.48158 0.48151 0.16710 0.16700-0.93677 0.93691
   0  -4   0 3111.96 192.766   3 0.41484-0.41474-0.16696-0.16699 0.95743-0.95755
   0  -4   0 3079.70 232.856   9-0.16030 0.16015-0.16691-0.16693-0.98558 0.98547
   0   4   0 3227.74 219.535   2-0.37445 0.37424 0.16712 0.16704-0.96696 0.96711
   1   4   0 150.698 93.4606   6 0.24998-0.17035 0.11723 0.21717 0.99128-0.97591
   1  -4   0 -14.465 64.3002   9-0.14249 0.22168-0.21017-0.12364-0.97664 0.99178
  -1   4   0 51.6210 64.9300   2-0.32214 0.24245 0.09991 0.23422-0.98573 0.97058
  -1  -4   0 7.68826 53.7720   9-0.17301 0.09351-0.13526-0.19861-0.99069 0.97534
   1  -4   0 19.0367 53.8550   3 0.33729-0.25777-0.09626-0.23784 0.98379-0.96862
   1  -4   0 -48.938 75.7171   4 0.15901-0.07928-0.13870-0.19539 0.98979-0.97459
  -1   4   0 -32.103 62.8606   6 0.28919-0.36842 0.24512 0.08898 0.96375-0.97890
  -1  -4   0 5.55417 43.3646   8-0.37688 0.29762-0.08688-0.24695-0.97743 0.96212
   1   4   0 155.551 52.8794   7 0.46878-0.38954 0.06504 0.26897 0.95458-0.93921
  -1  -4   0 147.057 66.2113   3 0.56174-0.64097-0.30989-0.02387 0.86062-0.87604
  -1   4   0 -44.907 56.9132   1-0.18425 0.10517 0.13253 0.20144-0.99112 0.97596
   1   4   0 -12.238 36.8359   2-0.46229 0.54159 0.28664 0.04762-0.91222 0.92772
   2  -4   0 2414.03 207.050   4 0.16341-0.00424-0.12720-0.20696 0.99146-0.96099
  -2  -4   0 2284.59 188.587   9-0.17924 0.02041-0.11951-0.21441-0.99280 0.96220
   2   4   0 2246.95 169.225   7 0.34437-0.18577 0.04108 0.29303 0.98663-0.95602
  -2   4   0 2252.22 204.771   1-0.18756 0.02909 0.11541 0.21859-0.99328 0.96287
   2   4   0 2362.13 237.089   6 0.24123-0.08215 0.09038 0.24413 0.99462-0.96397
   2  -4   0 2704.66 119.059   7 0.63833-0.47973 0.09863-0.43259 0.87186-0.84143
  -2   4   0 2565.83 210.024   6 0.31982-0.47844 0.35654-0.02264 0.92303-0.95340
   2  -4   0 2312.30 232.997   9-0.12055 0.27907-0.26183-0.07191-0.96295 0.99333
  -2  -4   0 2296.07 187.114   8-0.30706 0.14856-0.05875-0.27504-0.99119 0.96065
   3  -4   0 3185.36 284.419   9-0.09515 0.33302-0.31946-0.01423-0.94362 0.98922
  -3   4   0 3091.09 236.773   1-0.18700-0.05091 0.11833 0.21568-0.99293 0.94725
   3   4   0 2950.88 276.767   6 0.23855-0.00001 0.08222 0.25237 0.99547-0.94954
  -3   4   0 3307.45 241.291   6 0.35450-0.59244 0.50426-0.17053 0.84102-0.88655
   3  -4   0 3176.93 175.534   7 0.43556-0.19758 0.05860-0.39267 0.96521-0.91954
  -3  -4   0 2907.06 242.208   8-0.28377 0.04601-0.04946-0.28431-0.99431 0.94855
  -3  -4   0 3321.47 309.321   4 0.08770-0.32574-0.31424-0.01944 0.94444-0.99024
   3   4   0 3202.46 236.128   7 0.30596-0.06797 0.03378 0.30038 0.99251-0.94664
   3  -4   0 3157.18 226.775   4 0.15897 0.07960-0.13880-0.19541 0.98977-0.94404
  -3   4   0 3067.23 125.284   8-0.61624 0.37831-0.18707 0.52167-0.86921 0.82327
  -3  -4   0 3073.72 208.482   9-0.17674-0.06144-0.12588-0.20807-0.99198 0.94614
  -4  -4   0 338.690 107.951   4 0.06081-0.37829-0.37550 0.04196 0.91917-0.98017
  -4   4   0 487.733 103.556   1-0.18186-0.13553 0.14472 0.18925-0.98939 0.92843
  -4   4   0 553.645 144.210   2-0.28209-0.03611 0.05003 0.28407-0.99441 0.93342
   4  -4   0 432.091 87.6708   7 0.38609-0.06873 0.04906-0.38321 0.97818-0.91726
  -4  -4   0 321.111 90.2126   8-0.28265-0.03441-0.04901-0.28472-0.99444 0.93346
   4  -4   0 435.636 87.4845   4 0.14144 0.17652-0.18383-0.15042 0.98173-0.92075
   4   4   0 546.374 137.562   6 0.24091 0.07706 0.08940 0.24527 0.99473-0.93351
  -4   4   0 466.650 70.8236   8-0.46362 0.14622-0.12245 0.45711-0.95029 0.88919
   4   4   0 444.724 109.025   7 0.30008 0.01732 0.03266 0.30153 0.99325-0.93213
   4  -4   0 364.891 111.642   9-0.06685 0.38405-0.38112 0.04747-0.91788 0.97871
  -4  -4   0 504.873 84.6442   9-0.16122-0.15628-0.16464-0.16934-0.98598 0.92489
  -4  -4   0 335.237 41.8267   5-0.56960 0.25171 0.22319-0.55794-0.88566 0.82425
   5  -4   0 6249.93 446.738   9-0.03608 0.43261-0.44524 0.11163-0.88508 0.96112
  -5  -4   0 6225.27 266.054   9-0.12258-0.27424-0.25712-0.07690-0.96434 0.88802
  -5   4   0 6603.21 323.787   8-0.43100 0.03417-0.10899 0.44372-0.96189 0.88552
  -5   4   0 6676.81 345.783   1-0.17068-0.22622 0.19957 0.13429-0.97966 0.90339
  -5   4   0 5258.63 444.478   2-0.28955-0.10817 0.05922 0.27491-0.99314 0.91687
   5   4   0 6111.86 427.508   7 0.30990 0.08688 0.03453 0.29969 0.99199-0.91560
   5  -4   0 5823.41 375.792   7 0.37916 0.01757 0.04774-0.38194 0.97974-0.90354
   5  -4   0 5788.08 281.871   4 0.10073 0.29655-0.28361-0.05070 0.95514-0.87895
  -5  -4   0 5879.11 427.040   8-0.29374-0.10263-0.05343-0.28027-0.99306 0.91685
   5   4   0 5883.33 433.308   6 0.24743 0.14996 0.10936 0.22536 0.99235-0.91586
  -6  -4   0 57.5403 100.232   8-0.31227-0.16343-0.06083-0.27284-0.99039 0.89895
   6  -4   0 1.88276 75.4711   3 0.30694 0.17003-0.06931-0.26526 0.99047-0.89880
   6   4   0 52.6900 68.5391   7 0.32850 0.14769 0.03806 0.29618 0.98928-0.89761
   6   4   0 -101.33 73.2539   6 0.25734 0.21947 0.14025 0.19453 0.98776-0.89600
   6  -4   0 -79.914 63.3985   7 0.39017 0.08593 0.04984-0.38409 0.97724-0.88577
  -6  -4   0 15.8159 80.8098   4-0.00034-0.47595-0.50576 0.17248 0.84640-0.93771
   6  -4   0 117.891 87.3373   9-0.00316 0.47901-0.51051 0.17696-0.84460 0.93584
  -6   4   0 52.0363 92.2414   2-0.30275-0.17450 0.07560 0.25856-0.99051 0.89896
  -6   4   0 -54.798 61.0093   8-0.43229-0.04393-0.10952 0.44434-0.96146 0.86980
   7  -4   0 3448.41 352.687   7 0.41045 0.14503 0.05374-0.38803 0.97221-0.86546
   7   4   0 2917.29 367.585   7 0.35248 0.20310 0.04263 0.29162 0.98516-0.87821
   7  -4   0 3526.53 394.527   9 0.03165 0.52353-0.57586 0.24235-0.79581 0.90224
   7   4   0 3323.11 377.490   6 0.26997 0.28625 0.18075 0.15406 0.98005-0.87304
  -7   4   0 2961.46 398.996   2-0.32023-0.23656 0.09750 0.23669-0.98625 0.87942
   7  -4   0 2977.57 401.597   3 0.32646 0.23002-0.08661-0.24801 0.98639-0.87941
  -7  -4   0 2873.58 363.999   8-0.33564-0.21940-0.07021-0.26342-0.98637 0.87968
   8  -4   0 72.0992 169.341   3 0.34935 0.28664-0.10708-0.22756 0.98060-0.85829
   8  -4   0 -48.078 109.202   7 0.43611 0.19874 0.05870-0.39302 0.96505-0.84301
  -8  -4   0 121.361 117.838   8-0.36235-0.27203-0.08099-0.25261-0.98086 0.85892
   8   4   0 -0.7442 107.531   7 0.38001 0.25496 0.04790 0.28636 0.97955-0.85732
   8   4   0 117.068 121.266   6 0.28476 0.35084 0.22996 0.10487 0.96804-0.84578
  -8   4   0 198.902 118.549   2-0.34098-0.29537 0.12382 0.21040-0.97999 0.85789
   9  -4   0 671.788 203.402   7 0.46521 0.24901 0.06434-0.39869 0.95580-0.81847
   9  -4   0 697.729 277.563   3 0.37477 0.34072-0.13010-0.20456 0.97280-0.83515
  -9  -4   0 604.853 224.826   8-0.39145-0.32228-0.09281-0.24076-0.97368 0.83649
   9   4   0 575.239 221.573   7 0.41001 0.30435 0.05366 0.28060 0.97232-0.83479
  -9   4   0 860.106 293.456   2-0.36424-0.35167 0.15381 0.18045-0.97134 0.83395
  10  -4   0 172.267 191.895   3 0.40217 0.39283-0.15521-0.17945 0.96272-0.80972
  10  -4   0 -111.38 124.779   7 0.49662 0.29697 0.07048-0.40486 0.94441-0.79177
 -10   4   0 149.571 166.604   2-0.38949-0.40600 0.18695 0.14733-0.95983 0.80716
  10   4   0 -37.024 136.270   7 0.44178 0.35198 0.05980 0.27447 0.96334-0.81050
 -10  -4   0 267.040 183.136   8-0.42232-0.37076-0.10543-0.22809-0.96469 0.81223
   0   5   0 -21.563 65.4902   6 0.27849-0.27826 0.20885 0.20898 0.97356-0.97343
   0  -5   0 -47.750 54.9227   9-0.14313 0.14294-0.20864-0.20866-0.97700 0.97687
   0  -5   0 19.8528 29.2049   8-0.66579 0.66556-0.20878-0.20861-0.83096 0.83105
   0   5   0 -22.012 48.5705   1-0.16877 0.16909 0.20865 0.20878-0.97774 0.97784
   0   5   0 -14.027 25.5431   5-0.54749 0.54737 0.20889 0.20873-0.90034 0.90056
   0   5   0 29.4215 40.9220   2-0.40594 0.40567 0.20892 0.20880-0.95105 0.95127
   0  -5   0 45.6909 45.5660   3 0.45917-0.45905-0.20867-0.20872 0.93556-0.93571
   1  -5   0 429.054 104.174   9-0.12958 0.20873-0.24077-0.17648-0.96894 0.98405
  -1  -5   0 415.641 75.7807   3 0.57731-0.65653-0.32596-0.09124 0.84551-0.86097
  -1  -5   0 380.033 111.223   4 0.11930-0.19838-0.23887-0.17854 0.96859-0.98394
  -1  -5   0 279.435 61.4425   8-0.47308 0.39375-0.12638-0.29089-0.94659 0.93129
  -1  -5   0 337.518 93.5557   9-0.15196 0.07242-0.18733-0.23000-0.98164 0.96626
   1   5   0 433.797 118.323   6 0.26543-0.18575 0.16603 0.25192 0.98308-0.96767
  -1   5   0 407.255 104.700   6 0.29711-0.37631 0.27276 0.14491 0.95517-0.97030
   1   5   0 373.498 61.9944   7 0.62885-0.54966 0.09671 0.32072 0.87796-0.86250
   1   5   0 384.899 82.6364   2-0.47674 0.55597 0.30728 0.11053-0.89974 0.91532
   1  -5   0 355.078 95.7489   3 0.38828-0.30876-0.14243-0.27513 0.96806-0.95292
  -1   5   0 380.997 98.4611   1-0.17412 0.09509 0.18305 0.23442-0.98294 0.96779
   2  -5   0 1348.27 180.913   3 0.34858-0.18962-0.10640-0.31132 0.98081-0.95037
   2  -5   0 1414.56 203.815   9-0.11206 0.27056-0.28133-0.13588-0.95690 0.98725
   2   5   0 1425.19 142.522   7 0.46121-0.30269 0.06357 0.35399 0.95714-0.92648
  -2  -5   0 1326.29 199.817   4 0.10310-0.26163-0.27797-0.13934 0.95698-0.98757
   2   5   0 1349.46 199.235   6 0.25766-0.09853 0.14127 0.27681 0.98759-0.95690
   2   5   0 1242.44 194.330   2-0.57436 0.73314 0.45797-0.04007-0.77607 0.80708
  -2  -5   0 1294.43 162.361   8-0.38796 0.22946-0.09139-0.32582-0.97461 0.94407
  -2   5   0 1408.06 199.775   2-0.33223 0.17300 0.11267 0.30495-0.98279 0.95240
  -2   5   0 1268.69 179.481   1-0.17645 0.01803 0.17164 0.24586-0.98502 0.95462
  -2   5   0 1423.32 185.668   6 0.32091-0.47952 0.36079 0.05668 0.92114-0.95149
  -2  -5   0 1489.95 176.906   9-0.15498-0.00389-0.17996-0.23742-0.98312 0.95249
   3  -5   0 2429.72 233.288   4 0.13508 0.10357-0.19985-0.21783 0.97829-0.93257
   3   5   0 2384.53 218.846   7 0.39580-0.15788 0.05092 0.36672 0.97590-0.92998
  -3   5   0 2458.99 287.257   2-0.31840 0.07967 0.09519 0.32242-0.98674 0.94107
   3  -5   0 2124.10 256.204   3 0.32915-0.09072-0.08901-0.32884 0.98577-0.94003
  -3  -5   0 2420.44 216.663   9-0.15054-0.08767-0.19077-0.22664-0.98093 0.93505
   3  -5   0 2835.47 166.997   7 0.66891-0.43103 0.10483-0.52231 0.85074-0.80506
  -3  -5   0 2252.71 274.922   4 0.08346-0.32144-0.32405-0.09315 0.94074-0.98656
   3  -5   0 2261.88 276.204   9-0.09114 0.32897-0.32837-0.08880-0.94023 0.98582
  -3  -5   0 2199.82 225.118   8-0.35097 0.11322-0.07639-0.34079-0.98333 0.93757
   3   5   0 2290.50 273.958   6 0.25466-0.01608 0.13181 0.28636 0.98912-0.94315
  -3   5   0 2290.70 237.577   1-0.17550-0.06236 0.17630 0.24122-0.98419 0.93852
  -3   5   0 2554.31 246.082   6 0.34823-0.58618 0.47494-0.05768 0.86017-0.90570
  -4  -5   0 16.9865 41.3306   9-0.13575-0.18179-0.22623-0.19121-0.97275 0.91163
   4  -5   0 16.7491 46.3000   4 0.11918 0.19885-0.23919-0.17854 0.96851-0.90753
  -4   5   0 41.9105 63.9857   2-0.31463-0.00360 0.09045 0.32717-0.98771 0.92676
   4   5   0 83.9176 66.5166   7 0.37223-0.05492 0.04641 0.37130 0.98123-0.92007
   4  -5   0 15.2242 34.9028   7 0.53615-0.21890 0.07824-0.49582 0.92785-0.86693
   4  -5   0 17.6496 65.8339   9-0.06725 0.38442-0.38027-0.03684-0.91827 0.97908
  -4   5   0 160.929 84.1385   1-0.17074-0.14663 0.19930 0.21818-0.97972 0.91875
  -4   5   0 -92.401 52.9818   6 0.37473-0.69197 0.61394-0.19685 0.75397-0.81462
  -4  -5   0 142.801 79.3753   8-0.33894 0.02193-0.07154-0.34561-0.98575 0.92476
   4  -5   0 86.0384 74.6828   3 0.32329-0.00535-0.08378-0.33416 0.98711-0.92607
   4   5   0 155.217 92.6120   6 0.25581 0.06222 0.13542 0.28281 0.98855-0.92729
  -4  -5   0 178.358 100.232   4 0.06083-0.37825-0.37547-0.04160 0.91919-0.98022
   5   5   0 651.471 163.071   7 0.36970 0.02701 0.04592 0.37183 0.98177-0.90533
   5  -5   0 711.603 140.533   7 0.49102-0.09440 0.06938-0.48704 0.94656-0.87037
  -5  -5   0 612.252 148.720   8-0.34143-0.05488-0.07255-0.34459-0.98526 0.90905
  -5  -5   0 60.7283 163.185   4 0.03554-0.43239-0.43086 0.01392 0.89163-0.96785
   5   5   0 533.443 159.019   6 0.26051 0.13695 0.15030 0.26799 0.98603-0.90949
  -5   5   0 608.044 164.338   2-0.31837-0.07937 0.09515 0.32250-0.98674 0.91051
   5  -5   0 508.264 166.214   3 0.32683 0.07060-0.08694-0.33109 0.98631-0.90996
   5  -5   0 316.727 134.504   9-0.04076 0.43725-0.43570 0.01863-0.89038 0.96640
  -6   5   0 240.026 135.257   2-0.32781-0.14945 0.10707 0.31060-0.98412 0.89261
   6   5   0 -7.6632 79.4525   7 0.37920 0.09690 0.04775 0.37004 0.97973-0.88802
   6  -5   0 179.696 104.574   3 0.33714 0.13980-0.09613-0.32197 0.98383-0.89216
   6   5   0 14.0391 91.2956   6 0.26822 0.20866 0.17505 0.24329 0.98125-0.88945
   6  -5   0 227.881 92.7509   7 0.48003-0.00403 0.06723-0.48495 0.95062-0.85916
   6  -5   0 -31.346 82.3722   9-0.01192 0.48776-0.49347 0.07645-0.85592 0.94715
  -6  -5   0 -49.885 94.3177   8-0.35307-0.12255-0.07724-0.33987-0.98289 0.89145
  -6  -5   0 6.93180 88.8066   4 0.00787-0.48414-0.48900 0.07221 0.85737-0.94875
   7  -5   0 333.400 168.684   3 0.35243 0.20402-0.10986-0.30831 0.97973-0.87274
  -7  -5   0 47.2296 144.609   4-0.02197-0.53372-0.54884 0.13218 0.81569-0.92220
   7   5   0 131.119 115.696   7 0.39624 0.15927 0.05101 0.36679 0.97579-0.86880
  -7  -5   0 212.260 111.546   8-0.37085-0.18410-0.08443-0.33265-0.97889 0.87222
   7   5   0 269.276 137.576   6 0.27842 0.27787 0.20862 0.20976 0.97361-0.86654
  -7   5   0 201.528 138.283   2-0.34165-0.21515 0.12468 0.29302-0.97977 0.87299
   7  -5   0 51.6172 94.8338   9 0.01901 0.53616-0.55256 0.13559-0.81424 0.92068
   8  -5   0 -5.0485 55.8832   9 0.05186 0.58262-0.61206 0.19513-0.76462 0.88626
   8   5   0 314.262 179.294   7 0.41828 0.21662 0.05525 0.36257 0.97012-0.84784
   8  -5   0 17.5605 110.531   3 0.37150 0.26445-0.12712-0.29109 0.97389-0.85157
  -8   5   0 286.379 176.059   2-0.35894-0.27741 0.14692 0.27081-0.97347 0.85141
  -8  -5   0 160.149 143.726   8-0.39292-0.24136-0.09340-0.32366-0.97329 0.85137
   8   5   0 83.6618 106.236   6 0.29068 0.34502 0.25026 0.16815 0.96223-0.83988
  -9  -5   0 -46.687 169.226   8-0.41812-0.29550-0.10370-0.31333-0.96600 0.82883
  -9   5   0 -444.95 221.976   2-0.37896-0.33694 0.17305 0.24471-0.96491 0.82757
   9  -5   0 154.247 213.925   3 0.39349 0.32198-0.14722-0.27103 0.96611-0.82845
   9   5   0 -69.413 140.863   7 0.44382 0.27046 0.06020 0.35764 0.96272-0.82513
  10   5   0 -89.750 165.433   7 0.47192 0.32177 0.06565 0.35218 0.95350-0.80060
 -10   5   0 3.35354 189.107   2-0.40118-0.39429 0.20254 0.21527-0.95370 0.80109
   0  -6   0 1310.46 199.027   9-0.12548 0.12524-0.25036-0.25039-0.96628 0.96612
   0   6   0 1360.90 203.612   6 0.29078-0.29050 0.25059 0.25079 0.96212-0.96196
   0   6   0 1434.44 138.116   5-0.61141 0.61122 0.25068 0.25046-0.85396 0.85429
   0  -6   0 1160.75 190.080   4 0.11455-0.11409-0.25045-0.25055 0.96536-0.96544
   0  -6   0 1325.06 160.063   3 0.50234-0.50222-0.25038-0.25044 0.90864-0.90882
  -1   6   0 129.112 91.7295   1-0.16405 0.08507 0.23062 0.27035-0.97270 0.95755
  -1   6   0 96.1508 51.8521   2-0.39503 0.31522 0.19433 0.30686-0.95698 0.94196
   1  -6   0 96.7821 43.9468   3 0.43681-0.35730-0.18750-0.31350 0.94727-0.93215
  -1  -6   0 66.1146 64.6876   9-0.13169 0.05211-0.23583-0.26496-0.97026 0.95485
  -1  -6   0 182.155 96.4293   4 0.10506-0.18405-0.27331-0.22762 0.95846-0.97381
   1   6   0 121.071 52.2851   6 0.27964-0.19992 0.21268 0.28884 0.97260-0.95715
   1  -6   0 62.3969 49.0271   4 0.11973-0.03983-0.23784-0.26322 0.96887-0.95369
   1  -6   0 202.474 102.696   9-0.11491 0.19402-0.27481-0.22590-0.95898 0.97406
  -1  -6   0 98.9072 58.8415   3 0.60206-0.68127-0.35204-0.14861 0.81886-0.83436
  -1   6   0 -34.563 83.8615   6 0.30616-0.38533 0.30528 0.19595 0.94381-0.95891
   1   6   0 92.2883 54.5476   2-0.49631 0.57547 0.33578 0.16555-0.88091 0.89657
  -1   6   0 97.3217 38.0007   5-0.49873 0.41926 0.17786 0.32311-0.92827 0.91326
  -1  -6   0 50.6536 39.5202   8-0.56888 0.48946-0.16669-0.33401-0.89969 0.88445
   2  -6   0 1067.03 181.857   3 0.39650-0.23754-0.14999-0.35119 0.96496-0.93454
  -2  -6   0 865.542 136.388   8-0.47221 0.31366-0.12601-0.37460-0.94693 0.91641
  -2   6   0 949.047 176.897   1-0.16572 0.00733 0.22291 0.27810-0.97453 0.94412
  -2   6   0 1076.87 181.202   2-0.36829 0.20899 0.15907 0.34208-0.96965 0.93932
   2   6   0 916.297 188.991   6 0.27266-0.11349 0.18956 0.31208 0.97812-0.94740
   2   6   0 793.779 173.685   2-0.57457 0.73328 0.45832 0.04312-0.77571 0.80680
  -2   6   0 1105.23 179.187   6 0.32545-0.48405 0.37862 0.12240 0.91294-0.94325
   2  -6   0 880.700 166.387   4 0.11973 0.03959-0.23782-0.26329 0.96888-0.93842
   2   6   0 1082.46 131.065   7 0.58952-0.43106 0.08883 0.41216 0.90118-0.87043
   2  -6   0 935.017 192.418   9-0.10060 0.25905-0.30729-0.19338-0.94807 0.97839
  -2  -6   0 1036.42 175.020   9-0.13265-0.02627-0.23356-0.26727-0.97086 0.94020
  -2  -6   0 1010.98 196.948   4 0.09184-0.25029-0.30456-0.19626 0.94795-0.97855
  -3   6   0 -4.6227 74.8312   2-0.35313 0.11434 0.13941 0.36173-0.97570 0.93008
  -3   6   0 27.4677 63.5852   1-0.16449-0.07336 0.22863 0.27240-0.97318 0.92750
   3  -6   0 35.4150 60.5760   4 0.11332 0.12541-0.25344-0.24772 0.96449-0.91877
  -3   6   0 -10.427 59.7061   6 0.34757-0.58553 0.47198 0.02884 0.86202-0.90752
   3  -6   0 -10.236 71.6045   9-0.08301 0.32081-0.34625-0.15437-0.93310 0.97866
   3   6   0 -14.636 71.5068   6 0.26955-0.03091 0.17937 0.32237 0.98035-0.93433
   3  -6   0 -45.321 64.7777   3 0.37398-0.13556-0.12937-0.37195 0.97307-0.92735
  -3  -6   0 46.0900 53.7865   9-0.12707-0.11117-0.24665-0.25421-0.96732 0.92141
  -3  -6   0 -8.7311 65.1970   4 0.07536-0.31327-0.34267-0.15806 0.93337-0.97920
  -3  -6   0 99.3074 93.8351   8-0.42330 0.18554-0.10583-0.39477-0.96438 0.91862
   3   6   0 70.9745 74.8007   7 0.49746-0.25962 0.07064 0.43047 0.94409-0.89811
  -4  -6   0 706.569 157.692   8-0.40113 0.08412-0.09675-0.40381-0.97102 0.91004
   4  -6   0 540.620 152.849   3 0.36414-0.04624-0.12043-0.38100 0.97624-0.91521
   4  -6   0 576.754 182.435   9-0.06250 0.37964-0.39036-0.11022-0.91355 0.97433
  -4  -6   0 552.201 159.979   4 0.05598-0.37334-0.38627-0.11432 0.91418-0.97523
  -4  -6   0 630.521 127.556   9-0.11284-0.20474-0.27957-0.22132-0.95747 0.89631
  -4   6   0 555.915 176.651   2-0.34695 0.02869 0.13148 0.36966-0.97794 0.91704
  -4   6   0 626.637 149.987   6 0.36995-0.68724 0.58509-0.08446 0.77947-0.84012
   4   6   0 654.029 133.363   7 0.45545-0.13823 0.06245 0.43874 0.95904-0.89781
   4   6   0 466.712 151.561   6 0.26991 0.04817 0.18053 0.32128 0.98010-0.91880
  -5  -6   0 133.554 99.7765   8-0.39526-0.00102-0.09436-0.40620-0.97265 0.89645
   5   6   0 115.671 84.4170   7 0.43964-0.04303 0.05939 0.44186 0.96399-0.88750
  -5  -6   0 1.68874 122.457   4 0.03396-0.43076-0.43424-0.06622 0.88979-0.96604
   5  -6   0 27.2211 90.4449   3 0.36353 0.03386-0.11988-0.38166 0.97643-0.90008
   5   6   0 87.2833 98.8658   6 0.27332 0.12420 0.19173 0.31014 0.97763-0.90104
  -5   6   0 -29.307 108.909   2-0.34780-0.04998 0.13256 0.36859-0.97764 0.90146
   5  -6   0 187.415 131.253   9-0.03940 0.43587-0.43847-0.06206-0.88885 0.96486
  -6  -6   0 10.2796 124.478   4 0.00956-0.48579-0.48553-0.01480 0.85958-0.95100
   6   6   0 -32.790 82.6832   7 0.43918 0.03683 0.05930 0.44200 0.96413-0.87236
  -6  -6   0 34.3502 110.253   8-0.40000-0.07557-0.09629-0.40424-0.97134 0.87991
  -6   6   0 -103.10 136.881   2-0.35417-0.12312 0.14075 0.36042-0.97531 0.88385
   6   6   0 176.842 137.277   6 0.27940 0.19755 0.21189 0.29004 0.97280-0.88093
   6  -6   0 68.6283 93.0735   9-0.01391 0.48972-0.48957-0.01091-0.85843 0.94965
   6  -6   0 55.7559 93.4404   3 0.36980 0.10710-0.12557-0.37606 0.97444-0.88278
  -7  -6   0 41.9188 170.483   4-0.01707-0.53860-0.53922 0.03902 0.82287-0.92944
   7   6   0 -64.906 121.592   7 0.44847 0.10693 0.06110 0.44024 0.96127-0.85422
   7  -6   0 -16.484 114.357   9 0.01376 0.54139-0.54274 0.04231-0.82166 0.92808
   7  -6   0 249.627 176.019   3 0.38130 0.17511-0.13605-0.36565 0.97056-0.86357
  -7   6   0 -41.694 123.376   2-0.36491-0.19190 0.15469 0.34653-0.97106 0.86433
   7   6   0 43.5786 122.320   6 0.28775 0.26862 0.24015 0.26180 0.96519-0.85804
  -7  -6   0 -34.879 109.278   8-0.41203-0.14285-0.10121-0.39931-0.96785 0.86119
   8  -6   0 423.831 199.289   3 0.39685 0.23906-0.15032-0.35144 0.96482-0.84249
   8   6   0 374.810 193.737   7 0.46434 0.17046 0.06417 0.43718 0.95610-0.83376
  -8   6   0 707.751 249.643   2-0.37919-0.25716 0.17335 0.32789-0.96480 0.84280
   8   6   0 386.721 176.943   6 0.29800 0.33777 0.27592 0.22606 0.95412-0.83171
  -8  -6   0 75.6204 123.065   8-0.42926-0.20492-0.10827-0.39223-0.96246 0.84057
   8  -6   0 224.716 140.670   9 0.04346 0.59102-0.59715 0.09676-0.77785 0.89948
  -9   6   0 333.381 188.357   5-0.43567-0.27879 0.13865 0.36195-0.95645 0.81951
  -9   6   0 -176.99 236.148   2-0.39633-0.31957 0.19604 0.30524-0.95631 0.81904
   9  -6   0 305.013 205.837   3 0.41561 0.29983-0.16766-0.33413 0.95710-0.81942
   9   6   0 233.803 169.444   7 0.48485 0.22935 0.06817 0.43321 0.94886-0.81121
  -9  -6   0 100.123 199.143   8-0.45035-0.26317-0.11696-0.38353-0.95522 0.81809
   0   7   0 95.8333 88.0138   2-0.46642 0.46602 0.29250 0.29228-0.90877 0.90916
   0  -7   0 -23.828 72.6265   3 0.54426-0.54413-0.29209-0.29218 0.87625-0.87645
   0  -7   0 35.1255 64.8446   4 0.09711-0.09657-0.29217-0.29232 0.95227-0.95235
   0  -7   0 -111.24 67.6331   9-0.10733 0.10705-0.29209-0.29212-0.95335 0.95315
   0   7   0 90.5926 105.396   6 0.30259-0.30229 0.29235 0.29261 0.94849-0.94828
   1   7   0 703.102 166.274   6 0.29293-0.21316 0.25806 0.32703 0.95985-0.94436
  -1   7   0 767.672 156.962   2-0.42856 0.34868 0.23962 0.34511-0.93719 0.92224
   1  -7   0 882.338 153.132   3 0.48334-0.40382-0.23187-0.35257 0.92123-0.90613
   1  -7   0 775.321 162.400   9-0.09900 0.17806-0.31088-0.27330-0.94678 0.96183
   1  -7   0 799.392 190.168   4 0.10057-0.02059-0.28399-0.30056 0.95502-0.93982
  -1   7   0 795.260 181.040   6 0.31561-0.39476 0.34048 0.24431 0.92993-0.94498
  -1  -7   0 765.466 170.349   9-0.11161 0.03199-0.28236-0.30189-0.95657 0.94112
   1   7   0 845.850 157.835   2-0.51810 0.59720 0.36839 0.21649-0.85696 0.87273
  -1  -7   0 682.920 165.916   4 0.08966-0.16857-0.30967-0.27475 0.94611-0.96145
   2  -7   0 1696.52 279.051   9-0.08713 0.24554-0.33722-0.24692-0.93676 0.96705
  -2   7   0 1610.95 246.381   2-0.40272 0.24337 0.20459 0.38009-0.95285 0.92260
   2  -7   0 1697.04 252.692   4 0.09933 0.06007-0.28692-0.29766 0.95404-0.92358
  -2  -7   0 2043.23 304.688   4 0.07872-0.23709-0.33497-0.24936 0.93647-0.96707
   2   7   0 1977.84 293.305   6 0.28661-0.12738 0.23627 0.34895 0.96629-0.93552
  -2  -7   0 1708.25 240.495   9-0.11109-0.04787-0.28355-0.30073-0.95618 0.92548
   2  -7   0 1937.21 258.696   3 0.44307-0.28413-0.19339-0.39122 0.94413-0.91373
  -2  -7   0 1806.69 217.270   8-0.55829 0.39966-0.16218-0.42185-0.90578 0.87532
  -2   7   0 1864.57 285.109   6 0.33169-0.49025 0.40374 0.18085 0.90058-0.93086
  -2   7   0 1595.87 196.838   5-0.49935 0.34052 0.17825 0.40611-0.92795 0.89775
   3  -7   0 2954.10 334.642   3 0.41841-0.18002-0.17028-0.41450 0.95587-0.91015
  -3   7   0 3686.04 373.642   6 0.34999-0.58795 0.48305 0.10134 0.85503-0.90050
  -3   7   0 3208.26 380.937   2-0.38678 0.14795 0.18337 0.40129-0.96117 0.91562
   3  -7   0 2956.66 369.214   9-0.07213 0.30988-0.36983-0.21426-0.92301 0.96853
  -3  -7   0 3086.56 395.292   4 0.06469-0.30252-0.36683-0.21741 0.92307-0.96891
   3  -7   0 3228.26 351.498   4 0.09238 0.14643-0.30330-0.28132 0.94840-0.90266
  -3   7   0 2345.12 258.157   5-0.45972 0.22158 0.15348 0.43079-0.94668 0.90122
  -3  -7   0 3208.46 325.741   9-0.10471-0.13358-0.29803-0.28627-0.95133 0.90538
   3   7   0 3026.25 374.040   6 0.28349-0.04481 0.22565 0.35966 0.96922-0.92315
  -4  -7   0 12.2308 109.233   4 0.04786-0.36515-0.40414-0.17998 0.90551-0.96657
  -4  -7   0 152.312 100.505   9-0.09080-0.22681-0.32911-0.25523-0.93995 0.87875
   4  -7   0 25.6564 100.023   3 0.40547-0.08761-0.15827-0.42664 0.96138-0.90035
   4  -7   0 -70.597 140.963   9-0.05431 0.37141-0.40761-0.17644-0.90511 0.96587
   4   7   0 29.3431 93.2538   6 0.28331 0.03482 0.22506 0.36032 0.96937-0.90802
   4  -7   0 2.02575 91.6465   4 0.07813 0.24004-0.33632-0.24833 0.93593-0.87494
  -4  -7   0 133.335 111.698   8-0.46787 0.15087-0.12421-0.45975-0.94864 0.88769
  -4   7   0 62.7482 86.5082   6 0.36878-0.68608 0.57836 0.00582 0.78513-0.84575
  -4   7   0 -20.661 81.3794   5-0.43841 0.12093 0.14033 0.44389-0.95540 0.89471
  -4   7   0 228.469 156.618   2-0.37887 0.06056 0.17294 0.41172-0.96495 0.90411
   5  -7   0 94.2861 89.0493   3 0.40142-0.00407-0.15452-0.43051 0.96302-0.88667
  -5  -7   0 8.71824 126.959   4 0.02848-0.42523-0.44593-0.13807 0.88329-0.95956
  -5  -7   0 -4.7179 92.1649   8-0.45404 0.05780-0.11849-0.46546-0.95388 0.87770
  -5   7   0 -125.80 173.271   2-0.37745-0.02036 0.17107 0.41360-0.96560 0.88949
   5   7   0 -103.82 105.565   6 0.28579 0.11179 0.23348 0.35196 0.96707-0.89043
   5  -7   0 98.5404 131.337   9-0.03394 0.43037-0.44959-0.13441-0.88262 0.95860
   6  -7   0 770.206 236.720   3 0.40421 0.07265-0.15710-0.42803 0.96190-0.87023
   6  -7   0 999.802 267.931   9-0.01120 0.48698-0.49488-0.08907-0.85500 0.94620
  -6   7   0 580.022 210.042   2-0.38129-0.09603 0.17612 0.40857-0.96382 0.87243
   6   7   0 520.767 193.102   6 0.29062 0.18639 0.25008 0.33542 0.96228-0.87035
  -6  -7   0 5.83613 176.859   8-0.45203-0.02349-0.11766-0.46629-0.95461 0.86320
  -6  -7   0 55.3457 260.353   4 0.00674-0.48293-0.49132-0.09255 0.85589-0.94734
   7  -7   0 -173.27 177.247   3 0.41233 0.14403-0.16461-0.42060 0.95851-0.85151
  -7  -7   0 70.9967 150.028   4-0.01720-0.53844-0.53948-0.04425 0.82268-0.92928
  -7   7   0 -22.493 113.978   2-0.38942-0.16741 0.18687 0.39785-0.95986 0.85320
   7   7   0 150.380 130.532   7 0.50851 0.04679 0.07281 0.51204 0.93970-0.83258
  -7   7   0 5.71018 115.310   5-0.43792-0.11768 0.14003 0.44409-0.95559 0.84919
  -7  -7   0 102.153 123.050   8-0.45832-0.09649-0.12026-0.46368-0.95229 0.84566
   7  -7   0 93.5423 125.168   9 0.01373 0.54139-0.54269-0.04121-0.82170 0.92811
   7   7   0 -96.622 109.466   6 0.29751 0.25892 0.27419 0.31135 0.95470-0.84748
  -8  -7   0 235.908 231.406   8-0.47064-0.16347-0.12536-0.45857-0.94756 0.82569
  -8   7   0 708.737 252.578   5-0.45048-0.18451 0.14777 0.43632-0.95057 0.82894
   8   7   0 525.344 219.749   6 0.30616 0.32969 0.30527 0.28028 0.94382-0.82132
   8  -7   0 238.210 177.598   3 0.42467 0.21120-0.17612-0.40917 0.95304-0.83069
  -8   7   0 695.186 292.181   2-0.40108-0.23529 0.20240 0.38236-0.95375 0.83182
   8  -7   0 354.253 198.212   9 0.04072 0.59373-0.59226 0.00841-0.78208 0.90369
   8   7   0 155.137 132.073   7 0.51765 0.11704 0.07459 0.51028 0.93593-0.81351
   9   7   0 68.3282 129.841   7 0.53263 0.18146 0.07754 0.50737 0.92944-0.79171
   0  -8   0 4804.08 478.191   4 0.07919-0.07856-0.33390-0.33408 0.93690-0.93696
   0   8   0 5124.79 491.708   6 0.31393-0.31359 0.33409 0.33443 0.93258-0.93231
   0   8   0 5369.71 439.093   2-0.49529 0.49484 0.33430 0.33403-0.88194 0.88244
   0  -8   0 4421.15 440.552   9-0.08867 0.08835-0.33382-0.33386-0.93811 0.93787
  -1  -8   0 648.699 176.237   4 0.07335-0.15217-0.34725-0.32066 0.93148-0.94680
   1  -8   0 746.630 167.149   3 0.52804-0.44853-0.27579-0.39208 0.88959-0.87449
  -1   8   0 737.779 183.372   2-0.46059 0.38064 0.28421 0.38404-0.91362 0.89877
   1  -8   0 791.393 196.173   4 0.08130-0.00124-0.32903-0.33899 0.93881-0.92360
   1   8   0 1048.78 223.152   2-0.54076 0.61981 0.40339 0.26502-0.82816 0.84404
   1   8   0 804.562 200.690   6 0.30543-0.22563 0.30262 0.36604 0.94480-0.92925
  -1   8   0 930.762 211.702   6 0.32512-0.40424 0.37732 0.29103 0.91355-0.92854
  -1  -8   0 622.507 152.392   9-0.09144 0.01178-0.32770-0.34000-0.94049 0.92500
   1  -8   0 959.707 230.499   9-0.08209 0.16111-0.34824-0.31940-0.93228 0.94729
   2   8   0 79.1828 98.5348   6 0.29969-0.14043 0.28193 0.38684 0.95211-0.92128
  -2   8   0 0.12240 77.4003   2-0.43575 0.27633 0.24952 0.41870-0.93232 0.90216
  -2   8   0 128.185 96.1056   6 0.33874-0.49729 0.43321 0.23494 0.88486-0.91508
  -2  -8   0 20.2184 136.648   4 0.06422-0.22250-0.36788-0.29996 0.92261-0.95319
   2  -8   0 142.942 121.745   3 0.48831-0.32938-0.23669-0.43137 0.91805-0.88766
   2  -8   0 -93.236 97.0614   4 0.07909 0.08040-0.33413-0.33392 0.93681-0.90632
  -2  -8   0 43.5349 96.1401   9-0.08976-0.06924-0.33142-0.33631-0.93905 0.90831
   2  -8   0 -42.232 100.482   9-0.07217 0.23054-0.36974-0.29786-0.92305 0.95330
  -3   8   0 496.142 178.430   6 0.35410-0.59205 0.50239 0.16557 0.84229-0.88771
   3  -8   0 317.995 157.219   3 0.46224-0.22387-0.21159-0.45663 0.93384-0.88813
  -3   8   0 394.780 166.244   2-0.41943 0.18054 0.22716 0.44103-0.94304 0.89758
  -3  -8   0 258.066 171.666   4 0.05216-0.28990-0.39472-0.27303 0.91014-0.95597
   3   8   0 417.470 176.962   6 0.29663-0.05790 0.27108 0.39779 0.95572-0.90960
   3  -8   0 711.953 238.517   9-0.05925 0.29697-0.39723-0.27033-0.91024 0.95574
  -3  -8   0 419.223 154.375   9-0.08273-0.15560-0.34686-0.32090-0.93285 0.88686
   3  -8   0 293.144 154.568   4 0.07168 0.16720-0.35104-0.31704 0.92989-0.88414
  -3   8   0 477.748 145.597   5-0.51982 0.28163 0.19120 0.47656-0.91690 0.87154
   4  -8   0 273.556 147.972   3 0.44691-0.12907-0.19702-0.47135 0.94216-0.88113
   4   8   0 68.9870 139.742   6 0.29609 0.02209 0.26918 0.39977 0.95634-0.89492
  -4  -8   0 82.5038 116.940   4 0.03740-0.35462-0.42685-0.24080 0.89378-0.95484
  -4   8   0 65.9914 109.910   2-0.41027 0.09189 0.21474 0.45343-0.94857 0.88781
   4  -8   0 115.127 96.5890   9-0.04363 0.36068-0.42980-0.23772-0.89358 0.95431
  -4   8   0 187.459 103.098   5-0.49381 0.17630 0.17476 0.49293-0.93077 0.87016
   5  -8   0 383.113 228.260   3 0.44002-0.04270-0.19051-0.47799 0.94568-0.86933
  -5   8   0 392.135 191.418   2-0.40707 0.00920 0.21043 0.45775-0.95041 0.87437
   5   8   0 559.224 224.565   6 0.29786 0.09976 0.27545 0.39356 0.95428-0.87757
   5  -8   0 216.658 137.763   9-0.02550 0.42190-0.46658-0.20089-0.87267 0.94863
  -5  -8   0 272.588 183.899   8-0.51684 0.12058-0.14465-0.52269-0.92739 0.85125
  -5   8   0 419.527 171.345   5-0.48049 0.08365 0.16642 0.50122-0.93728 0.86144
  -5  -8   0 14.5185 160.124   4 0.02018-0.41686-0.46345-0.20409 0.87314-0.94941
  -6  -8   0 84.2028 214.516   4 0.00065-0.47679-0.50375-0.16366 0.84774-0.93920
  -6   8   0 875.743 290.942   2-0.40884-0.06853 0.21281 0.45539-0.94940 0.85808
  -6   8   0 312.957 185.128   5-0.47658 0.00037 0.16398 0.50363-0.93912 0.84805
   6  -8   0 300.221 191.560   3 0.43981 0.03701-0.19031-0.47830 0.94578-0.85410
   6   8   0 401.995 204.695   6 0.30173 0.17534 0.28924 0.37982 0.94959-0.85758
  -6  -8   0 186.156 155.825   8-0.50834 0.03284-0.14109-0.52625-0.93139 0.84003
   6  -8   0 523.658 227.680   9-0.00505 0.48080-0.50685-0.16057-0.84708 0.93826
  -7   8   0 -29.267 133.018   2-0.41474-0.14212 0.22078 0.44744-0.94592 0.83933
   7   8   0 385.127 201.883   6 0.30744 0.24906 0.30999 0.35910 0.94205-0.83475
   7  -8   0 220.634 185.372   9 0.01756 0.53753-0.54987-0.11750-0.81630 0.92269
  -7   8   0 233.355 181.345   5-0.47979-0.07579 0.16598 0.50159-0.93762 0.83131
  -7  -8   0 -70.440 137.885   8-0.50898-0.04578-0.14136-0.52598-0.93110 0.82450
  -7  -8   0 121.964 206.843   4-0.02104-0.53455-0.54703-0.12024 0.81706-0.92368
   7  -8   0 49.1237 116.414   3 0.44493 0.11139-0.19515-0.47356 0.94318-0.83615
  -8  -8   0 192.028 179.450   8-0.51639-0.11766-0.14447-0.52286-0.92760 0.80578
   8   8   0 94.2307 149.403   6 0.31477 0.32115 0.33727 0.33185 0.93127-0.80867
   8  -8   0 304.504 209.869   9 0.04224 0.59219-0.59498-0.07234-0.77974 0.90134
   0  -9   0 -85.222 121.191   4 0.06076-0.06005-0.37562-0.37584 0.91912-0.91916
   0  -9   0 28.4048 103.531   9-0.06946 0.06910-0.37555-0.37560-0.92044 0.92016
   0   9   0 -110.55 142.553   6 0.32475-0.32438 0.37582 0.37625 0.91426-0.91392
  -1  -9   0 104.531 144.198   4 0.05625-0.13497-0.38568-0.36573 0.91446-0.92976
   1  -9   0 -47.234 116.798   4 0.06177 0.01838-0.37337-0.37813 0.92014-0.90491
  -1  -9   0 -89.129 142.840   9-0.07099-0.00872-0.37227-0.37889-0.92191 0.90638
   1   9   0 -10.437 97.1766   6 0.31723-0.23740 0.34661 0.40560 0.92734-0.91173
   1  -9   0 239.381 159.260   9-0.06433 0.14331-0.38648-0.36461-0.91538 0.93035
  -1   9   0 -82.997 132.162   6 0.33447-0.41356 0.41524 0.33667 0.89461-0.90954
  -1   9   0 75.4447 106.734   2-0.49124 0.41123 0.32834 0.42346-0.88602 0.87129
   2  -9   0 68.2680 138.088   4 0.05874 0.10084-0.38015-0.37137 0.91704-0.88653
   2  -9   0 99.0353 139.262   9-0.05601 0.21434-0.40405-0.34701-0.90689 0.93711
  -2   9   0 -138.48 101.662   6 0.34612-0.50465 0.46547 0.28625 0.86603-0.89618
   2   9   0 22.8066 120.879   6 0.31200-0.15270 0.32689 0.42546 0.93549-0.90460
  -2  -9   0 107.265 124.942   9-0.06834-0.09070-0.37794-0.37325-0.91934 0.88856
  -2  -9   0 96.4542 153.501   4 0.04861-0.20680-0.40251-0.34884 0.90632-0.93688
   2  -9   0 -81.386 114.307   3 0.53217-0.37325-0.27992-0.47157 0.88630-0.85590
  -2   9   0 -25.984 116.303   2-0.46748 0.30801 0.29402 0.45773-0.90787 0.87781
   3  -9   0 390.792 183.152   4 0.05090 0.18807-0.39747-0.35407 0.90880-0.86302
  -3   9   0 196.833 143.477   2-0.45107 0.21211 0.27082 0.48089-0.92114 0.87578
  -3  -9   0 67.6068 122.218   4 0.03815-0.27582-0.42522-0.32605 0.89465-0.94046
   3   9   0 203.813 150.154   6 0.30905-0.07028 0.31591 0.43653 0.93980-0.89361
   3  -9   0 288.513 207.657   9-0.04483 0.28249-0.42733-0.32370-0.89490 0.94036
   3  -9   0 348.814 140.004   3 0.50526-0.26692-0.25324-0.49843 0.90659-0.86088
  -3  -9   0 405.978 176.567   9-0.06073-0.17764-0.39412-0.35709-0.91175 0.86572
  -3   9   0 466.031 190.245   6 0.35913-0.59706 0.52698 0.22454 0.82507-0.87042
  -4  -9   0 116.019 212.065   4 0.02513-0.34227-0.45303-0.29815 0.87924-0.94029
  -4   9   0 324.435 215.869   2-0.44102 0.12259 0.25681 0.49488-0.92860 0.86794
   4   9   0 463.299 198.739   6 0.30827 0.00997 0.31302 0.43950 0.94090-0.87942
   4  -9   0 386.594 186.530   3 0.48812-0.17032-0.23651-0.51531 0.91817-0.85713
   4  -9   0 511.263 243.056   9-0.03101 0.34803-0.45551-0.29548-0.87921 0.93990
   5  -9   0 182.717 138.903   9-0.01477 0.41114-0.48787-0.26307-0.85951 0.93544
  -5  -9   0 -5.8118 168.003   4 0.00972-0.40632-0.48520-0.26586 0.85979-0.93605
  -5   9   0 160.972 149.798   2-0.43644 0.03853 0.25046 0.50124-0.93184 0.85590
   5  -9   0 -108.85 171.073   3 0.47892-0.08164-0.22760-0.52436 0.92399-0.84762
   5   9   0 327.386 210.530   6 0.30951 0.08818 0.31761 0.43498 0.93914-0.86236
  -5   9   0 147.039 130.183   5-0.53256 0.13570 0.19931 0.55178-0.90952 0.83377
  -6  -9   0 59.4058 202.677   4-0.00795-0.46813-0.52109-0.22986 0.83589-0.92735
  -6   9   0 341.851 197.487   5-0.52458 0.04836 0.19422 0.55684-0.91419 0.82322
   6  -9   0 113.853 162.206   3 0.47615 0.00062-0.22493-0.52715 0.92568-0.83398
   6   9   0 116.177 141.056   6 0.31260 0.16453 0.32912 0.42350 0.93460-0.84251
  -6   9   0 437.330 288.935   2-0.43650-0.04090 0.25055 0.50116-0.93180 0.84057
   6  -9   0 37.5354 142.737   9 0.00373 0.47198-0.52375-0.22714-0.83543 0.92658
  -7   9   0 191.152 152.468   5-0.52391-0.03167 0.19380 0.55724-0.91457 0.80837
   0 -10   0 322.082 180.566   4 0.04180-0.04099-0.41735-0.41760 0.89879-0.89879
   0  10   0 -131.41 130.410   6 0.33503-0.33463 0.41756 0.41808 0.89338-0.89296
   0 -10   0 -2.4819 157.213   9-0.04968 0.04927-0.41727-0.41733-0.90019 0.89986
   1  10   0 218.695 150.565   6 0.32835-0.24848 0.39022 0.44556 0.90735-0.89166
   1 -10   0 181.379 140.351   4 0.04186 0.03839-0.41722-0.41775 0.89885-0.88359
  -1  10   0 177.397 107.896   6 0.34352-0.42257 0.45388 0.38160 0.87300-0.88784
  -1 -10   0 211.481 168.535   9-0.05015-0.02961-0.41631-0.41830-0.90068 0.88511
   1 -10   0 168.311 152.910   9-0.04579 0.12471-0.42535-0.40921-0.89595 0.91088
  -1 -10   0 -105.91 155.330   4 0.03840-0.11704-0.42470-0.41021 0.89493-0.91021
   2 -10   0 234.204 133.043   4 0.03809 0.12157-0.42535-0.40964 0.89458-0.86403
  -2 -10   0 507.884 227.340   9-0.04665-0.11244-0.42356-0.41108-0.89690 0.86607
  -2  10   0 322.060 214.236   6 0.35353-0.51203 0.49963 0.33565 0.84414-0.87421
  -2 -10   0 266.429 215.107   4 0.03203-0.19013-0.43838-0.39647 0.88752-0.91805
  -2  10   0 251.203 143.879   2-0.49796 0.33842 0.33822 0.49705-0.87921 0.84929
   2 -10   0 215.638 200.555   9-0.03882 0.19710-0.43965-0.39488-0.88820 0.91838
   2  10   0 574.143 217.455   6 0.32361-0.16426 0.37133 0.46457 0.91635-0.88538
  -3 -10   0 -34.969 138.073   4 0.02295-0.26053-0.45762-0.37716 0.87657-0.92235
   3  10   0 173.349 190.880   6 0.32078-0.08197 0.36032 0.47568 0.92135-0.87509
   3 -10   0 -146.60 167.425   9-0.02909 0.26672-0.45937-0.37512-0.87695 0.92237
  -3  10   0 -160.76 176.158   2-0.48167 0.24266 0.31440 0.52084-0.89522 0.84996
   4 -10   0 -55.739 141.699   3 0.52887-0.21109-0.27662-0.55864 0.88893-0.82787
  -4  10   0 -96.281 123.656   2-0.47104 0.15256 0.29910 0.53611-0.90480 0.84425
   5 -10   0 190.368 124.409   3 0.51780-0.12056-0.26561-0.56980 0.89747-0.82108
   0 -11   0 180.320 225.916   9-0.02928 0.02882-0.45899-0.45905-0.87718 0.87681
   0  11   0 46.0986 185.598   6 0.34474-0.34429 0.45929 0.45990 0.86977-0.86927
   0 -11   0 12.3951 166.106   4 0.02226-0.02135-0.45907-0.45936 0.87573-0.87569
  -1  11   0 491.285 291.219   6 0.35213-0.43116 0.49305 0.42599 0.84853-0.86327
  -1 -11   0 302.373 184.986   9-0.02880-0.05100-0.45997-0.45810-0.87660 0.86098
   1 -11   0 443.828 190.953   4 0.02148 0.05886-0.46073-0.45772 0.87475-0.85944
 -11   0   1 -5.4371 110.962   5-0.53624-0.31669 0.20167-0.20206-0.90731 0.84860
 -11   0   1 -129.60 193.636   8-0.53656-0.31522-0.15296 0.15351-0.91755 0.85857
  11   0  -1 282.105 194.700   7 0.53762 0.31426 0.07853-0.07874 0.92719-0.86810
 -10   0   1 190.604 152.527   8-0.51077-0.26162-0.14211 0.14257-0.93026 0.88658
  10   0  -1 377.281 197.624   7 0.51174 0.26074 0.07343-0.07363 0.93838-0.89460
 -10   0   1 142.316 127.948   5-0.51058-0.26289 0.18534-0.18567-0.92201 0.87860
  -9   0   1 -177.88 133.786   8-0.48770-0.20532-0.13246 0.13286-0.94056 0.91217
  -9   0   1 -108.39 115.129   5-0.48759-0.20641 0.17086-0.17114-0.93386 0.90574
   9   0  -1 -49.369 90.6569   3 0.48511 0.20853-0.23359 0.23361 0.92010-0.89189
  -8   0   1 1638.43 221.042   2-0.46273-0.15287 0.28726-0.28706-0.91186 0.89857
  -8   0   1 1494.79 222.148   5-0.46830-0.14622 0.15882-0.15904-0.94290 0.93006
   8   0  -1 1464.38 217.870   3 0.46605 0.14810-0.21524 0.21524 0.93166-0.91878
  -8   0   1 1609.67 265.621   8-0.46836-0.14529-0.12442 0.12474-0.94845 0.93534
   8   0  -1 1656.77 269.532   7 0.46924 0.14447 0.06513-0.06529 0.95443-0.94123
   7   0  -1 72.2904 62.9137   3 0.45212 0.08253-0.20197 0.20195 0.93940-0.94182
   7   0  -1 -91.004 90.2720   7 0.45520 0.07911 0.06240-0.06256 0.95912-0.96119
  -7   0   1 -86.177 73.1147   5-0.45428-0.08079 0.15012-0.15028-0.94899 0.95142
  -7   0   1 2.98819 56.7742   2-0.44874-0.08727 0.26756-0.26736-0.92292 0.92492
  -7   0   1 20.8051 66.9167   8-0.45433-0.07995-0.11861 0.11886-0.95377 0.95593
  -6   0   1 -84.726 61.3482   2-0.44196-0.01446 0.25812-0.25793-0.92792 0.94521
   6   0  -1 -34.958 59.2065   7 0.44910 0.00583 0.06122-0.06135 0.96107-0.97841
  -6   0   1 -40.235 49.9806   5-0.44804-0.00758 0.14626-0.14637-0.95157 0.96928
  -6   0   1 -0.0734 57.6017   8-0.44814-0.00677-0.11605 0.11624-0.95601 0.97343
  -5   0   1 -19.024 38.9943   2-0.44618 0.06934 0.26399-0.26380-0.92483 0.95741
   5   0  -1 49.5453 40.7179   3 0.45108-0.07540-0.20097 0.20096 0.93996-0.97293
   5   0  -1 -40.129 57.2827   7 0.45531-0.07977 0.06242-0.06255 0.95908-0.99166
  -5   0   1 65.1998 51.8074   5-0.45381 0.07764 0.14983-0.14988-0.94919 0.98217
  -5   0   1 56.0482 31.8650   4 0.05892-0.43524-0.37972 0.38016 0.91724-0.88441
   5   0  -1 26.3566 32.0037   9-0.05635 0.43215-0.40335 0.40350-0.90724 0.87461
  -5   0   1 114.090 71.2435   8-0.45412 0.07857-0.11852 0.11865-0.95385 0.98651
  -4   0   1 1801.34 156.361   5-0.47926 0.18253 0.16565-0.16564-0.93787 0.98611
   4   0  -1 1563.91 98.1559   9-0.18430 0.48080-0.10662 0.10672-0.99431 0.94650
  -4   0   1 1614.44 108.926   4 0.18528-0.48232-0.06875 0.06902 0.99759-0.94964
  -4   0   1 1513.90 144.201   2-0.46762 0.17034 0.29421-0.29402-0.90775 0.95562
   4   0  -1 1686.31 155.087   3 0.47512-0.17892-0.22394 0.22394 0.92630-0.97450
  -4   0   1 1725.06 174.094   8-0.48019 0.18398-0.12933 0.12940-0.94370 0.99161
   4   0  -1 1669.90 173.756   7 0.48201-0.18585 0.06762-0.06773 0.94990-0.99771
  -3   0   1 11.0523 15.3879   4 0.30716-0.52488 0.31107-0.31098 0.94173-0.87850
  -3   0   1 63.2832 30.6825   8-0.54155 0.32468-0.15508 0.15508-0.91493 0.97806
   3   0  -1 21.2374 17.1503   9-0.31279 0.52998 0.26979-0.26975-0.95375 0.89072
  -3   0   1 40.9121 21.2612   6 0.30800-0.52509 0.31204-0.31205 0.94128-0.87799
   3   0  -1 1.51356 13.9639   3 0.53028-0.31351-0.27802 0.27803 0.88781-0.95121
  -3   0   1 13.6377 19.9268   5-0.53865 0.32136 0.20322-0.20315-0.90584 0.96936
  -3   0   1 16.5494 20.9141   2-0.51573 0.29803 0.36480-0.36462-0.85973 0.92289
   3   0  -1 -8.0411 19.7520   7 0.54517-0.32836 0.08002-0.08012 0.92371-0.98672
   2   0  -1 543.637 76.2423   7 0.67566-0.53816 0.10621-0.10629 0.84576-0.92396
   2   0  -1 665.037 94.7379   3 0.63287-0.49546-0.38552 0.38553 0.78041-0.85896
  -2   0   1 633.821 86.0280   8-0.66596 0.52839-0.20885 0.20879-0.83082 0.90917
  -2   0   1 671.234 87.5759   5-0.65580 0.51795 0.28061-0.28051-0.81369 0.89248
   5   0   1 131.172 84.1179   7-0.03274 0.45104-0.02890 0.02897 0.97414-0.78876
  -5   0  -1 48.6120 52.3950   8 0.03254-0.45043 0.07282-0.07238-0.97198 0.78675
  -6   0  -1 40.9912 68.6152   8-0.04540-0.45184 0.04334-0.04283-0.98815 0.78766
   6   0   1 48.4744 90.3481   7 0.04558 0.45211-0.01466 0.01471 0.98900-0.78837
   7   0   1 230.676 154.792   7 0.11420 0.46286-0.00206 0.00210 0.99689-0.78100
  -7   0  -1 -73.996 112.546   8-0.11390-0.46270 0.01709-0.01651-0.99672 0.78096
 -11  -1   1 701.554 280.773   8-0.52688-0.32480-0.14888 0.06583-0.92247 0.86354
  11   1  -1 339.271 192.114   7 0.53434 0.31755 0.07788 0.00549 0.92867-0.86956
 -11   1   1 347.931 208.594   8-0.55475-0.29711-0.16067 0.24482-0.90777 0.84873
  11  -1  -1 565.906 252.902   7 0.54870 0.30314 0.08072-0.16451 0.92205-0.86297
 -11   1   1 462.591 216.413   5-0.52274-0.33009 0.19305-0.10986-0.91524 0.85663
  10  -1  -1 140.814 151.175   7 0.52344 0.24902 0.07573-0.15951 0.93346-0.88969
  10   1  -1 167.346 139.115   7 0.50864 0.26386 0.07283 0.01056 0.93965-0.89584
 -10   1   1 187.610 151.846   5-0.49728-0.27609 0.17695-0.09371-0.92901 0.88567
 -10   1   1 209.784 169.779   8-0.52974-0.24273-0.15009 0.23416-0.92104 0.87731
 -10  -1   1 176.810 118.473   8-0.50119-0.27111-0.13809 0.05498-0.93466 0.89101
 -10  -1   1 150.509 125.505   5-0.53422-0.23933 0.20037-0.28431-0.90852 0.86503
  10  -1  -1 110.143 120.855   3 0.48903 0.28423-0.23738 0.15380 0.91759-0.87407
  -9   1   1 349.227 143.803   5-0.47439-0.21951 0.16262-0.07931-0.94013 0.91208
   9   1  -1 411.871 170.529   7 0.48566 0.20745 0.06833 0.01507 0.94856-0.92005
   9  -1  -1 367.012 152.886   7 0.50112 0.19196 0.07136-0.15510 0.94266-0.91419
   9  -1  -1 93.9526 93.6931   3 0.46657 0.22719-0.21573 0.13213 0.93136-0.90320
  -9  -1   1 329.607 159.391   8-0.47813-0.21481-0.12847 0.04529-0.94455 0.91618
  -9  -1   1 189.131 105.117   5-0.51233-0.18175 0.18645-0.27032-0.92106 0.89286
  -9   1   1 319.651 159.555   8-0.50774-0.18535-0.14084 0.22484-0.93167 0.90324
  -9   1   1 216.651 89.6995   2-0.45712-0.23803 0.27933-0.19552-0.91641 0.88787
  -8   1   1 127.933 81.8255   5-0.45497-0.15947 0.15055-0.06719-0.94870 0.93591
  -8  -1   1 96.8864 61.5692   5-0.49472-0.11990 0.17533-0.25915-0.93032 0.91741
   8  -1  -1 226.702 117.303   3 0.44740 0.16685-0.19748 0.11387 0.94190-0.92906
   8  -1  -1 293.609 126.355   7 0.48282 0.13086 0.06778-0.15151 0.94960-0.93641
  -8   1   1 247.464 114.515   2-0.43823-0.17733 0.25295-0.16914-0.93058 0.91733
   8   1  -1 180.200 88.7325   7 0.46639 0.14732 0.06457 0.01883 0.95540-0.94218
  -8  -1   1 134.182 109.688   8-0.45862-0.15495-0.12038 0.03715-0.95218 0.93908
  -8   1   1 187.853 108.887   8-0.48993-0.12378-0.13339 0.21731-0.93961 0.92647
   8   1  -1 87.9279 83.3784   3 0.50038 0.11361-0.24846 0.33208 0.90999-0.89702
  -7  -1   1 17.7364 40.0242   4-0.03173-0.50326-0.56780 0.48499 0.80097-0.79842
   7  -1  -1 5.72705 68.2999   9 0.03130 0.50311-0.57520 0.49197-0.79634 0.79409
  -7   1   1 115.067 83.1312   2-0.42354-0.11245 0.23275-0.14895-0.94046 0.94249
   7  -1  -1 45.3213 76.4756   7 0.47033 0.06397 0.06534-0.14904 0.95405-0.95613
   7   1  -1 95.8857 69.6612   6 0.35805 0.17658 0.52159-0.43793 0.82894-0.83128
   7   1  -1 -62.716 87.3810   7 0.45236 0.08197 0.06184 0.02156 0.96004-0.96209
  -7   1   1 103.147 71.9063   5-0.44039-0.09462 0.14154-0.05813-0.95463 0.95711
  -7   1   1 35.2433 65.5360   8-0.47815-0.05618-0.12848 0.21233-0.94454 0.94668
   7  -1  -1 21.0669 67.8949   3 0.43279 0.10196-0.18372 0.10010 0.94922-0.95169
  -7  -1   1 96.3304 55.4299   2-0.49717-0.03886 0.33705-0.42053-0.88003 0.88198
  -7  -1   1 -12.271 69.1626   8-0.44410-0.09011-0.11438 0.03108-0.95744 0.95960
  -7  -1   1 52.7057 61.7835   5-0.48329-0.05185 0.16817-0.25193-0.93595 0.93832
   6  -1  -1 881.618 150.562   3 0.42465 0.03061-0.17610 0.09250 0.95305-0.97080
   6   1  -1 869.331 168.421   7 0.44599 0.00893 0.06062 0.02280 0.96204-0.97936
   6  -1  -1 894.103 153.276   7 0.46645-0.01154 0.06459-0.14827 0.95538-0.97272
   6   1  -1 1100.61 144.108   3 0.48884-0.03381-0.23720 0.32077 0.91771-0.93533
  -6  -1   1 763.472 120.739   5-0.48127 0.02559 0.16691-0.25061-0.93691 0.95457
   6  -1  -1 1199.19 144.213   9-0.04276 0.49785-0.43158 0.34832-0.89262 0.87519
  -6  -1   1 995.197 127.859   2-0.49733 0.04091 0.33730-0.42076-0.87986 0.89711
   6   1  -1 1194.19 142.355   6 0.34918 0.10608 0.47934-0.39570 0.85740-0.87497
  -6  -1   1 1179.38 188.067   8-0.43680-0.01806-0.11137 0.02802-0.95996 0.97737
  -6  -1   1 859.088 126.698   4 0.04151-0.49719-0.41798 0.33506 0.89846-0.88084
  -6   1   1 983.334 162.394   8-0.47546 0.02050-0.12736 0.21114-0.94563 0.96304
  -6   1   1 714.504 135.806   2-0.41476-0.04165 0.22081-0.13702-0.94590 0.96322
   5  -1  -1 405.902 72.0409   9-0.11855 0.49434-0.26645 0.18315-0.96156 0.92895
  -5  -1   1 439.613 86.0982   5-0.49430 0.11808 0.17507-0.25872-0.93053 0.96346
   5   1  -1 420.561 113.250   7 0.45145-0.07590 0.06167 0.02174 0.96033-0.99289
   5  -1  -1 307.345 88.7939   7 0.47616-0.10064 0.06648-0.15013 0.95200-0.98459
  -5   1   1 242.476 73.4961   2-0.41450 0.03766 0.22046-0.13667-0.94606 0.97866
   5   1  -1 464.058 92.3624   6 0.34428 0.03161 0.45727-0.37370 0.87098-0.90378
   5   1  -1 392.777 74.1776   3 0.50383-0.12827-0.25182 0.33537 0.90761-0.94047
  -5  -1   1 318.311 73.9141   4 0.11569-0.49206-0.24768 0.16460 0.96615-0.93342
  -5   1   1 387.378 90.1843   5-0.43547 0.05935 0.13852-0.05501-0.95653 0.98954
  -5  -1   1 404.021 78.0265   2-0.51373 0.13689 0.36177-0.44523-0.86204 0.89458
  -5   1   1 220.048 76.3194   8-0.48719 0.11160-0.13224 0.21595-0.94078 0.97344
  -5  -1   1 354.911 99.4042   8-0.44046 0.06494-0.11288 0.02947-0.95871 0.99136
   4  -1  -1 10808.1 348.867   9-0.19500 0.49148-0.07894-0.00442-0.99690 0.94907
   4   1  -1 11356.8 461.328   7 0.47619-0.18003 0.06648 0.01693 0.95199-0.99978
  -4  -1   1 12799.7 392.817   2-0.55605 0.25879 0.42777-0.51125-0.80604 0.85384
   4   1  -1 11819.1 370.178   3 0.54553-0.24943-0.29335 0.37688 0.87517-0.92324
   4   1  -1 12563.0 409.876   6 0.34494-0.04843 0.46019-0.37667 0.86923-0.91726
  -4   1   1 11346.7 430.275   2-0.42682 0.12952 0.23723-0.15344-0.93834 0.98622
  -4   1   1 11590.3 423.674   5-0.45452 0.15783 0.15027-0.06670-0.94889 0.99716
  -4  -1   1 11120.5 378.027   4 0.18959-0.48661-0.05694-0.02633 0.99836-0.95045
  -4   1   1 11550.2 413.634   8-0.52329 0.22708-0.14737 0.23101-0.92425 0.97215
  -4  -1   1 10861.7 449.762   8-0.46167 0.16549-0.12164 0.03816-0.95103 0.99892
   4  -1  -1 11192.5 434.931   7 0.50865-0.21250 0.07283-0.15647 0.93964-0.98745
  -4  -1   1 11413.7 369.874   5-0.53288 0.23613 0.19952-0.28312-0.90932 0.95753
   4  -1  -1 11681.2 445.490   3 0.44193-0.14565-0.19232 0.10878 0.94471-0.99297
  -3   1   1 113.188 46.5734   2-0.45787 0.24013 0.28038-0.19659-0.91581 0.97899
  -3  -1   1 84.9760 36.4104   4 0.26004-0.47767 0.15068-0.23412 0.98600-0.92283
   3   1  -1 75.2381 24.7359   1-0.23806 0.45459-0.20739 0.29096-0.97697 0.91357
   3   1  -1 132.457 52.4275   7 0.53465-0.31785 0.07794 0.00546 0.92853-0.99153
   3  -1  -1 71.0944 28.6238   7 0.58203-0.36522 0.08733-0.17094 0.90525-0.96826
   3  -1  -1 114.454 41.3288   9-0.26893 0.48608 0.12857-0.21198-0.98839 0.92534
   3   1  -1 84.0146 22.6432   2-0.35771 0.57530 0.14532-0.06198-0.97395 0.91090
   3   1  -1 62.5162 29.9472   6 0.35241-0.13529 0.49438-0.41092 0.84765-0.91089
   3  -1  -1 91.2643 43.4003   3 0.48069-0.26386-0.22932 0.14582 0.92289-0.98636
  -3  -1   1 115.661 35.4524   5-0.61660 0.39930 0.25413-0.33768-0.84963 0.91310
   3   1  -1 91.9822 37.2556   3 0.63106-0.41437-0.38353 0.46700 0.78285-0.84608
  -3  -1   1 104.670 38.6250   8-0.51267 0.29580-0.14290 0.05937-0.92937 0.99249
  -3   1   1 89.8382 34.7535   8-0.60305 0.38619-0.18136 0.26493-0.87825 0.94137
   2  -1  -1 31510.9 600.568   7 0.72917-0.59165 0.11724-0.20080 0.80177-0.87996
  -2   1   1 30417.4 607.398   2-0.51549 0.37729 0.36443-0.28063-0.86001 0.93851
   2   1  -1 29501.9 571.754   7 0.65443-0.51695 0.10189-0.01849 0.86102-0.93919
   2   1  -1 31777.2 602.958   6 0.36652-0.22874 0.56571-0.48232 0.79549-0.87393
   2  -1  -1 30781.3 557.324   9-0.33405 0.47187 0.34587-0.42934-0.92455 0.84625
  -2  -1   1 30039.1 583.833   8-0.61602 0.47844-0.18697 0.10337-0.86936 0.94771
   4   1   1 402.957 116.766   7-0.10662 0.44551-0.04220 0.12586 0.95441-0.78425
  -4  -1  -1 481.742 115.061   8 0.09323-0.43164 0.09548-0.17862-0.95466 0.78475
  -5   1  -1 275.588 106.876   8 0.03904-0.45704 0.07526 0.00875-0.97032 0.78504
   5  -1   1 403.518 137.196   7-0.03011 0.44840-0.02843-0.05511 0.97474-0.78939
  -5  -1  -1 216.871 91.2029   8 0.01156-0.42933 0.06493-0.14800-0.97700 0.79183
   5   1   1 299.028 107.208   7-0.01921 0.43750-0.02645 0.11011 0.97715-0.79175
   6  -1   1 2016.38 338.019   7 0.05031 0.44736-0.01379-0.06975 0.98970-0.78910
   6   1   1 1587.42 275.306   7 0.05487 0.44281-0.01296 0.09662 0.99035-0.78970
  -6   1  -1 1369.48 240.623   8-0.04521-0.45214 0.04341 0.04066-0.98812 0.78758
  -6  -1  -1 1222.89 220.038   8-0.05885-0.43826 0.03821-0.12124-0.99025 0.78982
  11   2  -1 218.863 127.923   7 0.53846 0.31342 0.07870 0.08827 0.92680-0.86766
 -11   2   1 311.537 202.592   5-0.51727-0.33545 0.18958-0.02283-0.91833 0.85979
  11  -2  -1 72.2130 138.665   7 0.56796 0.28384 0.08453-0.25190 0.91259-0.85351
 -11  -2   1 289.323 243.791   8-0.52487-0.32672-0.14803-0.01858-0.92347 0.86457
  11  -2  -1 118.712 153.014   3 0.50374 0.34910-0.25174 0.08456 0.90767-0.84879
  10  -2  -1 345.826 170.691   3 0.47992 0.29341-0.22858 0.06137 0.92336-0.87986
  10  -2  -1 199.093 135.650   7 0.54418 0.22823 0.07983-0.24716 0.92417-0.88040
  10   2  -1 342.880 196.367   7 0.51365 0.25884 0.07381 0.09316 0.93759-0.89376
 -10   2   1 229.259 145.592   8-0.55923-0.21330-0.16258 0.33028-0.90525 0.86146
 -10  -2   1 423.803 203.208   8-0.49999-0.27222-0.13759-0.02907-0.93520 0.89158
 -10   2   1 45.2320 124.993   5-0.49274-0.28053 0.17409-0.00729-0.93131 0.88805
  -9  -2   1 111.948 142.314   8-0.47777-0.21508-0.12833-0.03839-0.94469 0.91634
  -9   2   1 185.841 101.275   2-0.44470-0.25043 0.26191-0.09452-0.92593 0.89743
   9  -2  -1 366.569 174.712   3 0.45853 0.23529-0.20805 0.04083 0.93591-0.90777
   9   2  -1 216.368 137.915   7 0.49168 0.20142 0.06951 0.09747 0.94631-0.91777
   9  -2  -1 41.5381 95.4956   7 0.52372 0.16931 0.07579-0.24309 0.93334-0.90487
  -9   2   1 158.718 113.819   8-0.53964-0.15350-0.15427 0.32189-0.91594 0.88745
  -9  -2   1 133.324 93.6716   5-0.55108-0.14309 0.21119-0.37869-0.89805 0.86977
  -9   2   1 158.939 131.746   5-0.47078-0.22303 0.16037 0.00649-0.94179 0.91379
  -8   2   1 868.560 201.718   5-0.45226-0.16210 0.14887 0.01803-0.94983 0.93710
  -8   2   1 817.156 188.152   2-0.42691-0.18862 0.23737-0.06997-0.93827 0.92505
   8   2  -1 739.768 187.989   7 0.47355 0.14014 0.06597 0.10101 0.95292-0.93967
   8  -2  -1 890.836 198.663   7 0.50786 0.10579 0.07267-0.23995 0.93997-0.92678
  -8   2   1 1133.40 223.155   8-0.52509-0.08866-0.14813 0.31567-0.92336 0.91018
  -8  -2   1 857.170 194.577   8-0.45914-0.15434-0.12060-0.04618-0.95198 0.93889
   8  -2  -1 829.967 200.151   3 0.44033 0.17399-0.19081 0.02358 0.94552-0.93270
  -8  -2   1 1067.16 177.769   5-0.53732-0.07737 0.20236-0.36980-0.90666 0.89367
  -7   2   1 233.088 115.565   5-0.43844-0.09649 0.14034 0.02661-0.95539 0.95792
   7   2  -1 140.668 73.4387   6 0.33778 0.19702 0.42910-0.26187 0.88713-0.88941
   7  -2  -1 243.088 119.264   3 0.42643 0.10839-0.17776 0.01055 0.95223-0.95471
  -7  -2   1 112.366 91.7711   8-0.44545-0.08869-0.11494-0.05189-0.95697 0.95913
   7   2  -1 67.7244 72.5869   7 0.46082 0.07347 0.06349 0.10348 0.95727-0.95929
  -7  -2   1 206.000 88.3882   4 0.01831-0.55337-0.46736 0.30107 0.87080-0.86837
   7  -2  -1 176.469 98.0542   7 0.49860 0.03566 0.07086-0.23810 0.94365-0.94572
  -7   2   1 187.290 101.345   2-0.41302-0.12295 0.21845-0.05108-0.94695 0.94900
   7  -2  -1 189.472 75.8133   9-0.02049 0.55488-0.47657 0.30991-0.86660 0.86436
   7   2  -1 21.3103 73.1859   3 0.55360-0.01927-0.30155 0.46870 0.86807-0.87027
  -7  -2   1 1.30246 82.4160   5-0.53150-0.00370 0.19864-0.36603-0.91014 0.91245
  -7   2   1 182.239 103.025   8-0.51788-0.01649-0.14509 0.31256-0.92689 0.92899
   6  -2  -1 2175.36 238.536   7 0.49926-0.04439 0.07099-0.23821 0.94339-0.96072
   6  -2  -1 2025.89 203.530   9-0.07840 0.53348-0.35629 0.18958-0.92890 0.91148
   6   2  -1 2205.83 219.722   6 0.32888 0.12654 0.39231-0.22512 0.90632-0.92384
  -6   2   1 2108.18 244.593   2-0.40437-0.05204 0.20681-0.03943-0.95193 0.96927
  -6  -2   1 2130.03 231.901   4 0.07479-0.53051-0.34398 0.17754 0.93283-0.91530
  -6   2   1 2105.86 225.814   8-0.52189 0.06691-0.14678 0.31417-0.92494 0.94231
  -6  -2   1 2419.44 207.543   5-0.53808 0.08234 0.20285-0.37018-0.90619 0.92378
   6  -2  -1 2191.72 253.294   3 0.41845 0.03686-0.17032 0.00313 0.95585-0.97362
  -6  -2   1 2128.18 257.813   8-0.43877-0.01602-0.11219-0.05470-0.95928 0.97669
   6   2  -1 2231.65 260.594   7 0.45591-0.00100 0.06253 0.10443 0.95889-0.97617
   6   2  -1 2295.87 199.217   3 0.56511-0.11026-0.31335 0.48044 0.85745-0.87491
   5  -2  -1 4727.96 286.826   9-0.13503 0.51081-0.22792 0.06116-0.97232 0.93969
  -5  -2   1 4585.96 310.292   4 0.12959-0.50595-0.21353 0.04691 0.97510-0.94242
   5   2  -1 4708.61 335.756   7 0.46285-0.08733 0.06388 0.10307 0.95660-0.98912
   5  -2  -1 4785.44 310.641   7 0.51560-0.14010 0.07419-0.24137 0.93678-0.96936
   5   2  -1 5833.59 284.782   3 0.60050-0.22511-0.35038 0.51743 0.82064-0.85330
   5   2  -1 4918.62 307.178   6 0.32346 0.05257 0.37072-0.20357 0.91663-0.94940
  -5   2   1 5182.47 351.581   2-0.40294 0.02608 0.20489-0.03752-0.95273 0.98535
   5  -2  -1 4945.07 346.888   3 0.41884-0.04302-0.17067 0.00353 0.95568-0.98872
  -5  -2   1 5449.98 275.652   5-0.56502 0.18876 0.22020-0.38750-0.88882 0.92168
  -5   2   1 4818.91 298.361   8-0.54402 0.16843-0.15612 0.32344-0.91362 0.94624
  -5  -2   1 4910.82 357.712   8-0.44250 0.06703-0.11372-0.05321-0.95800 0.99064
  -3   2   1 18.5565 35.5873   2-0.43447 0.21670 0.24774-0.08037-0.93321 0.99641
  -3  -2   1 35.7363 21.5596   3 0.33770-0.55443-0.09664-0.07022 0.98369-0.92035
   3   2  -1 73.0004 45.2906   7 0.54692-0.33014 0.08037 0.08654 0.92289-0.98585
   3   2  -1 -1.2290 11.9888   9-0.16954 0.38676-0.14397 0.31094-0.98940 0.92640
   3  -2  -1 40.6755 31.5949   7 0.64774-0.43094 0.10053-0.26761 0.86560-0.92860
  -3   2   1 41.1975 22.8700   4 0.14479-0.36243-0.17530 0.34248 0.98344-0.92019
   3   2  -1 30.9526 25.8547   1-0.22062 0.43723-0.07862 0.24572-0.99648 0.93309
  -3   2   1 57.4206 22.4400   6 0.14509-0.36230-0.17597 0.34318 0.98333-0.91994
  -3  -2   1 18.7363 29.6216   4 0.23106-0.44860 0.06154-0.22851 0.99731-0.93418
   3   2  -1 38.5889 32.3715   6 0.32731-0.11007 0.38599-0.21900 0.90941-0.97265
   3  -2  -1 58.1503 31.8653   9-0.24125 0.45837 0.04718-0.21407-0.99759 0.93452
  -3  -2   1 49.4059 35.4455   8-0.50858 0.29171-0.14119-0.02586-0.93128 0.99438
   2   2  -1 11.6581 22.5751   7 0.66165-0.52419 0.10336 0.06352 0.85596-0.93409
   2   2  -1 -13.585 19.9121   1-0.24096 0.37833-0.23181 0.39890-0.97125 0.89255
  -2   2   1 7.46796 20.9705   6 0.06572-0.20350-0.36563 0.53299 0.92366-0.84493
  -2  -2   1 28.8320 18.4200   4 0.27519-0.41328 0.19985-0.36695 0.97580-0.89738
   2  -2  -1 31.7796 33.1649   9-0.28806 0.42585 0.18807-0.35501-0.97676 0.89844
   2   2  -1 4.65207 23.2034   6 0.33830-0.20045 0.43132-0.26442 0.88591-0.96436
  -2   2   1 41.8548 32.3185   5-0.56450 0.42663 0.21987-0.05261-0.88917 0.96802
  -2  -2   1 -2.5752 20.7206   8-0.59914 0.46154-0.17967 0.01257-0.88084 0.95918
   1   2  -1 7912.02 329.770   6 0.35505-0.29658 0.50693-0.34012 0.83919-0.93284
   1  -2  -1 8298.86 339.825   9-0.32821 0.38664 0.32438-0.49138-0.93359 0.84002
  -1   2   1 8071.48 411.677   5-0.69218 0.63371 0.30587-0.13853-0.77441 0.86859
   1  -2  -1 8653.45 359.295   3 0.61314-0.55500-0.36394 0.19706 0.80577-0.89968
   0   2  -1 9.53455 19.9717   6 0.37444-0.39530 0.61211-0.44538 0.75564-0.86446
   0  -2   1 -8.4278 19.2298   9 0.05362-0.03285-0.61514 0.44829-0.76182 0.87046
   4   2   1 1836.33 219.672   7-0.06965 0.40852-0.03557 0.20283 0.96498-0.79481
   4  -2   1 1911.33 287.390   7-0.10698 0.44585-0.04226-0.12486 0.95430-0.78423
  -4  -2  -1 1888.01 212.031   8 0.04854-0.38682 0.07882-0.24545-0.96781 0.79796
   5  -2   1 354.256 144.055   7-0.00937 0.42763-0.02467-0.14245 0.97922-0.79392
   5   2   1 123.906 64.6069   7 0.00902 0.40924-0.02133 0.18859 0.98284-0.79743
  -5   2  -1 215.586 105.602   8 0.02737-0.44548 0.07088 0.09670-0.97326 0.78792
  -5  -2  -1 231.717 93.3713   8-0.02126-0.39637 0.05251-0.21910-0.98387 0.79875
   6  -2   1 1036.38 247.252   7 0.07053 0.42710-0.01009-0.15705 0.99243-0.79187
   6   2   1 991.408 206.440   7 0.07704 0.42062-0.00890 0.17615 0.99322-0.79254
  -6   2  -1 1087.61 225.952   8-0.06124-0.43621 0.03730 0.13035-0.99060 0.79001
  -6  -2  -1 846.100 179.384   8-0.08339-0.41360 0.02882-0.19536-0.99356 0.79318
   7  -2   1 193.555 127.968   7 0.13977 0.43724 0.00266-0.16981 0.99859-0.78277
   7   2   1 219.572 144.023   7 0.13829 0.43875 0.00239 0.16485 0.99851-0.78257
  -7  -2  -1 302.087 140.008   8-0.14052-0.43583 0.00681-0.17330-0.99861 0.78296
  -7   2  -1 290.158 163.548   8-0.13634-0.44047 0.00842 0.15932-0.99836 0.78249
  11  -3  -1 924.039 279.906   7 0.59575 0.25599 0.09007-0.34098 0.89771-0.83862
  11  -3  -1 1147.18 324.127   3 0.50076 0.35214-0.24883-0.00199 0.90973-0.85087
 -11   3   1 644.650 265.109   5-0.51872-0.33391 0.19050 0.05979-0.91752 0.85906
  10   3  -1 232.136 144.456   7 0.52631 0.24616 0.07630 0.17425 0.93222-0.88834
 -10   3   1 -32.132 128.311   2-0.45987-0.31481 0.28320-0.03223-0.91420 0.87045
  10  -3  -1 155.595 170.460   3 0.47845 0.29494-0.22715-0.02369 0.92428-0.88078
  10  -3  -1 275.712 157.655   7 0.57439 0.19796 0.08581-0.33670 0.90928-0.86549
 -10  -3   1 354.167 198.870   8-0.50623-0.26589-0.14020-0.10999-0.93237 0.88876
 -10   3   1 233.223 173.635   5-0.49560-0.27758 0.17589 0.07444-0.92987 0.88667
  -9   3   1 1698.39 312.396   5-0.47517-0.21858 0.16309 0.08729-0.93978 0.91184
  -9   3   1 2043.51 338.914   2-0.44084-0.25425 0.25656-0.00559-0.92873 0.90026
   9   3  -1 2152.14 360.272   7 0.50609 0.18697 0.07233 0.17822 0.94068-0.91210
   9  -3  -1 1503.12 278.035   7 0.55696 0.13601 0.08236-0.33320 0.91807-0.88958
   9  -3  -1 2234.24 357.121   3 0.45861 0.23527-0.20813-0.04270 0.93587-0.90772
  -9   3   1 2152.14 322.086   8-0.58495-0.10822-0.17357 0.42483-0.88995 0.86137
  -9  -3   1 1998.97 353.637   8-0.48553-0.20723-0.13155-0.11869-0.94148 0.91313
  -8   3   1 17.9872 85.2045   5-0.45824-0.15605 0.15257 0.09785-0.94731 0.93463
   8  -3  -1 12.6808 89.3206   3 0.44196 0.17239-0.19235-0.05847 0.94470-0.93188
  -8   3   1 212.657 135.603   2-0.42467-0.19084 0.23430 0.01665-0.93973 0.92654
   8   3  -1 130.960 94.9201   7 0.49002 0.12365 0.06918 0.18136 0.94693-0.93364
   8  -3  -1 94.3378 82.8555   7 0.54498 0.06860 0.07998-0.33079 0.92380-0.91059
   8  -3  -1 -56.742 84.2503   9 0.00476 0.60894-0.52570 0.27562-0.83405 0.84700
  -8  -3   1 180.301 130.867   8-0.46855-0.14485-0.12450-0.12580-0.94838 0.93528
  -8   3   1 59.8577 113.320   8-0.57582-0.03796-0.16966 0.42084-0.89555 0.88229
   7  -3  -1 999.890 193.655   7 0.54086-0.00666 0.07917-0.32993 0.92571-0.92777
  -7  -3   1 407.994 224.674   4 0.04087-0.57596-0.41936 0.16955 0.89774-0.89540
  -7   3   1 1849.04 296.614   2-0.41221-0.12374 0.21736 0.03357-0.94743 0.94951
   7  -3  -1 1239.70 189.336   9-0.04442 0.57880-0.42817 0.17805-0.89445 0.89222
   7   3  -1 1242.63 213.539   6 0.32770 0.20723 0.38754-0.13674 0.90866-0.91087
   7  -3  -1 1182.91 234.526   3 0.42953 0.10533-0.18065-0.07014 0.95078-0.95327
  -7   3   1 1814.34 260.620   5-0.44602-0.08884 0.14501 0.10546-0.95239 0.95496
  -7  -3   1 1227.43 172.063   5-0.60418 0.06892 0.24587-0.49693-0.85984 0.86203
   7   3  -1 1010.27 210.687   7 0.47970 0.05456 0.06717 0.18336 0.95074-0.95271
  -7  -3   1 982.348 214.863   8-0.45665-0.07741-0.11956-0.13078-0.95292 0.95507
  -7   3   1 1346.08 226.905   8-0.57608 0.04171-0.16977 0.42088-0.89539 0.89741
   6   3  -1 152.191 66.2527   6 0.31969 0.13585 0.35607-0.10531 0.92323-0.94070
   6   3  -1 106.056 69.2650   7 0.47761-0.02274 0.06676 0.18375 0.95149-0.96872
   6  -3  -1 792.855 170.583   7 0.54856-0.09373 0.08069-0.33141 0.92211-0.93944
   6  -3  -1 657.192 173.776   3 0.42270 0.03265-0.17427-0.07648 0.95394-0.97172
  -6  -3   1 153.810 83.0450   4 0.08665-0.54237-0.31668 0.06669 0.94353-0.92606
   6  -3  -1 50.5620 47.3544   9-0.09169 0.54676-0.32715 0.07698-0.94070 0.92327
  -6  -3   1 52.2777 66.7675   5-0.62569 0.16992 0.26021-0.51123-0.84182 0.85928
  -6  -3   1 1.66823 69.4707   8-0.45181-0.00292-0.11757-0.13281-0.95469 0.97208
  -5  -3   1 1457.94 194.889   4 0.13004-0.50637-0.21241-0.03775 0.97537-0.94273
   5   3  -1 1393.39 190.126   7 0.48781-0.11232 0.06875 0.18173 0.94776-0.98024
   5  -3  -1 1427.73 168.777   7 0.57492-0.19946 0.08592-0.33659 0.90900-0.94156
   5  -3  -1 1288.18 195.722   3 0.42353-0.04767-0.17504-0.07565 0.95357-0.98662
  -5  -3   1 2471.24 224.114   5-0.67571 0.29944 0.29435-0.54532-0.79298 0.82570
   5   3  -1 1378.42 186.673   6 0.31472 0.06142 0.33707-0.08636 0.93135-0.96407
  -5   3   1 1391.57 201.557   2-0.40339 0.02653 0.20549 0.04543-0.95248 0.98512
  -5   3   1 1275.09 183.282   5-0.44350 0.06747 0.14346 0.10711-0.95340 0.98647
  -5  -3   1 1416.81 198.895   8-0.45721 0.08179-0.11980-0.13063-0.95271 0.98532
  -5   3   1 1682.61 181.599   8-0.62922 0.25365-0.19271 0.44367-0.85987 0.89239
   5  -3  -1 1488.56 185.172   9-0.13679 0.51254-0.22377-0.02646-0.97336 0.94073
  -4   3   1 425.421 104.455   8-0.70683 0.41065-0.22712 0.47800-0.79330 0.84102
   4   3  -1 332.608 83.2975   1-0.18554 0.48143 0.12588 0.12475-0.99200 0.94392
   4   3  -1 176.954 75.5734   7 0.51723-0.22112 0.07451 0.17594 0.93610-0.98381
  -4   3   1 284.884 96.0479   2-0.41074 0.11341 0.21538 0.03554-0.94829 0.99622
   4  -3  -1 302.143 75.2063   7 0.63234-0.33622 0.09742-0.34803 0.87573-0.92351
   4  -3  -1 283.985 84.0604   9-0.17930 0.47572-0.11940-0.13091-0.99281 0.94495
   4   3  -1 245.949 46.3427   9-0.33381 0.63046 0.34497-0.09445-0.92494 0.87719
  -4  -3   1 252.993 81.2481   4 0.17066-0.46758-0.10806-0.14227 0.99390-0.94605
   4   3  -1 294.834 89.6933   6 0.31351-0.01678 0.33253-0.08190 0.93321-0.98119
  -4   3   1 231.583 45.4879   6 0.30357-0.60002 0.29589-0.04544 0.94723-0.89910
  -4   3   1 253.734 46.6599   4 0.30351-0.60084 0.29777-0.04689 0.94664-0.89857
  -4  -3   1 332.300 93.1342   8-0.47799 0.18187-0.12841-0.12206-0.94461 0.99245
   3   3  -1 3321.94 260.993   7 0.57823-0.36147 0.08657 0.16384 0.90727-0.97017
   3   3  -1 2853.26 247.118   1-0.20763 0.42432 0.00340 0.24719-0.99987 0.93648
   3  -3  -1 2858.19 237.907   7 0.74201-0.52519 0.11992-0.37045 0.78987-0.85285
  -3   3   1 3234.13 207.498   6 0.21434-0.43148 0.01096 0.23978 0.99968-0.93629
   3   3  -1 3185.76 278.815   6 0.31681-0.09949 0.34502-0.09446 0.92802-0.99123
  -3  -3   1 2934.31 271.548   4 0.20801-0.42548-0.00547-0.24501 0.99985-0.93675
   3  -3  -1 3266.25 279.084   9-0.21866 0.43574-0.01577-0.23458-0.99951 0.93642
  -3  -3   1 3288.81 270.720   8-0.52286 0.30601-0.14719-0.10333-0.92446 0.98753
  -3   3   1 2836.92 246.588   5-0.49611 0.27886 0.17621 0.07449-0.92961 0.99320
  -2  -3   1 8754.57 379.748   9 0.01848-0.15639-0.55156 0.30118-0.81500 0.89318
   2  -3  -1 8581.52 359.199   4-0.02494 0.16317-0.55463 0.30414 0.81128-0.88964
   2   3  -1 8630.50 345.428   7 0.69180-0.55435 0.10952 0.14084 0.83337-0.91145
   2   3  -1 7731.83 354.355   1-0.22452 0.36198-0.10520 0.35581-0.99389 0.91520
  -2   3   1 7101.41 320.500   6 0.15736-0.29507-0.14446 0.39539 0.98891-0.91019
   2   3  -1 7815.44 376.368   6 0.32516-0.18724 0.37746-0.12701 0.91349-0.99193
   2  -3  -1 8345.34 398.795   9-0.25427 0.39201 0.08486-0.33527-0.99428 0.91594
   2  -3  -1 8029.75 390.042   3 0.50943-0.37192-0.25734 0.00690 0.90363-0.98240
  -2   3   1 8073.96 336.912   5-0.56221 0.42433 0.21838 0.03240-0.89072 0.96960
   2  -3  -1 8736.99 255.612   8-0.59375 0.73114-0.17735-0.07306-0.88436 0.80610
  -2  -3   1 8326.00 353.048   8-0.60632 0.46869-0.18277-0.06781-0.87605 0.95437
   1  -3  -1 523.575 93.8130   4-0.00783 0.06668-0.52083 0.27044 0.83607-0.92965
   1   3  -1 436.497 91.3327   6 0.33862-0.28010 0.43271-0.18236 0.88514-0.97880
  -1   3   1 468.336 88.7848   6 0.12419-0.18244-0.22821 0.47927 0.97146-0.87742
  -1  -3   1 372.724 85.9843   9 0.00145-0.06004-0.51939 0.26904-0.83849 0.93189
   1  -3  -1 442.779 93.2955   9-0.28546 0.34385 0.17980-0.43026-0.97863 0.88504
  -1   3   1 637.105 99.9472   5-0.67070 0.61220 0.29087-0.03998-0.79837 0.89258
  -1   3   1 375.151 83.3655   2-0.51591 0.45716 0.36507-0.11410-0.85952 0.95340
   1  -3  -1 358.985 75.2244   3 0.58554-0.52738-0.33456 0.08421 0.83702-0.93099
   0  -3  -1 123.442 51.4925   9-0.31165 0.29068 0.26592-0.51642-0.95503 0.84618
   0  -3  -1 125.079 50.9057   4-0.00455-0.01598-0.51426 0.26396 0.84063-0.94943
   0   3   1 74.6583 43.9677   6 0.10762-0.08641-0.26843 0.51957 0.96004-0.85067
   0  -3   1 150.993 60.7941   9-0.00113 0.02187-0.51442 0.26413-0.84193 0.95056
   0  -3   1 86.2997 47.5241   4 0.29491-0.27390 0.26704-0.51783 0.95709-0.84813
   0   3  -1 84.0401 25.6581   6 0.35616-0.37701 0.51233-0.26211 0.83546-0.94430
   1  -3   1 13325.8 490.775   4 0.31393-0.21342 0.33627-0.58709 0.93177-0.80751
   1   3   1 13463.9 542.840   6 0.10275-0.00206-0.28006 0.53126 0.95635-0.83167
   1  -3   1 12808.5 535.767   9 0.00580 0.09427-0.52769 0.27743-0.83264 0.95649
  -1  -3  -1 13434.4 481.814   9-0.33245 0.23210 0.33992-0.59044-0.92712 0.80301
  -2  -3  -1 1328.12 176.441   4-0.02321-0.15614-0.55126 0.30117 0.81386-0.95309
   2   3   1 1565.75 197.274   6 0.10631 0.07384-0.27156 0.52284 0.95906-0.81908
   2  -3   1 1346.45 188.338   9 0.01940 0.16001-0.55327 0.30307-0.81370 0.95277
  -3  -3  -1 2381.65 248.391   4-0.04073-0.21801-0.58497 0.33498 0.78695-0.94137
   3   3   1 2489.49 233.396   7-0.09780 0.35722-0.04062 0.29147 0.95706-0.80214
   3   3   1 2635.95 270.659   6 0.11610 0.14350-0.24797 0.49931 0.96610-0.81084
  -3  -3  -1 2569.14 232.887   8 0.05835-0.31717 0.08249-0.33263-0.96512 0.81056
   3  -3   1 2503.77 264.781   9 0.03788 0.22085-0.58714 0.33697-0.78643 0.94072
   4  -3   1 77.4183 64.3759   7-0.06110 0.39993-0.03402-0.21668 0.96723-0.79721
   4   3   1 47.7337 50.5092   6 0.13060 0.20845-0.21238 0.46378 0.97541-0.80487
   4   3   1 29.3780 54.5228   7-0.01716 0.35598-0.02608 0.27693 0.97759-0.80743
  -4  -3  -1 27.2322 48.1105   8-0.00627-0.33189 0.05820-0.30830-0.98088 0.81106
   5  -3   1 5505.24 448.797   7 0.03203 0.38619-0.01713-0.23357 0.98687-0.80162
  -5   3  -1 5298.67 392.141   8-0.00799-0.41019 0.05754 0.19363-0.98124 0.79586
  -5  -3  -1 6211.29 444.210   8-0.06395-0.35356 0.03626-0.28634-0.99099 0.80592
   6  -3   1 2183.09 326.174   7 0.10809 0.38949-0.00319-0.24752 0.99638-0.79587
   6   3   1 1281.36 228.849   7 0.11113 0.38648-0.00263 0.25346 0.99664-0.79595
  -6  -3  -1 1473.79 239.230   8-0.11733-0.37954 0.01577-0.26581-0.99701 0.79668
   6   3   1 1297.73 217.302   6 0.16967 0.32822-0.11221 0.36373 0.99342-0.79237
  -6   3  -1 2218.36 280.533   8-0.09774-0.39979 0.02332 0.22795-0.99518 0.79453
   7  -3   1 1568.13 311.557   7 0.17418 0.40276 0.00905-0.25978 0.99980-0.78402
  -7   3  -1 1445.21 260.927   8-0.17264-0.40424-0.00568 0.25703-0.99979 0.78386
  -7  -3  -1 1333.04 245.893   8-0.16785-0.40838-0.00381-0.24618-0.99969 0.78410
 -11   4   1 -469.42 263.241   2-0.47992-0.37430 0.31187 0.02269-0.89684 0.83787
  10  -4  -1 40.7124 127.298   3 0.48306 0.29036-0.23160-0.10284 0.92141-0.87790
  10   4  -1 -113.82 126.848   7 0.54613 0.22629 0.08021 0.25392 0.92326-0.87932
 -10   4   1 -49.081 130.740   2-0.46046-0.31418 0.28403 0.05050-0.91372 0.87002
 -10  -4   1 124.255 187.211   8-0.51909-0.25291-0.14560-0.18809-0.92630 0.88271
  10  -4  -1 8.04291 96.9115   7 0.61445 0.15781 0.09381-0.42823 0.88683-0.84301
 -10   4   1 137.938 143.189   5-0.50475-0.26835 0.18165 0.15220-0.92513 0.88200
  -9   4   1 167.566 161.614   2-0.44325-0.25182 0.25989 0.07462-0.92699 0.89857
   9   4  -1 117.121 132.621   7 0.52832 0.16470 0.07669 0.25742 0.93134-0.90271
   9  -4  -1 290.867 152.259   7 0.60129 0.09160 0.09118-0.42555 0.89456-0.86604
   9  -4  -1 -59.150 117.934   3 0.46503 0.22886-0.21426-0.12017 0.93225-0.90409
  -9  -4   1 329.169 197.973   8-0.50040-0.19226-0.13776-0.19598-0.93501 0.90668
  -9   4   1 153.401 131.262   5-0.48622-0.20744 0.17000 0.16390-0.93453 0.90665
   8  -4  -1 314.949 134.400   9-0.01240 0.62609-0.49253 0.15900-0.85652 0.86947
   8  -4  -1 111.266 94.5926   3 0.45026 0.16412-0.20019-0.13422 0.94040-0.92757
  -8   4   1 143.849 134.332   2-0.42886-0.18664 0.24003 0.09446-0.93699 0.92384
  -8  -4   1 -9.2381 85.5751   4 0.00927-0.62372-0.48612 0.15294 0.85921-0.87204
   8   4  -1 157.348 122.125   7 0.51505 0.09856 0.07408 0.26002 0.93701-0.92366
   8   4  -1 277.922 147.062   6 0.33296 0.28148 0.40894-0.07451 0.89791-0.88480
   8  -4  -1 244.845 106.331   7 0.59476 0.01875 0.08987-0.42419 0.89827-0.88503
  -8  -4   1 159.207 116.553   8-0.48566-0.12766-0.13161-0.20217-0.94142 0.92833
  -8   4   1 200.545 119.522   5-0.47133-0.14289 0.16071 0.17323-0.94154 0.92891
   7   4  -1 1398.82 239.119   6 0.32389 0.21114 0.37248-0.03808 0.91582-0.91797
   7  -4  -1 1305.89 249.266   3 0.43963 0.09524-0.19015-0.14422 0.94587-0.94835
  -7  -4   1 448.559 238.486   4 0.05003-0.58512-0.39939 0.06604 0.90786-0.90558
  -7   4   1 1000.39 222.292   2-0.41806-0.11789 0.22530 0.10918-0.94389 0.94601
   7   4  -1 1175.88 224.124   7 0.50805 0.02617 0.07272 0.26137 0.93989-0.94181
   7  -4  -1 1262.09 204.569   7 0.59777-0.06363 0.09048-0.42474 0.89657-0.89860
   7  -4  -1 1145.62 200.415   9-0.05446 0.58883-0.40729 0.07371-0.90527 0.90303
  -7  -4   1 1027.11 217.231   8-0.47622-0.05777-0.12768-0.20613-0.94532 0.94747
  -7   4   1 1040.77 201.306   5-0.46124-0.07357 0.15443 0.17955-0.94602 0.94864
  -6   4   1 107.284 85.9808   5-0.45755 0.00216 0.15214 0.18188-0.94761 0.96547
  -6   4   1 300.048 100.396   8-0.68557 0.23062-0.21757 0.55225-0.81356 0.83069
   6  -4  -1 267.166 117.975   3 0.43443 0.02094-0.18525-0.14905 0.94843-0.96621
   6   4  -1 198.687 89.3277   7 0.50987-0.05506 0.07307 0.26097 0.93915-0.95632
  -6   4   1 165.636 119.785   2-0.41182-0.04459 0.21684 0.11763-0.94765 0.96505
   6  -4  -1 296.554 92.4919   7 0.61510-0.16032 0.09394-0.42816 0.88644-0.90373
  -6  -4   1 17.6798 117.664   4 0.08844-0.54414-0.31250-0.02102 0.94508-0.92765
   6  -4  -1 360.996 117.125   9-0.09430 0.54936-0.32135-0.01228-0.94291 0.92547
   6   4  -1 293.266 115.833   6 0.31696 0.13868 0.34558-0.01125 0.92778-0.94519
  -6  -4   1 249.393 116.484   8-0.47404 0.01936-0.12677-0.20708-0.94620 0.96357
  -5   4   1 102.300 88.6605   2-0.41140 0.03452 0.21627 0.11818-0.94790 0.98057
   5  -4  -1 76.7512 74.5425   3 0.43637-0.06050-0.18709-0.14715 0.94748-0.98054
   5   4  -1 132.713 81.1905   7 0.52466-0.14922 0.07597 0.25804 0.93294-0.96535
   5  -4  -1 97.2308 60.3196   7 0.65478-0.27936 0.10196-0.43609 0.86078-0.89330
   5  -4  -1 43.9157 46.9442   9-0.13170 0.50743-0.23578-0.09791-0.97027 0.93762
  -5  -4   1 99.6562 83.8933   4 0.12431-0.50059-0.22660-0.10709 0.97185-0.93923
   5   4  -1 -56.700 77.0933   6 0.31267 0.06356 0.32938 0.00490 0.93449-0.96717
  -5   4   1 -69.768 42.9365   6 0.36835-0.74403 0.57595-0.24224 0.78713-0.75410
  -5  -4   1 61.3969 68.0641   8-0.48211 0.10673-0.13013-0.20375-0.94291 0.97550
  -5   4   1 45.6912 57.3921   5-0.46266 0.08667 0.15531 0.17876-0.94540 0.97851
   4  -4  -1 836.067 162.168   3 0.44793-0.15153-0.19798-0.13616 0.94162-0.98994
   4  -4  -1 1322.22 166.162   7 0.73024-0.43413 0.11746-0.45152 0.80080-0.84853
   4   4  -1 916.992 144.474   7 0.55919-0.26313 0.08280 0.25117 0.91698-0.96462
   4   4  -1 989.312 162.781   6 0.31159-0.01476 0.32530 0.00891 0.93612-0.98406
  -4   4   1 1001.86 178.718   2-0.41846 0.12111 0.22585 0.10860-0.94364 0.99160
  -4  -4   1 862.900 168.005   4 0.15737-0.45422-0.14295-0.19091 0.98913-0.94130
   4  -4  -1 1066.51 171.859   9-0.16640 0.46279-0.15180-0.18195-0.98817 0.94028
  -4   4   1 998.825 158.056   5-0.48011 0.18350 0.16618 0.16795-0.93746 0.98583
  -4  -4   1 1026.78 163.233   8-0.50515 0.20903-0.13975-0.19418-0.93286 0.98068
  -4   4   1 932.534 113.171   6 0.30316-0.59961 0.29442 0.03960 0.94776-0.89960
   3  -4  -1 15.5452 45.9875   3 0.47248-0.25553-0.22141-0.11264 0.92789-0.99145
   3   4  -1 24.4614 48.4845   6 0.31419-0.09679 0.33508-0.00096 0.93217-0.99536
   3  -4  -1 57.3814 45.0186   4-0.01490 0.23260-0.53493 0.20089 0.82601-0.88914
  -3   4   1 227.392 89.1809   2-0.43515 0.21731 0.24869 0.08578-0.93274 0.99599
   3   4  -1 16.2530 32.2680   7 0.62492-0.40819 0.09592 0.23798 0.88042-0.94326
   3  -4  -1 81.5070 55.4874   9-0.19809 0.41513-0.07083-0.26299-0.99749 0.93437
  -3  -4   1 68.2812 55.5721   9 0.00722-0.22452-0.53040 0.19652-0.83070 0.89360
  -3   4   1 25.7787 31.8216   6 0.24650-0.46359 0.10648 0.22781 0.99272-0.92931
  -3  -4   1 19.5173 41.4407   4 0.18738-0.40476-0.06300-0.27101 0.99799-0.93491
   3  -4  -1 34.5238 25.3805   8-0.01584 0.23283 0.05457-0.38827-0.98282 0.91966
   3   4  -1 8.48520 17.8938   2-0.46470 0.68210 0.29006 0.04399-0.91022 0.84739
  -3  -4   1 56.7604 38.4287   8-0.55068 0.33381-0.15894-0.17503-0.91002 0.97307
   2  -4  -1 2159.64 85.3351   8-0.46193 0.59932-0.12175-0.21204-0.95093 0.87261
   2  -4  -1 3062.32 255.684   3 0.51455-0.37701-0.26239-0.07154 0.89989-0.97869
   2  -4  -1 3757.80 277.654   4 0.00814 0.13020-0.48845 0.15451 0.85773-0.93608
  -2   4   1 3189.42 156.015   7 0.30392-0.44151 0.03339 0.30068 0.99277-0.91436
   2   4  -1 4263.81 274.953   7 0.73919-0.60175 0.11933 0.21451 0.79253-0.87055
  -2   4   1 3844.95 271.726   6 0.20478-0.34245-0.01626 0.35074 0.99978-0.92106
   2   4  -1 2932.90 266.404   6 0.32089-0.18291 0.36071-0.02669 0.92118-0.99961
   2  -4  -1 3465.91 290.564   9-0.22641 0.36410 0.00553-0.33940-0.99937 0.92101
  -2   4   1 2941.71 218.040   5-0.57592 0.43803 0.22730 0.10699-0.88122 0.96012
  -2  -4   1 3738.30 274.698   9-0.01607-0.12190-0.48531 0.15148-0.86114 0.93927
  -2  -4   1 3497.66 246.877   8-0.63035 0.49269-0.19321-0.14084-0.85903 0.93734
   1  -4  -1 7962.70 424.773   9-0.25104 0.30939 0.07542-0.40934-0.99526 0.90165
  -1   4   1 10263.3 436.184   5-0.67104 0.61251 0.29111 0.04330-0.79800 0.89226
   1  -4  -1 7804.57 389.113   3 0.57900-0.52082-0.32772-0.00610 0.84379-0.93780
  -1   4   1 7972.68 428.113   6 0.17674-0.23494-0.09338 0.42801 0.99549-0.90146
  -1   4   1 8657.56 436.262   2-0.50734 0.44853 0.35217-0.01766-0.86921 0.96311
   1   4  -1 7534.75 417.669   6 0.33179-0.27322 0.40417-0.07027 0.90037-0.99402
  -1  -4   1 8014.44 410.258   9-0.02518-0.03347-0.46723 0.13345-0.87228 0.96565
   1  -4  -1 8957.88 426.402   4 0.01768 0.04126-0.46867 0.13481 0.87001-0.96361
   1   4   1 474.543 78.9156   7-0.18992 0.29045-0.05702 0.39146 0.92539-0.80098
  -1  -4  -1 369.264 75.0882   8 0.08571-0.18576 0.09269-0.42632-0.95703 0.83300
  -1   4  -1 505.225 103.283   1-0.23438 0.13395-0.17785 0.51222-0.98301 0.85842
   1   4   1 396.805 112.130   6 0.15196-0.05122-0.15841 0.49324 0.98659-0.86191
  -1   4  -1 497.634 104.418   6 0.36344-0.46361 0.54915-0.21550 0.80853-0.93255
  -1  -4  -1 412.912 92.9844   9-0.28789 0.18752 0.18750-0.52149-0.97689 0.85276
   1  -4   1 315.573 89.8644   4 0.27047-0.16990 0.18428-0.51863 0.97934-0.85513
   1  -4   1 429.805 104.853   9-0.01686 0.11689-0.48375 0.15004-0.86212 0.98596
  -2  -4  -1 14.9133 53.9877   9-0.29948 0.11975 0.22505-0.55906-0.96738 0.82800
   2   4   1 0.20001 32.4206   7-0.08727 0.26722-0.03873 0.37315 0.96011-0.82047
  -2   4  -1 36.5559 47.9069   1-0.23717 0.05734-0.20009 0.53457-0.97855 0.83864
   2   4   1 60.8847 75.0422   6 0.15111 0.02910-0.16061 0.49550 0.98620-0.84622
   2  -4   1 29.2568 38.8107   4 0.28045-0.10041 0.21740-0.55178 0.97145-0.83195
   2  -4   1 -20.871 57.6522   9-0.00379 0.18315-0.50930 0.17563-0.84543 0.98449
  -2  -4  -1 27.8541 46.3395   8 0.02872-0.20811 0.07139-0.40499-0.97293 0.83364
   3  -4   1 1365.80 164.858   7-0.09471 0.35410-0.04007-0.29419 0.95796-0.80326
   3   4   1 1147.18 162.152   7-0.01243 0.27179-0.02523 0.35964 0.97859-0.82369
   3  -4   1 971.723 159.974   4 0.28532-0.02581 0.23385-0.56824 0.96703-0.81226
  -3  -4  -1 945.800 176.355   4-0.01740-0.24130-0.53988 0.20641 0.82239-0.97688
  -3   4  -1 1069.65 170.953   1-0.23769-0.02159-0.20435 0.53892-0.97764 0.82240
   3   4   1 1254.49 207.708   6 0.15587 0.10379-0.14834 0.48330 0.98829-0.83301
  -3  -4  -1 1095.27 154.033   9-0.30598 0.04690 0.24667-0.58070-0.96111 0.80647
   3  -4   1 1024.13 186.212   9 0.01352 0.24518-0.54229 0.20866-0.82200 0.97628
  -3  -4  -1 1118.31 165.804   8-0.02196-0.23677 0.05225-0.38583-0.98400 0.82947
   4  -4   1 42.0086 59.0793   7 0.01570 0.32306-0.02012-0.31413 0.98407-0.81412
   4   4   1 32.7812 52.3718   7 0.04969 0.28907-0.01391 0.34833 0.98961-0.81945
  -4  -4  -1 147.172 101.047   4-0.03715-0.30097-0.57818 0.24481 0.79258-0.96225
   4   4   1 17.2472 60.7812   6 0.16511 0.17399-0.12422 0.45924 0.99188-0.82133
  -4   4  -1 14.3582 62.8768   1-0.23581-0.10295-0.18904 0.52368-0.98084 0.81029
   4  -4   1 -10.465 42.6459   4 0.28412 0.05483 0.22977-0.56417 0.96816-0.79812
  -4  -4  -1 31.0897 37.5354   9-0.30660-0.03181 0.24878-0.58282-0.96047 0.79058
  -4  -4  -1 -50.009 60.6156   8-0.06939-0.26867 0.03418-0.36774-0.99175 0.82197
   4  -4   1 59.1812 69.8572   9 0.03422 0.30382-0.58051 0.24694-0.79197 0.96147
  -4   4  -1 40.2828 47.7358   8 0.03690-0.37582 0.07446 0.26025-0.97087 0.80071
   5  -4   1 2391.70 264.540   7 0.09770 0.32043-0.00510-0.32915 0.99543-0.81024
   5   4   1 2002.89 268.522   7 0.10504 0.31312-0.00375 0.33817 0.99612-0.81069
   5  -4   1 1865.57 194.275   4 0.27491 0.14342 0.19893-0.53333 0.97601-0.79073
  -5   4  -1 1980.23 209.113   1-0.23096-0.18731-0.15165 0.48630-0.98758 0.80173
   5   4   1 2054.34 295.435   6 0.17796 0.24056-0.09006 0.42512 0.99582-0.81000
  -5  -4  -1 2412.97 287.266   8-0.11495-0.30246 0.01669-0.35022-0.99681 0.81177
  -5   4  -1 2298.96 220.058   8-0.07627-0.34198 0.03155 0.30325-0.99267 0.80726
  -6   4  -1 674.490 153.439   8-0.16127-0.33630-0.00125 0.33616-0.99951 0.79882
   6  -4   1 794.333 197.173   7 0.16549 0.33201 0.00743-0.34169 0.99961-0.79915
   6   4   1 480.889 170.255   6 0.19377 0.30419-0.04704 0.38215 0.99888-0.79780
  -6  -4  -1 786.319 180.605   8-0.15931-0.33744-0.00049-0.33301-0.99944 0.79916
   6   4   1 534.968 171.303   7 0.15638 0.34117 0.00574 0.32867 0.99933-0.79863
   7  -4   1 70.4199 109.777   7 0.22530 0.35155 0.01859-0.35286 0.99926-0.78353
  10   5  -1 84.1318 185.980   7 0.57264 0.19971 0.08546 0.33222 0.91019-0.86619
 -10   5   1 21.3619 145.168   5-0.51925-0.25378 0.19084 0.22652-0.91722 0.87416
 -10  -5   1 -125.84 164.289   8-0.53783-0.23407-0.15350-0.26367-0.91689 0.87331
 -10   5   1 303.305 247.778   2-0.46567-0.30894 0.29144 0.12664-0.90940 0.86574
  10  -5  -1 -89.955 131.644   3 0.49254 0.28089-0.24080-0.17723 0.91529-0.87176
  -9   5   1 344.561 174.750   2-0.45029-0.24476 0.26974 0.14832-0.92174 0.89335
   9  -5  -1 673.966 245.301   3 0.47647 0.21743-0.22524-0.19278 0.92549-0.89731
   9   5  -1 644.409 215.512   7 0.55776 0.13520 0.08252 0.33516 0.91768-0.88898
  -9  -5   1 687.199 232.939   8-0.52152-0.17106-0.14662-0.27059-0.92512 0.89679
  -9   5   1 793.738 228.210   5-0.50287-0.19073 0.18047 0.23693-0.92612 0.89830
   8  -5  -1 257.516 162.438   3 0.46367 0.15072-0.21297-0.20501 0.93302-0.92018
  -8   5   1 48.3466 97.3606   2-0.43772-0.17778 0.25224 0.16579-0.93095 0.91783
  -8  -5   1 -68.940 104.050   4 0.01608-0.63055-0.47200 0.05528 0.86799-0.88088
   8   5  -1 36.8260 108.664   7 0.54793 0.06562 0.08057 0.33708 0.92241-0.90899
   8   5  -1 107.398 115.423   6 0.33190 0.28265 0.40459 0.01341 0.90015-0.88696
   8  -5  -1 170.518 119.522   9-0.01980 0.63348-0.47793 0.06094-0.86576 0.87870
  -8  -5   1 67.6599 96.3429   8-0.50942-0.10382-0.14154-0.27571-0.93089 0.91780
  -8   5   1 214.392 136.563   5-0.49027-0.12389 0.17255 0.24489-0.93254 0.91996
   7  -5  -1 923.772 231.805   3 0.45501 0.07987-0.20471-0.21322 0.93785-0.94032
  -7   5   1 858.272 230.384   2-0.42861-0.10735 0.23969 0.17831-0.93716 0.93931
   7   5  -1 931.575 211.913   7 0.54496-0.01079 0.07998 0.33763 0.92381-0.92566
  -7  -5   1 117.228 204.051   4 0.05153-0.58659-0.39611-0.02078 0.90947-0.90723
  -7   5   1 946.403 228.602   5-0.48259-0.05216 0.16774 0.24973-0.93628 0.93895
   7   5  -1 1001.50 218.986   6 0.32403 0.21112 0.37299 0.04499 0.91558-0.91767
   7  -5  -1 617.999 169.995   9-0.05649 0.59085-0.40304-0.01400-0.90739 0.90514
  -7  -5   1 723.388 203.004   8-0.50290-0.03103-0.13881-0.27847-0.93389 0.93602
  -6  -5   1 1057.88 257.188   8-0.50387 0.04924-0.13922-0.27808-0.93344 0.95081
   6  -5  -1 535.529 166.890   3 0.45160 0.00377-0.20146-0.21639 0.93969-0.95745
   6   5  -1 1076.19 245.130   7 0.55151-0.09674 0.08128 0.33630 0.92071-0.93781
  -6   5   1 228.684 120.562   2-0.42381-0.03262 0.23312 0.18487-0.94028 0.95771
   6  -5  -1 460.572 133.017   7 0.69896-0.24423 0.11099-0.52865 0.82764-0.84487
   6   5  -1 446.115 185.490   6 0.31809 0.13765 0.34992 0.06800 0.92592-0.94328
   6  -5  -1 374.887 138.481   9-0.09086 0.54588-0.32898-0.08812-0.94000 0.92254
  -6   5   1 422.301 125.780   5-0.48134 0.02598 0.16695 0.25056-0.93688 0.95479
  -5  -5   1 354.000 235.763   4 0.11508-0.49130-0.24916-0.16806 0.96573-0.93314
   5   5  -1 1424.13 206.956   7 0.57177-0.19639 0.08529 0.33223 0.91063-0.94298
   5  -5  -1 1670.78 224.868   7 0.75419-0.37878 0.12248-0.54005 0.77804-0.81050
  -5  -5   1 1444.60 218.341   8-0.51520 0.13985-0.14397-0.27336-0.92817 0.96075
   5   5  -1 1358.76 233.106   6 0.31450 0.06182 0.33625 0.08161 0.93169-0.96432
  -5   5   1 1743.57 269.409   2-0.42436 0.04745 0.23387 0.18411-0.93993 0.97264
  -5   5   1 1630.30 225.834   5-0.48868 0.11270 0.17154 0.24602-0.93333 0.96648
   5  -5  -1 1457.25 238.565   3 0.45494-0.07907-0.20464-0.21312 0.93788-0.97093
   5  -5  -1 1263.63 212.800   9-0.12275 0.49845-0.25671-0.16045-0.96446 0.93178
   4  -5  -1 1950.65 232.794   4-0.02753 0.32466-0.55966 0.14208 0.80739-0.85527
  -4  -5   1 1951.66 261.224   4 0.14289-0.43966-0.18015-0.23723 0.98248-0.93466
   4   5  -1 1829.43 215.114   7 0.61235-0.31633 0.09339 0.32406 0.88809-0.93565
   4  -5  -1 1569.91 232.203   9-0.15198 0.44833-0.18726-0.22996-0.98166 0.93375
  -4   5   1 1947.50 199.057   6 0.30957-0.60600 0.31780 0.09976 0.93907-0.89087
  -4   5   1 1939.43 270.819   2-0.43157 0.13418 0.24376 0.17423-0.93518 0.98318
   4   5  -1 1743.19 236.429   6 0.31365-0.01675 0.33304 0.08474 0.93301-0.98090
   4  -5  -1 1468.34 223.925   3 0.46706-0.17065-0.21620-0.20146 0.93108-0.97939
  -4   5   1 1732.71 211.598   5-0.50771 0.21109 0.18352 0.23410-0.92356 0.97196
  -4  -5   1 1920.47 239.065   8-0.54120 0.24509-0.15493-0.26243-0.91512 0.96293
   4   5  -1 1303.65 211.811   1-0.17039 0.46646 0.20095 0.21657-0.97938 0.93132
   3  -5  -1 810.702 155.180   3 0.49061-0.27366-0.23893-0.17861 0.91655-0.98012
   3  -5  -1 1134.93 174.045   4 0.00277 0.21503-0.49943 0.08194 0.85060-0.91371
  -3   5   1 851.519 164.404   2-0.44705 0.22915 0.26518 0.15280-0.92419 0.98748
   3   5  -1 785.147 152.513   1-0.18568 0.40254 0.12519 0.29235-0.99208 0.92872
   3   5  -1 860.415 144.221   7 0.68354-0.46685 0.10782 0.30955 0.83980-0.90255
   3  -5  -1 956.949 175.049   9-0.17834 0.39535-0.12180-0.29548-0.99251 0.92937
   3   5  -1 684.825 79.6676   2-0.49179 0.70913 0.32916 0.08845-0.88546 0.82273
  -3  -5   1 706.844 157.406   4 0.16781-0.38511-0.11564-0.30188 0.99298-0.92993
  -3   5   1 846.630 141.038   6 0.26848-0.48555 0.17592 0.24190 0.98107-0.91763
   3   5  -1 957.369 175.575   6 0.31590-0.09843 0.34156 0.07613 0.92948-0.99263
  -3  -5   1 1015.12 171.201   9-0.01098-0.20636-0.49531 0.07799-0.85472 0.91758
  -3   5   1 686.080 128.037   5-0.54284 0.32558 0.20590 0.21180-0.90326 0.96693
  -3  -5   1 882.701 151.463   8-0.58837 0.37149-0.17504-0.24238-0.88780 0.95084
  -2  -5   1 103.655 66.2338   8-0.66597 0.52826-0.20885-0.20863-0.83081 0.90914
  -2   5   1 79.0667 20.1445   7-0.09215-0.04557-0.03961 0.45743 0.95871-0.88016
  -2  -5   1 40.0370 31.2663   3 0.38116-0.51849-0.13592-0.28142 0.97061-0.89209
  -2   5   1 82.5730 60.4256   6 0.23616-0.37380 0.07505 0.34298 0.99616-0.91742
   2   5  -1 44.7613 61.6173   1-0.19795 0.33556 0.05927 0.35832-0.99820 0.91955
  -2  -5   1 -18.291 58.6407   4 0.18961-0.32743-0.05689-0.36075 0.99836-0.92004
   2   5  -1 46.5302 41.2367   2-0.33564 0.47348 0.11702 0.30039-0.98173 0.90363
   2   5  -1 132.000 77.0916   6 0.32153-0.18350 0.36319 0.05439 0.92006-0.99847
   2  -5  -1 90.7121 87.0332   9-0.20160 0.33925-0.06159-0.35575-0.99807 0.91968
  -2  -5   1 92.5801 78.6239   9-0.02747-0.11055-0.46264 0.04536-0.87502 0.95312
  -2   5   1 112.512 70.6826   2-0.47258 0.33420 0.30130 0.11672-0.90346 0.98206
   2  -5  -1 8.88952 37.3496   3 0.52893-0.39137-0.27667-0.14073 0.88889-0.96769
   1   5  -1 384.507 111.006   1-0.20746 0.26579 0.00441 0.41327-0.99987 0.90591
   1  -5  -1 486.811 125.140   9-0.22148 0.27979-0.00805-0.40933-0.99952 0.90588
  -1   5   1 443.345 120.459   6 0.21270-0.27087 0.00622 0.41197 0.99976-0.90572
  -1  -5   1 502.412 131.655   4 0.20806-0.26641-0.00533-0.41240 0.99985-0.90625
   1   5  -1 521.243 128.777   6 0.33061-0.27199 0.39935 0.01812 0.90282-0.99645
   1  -5  -1 355.391 43.8829   8-0.13789 0.19630 0.00782-0.42489-0.99846 0.90483
  -1  -5   1 530.909 130.624   9-0.03378-0.02490-0.44991 0.03266-0.88243 0.97577
  -1   5   1 600.056 150.103   5-0.68554 0.62696 0.30120 0.11671-0.78207 0.87639
   1  -5  -1 508.222 114.224   3 0.58534-0.52715-0.33436-0.08292 0.83723-0.93126
   0   5   1 1960.84 115.835   7-0.04056 0.06163-0.03031 0.44821 0.97232-0.86322
   0  -5   1 1982.80 111.379   7 0.31513-0.29400 0.03552-0.45296 0.99127-0.88259
   0  -5   1 2052.18 255.449   4 0.22291-0.20177 0.03748-0.45528 0.99881-0.88992
   0   5  -1 1996.08 237.140   1-0.21442 0.19341-0.03833 0.45610-0.99901 0.88976
   0   5   1 2503.44 259.019   2-0.55890 0.57956 0.43240-0.01430-0.80164 0.91096
   0  -5   1 2104.35 241.498   9-0.03258 0.05323-0.45235 0.03514-0.88103 0.98961
   0  -5  -1 2244.57 151.838   8-0.06538 0.04462 0.03571-0.45276-0.99120 0.88237
   0   5   1 2434.53 271.509   6 0.19719-0.17589-0.03753 0.45585 0.99927-0.88991
   0   5  -1 2145.85 245.203   6 0.34290-0.36368 0.45116-0.03384 0.87459-0.98344
   0  -5  -1 2111.66 246.726   9-0.23775 0.21669 0.03725-0.45466-0.99820 0.88931
   0  -5  -1 2336.43 249.833   4 0.02549-0.04587-0.45226 0.03501 0.87968-0.98854
  -1  -5  -1 1959.02 245.895   4 0.01927-0.11906-0.46536 0.04818 0.87200-0.99610
   1   5   1 1912.39 154.171   7 0.00447 0.09600-0.02216 0.44007 0.98198-0.85762
  -1   5  -1 1822.39 230.774   1-0.21901 0.11863-0.06796 0.48584-0.99732 0.87276
   1  -5   1 1832.75 239.315   9-0.02554 0.12553-0.46650 0.04934-0.87272 0.99654
   1   5   1 2119.10 273.430   6 0.18853-0.08775-0.06144 0.47984 0.99809-0.87341
  -1   5  -1 1929.35 230.817   6 0.35754-0.45771 0.51909-0.10190 0.83072-0.95475
  -1  -5  -1 2060.62 235.917   9-0.25005 0.14964 0.07254-0.48999-0.99554 0.87140
  -1  -5  -1 1893.43 172.146   8-0.06383-0.03621 0.03631-0.45335-0.99098 0.86693
  -2  -5  -1 1523.18 228.093   4 0.00845-0.18767-0.48781 0.07073 0.85813-0.99747
   2  -5   1 1369.59 110.258   7-0.06748 0.24741-0.03518-0.38259 0.96556-0.82618
   2   5   1 1321.71 154.770   7 0.04694 0.13294-0.01441 0.43234 0.98920-0.84959
  -2   5  -1 1284.15 211.352   1-0.22135 0.04156-0.08351 0.50148-0.99606 0.85620
   2   5   1 1580.62 254.057   6 0.18564-0.00539-0.06932 0.48781 0.99756-0.85757
   2  -5   1 1313.69 218.378   9-0.01384 0.19317-0.48971 0.07259-0.85834 0.99738
  -2  -5  -1 1204.07 163.950   8-0.08191-0.09743 0.02939-0.44641-0.99338 0.85410
  -2  -5  -1 1284.01 177.127   9-0.25798 0.07822 0.09580-0.51327-0.99301 0.85361
  -2   5  -1 158.765 82.4329   6 0.37282-0.55233 0.60211-0.18507 0.76467-0.90385
   3  -5   1 1112.81 124.684   7 0.05602 0.20327-0.01275-0.40499 0.99051-0.83590
   3   5   1 1093.37 165.316   7 0.08861 0.17067-0.00677 0.42471 0.99451-0.83963
  -3  -5  -1 1123.85 219.743   4-0.00618-0.25247-0.51754 0.10058 0.83837-0.99291
   3   5   1 1070.90 218.318   6 0.18759 0.07211-0.06400 0.48255 0.99792-0.84264
   3  -5   1 873.971 187.123   9 0.00170 0.25697-0.51986 0.10278-0.83816 0.99244
  -3   5  -1 978.449 187.489   1-0.22141-0.03783-0.08389 0.50193-0.99603 0.84086
  -3  -5  -1 1034.30 174.173   9-0.26092 0.00182 0.10451-0.52202-0.99191 0.83725
  -3   5  -1 907.307 80.5720   8 0.05001-0.30960 0.07937 0.33889-0.96742 0.81250
  -3  -5  -1 1158.18 182.144   8-0.10844-0.15022 0.01920-0.43620-0.99623 0.84171
   4  -5   1 210.107 71.9709   7 0.13260 0.20606 0.00134-0.41908 0.99818-0.82832
   4   5   1 1.82841 60.4489   7 0.12992 0.20875 0.00084 0.41711 0.99802-0.82786
  -4  -5  -1 -23.497 84.6365   4-0.02401-0.31407-0.55282 0.13596 0.81267-0.98241
  -4   5  -1 82.9882 76.1056   1-0.21896-0.11975-0.06766 0.48576-0.99734 0.82686
   4   5   1 165.789 101.054   6 0.19357 0.14557-0.04755 0.46617 0.99885-0.82828
   4  -5   1 116.836 82.8654   4 0.23727 0.10168 0.08017-0.49808 0.99570-0.82572
  -4  -5  -1 46.8384 53.0005   9-0.25780-0.08064 0.09525-0.51277-0.99308 0.82317
  -4  -5  -1 16.0517 58.3663   8-0.13940-0.19858 0.00724-0.42423-0.99854 0.82879
   4  -5   1 159.427 90.5407   9 0.02044 0.31756-0.55522 0.13819-0.81220 0.98169
   5   5   1 797.096 172.265   7 0.17106 0.24701 0.00847 0.40949 0.99974-0.81431
   5  -5   1 677.652 126.616   7 0.19302 0.22500 0.01256-0.43032 0.99992-0.81480
  -5   5  -1 698.336 159.337   1-0.21353-0.20471-0.03272 0.45082-0.99923 0.81344
   5   5   1 785.267 200.545   6 0.20293 0.21566-0.02149 0.44015 0.99970-0.81385
   5  -5   1 552.867 174.854   9 0.04192 0.37542-0.59439 0.17740-0.78024 0.96495
  -5  -5  -1 782.660 191.155   8-0.17298-0.24434-0.00581-0.41116-0.99980 0.81480
   6   5   1 199.706 102.434   7 0.21209 0.28537 0.01612 0.40185 0.99967-0.79896
   6  -5   1 483.232 151.395   7 0.24620 0.25119 0.02251-0.44029 0.99821-0.79782
   6   5   1 288.615 101.130   6 0.21510 0.28291 0.01313 0.40557 0.99964-0.79853
  -6  -5  -1 386.427 135.790   8-0.20825-0.28841-0.01960-0.39735-0.99968 0.79943
  10   6  -1 130.917 160.140   7 0.60535 0.16693 0.09200 0.40924 0.89222-0.84813
   9   6  -1 153.670 135.123   7 0.59385 0.09903 0.08969 0.41152 0.89878-0.86999
  -9   6   1 246.297 170.310   5-0.52419-0.16935 0.19398 0.30689-0.91441 0.88667
  -9  -6   1 -27.673 209.232   8-0.54809-0.14441-0.15785-0.34282-0.91143 0.88311
  -9   6   1 89.8726 156.636   2-0.46084-0.23421 0.28457 0.21700-0.91341 0.88508
   9  -6  -1 -35.823 134.553   3 0.49186 0.20203-0.24014-0.26144 0.91573-0.88752
   8  -6  -1 415.757 216.707   3 0.48107 0.13331-0.22968-0.27185 0.92265-0.90978
  -8   6   1 185.109 155.913   2-0.45000-0.16551 0.26932 0.23223-0.92196 0.90890
  -8  -6   1 28.8161 127.500   4 0.01682-0.63126-0.47047-0.02978 0.86892-0.88184
   8   6  -1 278.769 125.679   7 0.58794 0.02554 0.08851 0.41267 0.90205-0.88854
   8   6  -1 364.780 203.990   6 0.33347 0.28118 0.41106 0.09052 0.89680-0.88354
   8  -6  -1 219.153 140.093   9-0.02088 0.63453-0.47580-0.02465-0.86707 0.88001
  -8  -6   1 263.986 208.070   8-0.53890-0.07427-0.15396-0.34672-0.91633 0.90324
  -8   6   1 188.330 127.748   5-0.51404-0.10009 0.18753 0.31338-0.92012 0.90761
   7  -6  -1 -13.055 84.0071   3 0.47436 0.06050-0.22321-0.27824 0.92676-0.92921
  -7   6   1 101.109 120.226   2-0.44250-0.09346 0.25887 0.24266-0.92753 0.92973
   7   6  -1 45.5943 109.940   7 0.58950-0.05542 0.08882 0.41231 0.90119-0.90295
  -7  -6   1 26.8154 90.7020   4 0.04813-0.58316-0.40355-0.09688 0.90580-0.90359
   7   6  -1 3.80880 116.233   6 0.32666 0.20857 0.38343 0.11811 0.91065-0.91266
  -7   6   1 40.9922 92.6897   5-0.50889-0.02584 0.18428 0.31667-0.92292 0.92565
   7  -6  -1 -6.4629 94.5683   9-0.05337 0.58769-0.40958-0.09094-0.90412 0.90185
  -7  -6   1 -50.935 98.7621   8-0.53557 0.00168-0.15255-0.34816-0.91806 0.92020
   6  -6  -1 82.5949 126.265   3 0.47276-0.01740-0.22167-0.27970 0.92772-0.94547
  -6   6   1 330.387 174.581   2-0.43909-0.01735 0.25413 0.24738-0.92998 0.94746
   6   6  -1 294.177 131.933   7 0.60133-0.14662 0.09119 0.40989 0.89454-0.91156
  -6   6   1 250.018 114.357   5-0.51019 0.05484 0.18509 0.31590-0.92222 0.94019
  -6  -6   1 117.501 110.083   4 0.07709-0.53269-0.33872-0.16188 0.93497-0.91759
   6   6  -1 340.119 152.712   6 0.32162 0.13420 0.36354 0.13796 0.91991-0.93721
   6  -6  -1 91.5897 110.702   9-0.08355 0.53855-0.34506-0.15551-0.93359 0.91611
  -6  -6   1 105.000 105.231   8-0.53997 0.08537-0.15441-0.34632-0.91577 0.93313
   5  -6  -1 643.109 174.013   3 0.47755-0.10167-0.22629-0.27498 0.92483-0.95786
  -5   6   1 546.290 179.859   2-0.44061 0.06368 0.25624 0.24526-0.92889 0.96165
   5   6  -1 757.358 176.379   7 0.62757-0.25224 0.09646 0.40455 0.87876-0.91101
  -5  -6   1 148.468 204.038   4 0.10359-0.47974-0.27680-0.22395 0.95735-0.92478
   5  -6  -1 752.783 197.492   9-0.11129 0.48695-0.28309-0.21754-0.95633 0.92363
   5   6  -1 877.509 204.910   6 0.31865 0.05775 0.35205 0.14939 0.92500-0.95757
  -5   6   1 694.092 170.820   5-0.51988 0.14390 0.19124 0.30981-0.91687 0.95008
  -5  -6   1 767.039 178.605   8-0.55482 0.17947-0.16071-0.34005-0.90773 0.94031
   4  -6  -1 441.821 134.129   3 0.49042-0.19401-0.23873-0.26241 0.91668-0.96499
  -4   6   1 476.336 135.906   2-0.44813 0.15070 0.26671 0.23480-0.92337 0.97142
   4   6  -1 506.281 130.431   7 0.67447-0.37848 0.10597 0.39496 0.84665-0.89412
  -4  -6   1 519.303 165.028   4 0.12750-0.42418-0.21872-0.28218 0.97383-0.92603
  -4   6   1 621.216 137.413   6 0.31799-0.61441 0.34953 0.15158 0.92609-0.87785
   4  -6  -1 530.953 160.872   9-0.13646 0.43277-0.22455-0.27615-0.97317 0.92524
   4   6  -1 543.782 159.569   6 0.31806-0.02110 0.34978 0.15157 0.92598-0.97382
  -4  -6   1 977.136 198.533   9 0.00990-0.30660-0.53548 0.03466-0.82702 0.87460
  -4   6   1 562.702 131.004   5-0.54067 0.24406 0.20451 0.29660-0.90460 0.95306
  -4  -6   1 656.158 149.744   8-0.58404 0.28791-0.17318-0.32761-0.89051 0.93833
   3  -6  -1 461.769 146.884   4 0.00638 0.21151-0.49207-0.00890 0.85540-0.91850
   3   6  -1 437.263 133.189   7 0.75074-0.53405 0.12175 0.37910 0.78144-0.84410
  -3  -6   1 354.936 137.848   4 0.14867-0.36588-0.16542-0.33561 0.98531-0.92226
   3   6  -1 308.905 111.122   6 0.32010-0.10258 0.35768 0.14358 0.92252-0.98564
  -3   6   1 417.975 122.955   6 0.28614-0.50317 0.23465 0.26672 0.96675-0.90327
   3   6  -1 378.852 133.594   1-0.17522 0.39216 0.17767 0.32335-0.98394 0.92058
   3  -6  -1 398.299 137.381   9-0.15889 0.37586-0.17038-0.33036-0.98494 0.92177
  -3  -6   1 699.913 171.394   9-0.01441-0.20297-0.48858-0.01220-0.85906 0.92188
  -3   6   1 464.259 120.538   5-0.57620 0.35892 0.22748 0.27370-0.88102 0.94475
   3  -6  -1 498.282 151.790   3 0.51345-0.29648-0.26130-0.23972 0.90070-0.96427
  -3   6   1 410.647 134.903   2-0.46284 0.24491 0.28742 0.21410-0.91176 0.97511
  -3  -6   1 412.502 130.865   8-0.63317 0.41624-0.19444-0.30639-0.85693 0.92000
   2  -6  -1 1550.01 234.568   4 0.01976 0.11876-0.46432-0.03657 0.87262-0.95096
  -2  -6   1 1338.20 237.512   4 0.16693-0.30467-0.11795-0.38318 0.99269-0.91438
  -2   6   1 1388.12 207.125   2-0.48605 0.34762 0.32077 0.18079-0.89107 0.96974
  -2   6   1 1484.56 219.997   6 0.26004-0.39764 0.14882 0.35276 0.98629-0.90753
   2   6  -1 1530.62 238.942   6 0.32498-0.18690 0.37675 0.12440 0.91382-0.99219
   2   6  -1 1289.42 159.880   2-0.39947 0.53723 0.20024 0.30074-0.95463 0.87661
   2  -6  -1 1326.47 197.778   3 0.54911-0.41153-0.29699-0.20390 0.87205-0.95087
   2  -6  -1 1047.66 191.284   9-0.17839 0.31601-0.12167-0.37912-0.99253 0.91411
  -2  -6   1 1278.00 206.117   9-0.02778-0.11028-0.46202-0.03872-0.87539 0.95345
  -2  -6   1 1647.24 242.205   8-0.70927 0.57150-0.22822-0.27268-0.79088 0.86927
   2   6  -1 1293.63 213.663   1-0.18602 0.32370 0.12343 0.37765-0.99231 0.91366
   1  -6  -1 4927.20 395.072   4 0.02542 0.03370-0.45242-0.04841 0.87959-0.97321
   1   6  -1 3419.78 338.681   1-0.19442 0.25281 0.07879 0.42238-0.99686 0.90293
  -1  -6   1 3992.60 395.278   4 0.18205-0.24032-0.07747-0.42374 0.99693-0.90334
  -1   6   1 4055.61 348.795   2-0.51882 0.45990 0.36948 0.13211-0.85611 0.95012
  -1   6   1 3577.30 355.255   6 0.24017-0.29831 0.08717 0.41458 0.99496-0.90090
   1   6  -1 4437.16 398.298   6 0.33273-0.27407 0.40802 0.09301 0.89839-0.99200
   1  -6  -1 4997.84 414.418   9-0.19476 0.25301-0.07956-0.42128-0.99685 0.90318
  -1  -6   1 4041.52 284.684   3 0.34875-0.40670-0.10655-0.39442 0.98076-0.88693
  -1  -6   1 4108.09 376.680   9-0.03307-0.02565-0.45134-0.04936-0.88161 0.97491
   1  -6  -1 4564.10 352.016   3 0.59964-0.54141-0.34945-0.15129 0.82162-0.91568
   0  -6  -1 209.861 100.037   4 0.02502-0.04531-0.45327-0.04748 0.87910-0.98798
   0   6  -1 133.169 81.8112   6 0.34316-0.36392 0.45233 0.04855 0.87391-0.98274
   0   6   1 195.481 108.317   6 0.22623-0.20490 0.04553 0.45636 0.99836-0.88899
   0  -6   1 253.456 111.159   4 0.19382-0.17261-0.04527-0.45602 0.99896-0.89010
   0   6   1 259.364 119.494   2-0.56122 0.58182 0.43619 0.06545-0.79798 0.90737
   0   6  -1 84.6966 93.5141   1-0.20056 0.17961 0.04460 0.45667-0.99895 0.88972
   0  -6   1 213.208 99.4351   9-0.03210 0.05271-0.45332-0.04734-0.88047 0.98902
   0  -6  -1 95.4978 71.5863   9-0.20771 0.18662-0.04533-0.45555-0.99886 0.88994
   0  -6  -1 153.034 50.8534   8-0.27470 0.25378-0.04585-0.45460-0.99533 0.88650
  -1  -6  -1 6821.41 512.842   4 0.01969-0.11941-0.46447-0.03620 0.87253-0.99665
   1   6   1 6994.50 285.848   7 0.22745-0.12707 0.01899 0.48232 0.99917-0.87486
   1  -6   1 7031.86 513.454   4 0.20189-0.10119-0.02278-0.47855 0.99968-0.87554
  -1   6  -1 6985.43 495.847   1-0.20454 0.10423 0.02166 0.47971-0.99968 0.87515
   1   6   1 6925.46 529.568   6 0.21766-0.11686 0.02052 0.48147 0.99945-0.87477
  -1   6  -1 6494.27 483.450   6 0.35571-0.45586 0.51014-0.00941 0.83698-0.96100
  -1  -6  -1 6670.77 469.972   9-0.21694 0.11650-0.02046-0.48045-0.99947 0.87530
   1  -6   1 6378.71 488.629   9-0.02607 0.12602-0.46545-0.03517-0.87335 0.99714
  -1  -6  -1 6930.38 337.627   8-0.21171 0.11161-0.02096-0.47946-0.99959 0.87553
   2   6   1 113.653 66.3395   7 0.19971-0.01993 0.01380 0.48758 0.99988-0.86028
  -2  -6  -1 122.140 85.8251   4 0.01026-0.18941-0.48407-0.01650 0.86050-0.99986
   2   6   1 153.441 104.396   6 0.21383-0.03355 0.00947 0.49261 0.99971-0.85971
   2  -6   1 60.7970 69.7619   4 0.20579-0.02564-0.01178-0.48958 0.99983-0.86042
  -2  -6  -1 -36.912 55.0876   8-0.19553 0.01617-0.01462-0.48580-0.99989 0.86061
  -2   6  -1 135.700 102.338   6 0.36925-0.54876 0.58108-0.08049 0.78286-0.92204
   2  -6   1 70.8052 72.7161   9-0.01585 0.19514-0.48575-0.01483-0.86086 0.99988
  -2  -6  -1 34.6695 68.0562   9-0.22198 0.04219-0.00668-0.49424-0.99951 0.86009
  -2   6  -1 29.6778 61.2868   1-0.20638 0.02665 0.01083 0.49063-0.99983 0.86000
   3   6   1 75.1119 70.2862   7 0.20445 0.05473 0.01469 0.48674 0.99982-0.84494
  -3  -6  -1 94.1847 84.1660   4-0.00267-0.25593-0.51046 0.00999 0.84322-0.99780
  -3  -6  -1 54.8886 67.4921   9-0.22216-0.03697-0.00620-0.49476-0.99951 0.84483
   3   6   1 91.9070 104.268   6 0.21413 0.04562 0.01031 0.49183 0.99970-0.84440
   3  -6   1 174.429 115.223   4 0.20484 0.05474-0.01446-0.48691 0.99981-0.84512
   3  -6   1 -1.0140 84.1643   9-0.00209 0.26071-0.51257 0.01203-0.84320 0.99745
  -3  -6  -1 24.3027 61.8044   8-0.19983-0.05880-0.01630-0.48411-0.99984 0.84533
  -3   6  -1 37.0959 87.9875   1-0.20600-0.05319 0.01309 0.48844-0.99981 0.84467
  -4  -6  -1 2290.90 338.228   4-0.01862-0.31941-0.54227 0.04190 0.82062-0.99041
   4   6   1 2977.35 304.632   7 0.22278 0.11579 0.01812 0.48334 0.99935-0.82920
   4  -6   1 2681.17 303.960   4 0.19791 0.14108-0.03391-0.46748 0.99940-0.82945
  -4   6  -1 2618.91 310.322   1-0.20317-0.13551 0.02965 0.47192-0.99949 0.82904
   4  -6   1 2701.96 390.374   9 0.01472 0.32325-0.54454 0.04404-0.82032 0.98979
   4   6   1 3409.09 418.204   6 0.21798 0.12121 0.02143 0.48077 0.99943-0.82883
  -4  -6  -1 2894.09 295.886   9-0.21636-0.12210-0.02202-0.47895-0.99946 0.82953
  -5  -6  -1 377.607 338.813   4-0.03722-0.38024-0.57830 0.07804 0.79248-0.97745
   5   6   1 2335.32 306.232   7 0.24817 0.16979 0.02288 0.47861 0.99809-0.81265
   5   6   1 1837.33 326.267   6 0.22490 0.19374 0.04160 0.46065 0.99858-0.81270
  -5  -6  -1 1398.69 305.590   8-0.23699-0.18023-0.03092-0.46947-0.99847 0.81350
   6   6   1 197.831 123.806   7 0.27772 0.21964 0.02845 0.47306 0.99572-0.79499
   6   6   1 -66.902 97.5527   6 0.23444 0.26362 0.06988 0.43241 0.99661-0.79546
   6  -6   1 -189.41 131.417   9 0.05600 0.44064-0.61931 0.11890-0.75798 0.95789
  -6  -6  -1 116.364 132.456   8-0.26320-0.23336-0.04128-0.45910-0.99648 0.79626
  -6   6  -1 -61.205 106.483   2-0.27033-0.22781 0.03564 0.46523-0.99611 0.79581
  -7   6  -1 -151.94 129.769   2-0.28877-0.28889 0.05826 0.44265-0.99328 0.77770
   9   7  -1 516.406 215.137   7 0.63598 0.05683 0.09815 0.48658 0.87339-0.84449
   9  -7  -1 165.090 162.216   9 0.01383 0.67913-0.54288-0.04100-0.82156 0.84967
  -9  -7   1 -165.92 224.211   8-0.57940-0.11302-0.17119-0.41290-0.89338 0.86508
  -8  -7   1 69.2361 120.426   4 0.01333-0.62774-0.47772-0.10609 0.86447-0.87742
   8   7  -1 49.6213 103.289   7 0.63434-0.02093 0.09782 0.48686 0.87445-0.86084
   8  -7  -1 -30.599 111.623   9-0.01754 0.63117-0.48242-0.10150-0.86296 0.87587
   8   7  -1 137.685 163.233   6 0.33680 0.27795 0.42495 0.16022 0.88941-0.87606
  -8   7   1 66.2736 143.377   5-0.54174-0.07235 0.20519 0.37919-0.90395 0.89151
  -8   7   1 333.055 177.246   2-0.46479-0.15072 0.29019 0.29487-0.91014 0.89713
  -8  -7   1 183.611 167.911   8-0.57328-0.03985-0.16857-0.41553-0.89708 0.88401
   8  -7  -1 -124.67 158.614   3 0.50155 0.11280-0.24960-0.33546 0.90919-0.89628
  -7   7   1 411.035 203.189   2-0.45881-0.07718 0.28170 0.30334-0.91506 0.91732
  -7  -7   1 14.1149 110.869   4 0.04136-0.57635-0.41829-0.16568 0.89830-0.89610
   7   7  -1 -24.091 93.4559   7 0.64078-0.10676 0.09913 0.48550 0.87024-0.87190
   7   7  -1 141.502 146.048   6 0.33093 0.20440 0.40061 0.18451 0.90217-0.90412
   7  -7  -1 143.705 93.4208   9-0.04668 0.58097-0.42350-0.16050-0.89693 0.89464
  -7   7   1 223.549 168.283   5-0.53914 0.00443 0.20353 0.38090-0.90555 0.90834
  -7  -7   1 30.0576 112.915   8-0.57326 0.03941-0.16856-0.41555-0.89709 0.89924
   7  -7  -1 210.842 155.563   3 0.49673 0.03811-0.24489-0.34009 0.91248-0.91490
  -6   7   1 568.576 207.722   2-0.45665 0.00018 0.27867 0.30634-0.91678 0.93431
  -6  -7   1 16.1310 193.875   4 0.06710-0.52264-0.36140-0.22273 0.92546-0.90808
   6   7  -1 62.0433 98.9714   6 0.32665 0.12924 0.38336 0.20171 0.91068-0.92791
   6  -7  -1 217.152 139.419   9-0.07354 0.52849-0.36680-0.21725-0.92435 0.90684
  -6   7   1 280.666 111.888   5-0.54295 0.08762 0.20597 0.37849-0.90319 0.92123
  -6  -7   1 168.508 171.536   8-0.58118 0.12659-0.17195-0.41218-0.89229 0.90966
   6  -7  -1 365.749 150.445   3 0.49685-0.04150-0.24500-0.33988 0.91240-0.93012
  -5   7   1 125.493 94.6250   2-0.45909 0.08212 0.28209 0.30291-0.91483 0.94765
  -5  -7   1 -14.651 127.128   4 0.09047-0.46655-0.30777-0.27651 0.94680-0.91422
   5   7  -1 142.281 125.116   6 0.32421 0.05225 0.37372 0.21128 0.91524-0.94775
   5  -7  -1 415.410 166.669   9-0.09803 0.47365-0.31304-0.27106-0.94600 0.91327
  -5   7   1 182.614 119.949   5-0.55496 0.17898 0.21370 0.37081-0.89553 0.92881
  -5  -7   1 88.9205 105.093   8-0.59957 0.22422-0.17986-0.40430-0.88056 0.91316
   5  -7  -1 65.6399 95.4188   3 0.50302-0.12715-0.25104-0.33373 0.90817-0.94118
   4  -7  -1 746.049 209.015   4-0.01759 0.31493-0.54026-0.04423 0.82211-0.86994
  -4  -7   1 105.495 161.173   4 0.11136-0.40796-0.25817-0.32624 0.96310-0.91530
   4   7  -1 437.118 141.010   6 0.32387-0.02684 0.37234 0.21259 0.91588-0.96367
  -4   7   1 475.154 164.059   6 0.32708-0.62349 0.38508 0.19958 0.90985-0.86156
   4  -7  -1 298.219 122.964   9-0.12004 0.41632-0.26299-0.32117-0.96261 0.91465
  -4   7   1 481.167 149.395   5-0.57748 0.28083 0.22831 0.35626-0.88010 0.92864
  -4   7   1 297.811 158.256   2-0.46692 0.16945 0.29322 0.29180-0.90834 0.95645
   4  -7  -1 457.538 160.430   3 0.51663-0.22022-0.26445-0.32018 0.89835-0.94664
  -4  -7   1 88.5737 121.874   8-0.63193 0.33578-0.19390-0.39029-0.85786 0.90570
  -3  -7   1 67.8768 115.829   8-0.68286 0.46587-0.21636-0.36788-0.81603 0.87915
   3  -7  -1 84.4070 100.946   4 0.00254 0.21544-0.49991-0.08452 0.85029-0.91337
  -3  -7   1 184.197 108.739   4 0.12964-0.34677-0.21341-0.37113 0.97513-0.91208
   3   7  -1 172.264 123.286   1-0.16473 0.38175 0.22750 0.35700-0.97345 0.91010
  -3   7   1 90.0678 79.3771   6 0.30138-0.51839 0.28798 0.29692 0.95003-0.88650
   3   7  -1 75.0265 76.8997   6 0.32578-0.10820 0.37992 0.20493 0.91232-0.97539
  -3  -7   1 58.0439 100.204   9-0.01010-0.20732-0.49702-0.08721-0.85360 0.91638
   3  -7  -1 213.836 119.342   9-0.13944 0.35635-0.21747-0.36675-0.97491 0.91171
  -3   7   1 99.9970 95.2515   5-0.61346 0.39614 0.25203 0.33263-0.85226 0.91608
  -3   7   1 48.1956 82.1179   2-0.48110 0.26311 0.31357 0.27147-0.89575 0.95917
   3  -7  -1 153.921 89.2086   3 0.53934-0.32236-0.28711-0.29738 0.88041-0.94397
   2  -7  -1 2094.45 309.843   4 0.01430 0.12430-0.47571-0.10867 0.86572-0.94406
  -2   7   1 1645.43 255.456   2-0.50253 0.36404 0.34500 0.24007-0.87442 0.95315
  -2   7   1 1726.77 269.260   6 0.27974-0.41731 0.21303 0.37210 0.97251-0.89371
  -2  -7   1 1705.06 280.173   4 0.14516-0.28281-0.17437-0.41026 0.98362-0.90531
   2  -7  -1 1792.93 285.590   9-0.15604 0.29361-0.17736-0.40689-0.98363 0.90518
   2   7  -1 1707.63 287.379   6 0.33009-0.19195 0.39723 0.18750 0.90388-0.98220
  -2   7   1 2274.51 317.953   5-0.66622 0.52823 0.28778 0.29700-0.80308 0.88221
   2  -7  -1 1597.90 243.652   3 0.57293-0.43535-0.32142-0.26292 0.84987-0.92869
  -2  -7   1 1488.87 263.804   9-0.02189-0.11621-0.47379-0.11040-0.86831 0.94633
   2   7  -1 1732.70 279.283   1-0.17436 0.31212 0.18186 0.40271-0.98316 0.90452
   1  -7  -1 49.0020 89.6580   4 0.01956 0.03964-0.46474-0.11957 0.87237-0.96598
   1   7  -1 22.8016 55.6884   2-0.38238 0.44060 0.17756 0.40688-0.96330 0.87006
  -1  -7   1 5.01305 83.8144   4 0.15773-0.21590-0.14204-0.44267 0.98927-0.89570
  -1   7   1 -21.294 90.3727   6 0.26269-0.32080 0.15725 0.42806 0.98476-0.89066
  -1  -7   1 -24.287 69.8843   9-0.02687-0.03190-0.46384-0.12032-0.87431 0.96758
   1   7  -1 72.1169 109.575   6 0.33681-0.27810 0.42501 0.15959 0.88937-0.98294
  -1   7   1 211.620 124.266   2-0.53190 0.47292 0.38954 0.19557-0.83995 0.93404
   1  -7  -1 30.8240 78.7791   9-0.16967 0.22789-0.14365-0.44064-0.98945 0.89575
   1  -7  -1 59.1733 94.2318   3 0.61884-0.56061-0.37012-0.21408 0.79872-0.89279
   1   7  -1 0.11212 84.3479   1-0.18186 0.24031 0.14473 0.43992-0.98939 0.89546
   0   7  -1 197.100 80.0017   6 0.34578-0.36650 0.46393 0.12053 0.86697-0.97577
   0   7  -1 207.147 105.386   1-0.18729 0.16641 0.11682 0.46794-0.99311 0.88389
   0  -7  -1 177.584 123.411   4 0.01956-0.03977-0.46475-0.11950 0.87236-0.98123
   0  -7   1 136.453 68.8917   3 0.36342-0.34196-0.11978-0.46479 0.97646-0.86734
   0  -7   1 57.3398 85.0318   4 0.16711-0.14580-0.11747-0.46729 0.99275-0.88390
   0   7   1 142.175 78.0979   6 0.25021-0.22885 0.11795 0.46750 0.99118-0.88178
   0   7   1 223.495 108.144   2-0.56907 0.58961 0.44912 0.13604-0.78516 0.89463
   0   7  -1 51.2052 81.5891   2-0.33773 0.31647 0.11967 0.46469-0.98106 0.87252
   0  -7  -1 99.4407 99.7091   9-0.18007 0.15893-0.11744-0.46690-0.99305 0.88411
   0  -7   1 13.2769 95.6383   9-0.02640 0.04697-0.46479-0.11933-0.87375 0.98226
  -1   7  -1 2196.07 321.113   1-0.19070 0.09044 0.09881 0.48606-0.99508 0.87056
  -1  -7  -1 2053.21 313.776   4 0.01516-0.11481-0.47392-0.11025 0.86682-0.99095
   1  -7   1 1780.69 310.260   4 0.17296-0.07219-0.10194-0.48287 0.99459-0.87046
  -1   7  -1 1936.61 292.813   6 0.35657-0.45670 0.51434 0.06996 0.83406-0.95806
  -1   7  -1 1911.79 270.027   2-0.30975 0.20903 0.08433 0.49999-0.98891 0.86507
   1   7   1 1791.77 304.828   6 0.24204-0.14119 0.09283 0.49273 0.99435-0.86964
  -1  -7  -1 1913.26 276.302   9-0.18688 0.08641-0.09995-0.48440-0.99501 0.87081
   1  -7   1 1893.15 259.242   3 0.32170-0.22080-0.08238-0.50238 0.98746-0.86297
   1  -7   1 1573.40 258.604   9-0.02140 0.12131-0.47475-0.10933-0.86772 0.99147
  -2  -7  -1 3570.25 406.481   4 0.00703-0.18611-0.49071-0.09337 0.85627-0.99564
  -2   7  -1 2884.93 368.582   1-0.19208 0.01239 0.09142 0.49354-0.99579 0.85596
   2  -7   1 3524.07 404.296   4 0.17484 0.00538-0.09692-0.48791 0.99512-0.85572
   2   7   1 3622.17 434.604   6 0.23780-0.05748 0.07997 0.50567 0.99569-0.85567
  -2   7  -1 3164.09 367.440   6 0.36838-0.54788 0.57608 0.00805 0.78702-0.92619
  -2   7  -1 3765.67 408.666   2-0.29413 0.11395 0.06489 0.51940-0.99228 0.85317
  -2  -7  -1 3365.84 358.248   9-0.18970 0.00986-0.09272-0.49166-0.99572 0.85626
   2  -7   1 3110.44 399.074   9-0.01258 0.19183-0.49218-0.09187-0.85675 0.99574
  -2  -7  -1 3181.08 286.845   8-0.31114 0.13175-0.06038-0.52341-0.99057 0.85131
  -3  -7  -1 18.7810 114.637   4-0.00436-0.25417-0.51388-0.07011 0.84089-0.99550
  -3   7  -1 -31.136 98.0100   1-0.19132-0.06782 0.09551 0.48952-0.99540 0.84027
   3  -7   1 290.087 138.674   9-0.00045 0.25904-0.51574-0.06826-0.84102 0.99525
   3  -7   1 92.3467 92.5114   4 0.17207 0.08758-0.10432-0.48053 0.99433-0.83966
   3   7   1 61.0501 94.3604   6 0.23708 0.02270 0.07782 0.50791 0.99590-0.84057
  -3  -7  -1 89.3787 70.2901   9-0.18780-0.07137-0.09762-0.48678-0.99525 0.84054
  -3   7  -1 140.168 117.276   2-0.28786 0.02819 0.05713 0.52716-0.99344 0.83905
  -3  -7  -1 89.2316 88.0692   8-0.29510 0.03647-0.05397-0.52982-0.99288 0.83840
  -4  -7  -1 196.978 173.465   4-0.01861-0.31936-0.54226-0.04163 0.82063-0.99045
  -4   7  -1 584.905 171.298   1-0.18819-0.15046 0.11211 0.47295-0.99366 0.82321
   4  -7   1 421.841 139.469   4 0.16359 0.17545-0.12673-0.45812 0.99152-0.82160
   4   7   1 461.878 187.784   6 0.23950 0.09974 0.08511 0.50067 0.99518-0.82455
  -4  -7  -1 506.543 156.902   9-0.18012-0.15837-0.11727-0.46716-0.99308 0.82312
   4  -7   1 346.605 178.459   9 0.01459 0.32334-0.54431-0.03965-0.82049 0.98995
  -4   7  -1 186.215 132.558   2-0.28876-0.05040 0.05825 0.52606-0.99328 0.82361
  -4  -7  -1 346.075 162.498   8-0.29557-0.04233-0.05416-0.52963-0.99282 0.82311
  -5  -7  -1 24.9197 80.1834   8-0.30615-0.11103-0.05838-0.52540-0.99132 0.80639
  -5  -7  -1 53.0909 143.793   4-0.03542-0.38199-0.57487-0.00891 0.79528-0.98030
   5   7   1 -77.723 130.965   6 0.24466 0.17402 0.10083 0.48499 0.99342-0.80750
   5  -7   1 135.083 112.448   9 0.03222 0.38506-0.57688-0.00703-0.79497 0.97965
  -5   7  -1 -41.922 123.334   2-0.29528-0.12337 0.06631 0.51802-0.99206 0.80710
  -5   7  -1 132.976 109.430   1-0.18227-0.23592 0.14264 0.44241-0.98970 0.80392
   6  -7   1 -66.876 157.933   3 0.31266 0.18570-0.07437-0.51098 0.98935-0.78814
   6   7   1 171.620 152.090   6 0.25224 0.24588 0.12422 0.46163 0.99028-0.78907
  -6   7  -1 61.2151 149.695   2-0.30628-0.19188 0.07999 0.50439-0.98972 0.78949
   6  -7   1 38.6166 114.933   9 0.05215 0.44446-0.61257 0.02870-0.76416 0.96406
   7  -7   1 112.917 166.262   3 0.32967 0.24820-0.08946-0.49595 0.98565-0.76908
  -7   7  -1 -9.3358 111.570   2-0.32088-0.25681 0.09831 0.48611-0.98607 0.77056
  -8  -8   1 110.420 260.573   4 0.00674-0.62110-0.49131-0.17604 0.85589-0.86885
   8   8  -1 534.480 229.517   6 0.34128 0.27354 0.44414 0.22460 0.87867-0.86524
   8  -8  -1 336.764 180.068   9-0.01093 0.62454-0.49540-0.17201-0.85466 0.86756
  -8  -8   1 -35.112 245.661   8-0.61179-0.00130-0.18514-0.48237-0.87231 0.85926
  -7  -8   1 -34.075 144.226   4 0.03209-0.56703-0.43822-0.22929 0.88760-0.88540
   7   8  -1 147.949 209.566   6 0.33622 0.19917 0.42258 0.24613 0.89069-0.89256
   7  -8  -1 -125.40 141.301   9-0.03733 0.57159-0.44269-0.22477-0.88651 0.88419
  -7   8   1 100.026 127.920   2-0.47680-0.05920 0.30738 0.36117-0.89968 0.90202
  -7   8   1 111.074 183.195   5-0.57250 0.03780 0.22507 0.44281-0.88364 0.88652
   7  -8  -1 139.463 181.705   3 0.52136 0.01347-0.26914-0.39935 0.89477-0.89715
  -7  -8   1 168.946 172.819   8-0.61509 0.08127-0.18657-0.48094-0.87001 0.87219
  -6  -8   1 65.5563 229.157   4 0.05524-0.51070-0.38792-0.27975 0.91340-0.89602
   6  -8  -1 442.087 190.081   9-0.06149 0.51642-0.39250-0.27502-0.91253 0.89499
   6   8  -1 1021.35 292.324   6 0.33261 0.12335 0.40754 0.26112 0.89864-0.91579
  -6   8   1 536.933 192.978   5-0.57872 0.12338 0.22913 0.43880-0.87921 0.89733
  -6   8   1 728.643 241.918   2-0.47580 0.01929 0.30593 0.36260-0.90059 0.91820
   6  -8  -1 735.553 257.989   3 0.52306-0.06773-0.27083-0.39755 0.89347-0.91116
  -6  -8   1 246.123 213.100   8-0.62646 0.17187-0.19151-0.47601-0.86189 0.87930
   5  -8  -1 204.876 168.639   9-0.08337 0.45894-0.34546-0.32212-0.93343 0.90067
  -5   8   1 33.5973 89.4140   5-0.59287 0.21688 0.23841 0.42957-0.86870 0.90206
  -5   8   1 -258.71 162.048   2-0.47902 0.10201 0.31057 0.35796-0.89767 0.93056
   5  -8  -1 -120.41 151.804   3 0.53048-0.15461-0.27822-0.39003 0.88765-0.92064
  -4  -8   1 177.747 206.518   4 0.09454-0.39106-0.29823-0.36971 0.95019-0.90238
   4   8  -1 712.174 222.696   6 0.33049-0.03340 0.39885 0.26966 0.90306-0.95079
   4  -8  -1 521.354 159.490   9-0.10284 0.39907-0.30224-0.36538-0.94986 0.90187
  -4   8   1 856.983 209.111   5-0.61692 0.32025 0.25435 0.41370-0.84936 0.89800
  -4   8   1 476.402 195.715   2-0.48714 0.18962 0.32234 0.34619-0.89003 0.93822
   4  -8  -1 475.170 168.003   3 0.54475-0.24834-0.29258-0.37554 0.87583-0.92410
   3  -8  -1 -16.776 132.655   4-0.00581 0.22388-0.51680-0.15110 0.83888-0.90193
  -3  -8   1 -11.539 102.478   4 0.11052-0.32755-0.26020-0.40784 0.96250-0.89945
  -3   8   1 172.876 122.616   6 0.31503-0.53202 0.33825 0.33020 0.93086-0.86728
   3  -8  -1 37.8587 111.270   9-0.11980 0.33668-0.26354-0.40412-0.96244 0.89921
  -3   8   1 43.4971 98.6618   2-0.50086 0.28282 0.34252 0.32604-0.87619 0.93968
  -3  -8   1 198.546 168.569   9-0.00112-0.21634-0.51444-0.15325-0.84192 0.90465
   3   8  -1 47.7843 87.5530   6 0.33231-0.11467 0.40627 0.26215 0.89929-0.96229
  -3   8   1 143.577 140.831   5-0.65320 0.43584 0.27883 0.38930-0.81627 0.88020
   3  -8  -1 124.687 108.823   3 0.56716-0.35018-0.31545-0.35250 0.85549-0.91903
   2  -8  -1 127.337 128.621   4 0.00507 0.13362-0.49473-0.17311 0.85368-0.93200
  -2  -8   1 179.834 106.071   4 0.12385-0.26141-0.22772-0.44041 0.97156-0.89325
  -2   8   1 258.048 128.719   6 0.29675-0.43429 0.27149 0.39718 0.95558-0.87673
   2   8  -1 300.366 131.742   6 0.33615-0.19797 0.42228 0.24602 0.89085-0.96912
   2  -8  -1 247.184 170.324   9-0.13409 0.27162-0.23015-0.43757-0.97175 0.89327
  -2   8   1 467.233 156.537   2-0.52083 0.38228 0.37252 0.29606-0.85373 0.93256
  -2  -8   1 238.361 144.863   9-0.01208-0.12606-0.49315-0.17450-0.85612 0.93410
   2  -8  -1 57.5109 86.3858   3 0.59899-0.46140-0.34877-0.31903 0.82235-0.90116
   1  -8  -1 780.078 219.710   4 0.01026 0.04903-0.48407-0.18373 0.86050-0.95410
  -1  -8   1 772.051 217.659   4 0.13437-0.19245-0.20161-0.46659 0.97789-0.88431
   1   8  -1 587.950 183.322   1-0.16949 0.22801 0.20521 0.46294-0.97848 0.88454
  -1   8   1 566.899 195.900   6 0.28197-0.34004 0.22050 0.44835 0.97058-0.87645
  -1   8   1 842.504 206.623   2-0.54743 0.48839 0.41395 0.25469-0.81880 0.91298
   1  -8  -1 772.947 191.147   9-0.14553 0.20369-0.20288-0.46486-0.97831 0.88458
   1   8  -1 622.027 186.645   6 0.34205-0.28331 0.44748 0.22070 0.87675-0.97027
  -1  -8   1 631.585 192.560   9-0.01708-0.04173-0.48332-0.18430-0.86239 0.95562
   0  -8  -1 473.741 155.219   4 0.01074-0.03088-0.48306-0.18467 0.86114-0.97000
   0  -8  -1 386.406 161.275   9-0.15386 0.13268-0.18270-0.48508-0.98258 0.87359
   0   8  -1 351.240 142.152   2-0.38913 0.36780 0.18647 0.48144-0.96001 0.85156
   0  -8   1 320.376 152.087   4 0.14184-0.12045-0.18281-0.48543 0.98194-0.87309
   0   8   1 454.141 184.406   6 0.27080-0.24939 0.18342 0.48557 0.97947-0.87004
   0   8  -1 247.536 151.483   6 0.34983-0.37052 0.48232 0.18571 0.85550-0.96424
   0   8  -1 490.250 175.239   1-0.17431 0.15348 0.18210 0.48616-0.98312 0.87389
   0  -8   1 301.656 159.224   9-0.01719 0.03772-0.48310-0.18449-0.86253 0.97101
   1  -8   1 648.435 159.813   3 0.39148-0.29061-0.14537-0.52281 0.96687-0.84244
  -1  -8  -1 873.258 228.172   4 0.00725-0.10680-0.49028-0.17739 0.85655-0.98067
  -1  -8  -1 666.727 188.514   9-0.15876 0.05823-0.17069-0.49711-0.98489 0.86065
   1  -8   1 650.777 208.200   4 0.14593-0.04508-0.17240-0.49588 0.98400-0.85987
  -1   8  -1 649.552 176.718   2-0.36031 0.25953 0.14871 0.51915-0.97293 0.84917
   1   8   1 763.610 230.032   6 0.26313-0.16225 0.15865 0.51046 0.98450-0.85975
  -1   8  -1 547.543 191.907   6 0.35916-0.45926 0.52712 0.14075 0.82497-0.94893
   1  -8   1 668.937 227.314   9-0.01318 0.11305-0.49100-0.17655-0.85751 0.98123
  -1   8  -1 573.672 211.468   1-0.17723 0.07701 0.16783 0.50053-0.98569 0.86117
  -2  -8  -1 172.827 156.330   4 0.00027-0.17927-0.50451-0.16308 0.84723-0.98660
   2  -8   1 92.1045 85.8752   3 0.36424-0.18391-0.12053-0.54781 0.97621-0.83642
   2  -8   1 26.4423 117.825   4 0.14622 0.03407-0.17167-0.49663 0.98414-0.84474
   2   8   1 -133.40 133.580   6 0.25877-0.07841 0.14474 0.52446 0.98700-0.84694
  -2   8  -1 59.3758 92.5729   2-0.34245 0.16220 0.12571 0.54212-0.97950 0.84046
  -2   8  -1 343.619 156.933   6 0.36938-0.54887 0.58177 0.08593 0.78227-0.92141
  -2  -8  -1 169.678 138.708   9-0.15979-0.02008-0.16817-0.49966-0.98535 0.84586
   2  -8   1 28.6959 122.375   9-0.00561 0.18483-0.50576-0.16175-0.84781 0.98677
  -2   8  -1 -77.427 103.414   1-0.17820-0.00145 0.16304 0.50541-0.98651 0.84667
  -3  -8  -1 31.7629 147.507   4-0.00975-0.24870-0.52470-0.14281 0.83335-0.98797
   3  -8   1 -61.933 126.956   3 0.35011-0.09030-0.10777-0.56072 0.98038-0.82524
   3  -8   1 228.703 145.105   4 0.14205 0.11765-0.18227-0.48604 0.98205-0.82739
   3   8   1 0.16949 97.6807   6 0.25743 0.00239 0.14053 0.52877 0.98771-0.83234
  -3   8  -1 452.721 180.770   2-0.33321 0.07349 0.11393 0.55390-0.98249 0.82816
   3  -8   1 180.195 157.206   9 0.00508 0.25347-0.52631-0.14116-0.83362 0.98782
  -3  -8  -1 128.512 130.062   9-0.15628-0.10292-0.17678-0.49107-0.98374 0.82900
  -3   8  -1 325.254 185.549   1-0.17710-0.08202 0.16847 0.50004-0.98558 0.83044
  -4  -8  -1 544.833 263.000   4-0.02250-0.31541-0.54989-0.11752 0.81490-0.98474
   4  -8   1 1081.36 302.721   3 0.34560-0.00630-0.10372-0.56490 0.98162-0.81114
   4   8   1 1300.24 312.148   6 0.25884 0.08045 0.14497 0.52437 0.98696-0.81629
  -4   8  -1 1044.99 266.385   1-0.17371-0.16491 0.18501 0.48354-0.98256 0.81209
  -4   8  -1 1231.64 324.756   2-0.33084-0.00836 0.11091 0.55692-0.98321 0.81361
   4  -8   1 1233.52 345.755   9 0.01854 0.31935-0.55169-0.11573-0.81491 0.98434
  -5  -8  -1 29.0410 86.6448   4-0.03772-0.37964-0.57924-0.08807 0.79170-0.97674
   5  -8   1 226.635 211.006   3 0.34833 0.07046-0.10618-0.56255 0.98088-0.79503
   5   8   1 118.441 144.078   6 0.26270 0.15602 0.15729 0.51211 0.98475-0.79878
  -5   8  -1 95.9786 166.912   2-0.33400-0.08470 0.11492 0.55293-0.98225 0.79736
   5  -8   1 192.169 133.619   9 0.03451 0.38273-0.58105-0.08633-0.79153 0.97619
  -5  -8  -1 52.0619 88.2792   8-0.37970-0.03746-0.08803-0.57915-0.97673 0.79183
   6  -8   1 288.716 197.190   3 0.35668 0.14162-0.11369-0.55513 0.97850-0.77730
  -6   8  -1 238.029 213.962   2-0.34166-0.15655 0.12469 0.54319-0.97976 0.77960
   6  -8   1 32.2429 64.2177   9 0.05275 0.44383-0.61362-0.05372-0.76320 0.96308
  -7   9   1 41.1926 153.361   5-0.60827 0.07357 0.24858 0.50276-0.85654 0.85953
  -6  -9   1 -19.104 175.304   4 0.04186-0.49725-0.41722-0.33398 0.89885-0.88146
   6   9  -1 64.8980 149.645   6 0.33913 0.11690 0.43487 0.31735 0.88393-0.90100
   6  -9  -1 145.803 170.745   9-0.04784 0.50272-0.42110-0.32989-0.89819 0.88062
  -6   9   1 -60.206 162.720   2-0.49598 0.03943 0.33529 0.41675-0.88125 0.89895
  -6   9   1 297.569 195.033   5-0.61670 0.16135 0.25420 0.49718-0.84954 0.86777
   6  -9  -1 50.5439 120.217   3 0.55076-0.09543-0.29866-0.45319 0.87060-0.88824
   5  -9  -1 103.353 115.855   9-0.06753 0.44307-0.37966-0.37138-0.91855 0.88575
  -5  -9   1 -177.43 166.522   4 0.06062-0.43653-0.37594-0.37539 0.91897-0.88637
   5   9  -1 86.2754 136.726   6 0.33754 0.03905 0.42812 0.32404 0.88767-0.92004
  -5   9   1 29.8583 127.262   5-0.63275 0.25673 0.26496 0.48648-0.83554 0.86903
  -5   9   1 158.031 190.351   2-0.49986 0.12281 0.34104 0.41100-0.87723 0.91021
   5  -9  -1 -195.52 152.373   3 0.55924-0.18339-0.30732-0.44440 0.86294-0.89588
  -4  -9   1 -4.4726 236.079   4 0.07709-0.37352-0.33871-0.41273 0.93497-0.88715
   4   9  -1 424.706 195.620   6 0.33756-0.04042 0.42818 0.32390 0.88764-0.93529
   4  -9  -1 497.682 200.350   9-0.08492 0.38111-0.34207-0.40902-0.93481 0.88678
  -4   9   1 711.800 232.234   2-0.50819 0.21062 0.35343 0.39861-0.86828 0.91656
   4  -9  -1 310.346 155.437   3 0.57403-0.27762-0.32256-0.42901 0.84879-0.89703
   3   9  -1 50.6196 151.663   6 0.33928-0.12159 0.43550 0.31650 0.88358-0.94651
   3  -9  -1 -87.372 129.218   4-0.01720 0.23537-0.53949-0.21189 0.82268-0.88571
  -3  -9   1 5.28871 117.242   4 0.09117-0.30811-0.30615-0.44539 0.94738-0.88431
  -3   9   1 -125.22 116.462   6 0.32746-0.54443 0.38661 0.36539 0.90911-0.84546
   3  -9  -1 346.712 205.388   9-0.09987 0.31670-0.30892-0.44221-0.94749 0.88422
  -3   9   1 -56.523 169.281   2-0.52147 0.30338 0.37351 0.37855-0.85295 0.91655
   3  -9  -1 -5.5593 109.658   3 0.59609-0.37910-0.34569-0.40573 0.82560-0.88912
   2   9  -1 967.164 263.281   6 0.34275-0.20451 0.45052 0.30136 0.87497-0.95317
   2  -9  -1 819.957 218.284   4-0.00679 0.14557-0.51877-0.23257 0.83751-0.91581
   2  -9  -1 1476.33 339.266   3 0.62627-0.48866-0.37823-0.37302 0.78921-0.86800
  -2  -9   1 958.337 274.002   4 0.10271-0.24016-0.27892-0.47270 0.95667-0.87835
  -2   9   1 633.572 210.072   6 0.31183-0.44935 0.32625 0.42596 0.93575-0.85684
  -2   9   1 903.414 239.639   2-0.54015 0.40156 0.40243 0.34968-0.82900 0.90793
  -2  -9   1 976.220 290.662   9 0.00045-0.13863-0.51747-0.23364-0.83983 0.91777
   2  -9  -1 994.638 273.145   9-0.11225 0.24972-0.28090-0.47028-0.95704 0.87852
   1  -9  -1 554.395 176.300   4-0.00149 0.06086-0.50808-0.24321 0.84483-0.93841
  -1  -9   1 917.352 250.709   4 0.11154-0.16952-0.25774-0.49393 0.96323-0.86964
  -1   9   1 963.283 267.096   2-0.56438 0.50529 0.44137 0.31079-0.79291 0.88721
  -1   9   1 748.426 225.702   6 0.29892-0.35697 0.27920 0.47319 0.95303-0.85883
   1   9  -1 601.160 211.446   6 0.34795-0.28915 0.47368 0.27806 0.86096-0.95442
   1  -9  -1 833.948 228.782   9-0.12188 0.18000-0.25875-0.49246-0.96386 0.87010
  -1  -9   1 419.011 180.232   9-0.00474-0.05411-0.50746-0.24361-0.84667 0.93986
   0  -9  -1 487.968 200.221   4-0.00048-0.01956-0.50605-0.24520 0.84620-0.95505
   0  -9   1 -21.334 118.639   4 0.11743-0.09594-0.24345-0.50827 0.96733-0.85847
   0   9   1 514.467 208.050   6 0.28891-0.26748 0.24417 0.50837 0.96403-0.85453
   0   9  -1 366.313 167.193   6 0.35473-0.37538 0.50536 0.24624 0.84027-0.94896
   0  -9  -1 311.799 128.651   9-0.12850 0.10728-0.24330-0.50793-0.96825 0.85923
   0  -9   1 493.253 206.882   9-0.00546 0.02594-0.50607-0.24498-0.84760 0.95604
  -1  -9  -1 115.159 91.8452   4-0.00317-0.09630-0.51149-0.23969 0.84252-0.96664
  -1   9  -1 451.139 158.318   2-0.40633 0.30547 0.20944 0.54197-0.95083 0.82717
  -1   9  -1 453.200 179.016   1-0.16390 0.06372 0.23132 0.52054-0.97253 0.84799
   1  -9   1 246.397 152.593   4 0.12008-0.01914-0.23697-0.51477 0.96911-0.84498
   1   9   1 516.403 235.011   6 0.28179-0.18089 0.21995 0.53273 0.97073-0.84593
  -1  -9  -1 390.396 189.837   9-0.13182 0.03125-0.23551-0.51575-0.97035 0.84608
  -1   9  -1 393.843 172.457   6 0.36279-0.46287 0.54575 0.20569 0.81113-0.93503
   1  -9   1 189.604 138.287   9-0.00235 0.10217-0.51208-0.23893-0.84354 0.96722
   2  -9   1 1058.69 234.107   3 0.42506-0.24476-0.17648-0.57529 0.95286-0.81312
  -2  -9  -1 886.269 311.508   4-0.00911-0.16982-0.52340-0.22771 0.83427-0.97364
  -2   9  -1 1175.89 272.094   2-0.38717 0.20684 0.18388 0.56749-0.96098 0.82203
   2  -9   1 1121.76 313.484   4 0.11907 0.06131-0.23946-0.51230 0.96843-0.82903
  -2  -9  -1 896.969 240.457   9-0.13139-0.04852-0.23653-0.51475-0.97008 0.83055
  -2   9  -1 943.426 276.646   1-0.16450-0.01512 0.22856 0.52339-0.97319 0.83334
   2   9   1 1265.53 303.266   6 0.27747-0.09708 0.20545 0.54732 0.97439-0.83428
  -2   9  -1 455.352 193.297   6 0.37161-0.55109 0.59480 0.15647 0.77111-0.91020
   2  -9   1 923.552 281.563   9 0.00410 0.17507-0.52445-0.22652-0.83494 0.97386
  -3  -9  -1 131.680 176.305   4-0.01792-0.24045-0.54090-0.21013 0.82164-0.97625
   3  -9   1 357.992 202.699   3 0.40678-0.14701-0.15948-0.59245 0.96084-0.80574
   3  -9   1 294.045 194.597   4 0.11377 0.14601-0.25233-0.49943 0.96482-0.81015
  -3   9  -1 60.5315 105.326   2-0.37587 0.11608 0.16899 0.58236-0.96632 0.81208
   3   9   1 392.390 169.473   6 0.27576-0.01589 0.19975 0.55309 0.97576-0.82035
  -3  -9  -1 278.981 163.261   9-0.12658-0.13267-0.24780-0.50349-0.96700 0.81222
   3  -9   1 120.561 144.609   9 0.01351 0.24501-0.54227-0.20865-0.82201 0.97617
  -4  -9  -1 56.7898 199.539   4-0.02934-0.30849-0.56319-0.18775 0.80462-0.97446
   4  -9   1 442.562 233.551   3 0.39799-0.05874-0.15135-0.60071 0.96438-0.79392
  -4   9  -1 617.147 257.029   2-0.37102 0.03175 0.16265 0.58871-0.96847 0.79895
   4   9   1 542.878 231.151   6 0.27645 0.06287 0.20205 0.55086 0.97522-0.80449
   4  -9   1 647.674 298.349   9 0.02559 0.31228-0.56474-0.18616-0.80475 0.97416
   5  -9   1 332.689 239.081   3 0.39655 0.02218-0.15004-0.60215 0.96494-0.77912
  -5   9  -1 -88.428 144.810   2-0.37150-0.04726 0.16327 0.58810-0.96826 0.78346
   5   9   1 -18.540 144.250   6 0.27934 0.13944 0.21169 0.54128 0.97285-0.78682
   5  -9   1 181.750 112.710   9 0.04008 0.37713-0.59111-0.15974-0.78306 0.96769
   6  -9   1 -3.7294 184.528   3 0.40091 0.09732-0.15405-0.59824 0.96322-0.76205
   5 -10  -1 184.129 135.430   3 0.58878-0.21293-0.33797-0.49722 0.83357-0.86647
  -4  10   1 286.238 159.555   2-0.52963 0.23202 0.38604 0.44952-0.84285 0.89125
   4 -10  -1 149.396 154.146   3 0.60391-0.30749-0.35401-0.48102 0.81673-0.86494
  -3 -10   1 137.432 253.772   4 0.07148-0.28833-0.35149-0.48355 0.92970-0.86660
  -3  10   1 226.943 162.016   2-0.54245 0.32432 0.40606 0.42952-0.82582 0.88954
   3  10  -1 -41.017 144.775   6 0.34643-0.12869 0.46683 0.36874 0.86520-0.92805
   3 -10  -1 90.7445 182.403   9-0.07955 0.29634-0.35379-0.48081-0.92996 0.86665
   2 -10  -1 253.700 187.733   4-0.02063 0.15950-0.54623-0.28858 0.81767-0.89593
  -2 -10   1 65.0256 183.916   4 0.08151-0.21887-0.32857-0.50654 0.93899-0.86064
  -2  10   1 641.089 263.283   2-0.55992 0.42128 0.43407 0.40156-0.80003 0.87909
  -2  10   1 281.525 197.591   6 0.32542-0.46291 0.37850 0.45727 0.91300-0.83401
   2  10  -1 649.912 253.599   6 0.34955-0.21127 0.48105 0.35440 0.85631-0.93443
   2 -10  -1 171.765 131.842   9-0.09031 0.22774-0.33020-0.50443-0.93952 0.86097
  -2 -10   1 259.705 221.837   9 0.01506-0.15328-0.54518-0.28938-0.81984 0.89773
   1 -10  -1 841.924 289.749   4-0.01511 0.07458-0.53536-0.29941 0.82570-0.91925
  -1 -10   1 903.076 296.649   4 0.08891-0.14680-0.31142-0.52374 0.94547-0.85186
  -1  10   1 914.522 335.912   6 0.31411-0.37213 0.33476 0.50118 0.93230-0.83803
   1  10  -1 782.471 220.245   6 0.35415-0.29532 0.50258 0.33275 0.84216-0.93554
   1 -10  -1 706.963 230.076   9-0.09840 0.15648-0.31222-0.52244-0.94630 0.85249
  -1 -10   1 436.294 207.016   9 0.00957-0.06847-0.53484-0.29968-0.82747 0.92062
   0 -10  -1 18.6003 110.382   4-0.01358-0.00636-0.53233-0.30239 0.82790-0.93672
   0 -10   1 347.648 235.104   4 0.09347-0.07189-0.30074-0.53444 0.94930-0.84042
   0  10  -1 346.622 214.976   6 0.36006-0.38068 0.53169 0.30350 0.82164-0.93026
   0  10   1 215.837 188.838   6 0.30514-0.28367 0.30155 0.53454 0.94519-0.83562
   0 -10  -1 -79.241 147.779   9-0.10358 0.08232-0.30058-0.53411-0.95044 0.84139
   0 -10   1 24.4599 115.101   9 0.00825 0.01219-0.53235-0.30215-0.82929 0.93768
  -1 -10  -1 683.994 225.234   4-0.01552-0.08386-0.53616-0.29852 0.82512-0.94920
   1 -10   1 573.545 216.522   4 0.09489 0.00613-0.29740-0.53781 0.95047-0.82632
   1  10   1 783.313 264.689   6 0.29857-0.19763 0.27796 0.55826 0.95345-0.82858
  -1 -10  -1 635.179 226.990   9-0.10555 0.00494-0.29614-0.53858-0.95198 0.82766
  -1  10  -1 674.876 259.317   6 0.36703-0.46707 0.56852 0.26649 0.79322-0.91705
   1 -10   1 802.452 267.041   9 0.01053 0.08925-0.53665-0.29782-0.82615 0.94980
  -2 -10  -1 491.479 271.558   4-0.02052-0.15832-0.54600-0.28861 0.81783-0.95717
  -2  10  -1 950.522 261.219   2-0.42889 0.24849 0.24007 0.59485-0.93697 0.79814
   2 -10   1 928.344 318.098   4 0.09277 0.08768-0.30239-0.53282 0.94872-0.80931
   2  10   1 821.634 301.737   6 0.29438-0.11395 0.26315 0.57317 0.95826-0.81809
  -2 -10  -1 504.200 236.388   9-0.10387-0.07608-0.29993-0.53480-0.95067 0.81111
  -2  10  -1 -20.596 130.565   6 0.37458-0.55405 0.61304 0.22182 0.75479-0.89382
   2 -10   1 724.322 279.124   9 0.01597 0.16316-0.54688-0.28756-0.81855 0.95745
  -3 -10  -1 -309.73 179.272   4-0.02827-0.23002-0.56111-0.27345 0.80626-0.96085
  -3  10  -1 -148.66 151.859   2-0.41618 0.15631 0.22274 0.61214-0.94504 0.79091
   3  10   1 -253.82 180.801   6 0.29244-0.03254 0.25639 0.58001 0.96037-0.80488
   4 -10   1 211.026 168.307   3 0.44910-0.10991-0.19909-0.63639 0.94101-0.77057
  -4  10  -1 420.961 255.003   2-0.40946 0.07013 0.21367 0.62122-0.94903 0.77961
   5 -10   1 16.8129 128.137   3 0.44418-0.02550-0.19444-0.64118 0.94357-0.75776
   1 -11  -1 -21.611 174.617   4-0.03028 0.08985-0.56500-0.35326 0.80320-0.89670
  -1  11   1 -16.123 142.899   6 0.32782-0.38581 0.38805 0.53144 0.90841-0.81405
  -1 -11   1 -117.19 134.091   9 0.02550-0.08444-0.56458-0.35340-0.80488 0.89798
   0 -11   1 337.267 250.517   9 0.02358-0.00318-0.56104-0.35691-0.80767 0.91602
   1 -11   1 129.695 188.315   4 0.07002 0.03109-0.35482-0.56385 0.92829-0.80411
  -1 -11  -1 116.457 148.947   9-0.07958-0.02108-0.35373-0.56443-0.92999 0.80563
  -1  11  -1 177.882 181.840   6 0.37152-0.47155 0.59433 0.32428 0.77153-0.89527
  11   0  -2 27.8734 108.550   7 0.63864 0.19193 0.09869-0.09899 0.87165-0.92138
 -11   0   2 78.7024 138.606   5-0.63156-0.20039 0.26416-0.26432-0.83661 0.88724
 -11   0   2 14.7135 129.268   8-0.63496-0.19570-0.19522 0.19560-0.85559 0.90552
  10   0  -2 195.231 141.477   7 0.62570 0.12546 0.09608-0.09637 0.87993-0.94494
 -10   0   2 285.691 161.411   5-0.61861-0.13387 0.25547-0.25558-0.84793 0.91385
 -10   0   2 292.603 192.301   8-0.62199-0.12928-0.18957 0.18987-0.86513 0.93035
   9   0  -2 211.293 146.347   7 0.61770 0.05407 0.09447-0.09473 0.88487-0.96516
   9   0  -2 107.503 91.4392   3 0.59950 0.07250-0.34931 0.34949 0.82177-0.90270
  -9   0   2 157.141 109.685   5-0.61028-0.06273 0.24992-0.24997-0.85489 0.93610
  -9   0   2 -84.441 99.8799   8-0.61381-0.05809-0.18601 0.18625-0.87091 0.95141
   8   0  -2 238.529 113.154   7 0.61621-0.02384 0.09417-0.09442 0.88577-0.98132
  -8   0   2 115.777 95.3902   2-0.57748-0.01717 0.46324-0.46293-0.77053 0.86629
   8   0  -2 257.642 107.993   3 0.59656-0.00404-0.34619 0.34633 0.82508-0.92131
  -8   0   2 221.439 104.407   5-0.60803 0.01449 0.24843-0.24843-0.85673 0.95321
  -8   0   2 337.149 152.684   8-0.61195 0.01943-0.18521 0.18537-0.87220 0.96796
   7   0  -2 -134.45 86.9396   7 0.62352-0.11052 0.09564-0.09587 0.88129-0.99207
   7   0  -2 -65.816 77.9324   3 0.60088-0.08784-0.35079 0.35090 0.82020-0.93169
  -7   0   2 88.1947 86.1017   5-0.61389 0.09981 0.25232-0.25226-0.85191 0.96367
  -7   0   2 85.0989 103.570   8-0.61857 0.10542-0.18808 0.18817-0.86756 0.97858
   6   0  -2 857.446 163.110   7 0.64285-0.20922 0.09954-0.09975 0.86887-0.99487
  -6   0   2 582.550 92.8298   4 0.21052-0.64580 0.00168-0.00134 0.99982-0.87335
   6   0  -2 676.392 90.9642   9-0.21054 0.64489-0.03776 0.03788-0.99912 0.87302
   6   0  -2 203.445 42.3469   1-0.21305 0.64572-0.02969 0.03017-0.99934 0.87282
  -6   0   2 914.059 176.227   5-0.63054 0.19591 0.26347-0.26335-0.83752 0.96456
  -6   0   2 997.350 193.129   8-0.63667 0.20287-0.19597 0.19599-0.85429 0.98055
  -5   0   2 21.0850 61.0211   8-0.67026 0.31579-0.21076 0.21071-0.82714 0.96863
   5   0  -2 10.7944 38.1298   7 0.67868-0.32438 0.10683-0.10702 0.84350-0.98469
  -5   0   2 -3.0331 42.4356   4 0.30287-0.65882 0.29547-0.29531 0.94747-0.80568
   5   0  -2 -7.1740 33.4855   9-0.30898 0.66404 0.25682-0.25676-0.95796 0.81664
   5   0  -2 -57.270 77.5604   3 0.64021-0.28602-0.39369 0.39376 0.77023-0.91214
  -5   0   2 -52.879 66.0741   5-0.66143 0.30626 0.28447-0.28431-0.80802 0.95033
   4   0  -2 13093.6 576.351   7 0.73645-0.46145 0.11876-0.11894 0.79509-0.95146
  -4   0   2 12095.1 618.817   8-0.72386 0.44871-0.23484 0.23473-0.77580 0.93251
 -12   1   2 218.889 237.259   8-0.67024-0.23988-0.21075 0.29481-0.82716 0.86173
 -11   1   2 75.9864 145.734   8-0.65464-0.17607-0.20386 0.28784-0.84019 0.89008
  11   1  -2 240.548 129.376   7 0.63401 0.19656 0.09775-0.01448 0.87466-0.92437
  11  -1  -2 272.312 188.662   7 0.65036 0.18018 0.10107-0.18492 0.86382-0.91354
 -11   1   2 -111.45 147.964   5-0.61495-0.21690 0.25304-0.16960-0.85102 0.90173
 -11  -1   2 313.077 215.531   8-0.62296-0.20762-0.18999 0.10677-0.86443 0.91440
  10   1  -2 845.563 243.812   7 0.62089 0.13028 0.09511-0.01183 0.88292-0.94792
  10  -1  -2 907.048 254.972   7 0.63829 0.11286 0.09862-0.18246 0.87188-0.93690
  10  -1  -2 1073.92 250.475   3 0.58456 0.16706-0.33354 0.25014 0.83805-0.90376
 -10  -1   2 1210.33 298.089   5-0.64519-0.10737 0.27338-0.35711-0.82401 0.88986
 -10   1   2 673.194 211.094   5-0.60126-0.15113 0.24394-0.16045-0.86217 0.92816
 -10  -1   2 1107.31 294.653   8-0.60941-0.14179-0.18411 0.10082-0.87395 0.93920
 -10   1   2 1163.97 293.618   8-0.64302-0.10832-0.19875 0.28266-0.84942 0.91460
   9   1  -2 312.227 139.198   7 0.61258 0.05919 0.09344-0.01014 0.88796-0.96823
   9  -1  -2 196.745 123.988   7 0.63137 0.04038 0.09722-0.18103 0.87635-0.95664
  -9   1   2 232.353 153.335   2-0.55215-0.12210 0.42148-0.33752-0.81191 0.89243
   9  -1  -2 42.2243 103.239   3 0.57472 0.09739-0.32328 0.23987 0.84810-0.92914
  -9  -1   2 13.6381 123.264   5-0.63897-0.03411 0.26916-0.35284-0.82986 0.91099
  -9   1   2 142.484 98.1010   5-0.59184-0.08110 0.23773-0.15418-0.86948 0.95074
  -9  -1   2 -65.650 92.9659   8-0.60038-0.07145-0.18021 0.09686-0.88002 0.96054
  -9   1   2 -224.36 166.332   8-0.63657-0.03537-0.19593 0.27976-0.85437 0.93483
  -7   1   2 1337.34 233.895   8-0.64674 0.13355-0.20038 0.28407-0.84652 0.95751
  -7  -1   2 1260.64 169.372   4 0.12898-0.64352-0.21506 0.13206 0.97473-0.86349
   7   1  -2 1185.19 205.939   7 0.61713-0.10412 0.09435-0.01105 0.88522-0.99599
   7  -1  -2 1149.57 203.906   7 0.64047-0.12748 0.09906-0.18282 0.87045-0.98123
  -7   1   2 1509.03 239.646   2-0.54543 0.03035 0.41075-0.32678-0.82166 0.93275
   7  -1  -2 1203.71 149.687   9-0.13076 0.64438-0.23800 0.15472-0.96968 0.85878
   7  -1  -2 1197.51 200.847   3 0.57142-0.05828-0.31986 0.23642 0.85136-0.96296
  -7   1   2 1384.20 214.374   5-0.59150 0.07746 0.23750-0.15385-0.86974 0.98154
  -7  -1   2 1395.83 240.530   5-0.64917 0.13504 0.27609-0.35965-0.82019 0.93191
  -7  -1   2 1023.88 210.493   8-0.60208 0.08897-0.18094 0.09747-0.87890 0.98991
  -5  -1   2 -15.462 51.7859   8-0.64725 0.29279-0.20060 0.11700-0.84611 0.98760
  -5   1   2 -11.388 65.3940   8-0.70782 0.35336-0.22757 0.31111-0.79232 0.93378
   5  -1  -2 41.9319 44.0532   9-0.27966 0.63468 0.16158-0.24500-0.98245 0.84111
   5   1  -2 34.5236 49.1664   7 0.66921-0.31492 0.10489-0.02159 0.85052-0.99170
   5  -1  -2 78.7838 55.7001   7 0.70125-0.34693 0.11146-0.19515 0.82578-0.96698
   5   1  -2 63.3633 45.9309   1-0.24571 0.59934-0.27490 0.35853-0.95951 0.81762
  -5   1   2 78.2605 68.7654   2-0.56565 0.20974 0.44345-0.35948-0.79085 0.93253
  -5  -1   2 46.7932 48.4687   4 0.27164-0.62750 0.18812-0.27152 0.97849-0.83677
  -5   1   2 5.63346 54.7540   5-0.63087 0.27572 0.26369-0.17993-0.83723 0.97958
  -4  -1   2 213.096 75.0175   8-0.69580 0.42064-0.22215 0.13849-0.80403 0.96074
   4   1  -2 375.608 81.6433   7 0.72435-0.44936 0.11624-0.03293 0.80609-0.96245
   4  -1  -2 268.220 77.9270   7 0.76262-0.48759 0.12425-0.20791 0.76952-0.92589
   4  -1  -2 360.966 107.411   3 0.63529-0.36042-0.38821 0.30477 0.77710-0.93432
  -4   1   2 444.681 119.316   5-0.67339 0.39768 0.29274-0.20891-0.79549 0.95312
 -11   2   2 292.391 213.088   8-0.68257-0.14820-0.21623 0.38385-0.81629 0.86608
  11   2  -2 350.066 205.645   7 0.63619 0.19438 0.09819 0.06865 0.87325-0.92293
  11  -2  -2 -1.3008 141.100   7 0.66941 0.16109 0.10493-0.27235 0.85038-0.90008
  11  -2  -2 67.2395 113.733   3 0.58381 0.24743-0.33275 0.16575 0.83883-0.88926
 -11   2   2 25.4227 155.297   5-0.60578-0.22599 0.24693-0.07993-0.85856 0.90933
 -11  -2   2 410.272 241.847   8-0.61803-0.21246-0.18785 0.02106-0.86795 0.91794
 -10   2   2 222.125 207.155   8-0.67314-0.07823-0.21204 0.37958-0.82465 0.88975
  10   2  -2 -173.46 140.595   7 0.62349 0.12768 0.09563 0.07122 0.88131-0.94628
  10  -2  -2 -70.257 117.544   7 0.65890 0.09221 0.10280-0.27018 0.85790-0.92290
  10  -2  -2 49.3597 103.381   3 0.56996 0.18175-0.31835 0.15134 0.85278-0.91857
 -10   2   2 44.0156 122.087   5-0.59203-0.16029 0.23784-0.07080-0.86934 0.93538
 -10  -2   2 -85.465 111.852   8-0.60454-0.14658-0.18200 0.01517-0.87725 0.94251
  -9   2   2 98.1617 159.608   8-0.66945-0.00253-0.21040 0.37787-0.82783 0.90823
   9   2  -2 -24.842 93.3981   7 0.61558 0.05618 0.09404 0.07281 0.88616-0.96640
   9  -2  -2 165.452 110.682   7 0.65389 0.01782 0.10178-0.26913 0.86139-0.94166
  -9   2   2 378.565 181.349   2-0.53288-0.14135 0.39107-0.22348-0.83868 0.91923
  -9  -2   2 375.317 213.408   5-0.67911 0.00596 0.29671-0.46404-0.78927 0.87031
   9  -2  -2 1.88295 71.4165   3 0.55968 0.11253-0.30776 0.14075 0.86254-0.94365
  -9   2   2 249.305 130.820   5-0.58233-0.09054 0.23148-0.06437-0.87658 0.95789
  -9  -2   2 -194.95 120.421   8-0.59543-0.07633-0.17807 0.01117-0.88327 0.96379
  -8   2   2 60.6484 126.232   8-0.67339 0.08080-0.21215 0.37954-0.82443 0.92011
   8   2  -2 123.843 112.899   7 0.61395-0.02158 0.09371 0.07313 0.88714-0.98264
   8  -2  -2 84.8806 82.0507   7 0.65620-0.06386 0.10225-0.26956 0.85979-0.95531
  -8   2   2 169.665 103.980   2-0.52598-0.06867 0.38042-0.21283-0.84744 0.94327
  -8  -2   2 278.068 171.313   5-0.68387 0.09021 0.30003-0.46730-0.78396 0.88030
   8  -2  -2 64.3794 74.5954   3 0.55394 0.03877-0.30190 0.13489 0.86776-0.96417
  -8   2   2 134.549 89.0515   5-0.57786-0.01556 0.22856-0.06140-0.87983 0.97640
  -8  -2   2 268.843 132.777   8-0.59200-0.00041-0.17660 0.00964-0.88548 0.98125
  -7  -2   2 1290.85 188.635   4 0.13785-0.65240-0.19288 0.02633 0.97982-0.86863
   7  -2  -2 1319.22 213.864   7 0.66834-0.15536 0.10471-0.27199 0.85115-0.96191
   7   2  -2 1247.85 215.510   7 0.62068-0.10769 0.09507 0.07177 0.88305-0.99379
  -7   2   2 1552.21 240.414   2-0.52386 0.00878 0.37716-0.20957-0.85006 0.96117
   7  -2  -2 1420.41 181.047   9-0.14223 0.65584-0.21080 0.04405-0.97650 0.86558
   7  -2  -2 1375.01 223.207   3 0.55402-0.04080-0.30198 0.13499 0.86769-0.97937
  -7   2   2 1472.13 229.628   5-0.58019 0.06621 0.23009-0.06287-0.87814 0.98998
  -7  -2   2 -332.31 201.355   5-0.69875 0.18458 0.31052-0.47773-0.76660 0.87822
  -7   2   2 1762.59 286.422   8-0.68752 0.17432-0.21844 0.38576-0.81177 0.92271
  -7  -2   2 1309.25 232.476   8-0.59605 0.08298-0.17834 0.01132-0.88287 0.99387
  -6   2   2 578.494 192.878   8-0.71522 0.28139-0.23091 0.39815-0.78484 0.91101
   6   2  -2 467.399 124.867   7 0.63871-0.20509 0.09870 0.06813 0.87161-0.99756
   6   2  -2 171.911 63.2484   1-0.20004 0.63291 0.04754 0.11980-0.99882 0.87228
  -6  -2   2 429.524 113.037   4 0.19540-0.63061-0.04088-0.12588 0.99915-0.87274
   6  -2  -2 390.526 95.1133   9-0.20205 0.63635-0.06039-0.10642-0.99814 0.87201
  -6   2   2 504.647 146.790   2-0.52770 0.09219 0.38307-0.21548-0.84529 0.97169
  -6   2   2 440.268 182.773   5-0.59143 0.15688 0.23746-0.07018-0.86979 0.99689
  -6  -2   2 411.554 132.783   8-0.61007 0.17633-0.18440 0.01732-0.87349 0.99973
   5   2  -2 7.37828 53.5786   7 0.67206-0.31778 0.10547 0.06134 0.84843-0.98958
   5  -2  -2 38.4993 52.7624   7 0.73706-0.38274 0.11888-0.28606 0.79453-0.93570
  -5  -2   2 99.1946 58.8358   4 0.24673-0.60252 0.10901-0.27595 0.99243-0.85076
   5  -2  -2 74.4383 57.2423   9-0.25586 0.61084 0.08953-0.25642-0.99376 0.85240
  -5   2   2 190.487 85.6929   2-0.53886 0.18291 0.40040-0.23281-0.83075 0.97245
   5   2  -2 77.7089 54.5023   1-0.23050 0.58422-0.14823 0.31540-0.98813 0.84620
   5  -2  -2 84.0140 73.2612   3 0.57854-0.22424-0.32724 0.16031 0.84426-0.98639
  -5   2   2 77.9893 66.0862   5-0.61433 0.25921 0.25262-0.08528-0.85153 0.99390
  -5  -2   2 125.327 94.2193   8-0.63741 0.28297-0.19629 0.02916-0.85373 0.99520
  -4  -2   2 366.999 117.438   8-0.68219 0.40703-0.21606 0.04887-0.81663 0.97332
   4   2  -2 323.487 104.074   7 0.72570-0.45073 0.11652 0.05028 0.80489-0.96122
  -4   2   2 364.418 114.800   2-0.55852 0.28214 0.43178-0.26419-0.80222 0.95922
  -4  -2   2 290.168 119.154   4 0.29074-0.56706 0.25251-0.41960 0.96162-0.80464
   4  -2  -2 289.991 93.8394   9-0.30237 0.57801 0.23462-0.40157-0.96468 0.80807
  11  -3  -2 36.5707 111.053   7 0.69592 0.13454 0.11037-0.36131 0.83009-0.87976
  11  -3  -2 60.1195 152.962   3 0.57621 0.25510-0.32482 0.07421 0.84661-0.89708
  10   3  -2 351.064 184.264   7 0.63309 0.11805 0.09757 0.15285 0.87525-0.94018
  10  -3  -2 439.836 189.704   7 0.68770 0.06337 0.10868-0.35959 0.83659-0.90155
 -10   3   2 306.908 181.738   2-0.53236-0.22143 0.39025-0.13906-0.83936 0.90465
  10  -3  -2 83.0428 92.2282   3 0.56273 0.18906-0.31089 0.06027 0.85970-0.92552
 -10   3   2 323.373 136.777   5-0.58987-0.16236 0.23644 0.01417-0.87098 0.93707
 -10  -3   2 548.631 221.320   8-0.60666-0.14437-0.18292-0.06746-0.87582 0.94108
  -9   3   2 273.265 207.936   8-0.71294 0.04093-0.22988 0.48100-0.78717 0.86745
   9   3  -2 61.6539 90.5940   7 0.62621 0.04553 0.09618 0.15423 0.87961-0.95981
   9  -3  -2 -5.7605 102.455   7 0.68544-0.01375 0.10821-0.35908 0.83834-0.91857
  -9   3   2 186.270 141.194   2-0.52183-0.15237 0.37407-0.12287-0.85251 0.93308
   9  -3  -2 -49.178 80.8615   3 0.55262 0.11965-0.30056 0.04995 0.86894-0.95009
  -9   3   2 340.629 158.113   5-0.58051-0.09228 0.23029 0.02036-0.87791 0.95926
  -9  -3   2 51.6696 137.368   8-0.59808-0.07361-0.17921-0.07121-0.88154 0.96205
  -8   3   2 1529.31 315.629   8-0.72150 0.12889-0.23377 0.48480-0.77830 0.87386
   8   3  -2 964.646 228.476   7 0.62566-0.03330 0.09607 0.15433 0.87996-0.97542
   8  -3  -2 723.161 191.749   7 0.69106-0.09875 0.10937-0.36018 0.83395-0.92944
  -8   3   2 603.820 190.287   2-0.51480-0.07984 0.36339-0.11220-0.86081 0.95665
  -8   3   2 724.928 192.301   5-0.57614-0.01722 0.22744 0.02326-0.88106 0.97766
   8  -3  -2 663.501 189.470   3 0.54677 0.04600-0.29462 0.04403 0.87409-0.97053
  -8  -3   2 552.195 179.792   8-0.59503 0.00268-0.17790-0.07257-0.88353 0.97928
  -7   3   2 14.1018 102.397   8-0.74115 0.22794-0.24277 0.49373-0.75669 0.86751
   7   3  -2 239.218 128.717   7 0.63344-0.12046 0.09764 0.15274 0.87503-0.98573
   7  -3  -2 279.508 109.184   7 0.70720-0.19423 0.11269-0.36345 0.82087-0.93159
  -7  -3   2 49.9917 98.2833   4 0.13665-0.65118-0.19591-0.05418 0.97916-0.86800
   7  -3  -2 236.947 105.770   9-0.14242 0.65601-0.21035-0.03986-0.97660 0.86567
   7   3  -2 222.570 95.5922   6 0.37124 0.14255 0.59262-0.34217 0.77301-0.88418
  -7   3   2 384.590 137.749   2-0.51211-0.00296 0.35934-0.10814-0.86388 0.97501
  -7   3   2 369.618 118.658   5-0.57818 0.06425 0.22877 0.02198-0.87960 0.99146
   7  -3  -2 510.895 161.492   3 0.54628-0.03300-0.29411 0.04356 0.87452-0.98624
  -7  -3   2 454.899 165.324   8-0.59920 0.08618-0.17970-0.07083-0.88080 0.99178
  -6  -3   2 1364.31 213.887   4 0.18302-0.61816-0.07487-0.17541 0.99713-0.87076
   6   3  -2 1555.35 238.544   7 0.65234-0.21874 0.10147 0.14889 0.86247-0.98837
   6  -3  -2 1977.82 254.707   7 0.73730-0.30366 0.11893-0.36965 0.79430-0.92024
  -6   3   2 1477.02 236.968   2-0.51476 0.07925 0.36333-0.11215-0.86086 0.98727
   6   3  -2 1663.58 239.618   6 0.36851 0.06589 0.57687-0.32647 0.78637-0.91278
   6  -3  -2 1784.88 226.474   9-0.19071 0.62498-0.09009-0.16019-0.99596 0.86981
   6  -3  -2 1726.85 239.022   3 0.55252-0.11873-0.30046 0.04995 0.86903-0.99599
  -6   3   2 1720.31 234.018   5-0.58849 0.15397 0.23552 0.01529-0.87202 0.99914
  -6  -3   2 2098.03 280.470   8-0.61285 0.17913-0.18560-0.06498-0.87158 0.99779
   5   3  -2 651.512 153.189   7 0.68611-0.33185 0.10835 0.14197 0.83782-0.97893
  -5   3   2 314.405 66.6454   6 0.15835-0.51341-0.14188 0.39276 0.98932-0.84729
  -5  -3   2 418.043 138.186   4 0.22485-0.58056 0.04318-0.29366 0.99851-0.85689
   5  -3  -2 480.329 123.190   9-0.23453 0.58949 0.02820-0.27855-0.99865 0.85727
  -5   3   2 552.932 135.650   2-0.52389 0.16792 0.37722-0.12604-0.85001 0.99172
   5   3  -2 591.822 145.568   6 0.36779-0.01277 0.57273-0.32238 0.78979-0.93144
   5  -3  -2 367.198 120.052   3 0.56721-0.21286-0.31550 0.06503 0.85545-0.99763
  -5   3   2 478.562 121.692   5-0.60945 0.25435 0.24937 0.00151-0.85557 0.99796
  -5  -3   2 431.002 126.155   8-0.63897 0.28454-0.19698-0.05366-0.85254 0.99398
  -4  -3   2 226.023 102.048   8-0.68124 0.40607-0.21564-0.03505-0.81748 0.97416
   4   3  -2 422.375 124.998   7 0.73921-0.46425 0.11933 0.13096 0.79252-0.94880
  -4  -3   2 269.620 110.991   4 0.26171-0.53796 0.15601-0.40664 0.98504-0.82812
  -4   3   2 139.646 89.6158   2-0.54060 0.26418 0.40313-0.15195-0.82838 0.98540
   4  -3  -2 290.801 97.8638   9-0.27340 0.54900 0.14221-0.39263-0.98609 0.82947
   4   3  -2 183.234 76.5429   6 0.36929-0.09365 0.58125-0.33098 0.78271-0.93958
   4  -3  -2 162.878 84.4806   3 0.59218-0.31724-0.34155 0.09114 0.82991-0.98729
   4   3  -2 212.399 92.9980   1-0.23577 0.51039-0.18880 0.43944-0.98088 0.82360
  -4   3   2 310.385 105.450   5-0.64390 0.36819 0.27250-0.02155-0.82524 0.98291
  -3  -3   2 -48.178 35.0270   8-0.74293 0.54699-0.24360-0.00716-0.75466 0.92660
  -3  -3   2 188.263 113.050   4 0.29323-0.48997 0.26118-0.51192 0.95895-0.78673
   3  -3  -2 221.697 95.3651   9-0.30679 0.50303 0.24940-0.49987-0.96028 0.78840
   3   3  -2 41.0778 28.2314   6 0.37301-0.17675 0.60330-0.35310 0.76361-0.93568
 -11   4   2 314.116 247.224   2-0.53986-0.29348 0.40197-0.06719-0.82939 0.87944
  10   4  -2 25.3923 101.713   7 0.64925 0.10187 0.10084 0.23314 0.86458-0.92944
  10  -4  -2 3.13601 109.931   7 0.72467 0.02636 0.11630-0.45073 0.80581-0.87072
 -10   4   2 238.703 175.596   2-0.52724-0.22652 0.38235-0.04757-0.84587 0.91119
  10  -4  -2 -154.78 148.620   3 0.56158 0.19027-0.30972-0.02451 0.86077-0.92660
 -10   4   2 -27.768 128.557   5-0.59383-0.15832 0.23904 0.09510-0.86796 0.93410
 -10  -4   2 38.0112 116.696   8-0.61504-0.13591-0.18655-0.14733-0.87005 0.93531
   9  -4  -2 2406.83 378.615   7 0.72592-0.05427 0.11656-0.45093 0.80469-0.88487
   9   4  -2 1920.24 324.432   7 0.64394 0.02777 0.09976 0.23420 0.86815-0.94829
  -9   4   2 2070.07 360.778   5-0.58525-0.08747 0.23340 0.10077-0.87443 0.95582
  -9   4   2 1367.61 318.741   2-0.51726-0.15692 0.36712-0.03235-0.85795 0.93854
  -9  -4   2 2484.80 400.976   8-0.60748-0.06414-0.18327-0.15065-0.87526 0.95577
   9  -4  -2 2071.49 351.760   3 0.55208 0.12024-0.30001-0.03420 0.86942-0.95059
   8   4  -2 86.5897 105.101   7 0.64505-0.05274 0.09999 0.23395 0.86741-0.96280
  -8  -4   2 54.5033 85.1607   4 0.08791-0.68178-0.31375-0.01969 0.94462-0.84865
   8  -4  -2 31.8289 97.7914   7 0.73568-0.14339 0.11860-0.45291 0.79580-0.89124
   8  -4  -2 -115.97 76.6777   9-0.09286 0.68575-0.32454-0.00907-0.94170 0.84596
   8   4  -2 131.681 100.378   6 0.36832 0.22498 0.57575-0.24170 0.78730-0.88318
  -8   4   2 -163.26 120.345   2-0.51057-0.08407 0.35700-0.02224-0.86563 0.96150
  -8   4   2 -74.573 100.512   5-0.58151-0.01179 0.23095 0.10327-0.87718 0.97382
   8  -4  -2 183.921 127.619   3 0.54661 0.04620-0.29445-0.03971 0.87423-0.97069
  -8  -4   2 119.720 92.6268   8-0.60538 0.01309-0.18237-0.15160-0.87668 0.97242
  -7  -4   2 2090.70 291.897   4 0.13033-0.64482-0.21171-0.12192 0.97554-0.86440
   7   4  -2 2062.33 298.155   7 0.65455-0.14161 0.10192 0.23200 0.86094-0.97157
   7  -4  -2 2080.84 301.291   7 0.75656-0.24359 0.12297-0.45721 0.77567-0.88634
  -7   4   2 1884.77 295.575   2-0.50786-0.00723 0.35294-0.01819-0.86864 0.97979
   7   4  -2 1955.97 300.184   6 0.36391 0.15000 0.55167-0.21768 0.80658-0.91771
   7  -4  -2 1481.80 243.208   9-0.13686 0.65043-0.22359-0.11010-0.97341 0.86246
   7  -4  -2 1713.37 271.429   3 0.54613-0.03282-0.29398-0.04015 0.87464-0.98637
  -7   4   2 2020.93 284.714   5-0.58389 0.07000 0.23250 0.10178-0.87544 0.98733
  -7  -4   2 1740.65 284.844   8-0.61031 0.09733-0.18450-0.14951-0.87333 0.98429
   6   4  -2 29.4423 76.5179   7 0.67507-0.24150 0.10609 0.22778 0.84620-0.97205
  -6  -4   2 12.4253 77.1548   4 0.16923-0.60431-0.11185-0.22198 0.99345-0.86710
   6  -4  -2 11.9929 67.7062   9-0.17744 0.61169-0.12409-0.20967-0.99222 0.86605
   6   4  -2 -158.72 111.057   6 0.36107 0.07344 0.53687-0.20293 0.81781-0.94420
  -6   4   2 34.3591 81.3948   2-0.50998 0.07444 0.35612-0.02137-0.86629 0.99272
  -6   4   2 -145.46 100.738   5-0.59402 0.15953 0.23917 0.09517-0.86781 0.99497
   6  -4  -2 118.692 83.5179   3 0.55185-0.11801-0.29977-0.03429 0.86963-0.99662
   6   4  -2 -17.777 54.0601   1-0.18439 0.61745 0.13185 0.20236-0.99121 0.86465
  -6  -4   2 -67.932 92.4717   8-0.62434 0.19065-0.19059-0.14346-0.86343 0.98961
  -5  -4   2 532.272 151.693   8-0.65014 0.29572-0.20188-0.13223-0.84381 0.98523
   5   4  -2 563.524 149.341   7 0.71002-0.35578 0.11327 0.22056 0.81850-0.95954
  -5   4   2 523.185 101.945   6 0.22368-0.57866 0.03805 0.29634 0.99876-0.85675
  -5  -4   2 149.255 206.482   4 0.20447-0.56010-0.01552-0.31849 0.99980-0.85820
   5  -4  -2 511.682 144.534   9-0.21437 0.56928-0.02742-0.30640-0.99937 0.85797
   5   4  -2 657.362 169.047   6 0.36016-0.00505 0.53221-0.19833 0.82126-0.96289
  -5   4   2 398.445 138.965   2-0.51786 0.16187 0.36803-0.03328-0.85724 0.99897
   5   4  -2 473.489 150.315   1-0.20580 0.55968 0.01429 0.31987-0.99980 0.85786
   5  -4  -2 485.019 139.725   3 0.56517-0.21078-0.31340-0.02059 0.85740-0.99961
  -5   4   2 672.726 163.598   5-0.61397 0.25888 0.25238 0.08202-0.85183 0.99425
  -4  -4   2 148.324 91.6367   8-0.69088 0.41568-0.21994-0.11421-0.80867 0.96533
   4   4  -2 178.496 82.5042   7 0.76317-0.48822 0.12437 0.20942 0.76895-0.92517
  -4   4   2 197.842 81.5887   6 0.15634-0.43190-0.14712 0.48175 0.98848-0.83111
  -4  -4   2 199.246 130.552   4 0.23584-0.51200 0.07584-0.41000 0.99611-0.83924
   4  -4  -2 192.683 98.3152   9-0.24743 0.52299 0.06494-0.39883-0.99623 0.83960
   4   4  -2 169.461 111.540   1-0.22241 0.49710-0.09067 0.42483-0.99540 0.83811
  -4   4   2 238.591 104.911   2-0.53245 0.25600 0.39041-0.05566-0.83923 0.99626
   4   4  -2 303.337 116.466   6 0.36141-0.08569 0.53857-0.20477 0.81655-0.97341
   4  -4  -2 134.829 76.2334   3 0.58763-0.31265-0.33675 0.00284 0.83481-0.99223
  -4   4   2 221.768 93.6982   5-0.64614 0.37043 0.27403 0.06045-0.82311 0.98081
  -3   4   2 35.9406 52.4810   6 0.11319-0.30931-0.25502 0.58979 0.96407-0.79133
  -3   4   2 -54.116 62.1250   2-0.55441 0.35749 0.42513-0.09037-0.80852 0.98087
  -3  -4   2 -94.522 74.5642   4 0.26318-0.45984 0.16072-0.49500 0.98415-0.81199
   3  -4  -2 -8.1987 42.8862   9-0.27639 0.47260 0.15142-0.48536-0.98442 0.81252
   3   4  -2 112.898 94.6182   1-0.23491 0.43037-0.18189 0.51608-0.98224 0.80960
   3   4  -2 56.1433 49.2840   6 0.36487-0.16854 0.55676-0.22304 0.80260-0.97469
   3  -4  -2 -36.551 52.9375   3 0.62054-0.42493-0.37197 0.03812 0.79658-0.96920
  -3   4   2 154.291 125.508   5-0.69264 0.49631 0.30620 0.02835-0.77387 0.94687
   2   4  -2 15.7903 35.4826   1-0.24396 0.36016-0.25864 0.59290-0.96419 0.77620
  -2  -4   2 70.3719 86.9634   4 0.28642-0.40356 0.23762-0.57199 0.96597-0.77851
   2  -4  -2 -30.069 47.7310   9-0.30111 0.41796 0.23044-0.56443-0.96587 0.77872
   2   4  -2 60.4979 72.6037   6 0.37033-0.25338 0.58729-0.25365 0.77760-0.96488
  10   5  -2 -102.61 135.305   7 0.67145 0.07962 0.10535 0.31219 0.84888-0.91366
 -10   5   2 -135.92 163.321   2-0.52695-0.22678 0.38192 0.03642-0.84623 0.91158
  10  -5  -2 86.5507 169.494   3 0.56545 0.18643-0.31368-0.10414 0.85713-0.92295
 -10  -5   2 -141.65 167.401   8-0.62900-0.12187-0.19262-0.22474-0.86003 0.92529
   9   5  -2 10.9062 103.417   7 0.66815 0.00352 0.10468 0.31283 0.85129-0.93135
  -9   5   2 177.372 160.122   2-0.51776-0.15642 0.36787 0.05046-0.85737 0.93799
  -9   5   2 70.2160 107.077   5-0.59557-0.07709 0.24019 0.17750-0.86662 0.94806
   9  -5  -2 -52.999 118.747   3 0.55682 0.11554-0.30484-0.11295 0.86516-0.94632
  -9  -5   2 323.334 181.792   8-0.62282-0.04873-0.18993-0.22747-0.86453 0.94502
   8   5  -2 -123.29 112.065   7 0.67142-0.07913 0.10534 0.31213 0.84891-0.94422
  -8  -5   2 -11.966 104.642   4 0.08429-0.67813-0.32215-0.09483 0.94147-0.84552
   8  -5  -2 39.8850 89.0238   9-0.08978 0.68264-0.33138-0.08570-0.93906 0.84331
   8   5  -2 169.381 157.627   6 0.36401 0.22941 0.55220-0.13459 0.80617-0.90199
  -8   5   2 -46.627 102.429   2-0.51165-0.08299 0.35863 0.05968-0.86441 0.96031
  -8   5   2 0.41348 92.6334   5-0.59282-0.00044 0.23837 0.17935-0.86874 0.96543
   8  -5  -2 18.5479 100.295   3 0.55204 0.04080-0.29997-0.11777 0.86947-0.96592
  -8  -5   2 115.521 131.115   8-0.62208 0.02983-0.18960-0.22783-0.86506 0.96078
   7   5  -2 29.5444 95.0867   7 0.68313-0.17022 0.10774 0.30969 0.84012-0.95066
  -7  -5   2 -0.8342 97.8271   4 0.12091-0.63535-0.23493-0.18223 0.96966-0.85854
   7  -5  -2 123.783 105.424   9-0.12784 0.64139-0.24484-0.17231-0.96783 0.85685
   7   5  -2 112.516 121.710   6 0.35981 0.15422 0.53037-0.11281 0.82260-0.93370
  -7   5   2 -197.55 142.454   2-0.50924-0.00585 0.35501 0.06329-0.86711 0.97828
  -7   5   2 21.2666 96.6375   5-0.59594 0.08208 0.24043 0.17735-0.86633 0.97827
   7  -5  -2 -5.1509 97.3594   3 0.55197-0.03863-0.29990-0.11778 0.86953-0.98126
  -7  -5   2 60.6943 98.6669   8-0.62823 0.11529-0.19229-0.22518-0.86059 0.97154
  -6  -5   2 22.3571 81.4422   8-0.64318 0.20949-0.19881-0.21869-0.84930 0.97547
   6   5  -2 -53.321 108.732   7 0.70575-0.27221 0.11239 0.30499 0.82207-0.94783
  -6  -5   2 -12.097 122.633   4 0.15444-0.58946-0.15055-0.26681 0.98790-0.86158
   6  -5  -2 129.282 97.0634   9-0.16286 0.59706-0.16060-0.25663-0.98669 0.86050
   6   5  -2 145.608 127.982   6 0.35708 0.07754 0.51682-0.09931 0.83233-0.95869
   6   5  -2 -98.471 82.9906   1-0.17587 0.60904 0.17448 0.24317-0.98452 0.85796
  -6   5   2 73.4310 84.5461   2-0.51124 0.07569 0.35802 0.06028-0.86487 0.99133
  -6   5   2 -13.455 73.8963   5-0.60639 0.17193 0.24734 0.17050-0.85806 0.98525
   6  -5  -2 -50.890 89.7748   3 0.55762-0.12376-0.30566-0.11193 0.86443-0.99142
  -5  -5   2 1528.56 274.170   8-0.66924 0.31480-0.21031-0.20724-0.82802 0.96942
   5   5  -2 1217.22 239.070   1-0.19465 0.54863 0.07752 0.34011-0.99696 0.85503
   5   5  -2 1787.16 269.761   7 0.74229-0.38806 0.11998 0.29734 0.78961-0.93056
  -5  -5   2 256.757 288.237   4 0.18482-0.54037-0.06999-0.34754 0.99750-0.85594
   5  -5  -2 1166.44 213.862   9-0.19472 0.54959-0.07966-0.33763-0.99684 0.85542
   5   5  -2 1062.18 220.165   6 0.35614-0.00093 0.51221-0.09477 0.83555-0.97716
  -5   5   2 990.101 228.007   2-0.51842 0.16239 0.36886 0.04943-0.85660 0.99834
  -5   5   2 1786.04 260.704   5-0.62596 0.27086 0.26039 0.15751-0.84158 0.98404
   5  -5  -2 1270.17 230.749   3 0.57018-0.21576-0.31857-0.09895 0.85258-0.99480
  -4  -5   2 1444.63 266.967   8-0.70907 0.43386-0.22814-0.18946-0.79107 0.94772
   4   5  -2 1236.40 253.846   1-0.20973 0.48451-0.00929 0.42693-0.99980 0.84251
  -4   5   2 1026.80 171.636   6 0.20703-0.48255-0.00992 0.42808 0.99983-0.84247
  -4  -5   2 1112.78 257.486   4 0.21193-0.48800 0.00569-0.42337 0.99978-0.84295
   4  -5  -2 1151.34 227.198   3 0.59090-0.31590-0.34020-0.07722 0.83130-0.98874
   4  -5  -2 1066.58 205.918   9-0.22329 0.49881-0.00309-0.41426-0.99949 0.84282
  -4   5   2 1257.91 244.599   2-0.53152 0.25502 0.38896 0.02933-0.84044 0.99749
   4   5  -2 1167.72 215.781   6 0.35717-0.08137 0.51728-0.09992 0.83200-0.98885
  -4   5   2 1562.65 252.803   5-0.65661 0.38088 0.28117 0.13681-0.81288 0.97062
  -3  -5   2 1993.92 332.145   4 0.23569-0.43227 0.07541-0.49321 0.99615-0.82404
   3   5  -2 2102.63 265.718   1-0.22158 0.41712-0.08508 0.50279-0.99592 0.82329
  -3   5   2 2448.45 328.320   2-0.55113 0.35416 0.41984-0.00153-0.81343 0.98580
  -3   5   2 1737.24 238.628   6 0.16979-0.36585-0.11189 0.53024 0.99346-0.82074
   3   5  -2 1926.30 274.776   6 0.36026-0.16386 0.53272-0.11544 0.82089-0.99297
   3  -5  -2 1880.26 260.799   9-0.24848 0.44464 0.06797-0.48538-0.99597 0.82405
   3  -5  -2 2398.05 314.974   3 0.62085-0.42522-0.37231-0.04503 0.79618-0.96883
  -3   5   2 57.1202 68.4837   5-0.70002 0.50367 0.31142 0.10664-0.76506 0.93811
   2   5  -2 -54.953 66.9857   1-0.23064 0.34691-0.14923 0.56701-0.98797 0.79999
  -2   5   2 11.3896 56.2369   6 0.14429-0.26087-0.17800 0.59647 0.98293-0.79486
  -2   5   2 72.3834 78.7246   2-0.57723 0.45980 0.46281-0.04448-0.77099 0.95871
  -2  -5   2 -25.685 76.9473   4 0.25607-0.37313 0.13808-0.55597 0.98816-0.80075
   2  -5  -2 23.7092 59.8901   9-0.27018 0.38699 0.13241-0.54985-0.98776 0.80060
   2   5  -2 -163.88 103.998   6 0.36528-0.24827 0.55899-0.14183 0.80085-0.98814
   1   5  -2 433.506 122.400   1-0.23732 0.27429-0.20130 0.61918-0.97829 0.77495
  -1  -5   2 264.129 103.410   4 0.27302-0.31057 0.19266-0.61060 0.97747-0.77477
   1   5  -2 310.227 109.428   6 0.37185-0.33422 0.59625-0.17917 0.76985-0.97233
  10   6  -2 85.8535 123.494   7 0.69920 0.05183 0.11104 0.39004 0.82745-0.89214
  -9  -6   2 -47.908 199.153   8-0.64334-0.02815-0.19889-0.30196-0.84917 0.92966
   9   6  -2 466.028 181.211   7 0.69822-0.02660 0.11084 0.39021 0.82824-0.90820
  -9   6   2 160.089 151.567   2-0.52219-0.15198 0.37461 0.12725-0.85208 0.93274
   9  -6  -2 402.108 205.009   3 0.56582 0.10656-0.31407-0.18729 0.85678-0.93790
  -9   6   2 332.864 198.488   5-0.61058-0.06204 0.25012 0.25105-0.85464 0.93614
  -8  -6   2 -35.007 134.252   8-0.64423 0.05203-0.19928-0.30159-0.84848 0.94419
  -8  -6   2 71.8709 196.032   4 0.07713-0.67094-0.33862-0.16191 0.93501-0.83908
   8   6  -2 80.3989 116.324   7 0.70396-0.11172 0.11202 0.38897 0.82355-0.91877
   8   6  -2 88.5334 107.631   6 0.36215 0.23138 0.54238-0.04119 0.81368-0.90945
   8  -6  -2 113.421 94.6813   9-0.08288 0.67573-0.34652-0.15405-0.93299 0.83721
  -8   6   2 186.102 166.525   2-0.51680-0.07783 0.36642 0.13542-0.85849 0.95442
  -8   6   2 237.018 197.561   5-0.60903 0.01581 0.24909 0.25212-0.85591 0.95265
   8  -6  -2 -164.88 135.230   3 0.56192 0.03095-0.31006-0.19123 0.86046-0.95689
  -7  -6   2 1762.97 339.974   8-0.65191 0.13898-0.20265-0.29825-0.84240 0.95334
   7   6  -2 1781.52 315.625   7 0.71819-0.20533 0.11497 0.38598 0.81150-0.92195
  -7  -6   2 269.575 331.795   4 0.10939-0.62378-0.26291-0.23781 0.96168-0.85058
   7   6  -2 1269.30 307.880   6 0.35827 0.15585 0.52267-0.02153 0.82817-0.93922
   7  -6  -2 1274.85 273.021   9-0.11646 0.62997-0.27125-0.22938-0.96009 0.84910
  -7   6   2 1747.89 336.324   2-0.51487-0.00023 0.36350 0.13833-0.86073 0.97194
  -7   6   2 1347.05 282.078   5-0.61316 0.09933 0.25183 0.24943-0.85251 0.96450
   7  -6  -2 1489.94 294.956   3 0.56246-0.04910-0.31062-0.19060 0.85995-0.97167
  -6  -6   2 -31.786 102.756   8-0.66807 0.23439-0.20978-0.29114-0.82902 0.95519
   6   6  -2 73.2662 94.1255   7 0.74314-0.30961 0.12016 0.38073 0.78879-0.91445
  -6  -6   2 19.5287 111.094   4 0.13885-0.57379-0.19036-0.31053 0.98036-0.85405
   6   6  -2 -18.457 88.5575   1-0.16693 0.60019 0.21727 0.28384-0.97582 0.84926
   6  -6  -2 -61.828 110.752   9-0.14726 0.58143-0.19872-0.30197-0.97923 0.85302
   6   6  -2 122.178 141.994   6 0.35577 0.07894 0.51042-0.00934 0.83679-0.96311
  -6   6   2 -149.24 105.921   2-0.51698 0.08142 0.36670 0.13513-0.85827 0.98476
   6  -6  -2 75.5173 123.061   3 0.56833-0.13444-0.31666-0.18447 0.85436-0.98135
  -6   6   2 24.8177 120.734   5-0.62424 0.18979 0.25924 0.24208-0.84308 0.97032
  -5  -6   2 245.596 176.048   8-0.69472 0.34027-0.22167-0.27930-0.80505 0.94645
  -5  -6   2 40.8635 182.045   4 0.16548-0.52095-0.12177-0.37928 0.99219-0.85064
   5  -6  -2 -37.655 79.0789   9-0.17520 0.53004-0.12975-0.37101-0.99146 0.85002
   5   6  -2 103.537 121.405   6 0.35490 0.00040 0.50618-0.00517 0.83971-0.98129
  -5   6   2 58.1692 81.1367   2-0.52377 0.16771 0.37703 0.12480-0.85016 0.99195
   5  -6  -2 -30.266 87.2884   3 0.58050-0.22607-0.32929-0.17173 0.84225-0.98447
  -5   6   2 -50.761 107.751   5-0.64379 0.28869 0.27243 0.22896-0.82534 0.96785
   5   6  -2 16.3783 113.884   1-0.18373 0.53780 0.13523 0.36587-0.99075 0.84882
   3   6  -2 556.532 171.553   1-0.20857 0.40419-0.00224 0.50344-0.99986 0.82723
  -3   6   2 714.229 173.657   6 0.21049-0.40652-0.00009 0.50199 0.99982-0.82711
  -3  -6   2 884.353 221.732   4 0.20998-0.40648 0.00016-0.50147 0.99983-0.82775
  -3   6   2 1017.10 227.623   2-0.55358 0.35656 0.42379 0.07805-0.80977 0.98219
   3  -6  -2 749.433 174.885   9-0.22228 0.41840-0.00587-0.49499-0.99951 0.82757
   3   6  -2 811.035 199.821   6 0.35854-0.16207 0.52402-0.02319 0.82721-0.99927
   3  -6  -2 767.512 205.974   3 0.62762-0.43197-0.37972-0.12109 0.78743-0.96010
  -2  -6   2 1906.41 318.946   4 0.22777-0.34476 0.05180-0.55319 0.99800-0.81063
   2   6  -2 1928.86 275.703   1-0.21725 0.33360-0.05645 0.55775-0.99808 0.81011
  -2   6   2 2124.81 300.737   6 0.18737-0.30392-0.06459 0.56663 0.99788-0.80983
   2   6  -2 1960.40 297.760   6 0.36305-0.24599 0.54708-0.04635 0.81011-0.99740
  -2   6   2 446.644 162.161   2-0.57707 0.45959 0.46253 0.03934-0.77128 0.95904
   2  -6  -2 2069.52 294.390   9-0.24127 0.35803 0.04726-0.54817-0.99759 0.81040
  -1   6   2 216.495 113.465   6 0.17156-0.20861-0.10720 0.60936 0.99401-0.79061
  -1  -6   2 192.232 116.609   4 0.24250-0.27998 0.09604-0.59750 0.99402-0.79137
   1  -6  -2 252.947 104.778   9-0.25714 0.29455 0.09331-0.59426-0.99331 0.79087
   1   6  -2 311.405 110.492   1-0.22382 0.26086-0.10036 0.60177-0.99442 0.79110
   1   6  -2 526.427 153.325   6 0.36905-0.33138 0.57990-0.07929 0.78385-0.98633
  -9  -7   2 35.8222 165.568   8-0.66833-0.00312-0.20990-0.37437-0.82880 0.90930
   9   7  -2 379.851 241.391   7 0.73345-0.06187 0.11813 0.46643 0.79787-0.87771
   9  -7  -2 -219.78 201.693   9-0.04066 0.71280-0.43589-0.14808-0.89027 0.80968
  -8  -7   2 117.130 136.816   8-0.67101 0.07884-0.21109-0.37320-0.82650 0.92222
  -8  -7   2 -28.754 218.813   4 0.06746-0.66122-0.36059-0.22347 0.92581-0.82988
   8   7  -2 -136.07 191.051   7 0.74184-0.14963 0.11988 0.46463 0.79004-0.88513
   8   7  -2 25.6573 122.423   6 0.36216 0.23148 0.54244 0.04233 0.81363-0.90933
  -8   7   2 156.531 117.680   2-0.52508-0.06955 0.37904 0.20632-0.84855 0.94453
   8  -7  -2 -80.052 115.659   9-0.07328 0.66610-0.36735-0.21668-0.92411 0.82830
   8  -7  -2 -2.0774 124.488   3 0.57530 0.01757-0.32388-0.26096 0.84752-0.94391
  -8   7   2 -97.451 156.286   5-0.62930 0.03611 0.26264 0.32206-0.83863 0.93544
  -7  -7   2 306.176 212.928   8-0.68035 0.16743-0.21524-0.36907-0.81828 0.92923
  -7  -7   2 46.6425 187.082   4 0.09630-0.61061-0.29409-0.29017 0.95162-0.84052
   7   7  -2 350.203 168.458   7 0.75868-0.24583 0.12342 0.46102 0.77354-0.88387
   7   7  -2 156.671 126.247   6 0.35866 0.15556 0.52466 0.06006 0.82675-0.93773
   7  -7  -2 41.3718 113.337   9-0.10333 0.61681-0.30115-0.28295-0.95024 0.83923
  -7   7   2 342.376 183.971   2-0.52371 0.00859 0.37693 0.20842-0.85024 0.96149
   7  -7  -2 248.130 159.236   3 0.57658-0.06319-0.32520-0.25954 0.84624-0.95793
  -7   7   2 -61.693 155.089   5-0.63455 0.12074 0.26617 0.31856-0.83391 0.94596
  -6  -7   2 446.885 274.780   8-0.69785 0.26417-0.22307-0.36126-0.80207 0.92825
  -6  -7   2 111.583 311.365   4 0.12255-0.55741-0.23092-0.35350 0.97072-0.84441
   6   7  -2 774.185 229.621   6 0.35644 0.07835 0.51367 0.07099 0.83453-0.96080
   6  -7  -2 730.733 228.505   9-0.13079 0.56492-0.23793-0.34623-0.96970 0.84346
  -6   7   2 1003.76 274.587   2-0.52605 0.09044 0.38052 0.20482-0.84736 0.97389
   6  -7  -2 809.010 250.241   3 0.58281-0.14890-0.33170-0.25294 0.83988-0.96683
  -6   7   2 1004.69 271.114   5-0.64640 0.21195 0.27421 0.31059-0.82286 0.95016
  -5  -7   2 433.779 262.504   8-0.72520 0.37072-0.23546-0.34892-0.77436 0.91580
  -5  -7   2 105.000 282.033   4 0.14619-0.50158-0.17176-0.41282 0.98412-0.84258
   5   7  -2 454.147 239.422   1-0.17280 0.52696 0.18942 0.39515-0.98171 0.83978
  -5   7   2 817.122 225.394   2-0.53261 0.17653 0.39067 0.19467-0.83902 0.98085
   5  -7  -2 524.604 175.959   9-0.15563 0.51041-0.17839-0.40584-0.98343 0.84195
   5   7  -2 980.966 236.633   6 0.35567-0.00030 0.50992 0.07466 0.83714-0.97867
   5  -7  -2 657.145 213.184   3 0.59482-0.24035-0.34433-0.24019 0.82702-0.96922
  -5   7   2 1237.76 309.392   5-0.66611 0.31100 0.28770 0.29716-0.80320 0.94578
   4   7  -2 248.530 203.520   1-0.18546 0.46041 0.12630 0.45832-0.99194 0.83466
  -4  -7   2 292.377 198.191   4 0.16718-0.44308-0.11727-0.46743 0.99278-0.83598
  -4   7   2 377.350 143.261   6 0.26870-0.54416 0.17662 0.40861 0.98093-0.82352
  -4   7   2 489.170 169.227   2-0.54388 0.26731 0.40832 0.17703-0.82383 0.98097
   4  -7  -2 373.560 161.701   9-0.17778 0.45322-0.12321-0.46107-0.99233 0.83561
   4   7  -2 414.243 152.005   6 0.35648-0.08053 0.51388 0.07062 0.83438-0.99118
   4  -7  -2 320.468 155.349   3 0.61338-0.33833-0.36419-0.22022 0.80548-0.96292
  -4   7   2 243.216 189.458   5-0.69489 0.41913 0.30779 0.27715-0.77121 0.92908
   3   7  -2 2856.23 383.244   1-0.19578 0.39148 0.07132 0.51337-0.99742 0.82480
  -3  -7   2 2193.12 416.085   4 0.18548-0.38187-0.06819-0.51663 0.99763-0.82557
  -3   7   2 3872.87 474.399   2-0.56017 0.36310 0.43447 0.15091-0.79965 0.97212
  -3   7   2 3078.58 371.925   6 0.24186-0.43786 0.09229 0.49315 0.99441-0.82169
   3   7  -2 2711.01 396.634   6 0.35893-0.16241 0.52599 0.05842 0.82579-0.99783
   3  -7  -2 2837.58 374.779   9-0.19722 0.39329-0.07312-0.51121-0.99733 0.82536
   3  -7  -2 2348.49 344.572   3 0.63910-0.44342-0.39244-0.19185 0.77181-0.94447
  -2   7   2 -29.390 107.571   6 0.22127-0.33779 0.03099 0.55463 0.99908-0.81102
  -2  -7   2 -148.37 86.2512   4 0.20101-0.31791-0.02523-0.55967 0.99963-0.81229
   2  -7  -2 183.707 141.014   9-0.21383 0.33055-0.02888-0.55549-0.99934 0.81213
   2   7  -2 145.175 131.629   6 0.36295-0.24584 0.54659 0.03770 0.81049-0.99775
   2   7  -2 24.3116 78.1751   1-0.20398 0.32039 0.02498 0.55982-0.99961 0.81165
   0   7  -2 287.936 131.234   1-0.21471 0.17247-0.04020 0.62522-0.99893 0.78029
   0  -7   2 100.417 112.928   4 0.22348-0.18138 0.03915-0.62415 0.99873-0.78083
   0   7  -2 3.24099 53.8904   6 0.37470-0.41638 0.61377-0.02973 0.75411-0.97178
   0  -7   2 4.42524 83.9669   9 0.05401-0.01259-0.61583 0.03178-0.76118 0.97839
  -8  -8   2 347.635 308.337   8-0.70161 0.10947-0.22477-0.44293-0.79843 0.89418
  -8  -8   2 -59.159 254.662   4 0.05588-0.64957-0.38650-0.28111 0.91407-0.81814
   8   8  -2 51.0600 137.041   6 0.36356 0.23017 0.54978 0.11857 0.80803-0.90366
   8  -8  -2 210.966 195.329   9-0.06160 0.65438-0.39227-0.27523-0.91264 0.81681
  -7  -8   2 -9.6670 202.495   8-0.71264 0.19973-0.22975-0.43796-0.78747 0.89844
  -7  -8   2 47.3894 158.969   4 0.08195-0.59618-0.32756-0.34023 0.93939-0.82828
  -7   8   2 50.8521 163.756   2-0.53492 0.01978 0.39425 0.27462-0.83601 0.94732
   7   8  -2 320.298 186.844   6 0.36046 0.15385 0.53372 0.13458 0.82014-0.93106
   7  -8  -2 -278.28 207.673   9-0.08879 0.60223-0.33355-0.33402-0.93821 0.82717
   7  -8  -2 -22.253 118.155   3 0.59348-0.08009-0.34292-0.32533 0.82849-0.94013
  -7   8   2 490.619 279.242   5-0.65925 0.14544 0.28298 0.38522-0.81023 0.92237
  -6  -8   2 -132.39 115.808   8-0.73145 0.29774-0.23831-0.42942-0.76758 0.89381
  -6  -8   2 -89.904 180.692   4 0.10559-0.54036-0.27202-0.39593 0.95887-0.83256
  -6   8   2 131.586 159.534   2-0.53754 0.10191 0.39834 0.27053-0.83253 0.95913
   6   8  -2 363.341 186.267   6 0.35851 0.07637 0.52391 0.14433 0.82729-0.95349
   6  -8  -2 243.515 120.434   9-0.11355 0.54764-0.27793-0.38970-0.95799 0.83172
   6  -8  -2 78.0152 154.253   3 0.60013-0.16621-0.34997-0.31817 0.82107-0.94799
  -6   8   2 265.848 215.118   5-0.67189 0.23743 0.29170 0.37656-0.79710 0.92449
  -5  -8   2 -23.864 150.864   4 0.12680-0.48209-0.22046-0.44763 0.97340-0.83186
  -5   8   2 -108.68 163.156   2-0.54399 0.18787 0.40848 0.26037-0.82368 0.96558
   5  -8  -2 206.461 135.665   9-0.13584 0.49058-0.22602-0.44167-0.97280 0.83130
   5   8  -2 -23.169 101.725   6 0.35787-0.00242 0.52069 0.14747 0.82958-0.97106
   5  -8  -2 -118.21 134.070   3 0.61205-0.25757-0.36276-0.30526 0.80709-0.94927
  -5   8   2 359.671 252.095   5-0.69178 0.33666 0.30559 0.36273-0.77488 0.91755
  -4   8   2 3005.57 461.159   2-0.55463 0.27801 0.42548 0.24339-0.80819 0.96540
  -4  -8   2 1442.91 449.048   4 0.14552-0.42132-0.17347-0.49475 0.98379-0.82700
   4   8  -2 2330.38 401.024   6 0.35862-0.08261 0.52445 0.14362 0.82690-0.98364
   4  -8  -2 2637.92 395.232   9-0.15562 0.43100-0.17840-0.48934-0.98342 0.82668
   4  -8  -2 2955.91 448.264   3 0.62986-0.35479-0.38219-0.28570 0.78446-0.94188
   4   8  -2 1420.21 374.669   1-0.17346 0.44849 0.18623 0.48186-0.98233 0.82505
  -3  -8   2 -26.427 118.217   4 0.16172-0.35802-0.13165-0.53666 0.99083-0.81878
  -3   8   2 183.172 115.849   6 0.26735-0.46332 0.17224 0.49673 0.98183-0.80908
  -3   8   2 11.4606 107.471   2-0.56967 0.37256 0.45012 0.21877-0.78415 0.95669
   3  -8  -2 157.199 133.345   9-0.17283 0.36886-0.13572-0.53208-0.99063 0.81863
   3   8  -2 55.6270 93.5827   6 0.36081-0.16423 0.53554 0.13244 0.81880-0.99080
   3   8  -2 39.6284 95.3327   1-0.18309 0.37886 0.13850 0.52969-0.99030 0.81768
   2   8  -2 1252.24 269.492   1-0.19077 0.30727 0.09846 0.56983-0.99511 0.80715
  -2  -8   2 940.441 255.722   4 0.17531-0.29211-0.09565-0.57274 0.99526-0.80794
  -2   8   2 1385.10 287.357   6 0.24909-0.36558 0.11446 0.55470 0.99167-0.80358
   2  -8  -2 1368.79 264.516   9-0.18742 0.30409-0.09860-0.56922-0.99515 0.80791
   2   8  -2 1181.53 265.918   6 0.36440-0.24724 0.55424 0.11363 0.80458-0.99181
   1   8  -2 407.946 187.246   1-0.19665 0.23383 0.06652 0.60189-0.99775 0.79445
  -1   8   2 237.334 143.691   6 0.23536-0.27236 0.07265 0.59665 0.99637-0.79296
  -1  -8   2 269.563 172.790   4 0.18623-0.22353-0.06616-0.60229 0.99777-0.79518
   1  -8  -2 473.630 153.767   9-0.19925 0.23657-0.06777-0.60008-0.99769 0.79520
   1   8  -2 454.855 173.553   6 0.36919-0.33145 0.58072 0.08702 0.78315-0.98560
   0  -8   2 1459.55 312.226   4 0.19431-0.15213-0.04392-0.62457 0.99902-0.78115
   0   8  -2 1450.96 321.914   1-0.20083 0.15865 0.04307 0.62546-0.99902 0.78038
   0   8  -2 -23.054 163.719   6 0.37488-0.41654 0.61493 0.05268 0.75305-0.97069
   0  -8   2 -42.874 142.044   9 0.05456-0.01318-0.61679-0.05072-0.76030 0.97748
   0   8  -2 1257.62 235.499   2-0.27795 0.23580 0.04496 0.62256-0.99505 0.77778
   1  -8   2 -52.129 106.056   4 0.19938-0.07773-0.02980-0.63870 0.99952-0.76638
  -1   8  -2 167.675 138.883   1-0.20337 0.08180 0.02848 0.64017-0.99952 0.76554
   1  -8   2 -98.582 152.775   9 0.05587 0.06485-0.61909-0.04838-0.75818 0.99060
  -7   9   2 1225.98 445.227   5-0.68646 0.17266 0.30185 0.44981-0.78102 0.89326
  -6  -9   2 32.3278 313.071   4 0.08800-0.52268-0.31354-0.43793 0.94469-0.81836
   6  -9  -2 288.697 192.750   9-0.09557 0.52963-0.31852-0.43258-0.94397 0.81766
   6   9  -2 666.436 247.731   6 0.36156 0.07341 0.53934 0.21248 0.81597-0.94209
   6  -9  -2 825.723 282.091   3 0.61952-0.18559-0.37086-0.38078 0.79787-0.92474
  -6   9   2 -92.050 301.390   5-0.69982 0.26536 0.31128 0.44044-0.76530 0.89280
  -5  -9   2 -371.81 235.272   4 0.10717-0.46235-0.26826-0.48335 0.96005-0.81849
  -5   9   2 97.9133 164.050   2-0.55713 0.20098 0.42953 0.32283-0.80437 0.94635
   5  -9  -2 199.431 133.373   9-0.11573 0.47043-0.27292-0.47823-0.95957 0.81804
   5   9  -2 209.207 168.973   6 0.36103-0.00551 0.53665 0.21510 0.81798-0.95939
   5  -9  -2 15.9677 160.569   3 0.63138-0.27689-0.38388-0.36764 0.78242-0.92455
  -4   9   2 2109.07 431.910   2-0.56724 0.29057 0.44607 0.30630-0.78823 0.94553
   4  -9  -2 1811.91 343.559   9-0.13351 0.40885-0.23154-0.51967-0.97139 0.81461
   4   9  -2 1496.78 322.136   6 0.36175-0.08567 0.54032 0.21134 0.81523-0.97191
  -3  -9   2 -158.95 149.293   4 0.13838-0.33459-0.19154-0.56026 0.98011-0.80806
  -3   9   2 168.349 227.640   6 0.28884-0.48479 0.24392 0.50858 0.96410-0.79129
   3   9  -2 10.4091 138.623   1-0.17036 0.36621 0.20110 0.55056-0.97934 0.80672
   3  -9  -2 77.0372 112.604   9-0.14884 0.34482-0.19490-0.55634-0.98006 0.80803
   3   9  -2 243.953 205.895   6 0.36372-0.16708 0.55064 0.20092 0.80738-0.97931
  -2  -9   2 117.064 202.080   4 0.15030-0.26701-0.16122-0.59066 0.98607-0.79875
  -2   9   2 216.519 142.321   6 0.27265-0.38912 0.18953 0.56316 0.97812-0.79000
   2  -9  -2 372.811 181.300   9-0.16164 0.27826-0.16362-0.58766-0.98616 0.79889
   2   9  -2 366.072 188.198   6 0.36690-0.24970 0.56783 0.18362 0.79378-0.98096
   2   9  -2 499.968 183.914   1-0.17755 0.29412 0.16624 0.58555-0.98596 0.79800
  -1  -9   2 372.050 201.528   4 0.15963-0.19685-0.13707-0.61485 0.99003-0.78745
  -1   9   2 327.874 198.957   6 0.26011-0.29709 0.14902 0.60382 0.98625-0.78281
   1  -9  -2 494.345 220.309   9-0.17180 0.20907-0.13831-0.61299-0.99025 0.78772
   1   9  -2 147.589 147.922   6 0.37114-0.33336 0.59202 0.15930 0.77353-0.97593
   1   9  -2 165.608 122.392   1-0.18305 0.22028 0.13872 0.61319-0.99027 0.78697
   0   9  -2 250.153 146.786   1-0.18689 0.14476 0.11890 0.63312-0.99286 0.77423
   0  -9   2 175.379 134.479   4 0.16623-0.12397-0.11978-0.63218 0.99245-0.77460
  -1   9  -2 -84.303 118.358   1-0.18912 0.06760 0.10719 0.64495-0.99421 0.76022
   1  -9   2 58.7886 172.393   4 0.16987-0.04814-0.11016-0.64181 0.99365-0.76053
  -1   9  -2 92.0218 104.069   2-0.31922 0.19751 0.09621 0.65484-0.98652 0.75405
  -3 -10   2 40.9010 129.893   4 0.11524-0.31134-0.24878-0.58651 0.96583-0.79377
   3 -10  -2 -3.4378 129.082   9-0.12497 0.32090-0.25156-0.58314-0.96594 0.79388
   3  10  -2 -115.76 166.012   6 0.36727-0.17057 0.56988 0.26527 0.79212-0.96398
  -2 -10   2 429.516 261.056   4 0.12570-0.24230-0.22318-0.61218 0.97272-0.78539
   2  10  -2 795.846 287.233   1-0.16423 0.28085 0.22979 0.60548-0.97290 0.78492
   2 -10  -2 1035.44 297.910   9-0.13621 0.25279-0.22513-0.60960-0.97302 0.78571
   2  10  -2 811.806 281.513   6 0.37008-0.25282 0.58583 0.24920 0.77884-0.96595
  -1 -10   2 280.126 195.539   4 0.13364-0.17075-0.20345-0.63194 0.97747-0.77488
   1  10  -2 98.6855 138.919   1-0.16933 0.20662 0.20596 0.62943-0.97832 0.77500
   1  10  -2 157.909 160.720   6 0.37380-0.33598 0.60813 0.22678 0.75927-0.96161
   0 -10   2 197.491 202.809   4 0.13890-0.09654-0.19025-0.64517 0.98039-0.76253
   0  10  -2 220.805 189.430   1-0.17284 0.13076 0.18921 0.64630-0.98175 0.76310
 -11   0   3 542.886 320.856   8-0.72455-0.08501-0.23516 0.23536-0.77506 0.93389
  11   0  -3 203.278 189.123   7 0.73279 0.07652 0.11799-0.11837 0.79847-0.95691
 -10   0   3 244.479 208.925   8-0.72139-0.00878-0.23372 0.23385-0.77841 0.95250
  10   0  -3 -66.327 104.517   7 0.73012-0.00020 0.11744-0.11779 0.80091-0.97461
  -9   0   3 176.341 173.020   8-0.72371 0.07291-0.23478 0.23484-0.77596 0.96532
   9   0  -3 136.514 145.092   7 0.73324-0.08270 0.11809-0.11843 0.79806-0.98700
   7   0  -3 -18.188 62.2176   7 0.76269-0.27085 0.12427-0.12456 0.76945-0.98882
 -11  -1   3 466.737 266.317   8-0.71163-0.09787-0.22929 0.14590-0.78850 0.94735
 -11   1   3 -357.14 237.807   8-0.74385-0.06576-0.24402 0.32784-0.75358 0.91235
  11   1  -3 -16.134 149.256   7 0.72741 0.08191 0.11687-0.03368 0.80336-0.96179
  11  -1  -3 367.321 209.949   7 0.74429 0.06500 0.12040-0.20432 0.78769-0.94612
 -11   1   3 -468.03 336.907   5-0.69788-0.11299 0.30989-0.22623-0.76765 0.92771
 -10  -1   3 197.083 164.745   8-0.70764-0.02247-0.22749 0.14402-0.79250 0.96662
 -10   1   3 -287.81 228.097   8-0.74203 0.01181-0.24318 0.32693-0.75568 0.92974
  10   1  -3 147.277 159.894   7 0.72437 0.00554 0.11624-0.03305 0.80607-0.97977
  10  -1  -3 382.019 162.750   7 0.74245-0.01254 0.12001-0.20390 0.78946-0.96315
 -10   1   3 339.595 241.061   5-0.69320-0.03821 0.30659-0.22287-0.77322 0.94855
  -9  -1   3 161.239 172.129   8-0.70891 0.05816-0.22806 0.14453-0.79124 0.98060
  -9   1   3 -238.92 164.369   8-0.74591 0.09507-0.24497 0.32864-0.75120 0.94051
   9   1  -3 142.351 137.792   7 0.72702-0.07648 0.11679-0.03359 0.80371-0.99265
   9  -1  -3 407.864 190.967   7 0.74655-0.09602 0.12087-0.20474 0.78552-0.97446
  -9   1   3 193.989 172.651   5-0.69330 0.04136 0.30666-0.22289-0.77310 0.96371
  -8  -1   3 336.828 208.905   8-0.71663 0.14523-0.23156 0.14796-0.78338 0.98799
   8   1  -3 291.097 174.547   7 0.73670-0.16554 0.11881-0.03560 0.79486-0.99901
   8  -1  -3 201.777 120.117   7 0.75800-0.18682 0.12328-0.20711 0.77422-0.97838
  -8   1   3 415.397 246.181   5-0.69923 0.12674 0.31085-0.22703-0.76602 0.97190
  -7  -1   3 -59.741 118.500   8-0.73219 0.24013-0.23866 0.15499-0.76676 0.98661
   7   1  -3 -79.920 108.724   7 0.75504-0.26321 0.12265-0.03944 0.77719-0.99655
   7  -1  -3 -170.76 97.7212   7 0.77840-0.28654 0.12760-0.21138 0.75279-0.97216
  -7  -1   3 -111.15 78.9407   4 0.24804-0.74206 0.11304-0.19632 0.99189-0.77161
   7  -1  -3 -83.045 137.462   9-0.25420 0.74706 0.08466-0.16805-0.99430 0.77465
 -11  -2   3 260.111 233.418   8-0.70480-0.10460-0.22620 0.05925-0.79531 0.95418
  11   2  -3 -119.54 150.159   7 0.72797 0.08134 0.11699 0.04975 0.80285-0.96126
  11  -2  -3 160.681 114.421   7 0.76198 0.04730 0.12412-0.29157 0.77018-0.92858
 -11   2   3 280.356 269.888   5-0.68667-0.12412 0.30200-0.13475-0.78078 0.94088
 -10  -2   3 460.150 237.441   8-0.70047-0.02958-0.22425 0.05723-0.79955 0.97367
  10   2  -3 136.941 144.701   7 0.72502 0.00489 0.11638 0.05037 0.80549-0.97916
  10  -2  -3 462.690 193.556   7 0.76142-0.03152 0.12400-0.29141 0.77075-0.94441
 -10   2   3 325.344 214.135   5-0.68144-0.04989 0.29833-0.13103-0.78668 0.96206
  -9  -2   3 1053.98 321.489   8-0.70119 0.05049-0.22458 0.05750-0.79884 0.98821
   9   2  -3 533.728 195.842   7 0.72767-0.07715 0.11693 0.04981 0.80312-0.99203
   9  -2  -3 410.167 172.522   7 0.76698-0.11644 0.12517-0.29254 0.76501-0.95391
  -9   2   3 672.282 296.182   5-0.68077 0.02888 0.29786-0.13051-0.78743 0.97808
  -8  -2   3 2051.62 395.909   8-0.70813 0.13676-0.22770 0.06056-0.79202 0.99662
   8   2  -3 1699.10 312.858   7 0.73723-0.16607 0.11892 0.04781 0.79437-0.99850
  -8   2   3 2442.75 457.529   5-0.68562 0.11318 0.30127-0.13385-0.78197 0.98788
  -7  -2   3 430.703 191.598   8-0.72259 0.23055-0.23427 0.06707-0.77714 0.99697
   7   2  -3 409.092 186.207   7 0.75525-0.26343 0.12270 0.04404 0.77698-0.99632
  -7  -2   3 -5.5625 122.199   4 0.23102-0.72498 0.06142-0.22825 0.99732-0.77708
   7  -2  -3 179.452 131.040   9-0.23851 0.73133 0.03940-0.20626-0.99808 0.77841
  -7   2   3 229.103 218.756   5-0.69713 0.20412 0.30937-0.14189-0.76855 0.98974
  -6  -2   3 -121.33 133.182   8-0.74599 0.33325-0.24502 0.07774-0.75110 0.98617
 -10  -3   3 323.674 232.303   8-0.69941-0.03058-0.22378-0.02678-0.80057 0.97468
  10   3  -3 110.095 159.089   7 0.73177-0.00187 0.11778 0.13252 0.79941-0.97304
  10  -3  -3 -119.49 180.204   3 0.63716 0.09312-0.39029 0.13982 0.77451-0.94950
 -10   3   3 142.964 160.749   5-0.67583-0.05544 0.29443-0.04357-0.79285 0.96827
  -9  -3   3 222.922 178.753   8-0.70004 0.04940-0.22406-0.02655-0.79996 0.98931
   9   3  -3 119.754 132.067   7 0.73485-0.08434 0.11842 0.13186 0.79657-0.98544
   9  -3  -3 147.352 152.337   3 0.63424 0.01654-0.38703 0.13658 0.77855-0.96883
  -9   3   3 30.9716 151.597   5-0.67483 0.02299 0.29373-0.04282-0.79394 0.98462
  -8  -3   3 114.858 131.298   8-0.70666 0.13533-0.22704-0.02362-0.79347 0.99806
   8   3  -3 215.325 153.023   7 0.74474-0.17359 0.12049 0.12978 0.78727-0.99136
   8  -3  -3 339.367 174.996   3 0.63558-0.06430-0.38853 0.13810 0.77670-0.98223
  -8   3   3 -93.556 150.391   5-0.67910 0.10669 0.29670-0.04573-0.78928 0.99522
  -7  -3   3 1224.10 306.472   8-0.72051 0.22848-0.23332-0.01740-0.77934 0.99915
   7   3  -3 780.040 225.157   7 0.76288-0.27107 0.12431 0.12595 0.76925-0.98855
  -7  -3   3 146.466 231.760   4 0.21414-0.70805 0.01205-0.26242 0.99968-0.77948
   7  -3  -3 1621.56 342.502   9-0.22238 0.71517-0.00560-0.24473-0.99951 0.77982
  -7   3   3 1442.41 351.952   5-0.68965 0.19668 0.30410-0.05306-0.77735 0.99856
  -6  -3   3 -220.82 126.596   8-0.74289 0.33016-0.24358-0.00720-0.75469 0.98974
   6   3  -3 187.486 146.829   1-0.23366 0.64538-0.17220 0.42294-0.98406 0.74835
  -6  -3   3 -0.2884 243.364   4 0.25445-0.66891 0.13302-0.38357 0.98897-0.75349
 -10  -4   3 228.489 233.877   8-0.70395-0.02597-0.22582-0.10825-0.79616 0.97025
  10   4  -3 279.948 180.802   7 0.74421-0.01432 0.12038 0.21347 0.78778-0.96134
  10  -4  -3 692.604 295.179   3 0.63210 0.09824-0.38466 0.05062 0.78146-0.95648
 -10   4   3 516.328 348.321   5-0.67573-0.05548 0.29435 0.04005-0.79297 0.96843
  -9  -4   3 -125.86 143.956   8-0.70486 0.05427-0.22623-0.10788-0.79525 0.98459
   9   4  -3 1.78977 112.218   7 0.74810-0.09761 0.12120 0.21263 0.78402-0.97283
   9  -4  -3 309.610 195.626   3 0.62905 0.02177-0.38131 0.04728 0.78553-0.97585
  -9   4   3 113.968 188.573   5-0.67476 0.02298 0.29369 0.04077-0.79401 0.98473
  -8  -4   3 524.124 245.047   8-0.71157 0.14027-0.22926-0.10490-0.78856 0.99312
   8   4  -3 100.736 104.506   7 0.75869-0.18755 0.12342 0.21038 0.77353-0.97756
  -8  -4   3 96.9586 201.911   4 0.15717-0.73043-0.14348-0.19024 0.98905-0.78411
   8  -4  -3 152.180 164.641   9-0.16405 0.73613-0.15764-0.17608-0.98720 0.78272
   8  -4  -3 668.471 232.466   3 0.63004-0.05871-0.38240 0.04841 0.78422-0.98979
  -8   4   3 750.673 284.962   5-0.67883 0.10647 0.29651 0.03800-0.78958 0.99555
  -7  -4   3 256.413 179.742   8-0.72520 0.23319-0.23546-0.09876-0.77436 0.99415
   7   4  -3 -161.61 129.091   7 0.77728-0.28548 0.12736 0.20641 0.75401-0.97324
  -7  -4   3 74.4097 157.082   4 0.19717-0.69101-0.03599-0.29793 0.99933-0.77916
   7   4  -3 -9.8416 83.8168   1-0.20159 0.69257 0.03870 0.29561-0.99919 0.77887
   7  -4  -3 159.107 174.403   9-0.20580 0.69856-0.05045-0.28335-0.99864 0.77893
   7  -4  -3 -9.2299 88.8318   3 0.63575-0.14386-0.38870 0.05476 0.77648-0.99730
  -7   4   3 -3.7411 197.701   5-0.68884 0.19590 0.30353 0.03105-0.77829 0.99952
  -6  -4   3 -437.85 197.538   8-0.74694 0.33420-0.24546-0.08881-0.74999 0.98501
   6   4  -3 -13.879 106.166   1-0.22156 0.63336-0.08490 0.41913-0.99594 0.76021
  -6  -4   3 -19.785 178.526   4 0.23253-0.64691 0.06591-0.40001 0.99697-0.76153
  10   5  -3 283.663 203.404   7 0.76189-0.03203 0.12410 0.29331 0.77027-0.94375
  -9  -5   3 477.975 261.261   8-0.71501 0.06445-0.23082-0.18677-0.78504 0.97436
   9   5  -3 450.514 232.788   7 0.76687-0.11639 0.12515 0.29222 0.76511-0.95384
   8   5  -3 -162.87 87.9534   7 0.77842-0.20729 0.12760 0.28973 0.75277-0.95673
  -8  -5   3 -17.471 147.576   4 0.14478-0.71798-0.17534-0.24192 0.98343-0.77852
  -8   5   3 96.4229 119.779   2-0.57453 0.00081 0.45825-0.03969-0.77578 0.98074
   8  -5  -3 78.1765 164.175   9-0.15201 0.72407-0.18720-0.23000-0.98167 0.77717
   8  -5  -3 -50.886 137.296   3 0.62968-0.05830-0.38200-0.03555 0.78470-0.99029
  -8   5   3 -21.364 146.965   5-0.68398 0.11166 0.30011 0.11791-0.78383 0.98983
  -7  -5   3 518.638 279.554   8-0.73583 0.24383-0.24033-0.17735-0.76273 0.98250
   7   5  -3 504.384 194.044   1-0.19132 0.68240 0.09550 0.32227-0.99540 0.77508
  -7  -5   3 0.28553 182.863   4 0.17995-0.67372-0.08317-0.33429 0.99644-0.77630
  -7   5   3 161.756 164.556   2-0.57628 0.08212 0.46121-0.04265-0.77268 0.99293
   7  -5  -3 515.794 211.615   9-0.18872 0.68145-0.09520-0.32207-0.99548 0.77576
   7  -5  -3 275.411 168.056   3 0.63500-0.14309-0.38789-0.02960 0.77750-0.99834
  -7   5   3 404.595 283.803   5-0.69378 0.20086 0.30700 0.11108-0.77253 0.99379
  -9  -6   3 39.4164 227.153   8-0.72983 0.07932-0.23758-0.26346-0.76935 0.95866
  -9   6   3 -59.220 137.649   2-0.57606-0.07721 0.46083 0.04129-0.77308 0.96278
   9  -6  -3 172.039 242.604   3 0.63260 0.01831-0.38521-0.11594 0.78078-0.97111
  -8  -6   3 -20.340 149.585   8-0.73753 0.16629-0.24110-0.25996-0.76081 0.96535
  -8  -6   3 98.8615 251.621   4 0.13102-0.70416-0.20998-0.29082 0.97595-0.77105
  -8   6   3 398.125 247.628   2-0.57461 0.00089 0.45839 0.04372-0.77563 0.98062
   8  -6  -3 774.595 326.758   9-0.13838 0.71040-0.22000-0.28067-0.97430 0.76978
   8  -6  -3 802.621 290.254   3 0.63364-0.06222-0.38637-0.11473 0.77937-0.98497
  -8   6   3 995.959 380.933   5-0.69376 0.12146 0.30698 0.19454-0.77256 0.97861
  -7  -6   3 104.398 380.170   4 0.16243-0.65612-0.12979-0.37120 0.99109-0.77097
  -7   6   3 262.033 205.863   2-0.57625 0.08206 0.46115 0.04096-0.77274 0.99301
   7  -6  -3 1138.76 349.517   9-0.17117 0.66385-0.13990-0.36085-0.99002 0.77027
   7  -6  -3 676.234 248.575   3 0.63880-0.14684-0.39210-0.10892 0.77223-0.99307
   7   6  -3 362.243 220.409   1-0.18100 0.67216 0.14908 0.35214-0.98874 0.76840
   6   6  -3 243.106 243.826   1-0.19803 0.61002 0.05882 0.44238-0.99823 0.76248
  -6  -6   3 -86.132 243.086   4 0.19059-0.60481-0.05419-0.44698 0.99851-0.76314
  -8  -7   3 -237.54 289.506   4 0.11615-0.68922-0.24656-0.33778 0.96646-0.76157
  -8   7   3 111.379 117.044   2-0.57785 0.00412 0.46386 0.12177-0.76987 0.97489
   8  -7  -3 13.6611 147.665   3 0.64112-0.06968-0.39471-0.18993 0.76894-0.97452
  -7  -7   3 -63.098 308.055   4 0.14451-0.63813-0.17602-0.40850 0.98330-0.76318
   7   7  -3 97.4147 217.555   1-0.17047 0.66173 0.20056 0.38411-0.97946 0.75912
  -5  -7   3 -15.705 277.947   4 0.19265-0.52730-0.04849-0.53634 0.99881-0.74819
   5   7  -3 89.0962 175.275   1-0.19939 0.53225 0.05121 0.53351-0.99864 0.74749
  -7  -8   3 66.4286 704.489   4 0.12618-0.61970-0.22198-0.44607 0.97302-0.75291
  -6  -8   3 65.2158 480.889   4 0.14940-0.56345-0.16354-0.50467 0.98565-0.75030
   6   8  -3 -350.31 266.615   1-0.17457 0.58673 0.18087 0.48728-0.98335 0.74758
   0   0   0    0.00    0.00
   1  -2   1 -16.182 18.8215   9 0.05461 0.04550-0.61688 0.45007-0.76022 0.88409
   6   7  -3 -16.791 206.658   1-0.18636 0.59842 0.12168 0.46300-0.99252 0.75677
  -6  -7   3 -55.378 249.057   4 0.17000-0.58414-0.10982-0.47487 0.99369-0.75834
   5   6  -3 116.129 186.747   1-0.21173 0.54451-0.02158 0.52280-0.99957 0.74842
  -5  -6   3 -34.020 338.154   4 0.21557-0.55031 0.01616-0.51747 0.99959-0.74894
   0   5  -2 -81.062 62.7870   1-0.24200 0.19963-0.24098 0.65897-0.96893 0.75022
   0  -4  -1 346.088 158.707   9-0.27164 0.25062 0.13682-0.47078-0.98703 0.87816
   0  -4   1 210.317 89.2588   7 0.64042-0.61935 0.09905-0.43289 0.87049-0.76190
   0   4  -1 328.880 136.168   6 0.34646-0.36727 0.46696-0.13318 0.86512-0.97398
   0   4   1 550.008 170.018   6 0.15988-0.13862-0.13791 0.47264 0.98992-0.88057
   0   4   1 202.355 106.671   2-0.56540 0.58613 0.44304-0.10848-0.79126 0.90053
   0  -4   1 537.985 148.855   4 0.25584-0.23476 0.13737-0.47166 0.98827-0.87936
   0  -4   1 406.442 143.524   9-0.02456 0.04525-0.46847 0.13472-0.87154 0.98014
   0   4  -1 428.535 147.941   1-0.22922 0.20815-0.13875 0.47302-0.98956 0.88029
  -4  -2   0 -124.66 39.9746   9-0.26660-0.05084 0.12155-0.28862-0.98948 0.92844
   4  -2   0 -114.53 40.3373   6 0.22562 0.09182 0.04374-0.21052 0.99846-0.93756
   4   2   0 82.4493 52.2915   6 0.20749 0.11035-0.00861 0.17612 0.99984-0.93870
   4   2   0 -60.336 78.0951   7 0.19579 0.12173 0.01307 0.15404 0.99991-0.93885
  -4  -2   0 -139.07 102.327   8-0.19493-0.12228-0.01438-0.15242-0.99990 0.93892
  -4   2   0 -63.277 74.6724   8-0.21431-0.10319-0.02198 0.18936-0.99951 0.93851
   4  -2   0 -10.508 67.5524   9-0.03397 0.35122-0.44952 0.28279-0.88265 0.94350
   4  -2   0 -42.545 84.4219   7 0.21106 0.10644 0.01592-0.18306 0.99969-0.93872
  -4  -2   0 94.1582 66.6219   4 0.03011-0.34764-0.44247 0.27595 0.88524-0.94611
  -4   2   0 -77.088 54.8777   1-0.21078-0.10667-0.01571 0.18272-0.99970 0.93872
   4  -2   0 -110.99 38.0317   4 0.22341 0.09447 0.03893-0.20622 0.99874-0.93771
   4   2  -1 -289.32 114.233   7 0.48876-0.19263 0.06894 0.09800 0.94740-0.99516
   4  -2  -1 -80.520 72.0602   7 0.55830-0.26217 0.08262-0.24975 0.91742-0.96522
  -4   2   1 -44.433 80.5458   2-0.41160 0.11429 0.21654-0.04917-0.94779 0.99569
  -4   2   1 -143.19 85.2602   8-0.59716 0.30095-0.17882 0.34607-0.88214 0.93000
  -4  -2   1 -289.49 91.5378   5-0.62706 0.33030 0.26114-0.42839-0.84061 0.88873
   4   2  -1 72.7605 43.5891   1-0.19166 0.48747 0.09365 0.07354-0.99558 0.94750
  -4  -2   1 -149.01 92.9906   4 0.18204-0.47901-0.07753-0.08927 0.99692-0.94904
   4   2  -1 8.76671 59.6745   6 0.32258-0.02594 0.36729-0.20022 0.91820-0.96621
   4  -2  -1 -48.628 67.6197   9-0.18970 0.48615-0.09271-0.07412-0.99572 0.94788
   4  -2  -1 85.1421 36.2374   1-0.23534 0.53078-0.18532 0.01862-0.98157 0.93350
  -4  -2   1 -266.85 122.670   8-0.46237 0.16622-0.12193-0.04506-0.95076 0.99863
  -3   2   1 148.469 60.6106   8-0.70424 0.48740-0.22595 0.39313-0.79586 0.85890
  -1  -7   2 3719.05 447.894   4 0.21372-0.25111 0.01082-0.59578 0.99970-0.79709
   1   7  -2 4269.64 441.109   1-0.21023 0.24734-0.01233 0.59724-0.99976 0.79645
  -1   7   2 5157.71 507.741   6 0.20639-0.24342-0.01172 0.59745 0.99982-0.79642
   1   7  -2 4980.86 508.624   6 0.36834-0.33064 0.57588 0.00829 0.78719-0.98966
   1  -7  -2 4242.53 439.617   9-0.22757 0.26492 0.00873-0.59313-0.99930 0.79683
  -1   6  -2 -74.006 56.0363   1-0.23151 0.10983-0.15577 0.65741-0.98691 0.75289
   1  -6   2 41.8535 48.9663   4 0.26252-0.14101 0.15860-0.66013 0.98455-0.75133
  -1   7  -2 -5.3218 87.1735   1-0.21752 0.09590-0.05823 0.64338-0.99797 0.76398
   1  -7   2 180.491 93.0962   4 0.23014-0.10856 0.05884-0.64385 0.99751-0.76434
   1  -7   2 -75.021 122.207   9 0.05549 0.06527-0.61842 0.03441-0.75880 0.99125
   8   1  -2 15.0450 69.5558   7 0.61060-0.01822 0.09304-0.00974 0.88913-0.98467
   8  -1  -2 89.5086 93.5833   7 0.63130-0.03893 0.09721-0.18099 0.87640-0.97194
  -8   1   2 159.808 115.549   2-0.54611-0.04854 0.41186-0.32789-0.82067 0.91648
   8   1  -2 -9.7826 68.6241   3 0.63619-0.04380-0.38921 0.47289 0.77586-0.87192
  -8  -1   2 -22.405 97.9696   5-0.63954 0.04594 0.26955-0.35317-0.82933 0.92575
   8  -1  -2 131.315 90.5439   3 0.56985 0.02277-0.31823 0.23480 0.85289-0.94923
  -8   1   2 -24.496 86.0563   5-0.58800-0.00549 0.23520-0.15160-0.87239 0.96892
  -8  -1   2 148.053 98.5551   8-0.59728 0.00481-0.17887 0.09546-0.88206 0.97783
  -8   1   2 116.171 88.2009   8-0.63703 0.04446-0.19612 0.27988-0.85403 0.94976
  -6   1   2 204.673 116.759   8-0.66896 0.23514-0.21018 0.29380-0.82826 0.95449
   6   1  -2 51.0320 73.1379   7 0.63524-0.20161 0.09800-0.01470 0.87386-0.99985
   6  -1  -2 164.841 96.3376   7 0.66225-0.22861 0.10347-0.18721 0.85553-0.98153
  -6   1   2 66.5558 34.4035   4 0.19601-0.63128-0.03918 0.12307 0.99921-0.87270
  -6  -1   2 45.9515 69.0025   4 0.20548-0.64073-0.01264-0.07057 0.99982-0.87339
  -6   1   2 52.6445 81.9374   2-0.55145 0.11596 0.42037-0.33639-0.81294 0.93933
   6  -1  -2 63.2421 54.0321   9-0.21007 0.64440-0.03902-0.04432-0.99908 0.87297
   6   1  -2 19.9674 20.6906   9-0.17953 0.61389-0.11877 0.20235-0.99289 0.86680
   6   1  -2 -12.411 27.5260   1-0.20707 0.63984 0.00676 0.07715-0.99986 0.87332
   6  -1  -2 50.1911 51.6051   3 0.58135-0.14767-0.33018 0.24675 0.84138-0.96822
  -6  -1   2 151.654 113.230   5-0.67083 0.23617 0.29096-0.37448-0.79823 0.92522
  -6   1   2 435.035 130.106   5-0.60475 0.17016 0.24625-0.16254-0.85938 0.98646
  -6  -1   2 105.235 83.5981   8-0.61751 0.18373-0.18762 0.10407-0.86832 0.99457
   7   1   1 346.739 178.441   7 0.12053 0.45653-0.00089 0.08453 0.99737-0.78146
  -7  -1  -1 494.328 176.692   8-0.12206-0.45442 0.01395-0.09691-0.99738 0.78169
  -7   1  -1 596.409 202.700   8-0.11786-0.45884 0.01557 0.06858-0.99705 0.78124
   7  -1   1 359.080 194.095   7 0.12024 0.45680-0.00095-0.08261 0.99735-0.78150
  -4  -6   2 202.033 125.846   8-0.73399 0.45875-0.23948-0.26154-0.76477 0.92144
   4   6  -2 71.2367 104.951   1-0.19749 0.47236 0.06183 0.43930-0.99805 0.84077
  -4   6   2 171.742 109.203   6 0.24205-0.51754 0.09287 0.40883 0.99435-0.83698
  -4  -6   2 190.988 136.322   4 0.18921-0.46519-0.05799-0.44321 0.99830-0.84149
  -4   6   2 108.989 116.712   2-0.53582 0.25928 0.39566 0.10618-0.83482 0.99191
   4  -6  -2 14.9535 103.558   9-0.20024 0.47571-0.06517-0.43565-0.99786 0.84117
   4   6  -2 155.273 121.076   6 0.35580-0.07992 0.51053-0.00960 0.83672-0.99355
   4  -6  -2 177.696 141.487   3 0.59999-0.32497-0.34984-0.15107 0.82121-0.97866
  -4   6   2 15.6592 107.625   5-0.67338 0.39765 0.29273 0.20873-0.79550 0.95329
   0  -6   2 216.459 113.587   4 0.25411-0.21210 0.13197-0.63347 0.98914-0.77120
   0   6  -2 420.715 139.463   1-0.22852 0.18621-0.13359 0.63511-0.99031 0.77163
  -9   5   3 234.103 207.481   2-0.57608-0.07719 0.46086-0.04231-0.77304 0.96272
   9  -5  -3 367.428 168.159   3 0.62878 0.02210-0.38099-0.03661 0.78591-0.97624
  -9   5   3 936.402 372.661   5-0.67982 0.02809 0.29720 0.12077-0.78848 0.97923
;
_shelx_hkl_checksum              83355
loop_
_space_group_symop_operation_xyz
'x, y, z'
'-x+1/2, y+1/2, -z'
'-x, -y, -z'
'x-1/2, -y-1/2, z'
loop_
_atom_site_label
_atom_site_type_symbol
_atom_site_fract_x
_atom_site_fract_y
_atom_site_fract_z
_atom_site_U_iso_or_equiv
_atom_site_adp_type
_atom_site_occupancy
_atom_site_site_symmetry_order
_atom_site_calc_flag
_atom_site_refinement_flags_posn
_atom_site_refinement_flags_adp
_atom_site_refinement_flags_occupancy
_atom_site_disorder_assembly
_atom_site_disorder_group
C1 C 0.6742(11) 0.2812(8) 0.798(4) 0.022(6) Uani 1 1 d . U . . .
H1D H 0.575299 0.234077 0.774590 0.027 Uiso 1 1 calc R U . . .
H1E H 0.702205 0.309185 0.942198 0.027 Uiso 1 1 calc R U . . .
C2 C 0.7867(11) 0.1689(8) 0.737(4) 0.017(6) Uani 1 1 d . U . . .
N1 N 0.6762(9) 0.4232(7) 0.665(3) 0.023(7) Uani 1 1 d . U . . .
H1A H 0.620261 0.498733 0.704453 0.027 Uiso 1 1 calc R U . . .
H1B H 0.639875 0.397869 0.534476 0.027 Uiso 1 1 calc R U . . .
H1C H 0.769852 0.457414 0.675870 0.027 Uiso 1 1 calc R U . . .
O1 O 0.5342(9) 0.8648(8) 0.982(4) 0.039(6) Uani 1 1 d . U . . .
H1 H 0.534895 0.961351 0.982290 0.047 Uiso 0.5 1 calc DR U P . .
O2 O 0.4626(7) 0.6456(6) 0.736(3) 0.035(6) Uani 1 1 d . U . . .
O3 O 0.4442(7) 0.9274(6) 0.625(2) 0.039(6) Uani 1 1 d . U . . .
H3 H 0.486945 0.940669 0.528027 0.046 Uiso 0.5 1 calc DR U P . .
O4 O 0.8521(7) 0.1795(6) 0.601(3) 0.020(7) Uani 1 1 d . U . . .
O5 O 0.8069(8) 0.0520(6) 0.884(3) 0.026(7) Uani 1 1 d . U . . .
H5 H 0.874393 -0.006650 0.864377 0.031 Uiso 1 1 calc R U . . .
P1 P 0.5307(3) 0.8075(3) 0.7734(14) 0.035(5) Uani 1 1 d . U . . .
H1P H 0.633710 0.803041 0.749858 0.042 Uiso 1 1 calc R U . . .
loop_
_atom_site_aniso_label
_atom_site_aniso_U_11
_atom_site_aniso_U_22
_atom_site_aniso_U_33
_atom_site_aniso_U_23
_atom_site_aniso_U_13
_atom_site_aniso_U_12
C1 0.024(4) 0.013(3) 0.03(2) 0.003(5) -0.006(7) 0.000(3)
C2 0.014(4) 0.011(3) 0.025(19) 0.004(5) -0.001(6) 0.003(3)
N1 0.027(4) 0.013(3) 0.03(2) 0.012(6) 0.006(8) 0.005(3)
O1 0.037(4) 0.012(3) 0.069(19) -0.002(6) 0.014(7) 0.006(3)
O2 0.024(3) 0.013(3) 0.067(18) -0.005(5) 0.002(6) -0.007(2)
O3 0.025(3) 0.016(3) 0.071(19) 0.008(5) 0.000(6) 0.004(2)
O4 0.020(4) 0.019(3) 0.02(2) 0.003(5) 0.005(7) 0.000(2)
O5 0.032(4) 0.019(3) 0.02(2) 0.008(5) -0.001(7) 0.006(2)
P1 0.0228(15) 0.0100(12) 0.071(16) 0.000(2) 0.008(4) 0.0004(10)
loop_
_atom_type_symbol
_atom_type_description
_atom_type_scat_dispersion_real
_atom_type_scat_dispersion_imag
_atom_type_scat_source
C C 0.0033 0.0016 'International Tables Vol C Tables 4.2.6.8 and 6.1.1.4'
H H 0.0000 0.0000 'International Tables Vol C Tables 4.2.6.8 and 6.1.1.4'
N N 0.0061 0.0033 'International Tables Vol C Tables 4.2.6.8 and 6.1.1.4'
O O 0.0106 0.0060 'International Tables Vol C Tables 4.2.6.8 and 6.1.1.4'
P P 0.1023 0.0942 'International Tables Vol C Tables 4.2.6.8 and 6.1.1.4'
loop_
_geom_angle_atom_site_label_1
_geom_angle_atom_site_label_2
_geom_angle_atom_site_label_3
_geom_angle
_geom_angle_site_symmetry_1
_geom_angle_site_symmetry_3
_geom_angle_publ_flag
N1 C1 C2 105.4(14) . . ?
N1 C1 H1D 110.7 . . ?
C2 C1 H1D 110.7 . . ?
N1 C1 H1E 110.7 . . ?
C2 C1 H1E 110.7 . . ?
H1D C1 H1E 108.8 . . ?
O4 C2 O5 125.2(8) . . ?
O4 C2 C1 128.7(15) . . ?
O5 C2 C1 105.9(18) . . ?
C1 N1 H1A 109.5 . . ?
C1 N1 H1B 109.5 . . ?
H1A N1 H1B 109.5 . . ?
C1 N1 H1C 109.5 . . ?
H1A N1 H1C 109.5 . . ?
H1B N1 H1C 109.5 . . ?
P1 O1 H1 109.5 . . ?
P1 O3 H3 109.5 . . ?
C2 O5 H5 109.5 . . ?
O1 P1 O2 113.1(9) . . ?
O1 P1 O3 107.6(7) . . ?
O2 P1 O3 110.9(7) . . ?
O1 P1 H1P 108.4 . . ?
O2 P1 H1P 108.4 . . ?
O3 P1 H1P 108.4 . . ?
loop_
_geom_bond_atom_site_label_1
_geom_bond_atom_site_label_2
_geom_bond_distance
_geom_bond_site_symmetry_2
_geom_bond_publ_flag
C1 N1 1.499(17) . ?
C1 C2 1.509(17) . ?
C1 H1D 0.9700 . ?
C1 H1E 0.9700 . ?
C2 O4 1.18(2) . ?
C2 O5 1.38(2) . ?
N1 H1A 0.8900 . ?
N1 H1B 0.8900 . ?
N1 H1C 0.8900 . ?
O1 P1 1.46(2) . ?
O1 H1 0.8200 . ?
O2 P1 1.510(6) . ?
O3 P1 1.527(12) . ?
O3 H3 0.8200 . ?
O5 H5 0.8200 . ?
P1 H1P 0.9800 . ?
loop_
_geom_hbond_atom_site_label_D
_geom_hbond_atom_site_label_H
_geom_hbond_atom_site_label_A
_geom_hbond_distance_DH
_geom_hbond_distance_HA
_geom_hbond_distance_DA
_geom_hbond_angle_DHA
_geom_hbond_site_symmetry_A
_geom_hbond_publ_flag
N1 H1B O2 0.89 1.89 2.78(3) 172.3 3_666 yes
N1 H1C O3 0.89 1.95 2.807(9) 161.5 4_675 yes
N1 H1A O2 0.89 1.94 2.816(9) 166.3 . yes
O1 H1 O1 0.82 1.64 2.403(14) 153.9 3_677 yes
O3 H3 O3 0.82 1.71 2.44(2) 146.9 3_676 yes
O5 H5 O2 0.82 1.74 2.511(12) 156.7 4_665 yes
loop_
_geom_torsion_atom_site_label_1
_geom_torsion_atom_site_label_2
_geom_torsion_atom_site_label_3
_geom_torsion_atom_site_label_4
_geom_torsion
_geom_torsion_site_symmetry_1
_geom_torsion_site_symmetry_2
_geom_torsion_site_symmetry_3
_geom_torsion_site_symmetry_4
_geom_torsion_publ_flag
N1 C1 C2 O4 -7(2) . . . . ?
N1 C1 C2 O5 168.9(11) . . . . ?

_cod_database_fobs_code 2109042
