#------------------------------------------------------------------------------
#$Date: 2022-09-02 04:49:51 +0300 (Fri, 02 Sep 2022) $
#$Revision: 277573 $
#$URL: file:///home/coder/svn-repositories/cod/cif/2/10/90/2109038.cif $
#------------------------------------------------------------------------------
#
# This file is available in the Crystallography Open Database (COD),
# http://www.crystallography.net/. The original data for this entry
# were provided by IUCr Journals, http://journals.iucr.org/.
#
# The file may be used within the scientific community so long as
# proper attribution is given to the journal article from which the
# data were obtained.
#
data_2109038
loop_
_publ_author_name
'Bogdanov, Nikita E.'
'Korabel'nikov, Dmitry V.'
'Fedorov, Igor A.'
'Zakharov, Boris A.'
'Boldyreva, Elena V.'
_publ_section_title
;
 The effect of hydrostatic compression on the crystal structure of
 glycinium phosphite
;
_journal_issue                   5
_journal_name_full               'Acta Crystallographica Section B'
_journal_page_first
;
;
_journal_paper_doi               10.1107/S2052520622008289
_journal_volume                  78
_journal_year                    2022
_chemical_formula_moiety         'C2 H6 N O2, H2 O3 P'
_chemical_formula_sum            'C2 H8 N O5 P'
_chemical_formula_weight         157.06
_space_group_crystal_system      monoclinic
_space_group_IT_number           14
_space_group_name_Hall           '-P 2yab'
_space_group_name_H-M_alt        'P 1 21/a 1'
_atom_sites_solution_hydrogens   geom
_atom_sites_solution_primary     direct
_atom_sites_solution_secondary   difmap
_audit_creation_method           SHELXL-2018/3
_cell_angle_alpha                90
_cell_angle_beta                 100.94(3)
_cell_angle_gamma                90
_cell_formula_units_Z            4
_cell_length_a                   9.2492(10)
_cell_length_b                   8.5144(6)
_cell_length_c                   6.769(6)
_cell_measurement_pressure       4060000
_cell_measurement_reflns_used    778
_cell_measurement_temperature    293(2)
_cell_measurement_theta_max      26.3620
_cell_measurement_theta_min      3.2680
_cell_volume                     523.4(5)
_computing_cell_refinement       'CrysAlisPro 1.171.40.53 (Rigaku OD, 2019)'
_computing_data_collection       'CrysAlisPro 1.171.40.53 (Rigaku OD, 2019)'
_computing_data_reduction        'CrysAlisPro 1.171.40.53 (Rigaku OD, 2019)'
_computing_structure_refinement  'SHELXL-2018/3 (Sheldrick, 2018)'
_diffrn_ambient_pressure         4060000
_diffrn_ambient_temperature      293(2)
_diffrn_detector                 'CCD plate'
_diffrn_detector_area_resol_mean 10.3457
_diffrn_detector_type            Ruby
_diffrn_measured_fraction_theta_full 0.360
_diffrn_measured_fraction_theta_max 0.327
_diffrn_measurement_device       'four-circle diffractometer'
_diffrn_measurement_device_type  'Xcalibur, Ruby, Gemini ultra'
_diffrn_radiation_monochromator  graphite
_diffrn_radiation_probe          x-ray
_diffrn_radiation_type           'Mo K\a'
_diffrn_radiation_wavelength     0.71073
_diffrn_reflns_av_R_equivalents  0.1012
_diffrn_reflns_av_unetI/netI     0.0719
_diffrn_reflns_Laue_measured_fraction_full 0.360
_diffrn_reflns_Laue_measured_fraction_max 0.327
_diffrn_reflns_limit_h_max       12
_diffrn_reflns_limit_h_min       -11
_diffrn_reflns_limit_k_max       11
_diffrn_reflns_limit_k_min       -11
_diffrn_reflns_limit_l_max       3
_diffrn_reflns_limit_l_min       -3
_diffrn_reflns_number            2684
_diffrn_reflns_point_group_measured_fraction_full 0.360
_diffrn_reflns_point_group_measured_fraction_max 0.327
_diffrn_reflns_theta_full        25.242
_diffrn_reflns_theta_max         27.924
_diffrn_reflns_theta_min         3.280
_diffrn_source                   'fine-focus sealed X-ray tube'
_diffrn_source_type              'Enhance (Mo) X-ray Source'
_exptl_absorpt_coefficient_mu    0.474
_exptl_absorpt_correction_T_max  1.00000
_exptl_absorpt_correction_T_min  0.23633
_exptl_absorpt_correction_type   multi-scan
_exptl_absorpt_process_details
;
CrysAlisPro 1.171.40.53 (Rigaku Oxford Diffraction, 2019)
Empirical absorption correction using spherical harmonics,
 implemented in SCALE3 ABSPACK scaling algorithm.
;
_exptl_crystal_colour            white
_exptl_crystal_density_diffrn    1.993
_exptl_crystal_description       plates
_exptl_crystal_F_000             328
_exptl_crystal_size_max          0.21
_exptl_crystal_size_mid          0.10
_exptl_crystal_size_min          0.05
_refine_diff_density_max         0.249
_refine_diff_density_min         -0.227
_refine_diff_density_rms         0.071
_refine_ls_extinction_method     none
_refine_ls_goodness_of_fit_ref   1.037
_refine_ls_hydrogen_treatment    constr
_refine_ls_matrix_type           full
_refine_ls_number_parameters     86
_refine_ls_number_reflns         409
_refine_ls_number_restraints     58
_refine_ls_restrained_S_all      0.962
_refine_ls_R_factor_all          0.0946
_refine_ls_R_factor_gt           0.0516
_refine_ls_shift/su_max          0.000
_refine_ls_shift/su_mean         0.000
_refine_ls_structure_factor_coef Fsqd
_refine_ls_weighting_details
'w=1/[\s^2^(Fo^2^)+(0.0789P)^2^] where P=(Fo^2^+2Fc^2^)/3'
_refine_ls_weighting_scheme      calc
_refine_ls_wR_factor_gt          0.1142
_refine_ls_wR_factor_ref         0.1335
_reflns_Friedel_coverage         0.000
_reflns_number_gt                280
_reflns_number_total             409
_reflns_threshold_expression     'I > 2\s(I)'
_cod_data_source_file            xk5096sup1.cif
_cod_data_source_block           4.06
_cod_original_sg_symbol_H-M      'P 21/a'
_cod_database_code               2109038
_shelx_shelxl_version_number     2018/3
_shelx_space_group_comment
;
The symmetry employed for this shelxl refinement is uniquely defined
by the following loop, which should always be used as a source of
symmetry information in preference to the above space-group names.
They are only intended as comments.
;
_oxdiff_exptl_absorpt_empirical_full_min 0.580
_oxdiff_exptl_absorpt_empirical_full_max 2.723
_oxdiff_exptl_absorpt_empirical_details
;
Empirical correction (ABSPACK) includes:
- Absorption correction using spherical harmonics
- Frame scaling
;
_shelx_res_file
;
TITL GPI_4 in P2(1)/c
    4.06.res
    created by SHELXL-2018/3 at 18:26:35 on 10-Aug-2022
REM  transformed to space group : P21/a:b3
REM P2(1)/c (#14 in standard setting)
CELL   0.71073  9.2492  8.5144  6.7688   90.000  100.938   90.000
ZERR   4        0.0010  0.0006  0.0064    0.000    0.033    0.000
LATT    1
SYMM   1/2-X,1/2+Y,-Z
SFAC C H N O P
UNIT 8 32 4 20 4
LIST 4 ! automatically inserted. Change 6 to 4 for CHECKCIF!!
PLAN 50
FMAP 2
L.S. 20
BOND
BOND $H
CONF
ACTA
EQIV $1 1-X, 1-Y,1-Z
EQIV $2 1/2+X, 3/2-Y,Z
EQIV $3 1-X, 2-Y, 2-Z
EQIV $4 1-X, 2-Y, 1-Z
EQIV $5 1/2+X, 1/2-Y, Z
HTAB N1 O2_$1
HTAB N1 O3_$2
HTAB N1 O2
HTAB O1 O1_$3
HTAB O3 O3_$4
HTAB O5 O2_$5
DFIX 1.66  H1 O1_$3
DFIX 1.70  H3 O3_$4
SIMU
DELU
WGHT    0.078900
FVAR       1.79741
C1    1    0.677962    0.286296    0.788193    11.00000    0.01925    0.01898 =
         0.02208    0.00053   -0.00868   -0.00208
AFIX  23
H1D   2    0.581909    0.236480    0.761549    11.00000   -1.20000
H1E   2    0.699584    0.317409    0.928569    11.00000   -1.20000
AFIX   0
C2    1    0.792198    0.173167    0.746682    11.00000    0.01906    0.01317 =
         0.02248    0.00325   -0.00047   -0.00427
N1    3    0.676727    0.424910    0.659763    11.00000    0.01820    0.01841 =
         0.00607    0.00382   -0.00152    0.00047
AFIX 137
H1A   2    0.638343    0.399586    0.533098    11.00000   -1.20000
H1B   2    0.768429    0.459312    0.666822    11.00000   -1.20000
H1C   2    0.622658    0.500065    0.701324    11.00000   -1.20000
AFIX   0
O1    4    0.524267    0.863979    0.971613    11.00000    0.04245    0.01620 =
         0.04563   -0.00316    0.01974    0.00611
AFIX 147
H1    2    0.481560    0.948740    0.965559    10.50000   -1.20000
AFIX   0
O2    4    0.462796    0.645035    0.728197    11.00000    0.02182    0.01811 =
         0.04038   -0.00432   -0.00338   -0.00400
O3    4    0.443155    0.927759    0.620885    11.00000    0.02986    0.02261 =
         0.05493    0.02091    0.00875    0.00549
AFIX 147
H3    2    0.489017    0.944071    0.530459    10.50000   -1.20000
AFIX   0
O4    4    0.855895    0.184564    0.611299    11.00000    0.02056    0.02379 =
         0.01739    0.00937    0.00032    0.00170
O5    4    0.808901    0.055496    0.881114    11.00000    0.03084    0.02330 =
         0.00956    0.00586   -0.00006    0.00577
AFIX 147
H5    2    0.874103   -0.003761    0.859709    11.00000   -1.20000
AFIX   0
P1    5    0.526606    0.808167    0.768938    11.00000    0.01634    0.01265 =
         0.05202    0.00295    0.00659    0.00033
AFIX  13
H1P   2    0.629238    0.805823    0.750900    11.00000   -1.20000
AFIX   0
HKLF 4




REM  GPI_4 in P2(1)/c
REM wR2 = 0.1335, GooF = S = 1.037, Restrained GooF = 0.962 for all data
REM R1 = 0.0516 for 280 Fo > 4sig(Fo) and 0.0946 for all 409 data
REM 86 parameters refined using 58 restraints

END

WGHT      0.0795      0.0000

REM Highest difference peak  0.249,  deepest hole -0.227,  1-sigma level  0.071
Q1    1   0.6145  0.8193  0.5604  11.00000  0.05    0.25
Q2    1   0.8456  0.3466  0.7521  11.00000  0.05    0.24
Q3    1   0.5671  0.6281  0.8435  11.00000  0.05    0.24
Q4    1   0.8199  0.7291  0.8254  11.00000  0.05    0.23
Q5    1   0.7325  0.8437  0.8155  11.00000  0.05    0.23
Q6    1   0.8752  0.4199  0.5537  11.00000  0.05    0.22
Q7    1   0.7394  0.5236  0.8412  11.00000  0.05    0.22
Q8    1   0.9784  0.0821  0.8777  11.00000  0.05    0.21
Q9    1   0.7872  0.4107  0.9476  11.00000  0.05    0.20
Q10   1   0.7735  0.1984  0.4448  11.00000  0.05    0.20
Q11   1   0.7043  0.2095  0.8778  11.00000  0.05    0.19
Q12   1   0.4950  1.0245  0.8284  11.00000  0.05    0.19
Q13   1   0.4012  0.6206  0.7698  11.00000  0.05    0.18
Q14   1   0.7916  0.2974  0.9681  11.00000  0.05    0.18
Q15   1   0.3687  0.9219  0.9728  11.00000  0.05    0.18
Q16   1   0.5759  0.2271  0.8426  11.00000  0.05    0.17
Q17   1   0.8646  0.1792  0.4561  11.00000  0.05    0.17
Q18   1   0.7632  0.2456  0.6877  11.00000  0.05    0.17
Q19   1   0.5907  0.2450  0.6346  11.00000  0.05    0.17
Q20   1   0.8937  0.1740  1.0446  11.00000  0.05    0.17
Q21   1   0.5740  0.2957  0.8789  11.00000  0.05    0.17
Q22   1   0.5741  0.5281  0.8238  11.00000  0.05    0.16
Q23   1   0.3810  1.0114  0.8492  11.00000  0.05    0.16
Q24   1   0.6810  0.0123  0.6616  11.00000  0.05    0.15
Q25   1   0.7421  0.5913  0.6413  11.00000  0.05    0.15
Q26   1   0.4367  0.8461  0.9453  11.00000  0.05    0.15
Q27   1   0.6468  0.0186  0.8368  11.00000  0.05    0.15
Q28   1   0.8595  0.0567  0.9821  11.00000  0.05    0.15
Q29   1   0.4165  0.7021  0.5803  11.00000  0.05    0.14
Q30   1   0.6676  0.0726  0.7536  11.00000  0.05    0.14
Q31   1   0.3158  0.6908  0.6425  11.00000  0.05    0.14
Q32   1   0.5756  0.1298  0.8027  11.00000  0.05    0.14
Q33   1   0.5233  0.4445  0.4990  11.00000  0.05    0.14
Q34   1   0.8777  0.2377  0.6393  11.00000  0.05    0.14
Q35   1   0.6887  0.7466  0.8336  11.00000  0.05    0.14
Q36   1   0.5222  0.9004  0.8040  11.00000  0.05    0.13
Q37   1   0.7411  0.1348  0.6862  11.00000  0.05    0.13
Q38   1   0.4631  0.5938  0.6059  11.00000  0.05    0.13
Q39   1   0.8457  0.0576  0.9234  11.00000  0.05    0.13
Q40   1   0.5339  0.7292  0.8296  11.00000  0.05    0.13
Q41   1   0.8255  0.6284  0.7914  11.00000  0.05    0.13
Q42   1   0.5931  0.2799  0.5266  11.00000  0.05    0.12
Q43   1   0.9836  0.2195  0.6033  11.00000  0.05    0.12
Q44   1   0.6461  0.7294  0.7521  11.00000  0.05    0.12
Q45   1   0.7994  0.4930  0.6298  11.00000  0.05    0.11
Q46   1   0.6975  0.4501  0.6021  11.00000  0.05    0.11
Q47   1   0.8419  0.4935  0.7440  11.00000  0.05    0.11
Q48   1   0.8155  0.4933  0.6881  11.00000  0.05    0.11
Q49   1   0.7435  0.0691  0.9399  11.00000  0.05    0.11
Q50   1   0.6824  0.3434  0.5934  11.00000  0.05    0.11
;
_shelx_res_checksum              24972
_shelx_hkl_file
;
  -1   0   0 8.25366 7.04331   7-0.03908-0.03916-0.01247 0.01248-0.98850 0.97370
   1   0   0 5.57507 4.55361   8 0.03905 0.03905 0.04072-0.04070 0.98777-0.97299
   2   0   0 7272.85 152.097   9 0.07815 0.07815-0.34036 0.34032 0.93479-0.90521
  -2   0   0 7583.99 146.222   4-0.07814-0.07812-0.31786 0.31771-0.94272 0.91322
  -2   0   0 7519.85 146.856   6-0.07818-0.07816-0.31641 0.31640-0.94321 0.91364
   2   0   0 7073.98 208.849   8 0.07810 0.07809 0.02577-0.02574 0.99339-0.96384
  -2   0   0 7246.13 220.620   7-0.07819-0.07828-0.00527 0.00529-0.99371 0.96409
   3   0   0 21.0435 23.5799   8 0.11714 0.11713 0.01072-0.01068 0.99728-0.95295
  -3   0   0 10.9281 12.0181   6-0.11726-0.11722-0.22222 0.22223-0.97269 0.92833
   3   0   0 6.45697 13.0201   9 0.11722 0.11722-0.25171 0.25164 0.96543-0.92106
  -3   0   0 -8.7059 10.5335   4-0.11723-0.11719-0.22371 0.22350-0.97235 0.92806
  -3   0   0 -4.4951 17.7854   7-0.11730-0.11741 0.00196-0.00193-0.99735 0.95292
  -4   0   0 4528.35 253.197   7-0.15639-0.15655 0.00922-0.00919-0.99940 0.94015
  -4   0   0 4646.53 160.387   6-0.15632-0.15626-0.12223 0.12229-0.99202 0.93288
  -4   0   0 4671.17 160.379   4-0.15635-0.15626-0.12367 0.12343-0.99185 0.93274
   4   0   0 4381.37 240.869   8 0.15619 0.15617-0.00442 0.00448 0.99943-0.94032
   5   0   0 31.5776 15.1162   1 0.19532 0.19539 0.02787-0.02811 0.99960-0.92564
  -5   0   0 10.1781 44.5127   7-0.19548-0.19569 0.01651-0.01648-0.99984 0.92577
  -5   0   0 40.8488 23.1707   6-0.19539-0.19528-0.01568 0.01581-0.99986 0.92595
   5   0   0 17.8933 44.5381   8 0.19524 0.19521-0.01966 0.01974 0.99978-0.92590
   6   0   0 7352.10 398.204   8 0.23430 0.23425-0.03501 0.03509 0.99831-0.90965
  -6   0   0 7647.69 420.939   7-0.23466-0.23475 0.02385-0.02382-0.99863 0.90977
  -6   0   0 7794.28 247.896   6-0.23443-0.23428 0.09870-0.09847-0.99397 0.90532
   7   0   0 115.279 57.1766   2 0.27330 0.27303 0.05168-0.05201 0.99492-0.89159
  -7   0   0 63.3447 82.5690   7-0.27381-0.27383 0.03122-0.03120-0.99572 0.89207
   7   0   0 34.8496 65.4905   8 0.27336 0.27328-0.05046 0.05055 0.99495-0.89151
  -8   0   0 678.990 183.866   7-0.31297-0.31292 0.03863-0.03862-0.99105 0.87261
   8   0   0 997.293 192.970   8 0.31242 0.31232-0.06603 0.06613 0.98963-0.87142
  -8   0   0 806.614 159.843   3-0.31286-0.31295-0.08283 0.08285-0.98831 0.86987
   8   0   0 756.071 131.684   2 0.31239 0.31204 0.10012-0.10043 0.98673-0.86867
  -9   0   0 81.0323 94.0642   3-0.35195-0.35206-0.11766 0.11770-0.97845 0.84520
  -9   0   0 36.2731 112.270   7-0.35178-0.35228 0.04601-0.04600-0.98462 0.85119
   9   0   0 -73.457 91.6628   8 0.35147 0.35135-0.08170 0.08181 0.98227-0.84928
 -10   0   0 338.214 170.556   7-0.39109-0.39127 0.05353-0.05353-0.97619 0.82805
  10   0   0 265.252 168.783   8 0.39053 0.39039-0.09750 0.09762 0.97275-0.82500
  11   0   0 2.28805 120.899   8 0.42959 0.42942-0.11343 0.11355 0.96096-0.79843
  11   0   0 -100.92 112.507   5 0.42953 0.42960 0.14044-0.14048 0.95726-0.79468
   0  -1   0 5.67553 2.76947   1 0.20682-0.20678-0.04169-0.04169 0.99895-0.99898
   0   1   0 2.97443 5.68629   4-0.21591 0.21591 0.04172 0.04171-0.99874 0.99877
   0  -1   0 3.63527 4.53529   9 0.20135-0.20133-0.04168-0.04168 0.99904-0.99906
   0   1   0 7.37515 5.90791   6-0.21534 0.21534 0.04170 0.04170-0.99876 0.99878
  -1  -1   0 425.938 31.6521   6-0.25406 0.17591 0.15981-0.24311-0.98469 0.96990
   1   1   0 414.691 31.4083   6-0.31554 0.39371 0.37396-0.29069-0.91598 0.93075
   1  -1   0 409.244 41.4815   1 0.18354-0.10537 0.09361-0.17708 0.99562-0.98085
  -1  -1   0 380.272 40.8328   9 0.13643-0.21455-0.20618 0.12284 0.97720-0.99202
   1  -1   0 407.605 31.2291   9 0.27931-0.20114 0.18351-0.26688 0.97837-0.96361
  -1  -1   0 402.820 30.4054   4-0.25476 0.17648 0.16036-0.24387-0.98455 0.96971
   1  -1   0 388.132 40.7657   8 0.10143-0.02335 0.01679-0.10012 0.99593-0.98118
  -1   1   0 412.480 43.8866   4-0.17171 0.09354-0.08265 0.16597-0.99645 0.98170
   1   1   0 459.522 35.2958   7 0.12955-0.05130-0.04314 0.12655-0.94824 0.96307
   1  -1   0 407.416 39.6667   7 0.05256 0.02569-0.02921-0.05421-0.97022 0.98501
  -1   1   0 391.070 38.6365   7-0.08731 0.00908-0.00359 0.08702-0.99470 0.97991
  -1   1   0 423.091 42.4985   1 0.15715-0.23531 0.22559-0.14212 0.97390-0.98867
  -1   1   0 415.396 44.4566   6-0.17131 0.09312-0.08219 0.16562-0.99649 0.98172
  -1  -1   0 397.340 31.8197   7-0.07791-0.00030-0.00532-0.07808-0.99368 0.97885
  -1   1   0 406.120 32.9208   9 0.34106-0.41923 0.39804-0.31468 0.90085-0.91561
   1   1   0 432.953 36.2776   1 0.21963-0.14156-0.12754 0.21088 0.99126-0.97646
  -1   1   0 395.343 41.9347   8-0.01724-0.06084 0.06208 0.02124 0.97665-0.99140
  -2  -1   0 837.602 70.1989   7-0.09975-0.05669-0.00129-0.08211-0.99591 0.96627
   2  -1   0 838.720 72.7689   4-0.07417 0.23050-0.32712 0.24395-0.93918 0.96866
  -2  -1   0 823.369 70.3410   9 0.07955-0.23581-0.33729 0.25397 0.93603-0.96563
   2  -1   0 910.910 83.2227   8 0.10794 0.04823 0.01428-0.09759 0.99652-0.96700
   2  -1   0 876.321 70.6448   1 0.17481-0.01849 0.13937-0.22289 0.99020-0.96063
   2   1   0 880.493 50.8815   1 0.23560-0.07943-0.25350 0.33683 0.96577-0.93618
  -2   1   0 855.170 73.7152   6-0.16019 0.00384-0.11199 0.19543-0.99334 0.96378
   2   1   0 886.109 65.7598   8 0.08880 0.06740 0.02166 0.06172 0.99463-0.96504
  -2   1   0 845.348 78.9967   7-0.10097-0.05550-0.00107 0.08451-0.99602 0.96643
  -3  -1   0 22258.9 423.496   9 0.02735-0.26177-0.44821 0.36490 0.88240-0.92679
   3  -1   0 20290.7 467.916   8 0.13352 0.10075 0.00439-0.08768 0.99840-0.95410
  -3  -1   0 20689.1 444.166   7-0.13391-0.10077 0.00504-0.08843-0.99841 0.95396
  -3   1   0 20292.3 470.489   7-0.13053-0.10418 0.00441 0.07904-0.99822 0.95381
   3   1   0 20421.4 406.393   8 0.12993 0.10436 0.00578 0.07761 0.99818-0.95381
  -3   1   0 20867.6 396.755   6-0.16622-0.06828-0.09590 0.17936-0.99516 0.95082
   3  -1   0 22481.4 438.491   4-0.02418 0.25863-0.43906 0.35602-0.88662 0.93078
  -4   1   0 -5.4883 34.9572   7-0.16463-0.14831 0.01075 0.07271-0.99963 0.94040
   4   1   0 26.1357 29.0784   8 0.16994 0.14245-0.00977 0.09317 0.99976-0.94061
  -4  -1   0 54.9355 40.6368   7-0.17066-0.14223 0.01188-0.09528-0.99975 0.94048
  -4  -1   0 27.1575 16.5582   9-0.02198-0.29059-0.54525 0.46197 0.81850-0.87768
   4  -1   0 -5.5268 38.8909   8 0.16518 0.14717-0.00792-0.07536 0.99967-0.94060
   4  -1   0 20.3856 29.9567   4 0.02367 0.28887-0.53847 0.45555-0.82280 0.88160
   4  -1   0 15.8724 10.6247   9 0.07457 0.23805-0.34823 0.26478 0.93156-0.87242
  -4   1   0 25.7708 22.5779   6-0.18177-0.13084-0.05362 0.13709-0.99855 0.93943
  -5   1   0 790.717 91.2812   6-0.20302-0.18769 0.00602 0.07748-0.99988 0.92599
   5   1   0 719.782 110.277   8 0.20955 0.18092-0.02527 0.10868 0.99946-0.92553
   5  -1   0 758.322 125.574   8 0.19956 0.19087-0.02135-0.06191 0.99971-0.92587
  -5   1   0 772.730 122.963   7-0.20063-0.19054 0.01747 0.06600-0.99977 0.92573
  -5  -1   0 833.863 121.235   7-0.20851-0.18262 0.01895-0.10236-0.99962 0.92557
   6  -1   0 392.145 92.5066   8 0.23539 0.23314-0.03544-0.04781 0.99824-0.90962
   6   1   0 248.478 75.2431   8 0.24899 0.21958-0.04081 0.12423 0.99727-0.90856
  -6   1   0 437.739 76.2898   6-0.22786-0.24092 0.07882 0.00473-0.99606 0.90741
  -6   1   0 566.106 121.034   7-0.23771-0.23170 0.02443 0.05905-0.99846 0.90962
  -6  -1   0 382.422 97.1938   7-0.24681-0.22257 0.02614-0.10956-0.99791 0.90908
  -7  -1   0 -7.9355 56.8390   7-0.28530-0.26230 0.03339-0.11682-0.99453 0.89089
   7   1   0 -96.834 70.2865   8 0.28833 0.25833-0.05641 0.13984 0.99315-0.88967
  -7   1   0 -13.044 31.0028   6-0.25503-0.29179 0.16292-0.07930-0.98411 0.88071
   7  -1   0 27.7655 43.7480   2 0.29092 0.25555 0.07337-0.15699 0.99176-0.88843
   7   1   0 78.2236 60.6269   2 0.27197 0.27429 0.05005 0.03290 0.99512-0.89180
   7  -1   0 -83.507 58.1996   8 0.27208 0.27455-0.04995-0.03329 0.99509-0.89169
  -7   1   0 76.5551 79.3826   7-0.27537-0.27230 0.03151 0.05196-0.99556 0.89194
   8   1   0 781.129 170.208   8 0.32761 0.29715-0.07211 0.15555 0.98701-0.86876
   8  -1   0 908.586 184.113   8 0.30931 0.31540-0.06478-0.01845 0.99013-0.87196
  -8  -1   0 811.274 161.353   3-0.30796-0.31788-0.07850-0.00488-0.98932 0.87083
  -8  -1   0 855.005 203.285   7-0.32388-0.30195 0.04071-0.12415-0.98942 0.87093
  -8   1   0 725.000 137.583   3-0.33167-0.29410-0.09951 0.18293-0.98397 0.86558
   8   1   0 676.622 133.529   2 0.30565 0.31867 0.09168-0.00873 0.98846-0.87040
  -8   1   0 875.262 204.348   7-0.31336-0.31255 0.03871 0.04478-0.99099 0.87257
  -9  -1   0 159.951 118.343   3-0.34382-0.36023-0.11036 0.02701-0.98077 0.84747
  -9   1   0 95.5215 140.476   7-0.35127-0.35281 0.04591 0.03756-0.98471 0.85130
  -9  -1   0 -49.709 105.832   7-0.36256-0.34148 0.04807-0.13153-0.98250 0.84915
   9   1   0 -30.409 65.0837   2 0.34030 0.36211 0.13544-0.05247 0.97813-0.84534
   9   1   0 107.617 79.8415   8 0.36686 0.33600-0.08791 0.17135 0.97878-0.84575
   9  -1   0 -5.0413 101.273   8 0.34692 0.35588-0.07987-0.00335 0.98323-0.85030
 -10  -1   0 2490.24 428.001   7-0.40143-0.38085 0.05552-0.13899-0.97364 0.82548
 -10   1   0 2746.77 458.241   7-0.38985-0.39253 0.05330 0.03019-0.97649 0.82836
 -10  -1   0 2925.87 417.213   3-0.38022-0.40204-0.14324 0.05989-0.96921 0.82110
  10  -1   0 2535.55 369.370   8 0.38481 0.39609-0.09518 0.01196 0.97429-0.82658
  10   1   0 2272.13 328.968   8 0.40608 0.37487-0.10382 0.18727 0.96834-0.82053
  11  -1   0 261.217 185.395   8 0.42288 0.43611-0.11069 0.02747 0.96315-0.80068
 -11  -1   0 72.0939 202.902   7-0.44022-0.42028 0.06299-0.14647-0.96279 0.79972
 -11   1   0 198.112 265.073   7-0.42826-0.43234 0.06068 0.02280-0.96636 0.80333
  11   1   0 181.050 142.223   8 0.44529 0.41376-0.11987 0.20331 0.95554-0.79296
   0   2   0 4772.50 154.588   2 0.29898-0.29904 0.08338 0.08336 0.99003-0.98999
   0  -2   0 4901.35 180.960   9 0.18555-0.18550-0.08336-0.08335 0.99649-0.99654
   0  -2   0 4859.86 145.816   3-0.31349 0.31354-0.08338-0.08339-0.98818 0.98813
   0   2   0 4976.40 109.787   8-0.07373 0.07376 0.08334 0.08334 0.96191-0.96184
   0  -2   0 4890.61 109.987   8 0.35559-0.35560-0.08336-0.08335 0.98137-0.98141
   0   2   0 4675.85 180.471   6-0.22937 0.22937 0.08338 0.08341-0.99562 0.99566
   1  -2   0 184.544 32.0249   9 0.21669-0.13849-0.00013-0.16660 0.99961-0.98487
   1   2   0 173.914 30.7614   6-0.27576 0.35396 0.23086-0.06417-0.96836 0.98317
  -1   2   0 180.791 39.7302   6-0.20319 0.12500 0.00652 0.16032-0.99988 0.98513
  -1   2   0 189.440 29.1954   7-0.18554 0.10735 0.01465 0.15216-0.99988 0.98512
  -1  -2   0 208.958 40.9985   9 0.15043-0.22851-0.17216 0.00546 0.98434-0.99918
  -1   2   0 176.135 25.3548   2 0.48244-0.56064 0.32772-0.16081 0.88899-0.90373
   1  -2   0 208.043 33.9912   8 0.18419-0.10612-0.01534-0.15134 0.99986-0.98514
   1   2   0 167.455 33.7778   1 0.19861-0.12058 0.00860 0.15813 0.99992-0.98509
  -1  -2   0 193.021 34.2582   4-0.19837 0.12010-0.00882-0.15810-0.99992 0.98506
   1  -2   0 247.586 34.9559   7 0.12644-0.04816-0.04258-0.12427-0.94924 0.96401
   2   2   0 2483.28 114.668   6-0.34010 0.49647 0.47522-0.30868-0.86107 0.89056
  -2  -2   0 2582.36 111.105   6-0.21711 0.06085 0.04690-0.21352-0.99848 0.96887
   2  -2   0 2235.75 103.668   9 0.24151-0.08517 0.06975-0.23649 0.99612-0.96660
  -2  -2   0 2331.21 109.886   7-0.18203 0.02564 0.01400-0.18078-0.99987 0.97022
   2   2   0 2342.04 120.823   1 0.20599-0.04985-0.03652 0.20321 0.99917-0.96957
  -2  -2   0 2404.59 107.546   4-0.21783 0.06130 0.04734-0.21431-0.99843 0.96876
  -2   2   0 2437.54 139.188   7-0.15708 0.00064 0.00934 0.15750-0.99942 0.96985
   2  -2   0 2374.53 151.488   4-0.10465 0.26102-0.25463 0.08803-0.96387 0.99336
   2  -2   0 2322.86 143.067   8 0.16051-0.00435-0.00610-0.16055 0.99955-0.97006
  -2   2   0 2367.14 152.013   6-0.19252 0.03615-0.02373 0.19059-0.99972 0.97018
  -2  -2   0 2307.34 147.012   9 0.11270-0.26894-0.26223 0.09554 0.96233-0.99196
   2   2   0 2315.72 89.7106   8 0.18293-0.02671-0.01485 0.18157 0.99986-0.97025
   3  -2   0 1662.08 138.831   4-0.06740 0.30193-0.34278 0.17632-0.93293 0.97713
  -3  -2   0 1483.90 113.882   7-0.18719-0.04743 0.01496-0.18176-0.99988 0.95541
   3   2   0 1520.81 100.620   8 0.18863 0.04569-0.01707 0.18381 0.99985-0.95545
   3   2   0 1469.50 93.6826   1 0.20703 0.02725-0.04302 0.20968 0.99889-0.95450
   3  -2   0 1527.40 78.0337   9 0.25570-0.02124 0.11132-0.27808 0.99139-0.94708
  -3   2   0 1679.30 139.296   6-0.19285-0.04167-0.02281 0.18968-0.99974 0.95542
  -3  -2   0 1540.14 77.8425   4-0.22450-0.01025 0.06711-0.23410-0.99706 0.95257
  -3  -2   0 1404.77 126.840   9 0.07325-0.30763-0.35112 0.18446 0.93034-0.97476
   3  -2   0 1472.23 133.703   8 0.16957 0.06468-0.00963-0.15701 0.99975-0.95549
  -3  -2   0 1529.16 77.6455   6-0.22370-0.01067 0.06637-0.23292-0.99714 0.95277
  -3   2   0 1624.98 137.758   7-0.16839-0.06629 0.01145 0.15542-0.99971 0.95532
   5  -2   0 2127.18 205.688   8 0.21850 0.17192-0.02879-0.13782 0.99913-0.92532
  -5   2   0 2062.22 202.874   7-0.22194-0.16922 0.02147 0.14546-0.99920 0.92521
  -5  -2   0 2256.93 193.100   7-0.24199-0.14908 0.02523-0.19206-0.99821 0.92418
   5   2   0 2223.99 174.647   8 0.24815 0.14236-0.04047 0.20723 0.99734-0.92337
  -5  -2   0 1735.65 170.160   9-0.00891-0.38178-0.52027 0.35363 0.83667-0.91067
  -5   2   0 2242.57 178.094   6-0.21440-0.17635 0.03895 0.12794-0.99890 0.92502
   5  -2   0 2224.37 197.582   4 0.01148 0.37930-0.51384 0.34768-0.84031 0.91383
  -6   2   0 861.504 147.122   7-0.25454-0.21487 0.02759 0.13935-0.99736 0.90858
  -6   2   0 983.678 131.627   6-0.23184-0.23699 0.09083 0.07608-0.99485 0.90621
   6  -2   0 730.480 82.6874   2 0.28957 0.17897 0.07170-0.23861 0.99204-0.90346
  -6  -2   0 333.348 79.9562   9-0.05108-0.41777-0.59895 0.43233 0.77484-0.86364
   6  -2   0 988.494 163.044   8 0.24935 0.21916-0.04095-0.12564 0.99724-0.90866
   6   2   0 848.193 130.905   8 0.28336 0.18524-0.05443 0.22120 0.99378-0.90503
  -6  -2   0 842.424 139.082   7-0.27555-0.19374 0.03155-0.19840-0.99555 0.90668
  -7   2   0 2923.05 236.202   6-0.25212-0.29477 0.15366 0.01330-0.98583 0.88243
  -7  -2   0 2151.43 250.682   7-0.31092-0.23661 0.03824-0.20512-0.99134 0.88769
   7  -2   0 2641.13 276.387   8 0.28228 0.26434-0.05400-0.11258 0.99391-0.89056
  -7   2   0 2633.47 201.247   3-0.32863-0.21889-0.09681 0.26359-0.98472 0.88118
   7   2   0 2646.44 248.400   2 0.28026 0.26594 0.06021 0.10601 0.99377-0.89046
  -7   2   0 2704.96 291.953   7-0.28887-0.25880 0.03407 0.13288-0.99413 0.89054
   7   2   0 2501.16 237.349   8 0.31986 0.22685-0.06901 0.23576 0.98839-0.88487
  -8  -2   0 374.275 132.356   7-0.34693-0.27878 0.04509-0.21195-0.98552 0.86691
   8   2   0 428.011 124.072   2 0.30895 0.31529 0.09580 0.07041 0.98763-0.86958
   8   2   0 252.379 102.075   8 0.35710 0.26769-0.08397 0.25074 0.98103-0.86273
   8  -2   0 183.565 90.1751   8 0.31656 0.30813-0.06769-0.09888 0.98895-0.87083
  -8   2   0 486.872 165.483   7-0.32430-0.30160 0.04079 0.12617-0.98936 0.87095
  -8  -2   0 378.901 134.950   3-0.31298-0.31287-0.08293-0.08385-0.98828 0.86975
   9   2   0 1473.12 222.029   8 0.39482 0.30807-0.09924 0.26602 0.97157-0.83850
  -9  -2   0 1440.76 292.508   7-0.38402-0.31993 0.05218-0.21908-0.97785 0.84447
  -9  -2   0 1546.69 265.408   3-0.34525-0.35881-0.11165-0.05513-0.98037 0.84702
  -9   2   0 1117.80 265.082   7-0.36040-0.34373 0.04766 0.11930-0.98294 0.84963
   9   2   0 1382.36 223.584   2 0.33930 0.36301 0.13418 0.03206 0.97848-0.84570
   9  -2   0 1317.80 249.434   8 0.35180 0.35099-0.08184-0.08472 0.98220-0.84931
 -10  -2   0 25.8128 115.599   7-0.42143-0.36074 0.05936-0.22629-0.96830 0.82008
 -10   2   0 52.7883 142.288   7-0.39720-0.38520 0.05471 0.11226-0.97470 0.82658
 -10  -2   0 -129.39 121.753   3-0.37860-0.40369-0.14176-0.02500-0.96979 0.82163
  10  -2   0 -260.28 192.755   8 0.38773 0.39317-0.09636-0.07018 0.97351-0.82585
  10   2   0 -152.09 112.557   2 0.37090 0.40949 0.17498-0.00872 0.96579-0.81830
  10   2   0 115.502 97.5421   8 0.43287 0.34813-0.11477 0.28155 0.95986-0.81201
  11   2   0 373.015 152.562   8 0.47114 0.38795-0.13052 0.29731 0.94572-0.78310
  11  -2   0 710.303 243.729   8 0.42416 0.43482-0.11121-0.05534 0.96274-0.80031
 -11  -2   0 514.968 304.827   7-0.45913-0.40127 0.06664-0.23358-0.95673 0.79363
 -11   2   0 917.615 302.269   7-0.43427-0.42634 0.06184 0.10513-0.96459 0.80157
 -11  -2   0 1239.31 392.250   3-0.41273-0.44775-0.17310 0.00636-0.95624 0.79325
   0   3   0 -13.360 16.8760   6-0.24301 0.24302 0.12508 0.12512-0.99050 0.99056
   0  -3   0 0.02674 10.6112   3-0.36017 0.36025-0.12506-0.12508-0.97595 0.97587
   0  -3   0 -4.3149 7.36566   8 0.45788-0.45788-0.12505-0.12504 0.95090-0.95094
   0  -3   0 -11.981 20.8182   4-0.15581 0.15576-0.12510-0.12516-0.99165 0.99157
   0  -3   0 3.57000 19.2507   9 0.16932-0.16923-0.12503-0.12503 0.99194-0.99201
   0   3   0 13.3494 15.4625   2 0.33215-0.33223 0.12507 0.12503 0.98089-0.98082
   1  -3   0 796.531 60.7187   3-0.55551 0.63382-0.31097 0.06091-0.86241 0.87710
  -1  -3   0 793.142 95.1747   9 0.14605-0.22411-0.18287-0.06719 0.98225-0.99711
   1  -3   0 834.039 88.5266   9 0.18732-0.10911-0.07873-0.17135 0.99687-0.98216
   1   3   0 777.263 85.9711   2 0.27341-0.19541 0.05181 0.19813 0.99490-0.98007
   1   3   0 834.404 89.3843   6-0.27330 0.35151 0.22261 0.02750-0.97057 0.98540
  -1  -3   0 790.669 86.2700   4-0.17126 0.09297-0.08386-0.16648-0.99635 0.98146
   1   3   0 809.611 91.2406   1 0.18622-0.10824 0.07908 0.17104 0.99689-0.98204
   1  -3   0 800.404 75.0106   8 0.27531-0.19723-0.05123-0.19880 0.99473-0.98002
  -1   3   0 841.074 72.5578   2 0.44649-0.52471 0.27678-0.02649 0.92008-0.93480
  -1   3   0 751.414 95.8451   6-0.22402 0.14582 0.06734 0.18291-0.99706 0.98234
  -1   3   0 848.854 65.8718   7-0.31460 0.23646 0.03894 0.21121-0.99081 0.97607
  -2  -3   0 1101.43 120.091   9 0.11878-0.27498-0.24807-0.00197 0.96646-0.99611
  -2  -3   0 1255.00 102.676   4-0.17928 0.02277-0.06204-0.18833-0.99804 0.96835
  -2   3   0 1250.39 104.672   7-0.23876 0.08238 0.02463 0.22561-0.99840 0.96885
   2  -3   0 1259.50 99.9242   9 0.19822-0.04187-0.05003-0.20007 0.99869-0.96919
   2   3   0 1251.16 113.039   1 0.19061-0.03451 0.05473 0.19535 0.99852-0.96888
   2  -3   0 1197.77 108.533   8 0.22687-0.07070-0.03208-0.21793 0.99873-0.96926
  -2  -3   0 1154.56 71.1001   7-0.35180 0.19550 0.04602-0.29610-0.98461 0.95496
   2   3   0 1089.53 95.4788   6-0.31461 0.47102 0.37035-0.12037-0.91765 0.94719
  -2   3   0 1318.45 133.544   6-0.21470 0.05833 0.03983 0.21044-0.99885 0.96934
   2  -3   0 1220.23 128.344   4-0.10967 0.26605-0.24235-0.00769-0.96738 0.99686
   3   3   0 6300.16 252.633   1 0.19031 0.04394 0.05644 0.19361 0.99842-0.95400
  -3   3   0 6284.63 311.351   6-0.21315-0.02139 0.03528 0.21499-0.99907 0.95477
   3   3   0 6559.67 186.109   8 0.32762-0.09326-0.07212 0.32222 0.98701-0.94259
   3  -3   0 6136.63 211.583   9 0.19873 0.03577-0.04868-0.20144 0.99875-0.95446
  -3  -3   0 6216.32 306.709   9 0.08836-0.32270-0.31770 0.06767 0.94363-0.98807
  -3   3   0 5883.02 275.886   7-0.22680-0.00782 0.02238 0.22791-0.99900 0.95465
   3  -3   0 5979.35 304.542   4-0.08114 0.31571-0.31083 0.06094-0.94533 0.98955
   3   3   0 7074.90 266.627   6-0.36021 0.59478 0.57232-0.32251-0.79142 0.83557
  -3  -3   0 5707.47 206.437   4-0.17644-0.05826-0.06979-0.18059-0.99750 0.95300
  -3  -3   0 5781.11 218.441   7-0.28673 0.05221 0.03366-0.28383-0.99437 0.94994
   3  -3   0 6355.07 296.977   8 0.21942 0.01482-0.02915-0.22083 0.99909-0.95485
  -4  -3   0 2142.78 161.495   7-0.28293-0.02981 0.03294-0.28314-0.99479 0.93555
  -4  -3   0 2216.26 116.815   4-0.15520-0.15762-0.12671-0.12365-0.99143 0.93215
   4  -3   0 2482.45 207.945   8 0.22967 0.08266-0.03318-0.21678 0.99858-0.93958
  -4   3   0 2165.54 185.788   7-0.23699-0.07588 0.02429 0.22603-0.99850 0.93933
   4   3   0 2233.94 141.394   8 0.30767 0.00478-0.06412 0.31423 0.99038-0.93117
   4  -3   0 2248.08 199.970   4-0.04990 0.36264-0.38251 0.13277-0.91550 0.97441
   4  -3   0 2205.40 113.442   9 0.18168 0.13095-0.09337-0.15677 0.99558-0.93651
   4   3   0 2264.68 145.585   1 0.18422 0.12819 0.08998 0.16004 0.99596-0.93675
  -4  -3   0 2314.55 200.326   9 0.05544-0.36793-0.38960 0.13959 0.91307-0.97230
  -4   3   0 2156.87 80.3598   3-0.34675 0.03390-0.11299 0.36310-0.97995 0.92084
  -4   3   0 2244.56 191.285   6-0.21766-0.09501 0.04852 0.20177-0.99838 0.93929
  -5  -3   0 680.472 118.426   9 0.02047-0.41113-0.46218 0.21218 0.87425-0.94828
   5  -3   0 719.990 54.5720   9 0.12291 0.26787-0.23835-0.01184 0.96915-0.89529
   5  -3   0 735.117 130.490   8 0.24911 0.14132-0.04085-0.20909 0.99726-0.92348
   5  -3   0 704.295 125.087   4-0.01646 0.40734-0.45561 0.20602-0.87721 0.95079
   5   3   0 658.050 114.695   2 0.25573 0.13438 0.03029 0.21931 0.99722-0.92338
  -5   3   0 530.583 106.682   6-0.22691-0.16389 0.07596 0.17432-0.99632 0.92246
  -5   3   0 614.066 59.0806   3-0.34919-0.04187-0.11518 0.36530-0.97925 0.90535
   5   3   0 683.031 79.7141   1 0.16977 0.22081 0.16478 0.08519 0.98623-0.91222
  -5  -3   0 697.426 110.287   7-0.29867-0.09230 0.03592-0.28615-0.99296 0.91892
   5   3   0 649.556 92.2536   8 0.31947 0.07109-0.06885 0.31895 0.98845-0.91446
  -5   3   0 654.539 119.856   7-0.25757-0.13355 0.02817 0.22220-0.99713 0.92317
  -5  -3   0 639.770 54.7146   4-0.09003-0.30076-0.28982 0.03949-0.95275 0.87876
  -6   3   0 222.687 78.0664   7-0.28377-0.18560 0.03310 0.21729-0.99470 0.90595
   6   3   0 358.670 92.3441   2 0.27327 0.19486 0.05164 0.19790 0.99492-0.90635
   6  -3   0 250.610 82.8490   8 0.27393 0.19458-0.05069-0.19924 0.99488-0.90634
   6  -3   0 276.609 93.3781   4 0.01883 0.45018-0.52874 0.27931-0.82986 0.91805
  -6  -3   0 296.079 86.7848   9-0.01616-0.45265-0.53418 0.28421 0.82670-0.91552
  -6   3   0 215.086 70.8453   6-0.23981-0.22908 0.11517 0.13512-0.99190 0.90327
   6   3   0 279.038 77.8130   8 0.34283 0.12582-0.07823 0.32833 0.98408-0.89530
  -6  -3   0 240.837 76.6005   7-0.32292-0.14627 0.04052-0.29077-0.98957 0.90067
  -6   3   0 287.607 55.5422   3-0.37519-0.09406-0.13866 0.38879-0.97099 0.88230
  -7  -3   0 195.692 67.0273   7-0.35176-0.19563 0.04601-0.29626-0.98462 0.88083
   7  -3   0 264.845 121.440   8 0.30217 0.24443-0.06193-0.18798 0.99122-0.88790
  -7   3   0 322.821 123.469   7-0.31334-0.23430 0.03870 0.21171-0.99099 0.88744
   7   3   0 304.365 96.9155   2 0.29467 0.25149 0.07801 0.17150 0.99098-0.88767
  -7   3   0 282.525 106.218   6-0.25553-0.29143 0.16451 0.08579-0.98380 0.88041
   7   3   0 294.072 100.705   8 0.37172 0.17502-0.08988 0.33999 0.97761-0.87405
  -7  -3   0 220.927 109.064   3-0.29874-0.24888-0.07039-0.17983-0.99109 0.88733
  -7  -3   0 122.949 67.1663   9-0.05423-0.49274-0.60460 0.35464 0.76984-0.87346
  -8   3   0 745.450 181.417   7-0.34480-0.28102 0.04468 0.20571-0.98591 0.86736
  -8   3   0 834.719 171.155   6-0.27342-0.35158 0.22302 0.02732-0.97046 0.85233
   8   3   0 705.589 137.380   8 0.40369 0.22116-0.10285 0.35296 0.96904-0.85070
  -8  -3   0 813.973 171.207   7-0.38365-0.24197 0.05211-0.30240-0.97794 0.85938
   8   3   0 397.235 127.607   2 0.31892 0.30528 0.10833 0.14118 0.98493-0.86689
   8  -3   0 778.502 183.664   8 0.33273 0.29197-0.07417-0.17574 0.98606-0.86798
  -8  -3   0 746.119 184.826   3-0.32532-0.30053-0.09387-0.15633-0.98552 0.86694
   9   3   0 -87.458 97.4630   2 0.34532 0.35692 0.14188 0.10762 0.97632-0.84356
  -9  -3   0 231.282 145.529   3-0.35395-0.35013-0.11945-0.13073-0.97785 0.84446
  -9  -3   0 44.5196 77.0294   7-0.41714-0.28670 0.05853-0.30886-0.96949 0.83610
   9   3   0 286.009 122.364   8 0.43754 0.26541-0.11669 0.36680 0.95826-0.82515
  -9   3   0 97.3201 82.0217   7-0.37819-0.32590 0.05106 0.19936-0.97917 0.84586
   9  -3   0 246.047 141.837   8 0.36491 0.33788-0.08713-0.16276 0.97924-0.84639
  10  -3   0 145.871 118.113   8 0.39829 0.38259-0.10065-0.14923 0.97060-0.82298
  10   3   0 291.453 130.445   2 0.37338 0.40692 0.17822 0.07131 0.96465-0.81718
 -10   3   0 -39.168 115.661   7-0.41260-0.36976 0.05766 0.19279-0.97073 0.82260
 -10  -3   0 213.408 134.745   7-0.45182-0.33024 0.06522-0.31558-0.95913 0.81087
 -10  -3   0 402.785 182.792   3-0.38410-0.39819-0.14677-0.10339-0.96780 0.81959
  11   3   0 -16.289 126.025   5 0.42571 0.43344 0.13812 0.11192 0.95869-0.79597
 -11  -3   0 66.7421 168.042   3-0.41544-0.44507-0.17560-0.07455-0.95504 0.79200
 -11  -3   0 -77.764 142.046   7-0.48734-0.37293 0.07212-0.32249-0.94672 0.78357
   0   4   0 2813.02 198.828   1 0.16936-0.16954 0.16679 0.16677 0.98588-0.98580
   0  -4   0 2571.29 184.962   9 0.15264-0.15252-0.16672-0.16670 0.98535-0.98545
   0  -4   0 2898.55 198.828   4-0.13979 0.13971-0.16679-0.16689-0.98490 0.98478
   0   4   0 2865.59 195.385   6-0.25623 0.25624 0.16676 0.16685-0.98336 0.98343
   0  -4   0 3034.85 120.152   8 0.55781-0.55780-0.16674-0.16671 0.90389-0.90395
   0   4   0 2940.67 133.225   5 0.47213-0.47221 0.16668 0.16671 0.93936-0.93927
   0  -4   0 2644.10 155.084   3-0.40586 0.40598-0.16674-0.16679-0.95920 0.95909
   0   4   0 2758.42 168.183   2 0.36460-0.36468 0.16678 0.16671 0.96859-0.96851
   1  -4   0 47.3015 55.5125   9 0.16443-0.08618-0.13736-0.19608 0.99020-0.97551
  -1  -4   0 -23.125 46.3086   4-0.14979 0.07147-0.14090-0.19284-0.98933 0.97440
   1  -4   0 114.005 44.6303   3-0.54932 0.62768-0.30471-0.02873-0.86801 0.88266
  -1   4   0 94.8289 38.5766   7-0.46278 0.38470 0.06734 0.26609-0.95550 0.94074
   1   4   0 -0.3836 40.1454   2 0.31412-0.23612 0.10229 0.23103 0.98627-0.97143
   1  -4   0 19.8599 36.5350   8 0.37001-0.29192-0.08918-0.24421 0.97803-0.96333
   1   4   0 63.6576 42.4131   6-0.27882 0.35704 0.24119 0.09233-0.96547 0.98031
  -1  -4   0 33.0042 46.2056   9 0.13581-0.21383-0.20768-0.12573 0.97686-0.99174
  -1   4   0 59.6863 64.3172   6-0.24119 0.16300 0.11945 0.21421-0.99131 0.97660
  -1  -4   0 41.2154 55.0265   3-0.33045 0.25232-0.09843-0.23515-0.98427 0.96936
   1   4   0 27.2426 55.1626   1 0.17571-0.09777 0.13474 0.19878 0.99085-0.97598
  -1   4   0 32.9870 33.2038   2 0.44978-0.52799 0.28135 0.05234 0.91752-0.93223
  -2  -4   0 2843.03 100.217   7-0.66028 0.50409 0.10630-0.43959-0.85497 0.82530
   2  -4   0 2633.70 170.879   8 0.30192-0.14576-0.06183-0.27153 0.99126-0.96180
  -2  -4   0 2415.38 174.025   4-0.15332-0.00322-0.13167-0.20209-0.99072 0.96099
  -2  -4   0 2558.81 193.776   3-0.29350 0.13712-0.06578-0.26783-0.99202 0.96230
  -2   4   0 2698.80 215.650   6-0.23298 0.07660 0.09428 0.23939-0.99447 0.96498
  -2  -4   0 2439.07 203.295   9 0.11489-0.27105-0.25716-0.07624 0.96384-0.99352
   2  -4   0 2570.88 171.316   9 0.16980-0.01342-0.12380-0.20966 0.99210-0.96263
  -2   4   0 2369.20 148.954   7-0.34009 0.18379 0.04379 0.28978-0.98675 0.95717
   2   4   0 2634.13 176.906   6-0.30872 0.46516 0.34794-0.01454-0.92757 0.95714
   2   4   0 2473.60 187.526   1 0.17863-0.02257 0.11962 0.21387 0.99281-0.96316
   3  -4   0 2354.80 188.899   8 0.27921-0.04496-0.05278-0.28055 0.99428-0.95006
   3   4   0 2674.42 179.380   6-0.34348 0.57811 0.49040-0.15716-0.85138 0.89559
  -3   4   0 2308.10 208.147   6-0.23062-0.00393 0.08715 0.24653-0.99524 0.95096
  -3  -4   0 2464.40 219.634   9 0.09057-0.32488-0.31275-0.02063 0.94547-0.98993
  -3  -4   0 2506.09 136.110   7-0.44527 0.21087 0.06396-0.39739-0.96122 0.91675
   3  -4   0 2323.36 214.384   4-0.08271 0.31729-0.30714-0.02621-0.94668 0.99088
   3  -4   0 2508.27 162.660   9 0.16651 0.06802-0.13212-0.20135 0.99096-0.94670
  -3   4   0 2462.88 180.865   7-0.30241 0.06787 0.03663 0.29704-0.99248 0.94818
   3   4   0 2691.49 194.036   1 0.17778 0.05643 0.12408 0.20937 0.99226-0.94782
   3   4   0 2986.86 104.395   8 0.64496-0.41055-0.20409 0.53764 0.84519-0.80076
   3   4   0 2530.77 211.709   2 0.27598-0.04193 0.05497 0.27810 0.99449-0.95014
  -3  -4   0 2284.15 159.521   4-0.14814-0.08659-0.14522-0.18854-0.98865 0.94411
   4  -4   0 801.984 88.8480   9 0.15033 0.16233-0.17240-0.16111 0.98430-0.92525
  -4  -4   0 664.930 92.1568   7-0.39143 0.07881 0.05360-0.38711-0.97611 0.91685
  -4  -4   0 681.725 83.7103   4-0.13008-0.18277-0.19155-0.14218-0.97992 0.92060
   4  -4   0 664.881 127.146   4-0.05703 0.36980-0.36646 0.03326-0.92281 0.98173
  -4  -4   0 453.966 102.801   9 0.06338-0.37584-0.37256 0.03920 0.92099-0.98024
   4   4   0 573.509 115.605   2 0.27567 0.03641 0.05458 0.27840 0.99454-0.93545
  -4   4   0 642.578 112.806   6-0.23316-0.07954 0.09484 0.23883-0.99441 0.93534
   4  -4   0 546.497 99.4805   8 0.27817 0.03416-0.05237-0.28094 0.99440-0.93542
   4  -4   0 639.090 44.4140   5 0.59625-0.28386 0.24571-0.57901 0.86332-0.80436
   4   4   0 700.192 72.1476   8 0.47543-0.16292-0.13229 0.46580 0.94398-0.88475
   4   4   0 672.163 97.3348   1 0.17243 0.13993 0.15146 0.18196 0.98839-0.92916
  -4   4   0 649.113 108.153   7-0.29645-0.01634 0.03550 0.29823-0.99323 0.93412
   5  -4   0 5591.96 374.707   4-0.02881 0.41976-0.42906 0.09602-0.89210 0.96569
   5  -4   0 6597.19 214.533   5 0.48856-0.09808 0.17691-0.51024 0.93145-0.85770
  -5  -4   0 6240.62 241.444   4-0.08958-0.30129-0.29089-0.04279-0.95239 0.87832
   5   4   0 5954.34 371.432   2 0.28304 0.10706 0.06364 0.26927 0.99328-0.91944
   5  -4   0 5930.95 366.987   8 0.28911 0.10131-0.05672-0.27657 0.99304-0.91930
   5  -4   0 6566.03 232.926   9 0.11142 0.27939-0.26521-0.06834 0.96143-0.88760
  -5  -4   0 6282.41 312.453   7-0.38195-0.00889 0.05178-0.38535-0.97833 0.90424
  -5   4   0 5812.11 351.091   7-0.30606-0.08499 0.03732 0.29647-0.99200 0.91809
   5   4   0 6734.33 274.819   8 0.43721-0.04659-0.11655 0.45003 0.95838-0.88436
   5   4   0 7018.83 299.722   1 0.16119 0.22935 0.20656 0.12682 0.97819-0.90416
  -5  -4   0 5943.27 380.330   9 0.03373-0.42435-0.43509 0.10173 0.88974-0.96379
  -5   4   0 5688.00 357.965   6-0.23973-0.15110 0.11493 0.21874-0.99193 0.91808
   6  -4   0 -90.408 93.3793   8 0.30733 0.16118-0.06399-0.26928 0.99044-0.90192
  -6  -4   0 -3.5683 57.5091   3-0.30145-0.16793-0.07277-0.26087-0.99059 0.90160
   6   4   0 77.9556 62.9469   8 0.43543 0.03328-0.11582 0.44929 0.95899-0.87018
  -6   4   0 -74.289 60.2055   6-0.24958-0.21936 0.14562 0.18805-0.98724 0.89862
   6   4   0 -27.825 49.9584   2 0.29601 0.17210 0.07967 0.25317 0.99069-0.90212
   6  -4   0 59.7041 70.8457   4 0.00163 0.46748-0.49361 0.16075-0.85382 0.94206
  -6  -4   0 -1.4994 43.0110   7-0.39128-0.07778 0.05357-0.38719-0.97614 0.88726
  -6  -4   0 43.3725 51.5808   9 0.00198-0.47075-0.49905 0.16572 0.85112-0.93996
  -6   4   0 47.7961 74.2114   7-0.32434-0.14498 0.04079 0.29304-0.98935 0.90064
   7  -4   0 3278.58 327.529   8 0.33033 0.21627-0.07321-0.26006 0.98651-0.88324
  -7   4   0 2931.93 304.573   7-0.34760-0.19994 0.04521 0.28860-0.98540 0.88170
  -7  -4   0 3488.79 299.746   7-0.41017-0.13710 0.05719-0.39086-0.97137 0.86765
  -7   4   0 3425.57 307.086   6-0.26208-0.28493 0.18564 0.14804-0.97946 0.87608
   7   4   0 3130.98 309.698   2 0.31316 0.23297 0.10109 0.23172 0.98653-0.88323
  -7  -4   0 3379.42 320.977   9-0.03165-0.51527-0.56338 0.23006 0.80449-0.90813
   7  -4   0 3251.89 333.887   4 0.03402 0.51321-0.55898 0.22627-0.80727 0.91010
  -7  -4   0 3657.13 351.204   3-0.32066-0.22695-0.08974-0.24390-0.98660 0.88279
  -8   4   0 -93.144 94.1930   7-0.37481-0.25099 0.05041 0.28346-0.97992 0.86145
  -8  -4   0 53.9932 69.4483   7-0.43467-0.19082 0.06191-0.39560-0.96447 0.84588
  -8  -4   0 35.2335 121.182   3-0.34320-0.28265-0.10981-0.22381-0.98094 0.86231
   8   4   0 17.8997 60.0133   2 0.33351 0.29065 0.12679 0.20599 0.98044-0.86242
  -8   4   0 41.8859 70.0420   6-0.27672-0.34835 0.23410 0.09960-0.96747 0.84934
   8  -4   0 136.887 95.1570   8 0.35662 0.26807-0.08378-0.24947 0.98114-0.86310
  -9  -4   0 750.284 215.872   3-0.36824-0.33584-0.13235-0.20125-0.97335 0.83990
  -9  -4   0 458.478 129.147   7-0.46276-0.24093 0.06734-0.40106-0.95551 0.82207
   9   4   0 915.512 213.338   2 0.35634 0.34586 0.15607 0.17672 0.97205-0.83931
  -9   4   0 688.514 173.275   7-0.40441-0.29965 0.05608 0.27782-0.97288 0.83963
   9  -4   0 802.651 220.865   8 0.38527 0.31752-0.09536-0.23787 0.97417-0.84136
 -10  -4   0 103.823 98.3777   7-0.49325-0.28866 0.07327-0.40702-0.94446 0.79615
  10   4   0 283.240 134.075   2 0.38113 0.39912 0.18838 0.14441 0.96094-0.81350
  10  -4   0 -22.569 103.628   8 0.41566 0.36522-0.10774-0.22549 0.96544-0.81787
 -10   4   0 1.14493 151.393   7-0.43563-0.34667 0.06210 0.27182-0.96418 0.81603
  11   4   0 417.570 201.941   2 0.40746 0.45084 0.22341 0.10940 0.94663-0.78450
   0   5   0 -9.5153 32.2546   1 0.16078-0.16100 0.20849 0.20846 0.97777-0.97766
   0   5   0 -4.2209 26.5955   2 0.39631-0.39639 0.20849 0.20838 0.95302-0.95293
   0   5   0 -6.0752 38.8958   6-0.26905 0.26907 0.20844 0.20857-0.97417 0.97425
   0  -5   0 6.23480 28.1955   9 0.13551-0.13537-0.20840-0.20838 0.97669-0.97681
   0  -5   0 3.31297 27.3549   3-0.45052 0.45068-0.20841-0.20849-0.93771 0.93756
   0  -5   0 2.12719 18.0966   8 0.65493-0.65488-0.20844-0.20840 0.83717-0.83725
   0   5   0 -12.444 19.2825   5 0.53841-0.53853 0.20834 0.20838 0.90369-0.90356
  -1   5   0 374.020 50.8452   7-0.62283 0.54482 0.09879 0.31789-0.87992 0.86509
   1   5   0 339.638 80.9132   1 0.16573-0.08783 0.18471 0.23220 0.98263-0.96774
  -1   5   0 362.214 94.3375   6-0.25653 0.17834 0.16772 0.24934-0.98317 0.96847
   1  -5   0 306.511 86.0943   4-0.11197 0.19008-0.23672-0.18030-0.96893 0.98355
   1   5   0 378.819 81.3340   6-0.28705 0.36529 0.26952 0.14742-0.95686 0.97170
   1  -5   0 372.935 56.7300   3-0.56632 0.64471-0.32197-0.09483-0.85220 0.86681
  -1   5   0 349.997 60.9937   2 0.46521-0.54342 0.30307 0.11402 0.90476-0.91947
  -1  -5   0 389.877 95.1828   9 0.12276-0.20076-0.23872-0.17804 0.96905-0.98396
   1  -5   0 392.164 87.5050   9 0.14361-0.06534-0.18882-0.22798 0.98102-0.96636
   1  -5   0 329.365 62.7994   8 0.46600-0.38789-0.12839-0.28836 0.94776-0.93308
  -1  -5   0 299.825 69.1066   3-0.38131 0.30322-0.14423-0.27274-0.96882 0.95387
  -2   5   0 867.562 140.254   6-0.24919 0.09280 0.14439 0.27269-0.98745 0.95796
   2   5   0 890.149 119.153   6-0.31032 0.46678 0.35396 0.06286-0.92498 0.95454
   2   5   0 864.381 131.243   1 0.16775-0.01172 0.17482 0.24207 0.98447-0.95480
   2   5   0 848.933 125.931   2 0.32490-0.16885 0.11587 0.30068 0.98318-0.95356
   2  -5   0 892.678 121.981   9 0.14600 0.01041-0.18300-0.23382 0.98222-0.95277
   2  -5   0 818.608 136.147   4-0.09668 0.25304-0.27389-0.14303-0.95798 0.98738
  -2  -5   0 751.534 124.185   9 0.10611-0.26225-0.27745-0.13929 0.95760-0.98730
  -2   5   0 757.618 92.8351   7-0.45707 0.30086 0.06624 0.35064-0.95742 0.92786
  -2  -5   0 828.091 120.872   3-0.34257 0.18623-0.10924-0.30776-0.98111 0.95136
   2  -5   0 810.696 107.420   8 0.38256-0.22639-0.09427-0.32245 0.97487-0.94544
  -2   5   0 998.690 109.622   2 0.56154-0.71794 0.44837-0.03108 0.78919-0.81870
  -3  -5   0 2535.77 200.376   4-0.12506-0.10969-0.20419-0.21294-0.97709 0.93251
  -3   5   0 2789.42 201.957   7-0.39220 0.15776 0.05375 0.36327-0.97592 0.93160
   3   5   0 2772.28 240.042   2 0.31152-0.07746 0.09904 0.31739 0.98696-0.94261
   3  -5   0 2764.71 198.329   9 0.14103 0.09352-0.19507-0.22177 0.97969-0.93545
   3  -5   0 2646.18 213.236   8 0.34622-0.11196-0.07959-0.33710 0.98338-0.93919
   3   5   0 3035.29 217.588   6-0.33754 0.57221 0.46399-0.04732-0.86799 0.91222
   3  -5   0 2715.79 249.623   4-0.07805 0.31262-0.31808-0.09872-0.94264 0.98680
   3   5   0 2957.04 232.818   1 0.16656 0.06760 0.18060 0.23625 0.98341-0.93895
  -3  -5   0 2926.30 263.309   9 0.08611-0.32040-0.32271-0.09403 0.94174-0.98623
  -3  -5   0 2673.77 236.731   3-0.32360 0.08900-0.09234-0.32469-0.98592 0.94135
  -3   5   0 2700.14 251.421   6-0.24647 0.01190 0.13586 0.28123-0.98885 0.94458
  -3  -5   0 3304.82 146.033   7-0.68535 0.45105 0.11137-0.52800-0.83633 0.79183
   4   5   0 -42.128 46.8818   2 0.30793 0.00417 0.09452 0.32180 0.98789-0.92879
   4   5   0 58.2832 43.4093   1 0.16167 0.15065 0.20426 0.21256 0.97868-0.91943
   4  -5   0 33.5110 43.8748   4-0.05647 0.36926-0.36773-0.04892-0.92225 0.98114
  -4  -5   0 26.3871 63.8645   9 0.06321-0.37564-0.37294-0.04379 0.92082-0.98010
  -4   5   0 84.0793 47.7530   6-0.24778-0.06495 0.13997 0.27712-0.98818 0.92913
  -4  -5   0 64.8899 62.5463   3-0.31789 0.00503-0.08728-0.32977-0.98722 0.92783
  -4  -5   0 54.4022 36.7014   4-0.10896-0.20392-0.24412-0.17297-0.96689 0.90752
   4  -5   0 117.476 48.7572   9 0.12591 0.18677-0.23127-0.18559 0.97103-0.91201
   4   5   0 21.4386 33.7366   6-0.36506 0.67789 0.59908-0.18257-0.76872 0.82754
  -4   5   0 79.2099 51.6763   7-0.36855 0.05585 0.04922 0.36788-0.98126 0.92211
  -4  -5   0 101.035 45.5177   7-0.54527 0.23278 0.08344-0.50020-0.92220 0.86289
   4  -5   0 89.8911 67.2642   8 0.33434-0.02201-0.07482-0.34184 0.98575-0.92680
  -5   5   0 748.470 134.955   7-0.36579-0.02516 0.04869 0.36848-0.98184 0.90787
   5   5   0 814.067 155.008   2 0.31162 0.07848 0.09916 0.31708 0.98694-0.91310
  -5   5   0 679.854 156.701   6-0.25254-0.13832 0.15500 0.26208-0.98558 0.91175
   5  -5   0 701.660 136.486   8 0.33673 0.05369-0.07577-0.34087 0.98529-0.91158
   5  -5   0 530.219 135.327   4-0.03229 0.42328-0.42148 0.00498-0.89614 0.96972
  -5  -5   0 840.427 116.457   7-0.49642 0.10573 0.07388-0.49074-0.94323 0.86910
  -5  -5   0 813.925 152.890   9 0.03773-0.42831-0.42682 0.01011 0.89422-0.96830
  -5  -5   0 990.260 173.987   3-0.32140-0.06972-0.09038-0.32667-0.98643 0.91222
  -6   5   0 -0.3190 61.9408   7-0.37493-0.09426 0.05044 0.36678-0.97989 0.89109
  -6   5   0 108.176 66.6192   6-0.26023-0.20876 0.17959 0.23747-0.98076 0.89215
  -6  -5   0 120.248 75.5222   7-0.48305 0.01414 0.07128-0.48820-0.94832 0.85936
  -6  -5   0 62.3763 63.6245   3-0.33152-0.13783-0.09938-0.31767-0.98401 0.89497
   6   5   0 -0.1207 66.4619   2 0.32088 0.14724 0.11079 0.30537 0.98437-0.89580
  -6  -5   0 79.5291 71.4133   9 0.00997-0.47870-0.48324 0.06654 0.86134-0.95021
   6  -5   0 5.61047 83.5829   8 0.34812 0.12039-0.08035-0.33626 0.98298-0.89451
   6  -5   0 48.5391 79.4012   4-0.00578 0.47495-0.47818 0.06185-0.86363 0.95186
   7  -5   0 78.5988 87.1660   4 0.02284 0.52449-0.53680 0.12064-0.82402 0.92687
  -7   5   0 358.923 116.725   7-0.39166-0.15580 0.05364 0.36365-0.97605 0.87248
  -7  -5   0 108.894 88.1438   9-0.01984-0.52704-0.54120 0.12451 0.82153-0.92520
  -7   5   0 280.202 122.966   6-0.27035-0.27672 0.21275 0.20432-0.97310 0.86973
  -7  -5   0 256.946 108.546   3-0.34655-0.20105-0.11281-0.30423-0.98000 0.87615
   7   5   0 372.458 144.816   2 0.33444 0.21169 0.12798 0.28815 0.98013-0.87684
   7  -5   0 254.166 117.444   8 0.36555 0.18106-0.08738-0.32922 0.97909-0.87585
  -8   5   0 233.039 125.947   7-0.41323-0.21249 0.05778 0.35954-0.97056 0.85213
   8   5   0 307.182 129.200   2 0.35138 0.27277 0.14966 0.26643 0.97402-0.85602
  -8  -5   0 77.6484 79.0454   3-0.36530-0.26053-0.12970-0.28734-0.97431 0.85564
   8  -5   0 83.4028 102.926   8 0.38722 0.23747-0.09615-0.32043 0.97365-0.85565
  -8  -5   0 68.2161 67.2259   9-0.05155-0.57349-0.59980 0.18313 0.77409-0.89256
  -8   5   0 221.012 115.940   6-0.28247-0.34266 0.25372 0.16335-0.96179 0.84366
  -9  -5   0 -23.569 153.689   3-0.38693-0.31715-0.14935-0.26767-0.96675 0.83325
   9  -5   0 58.3333 107.357   8 0.41199 0.29080-0.10623-0.31034 0.96656-0.83380
   9   5   0 -19.356 100.224   2 0.37101 0.33118 0.17512 0.24096 0.96574-0.83302
  -9   5   0 -75.041 77.0660   7-0.43828-0.26570 0.06261 0.35474-0.96338 0.83009
 -10  -5   0 36.8202 136.912   3-0.41081-0.37148-0.17131-0.24569-0.95708 0.80875
  10  -5   0 138.155 142.957   8 0.43908 0.34181-0.11732-0.29925 0.95773-0.81021
  10   5   0 -98.602 107.393   2 0.39280 0.38741 0.20382 0.21225 0.95493-0.80752
  10   5   0 0.96819 112.197   5 0.42740 0.35366 0.13915 0.27762 0.95806-0.81004
 -10   5   0 147.981 130.158   7-0.46585-0.31638 0.06794 0.34943-0.95445 0.80628
   0  -6   0 1287.00 173.878   4-0.10650 0.10633-0.25012-0.25037-0.96518 0.96495
   0  -6   0 1487.07 149.849   3-0.49406 0.49428-0.25008-0.25019-0.91118 0.91097
   0   6   0 1308.02 173.726   6-0.28142 0.28145 0.25012 0.25031-0.96287 0.96294
   0  -6   0 1425.59 178.020   9 0.11792-0.11775-0.25009-0.25005 0.96589-0.96604
   0   6   0 1737.80 141.142   5 0.60280-0.60295 0.25000 0.25007 0.85812-0.85796
   1  -6   0 136.889 62.4494   4-0.09771 0.17578-0.27143-0.22900-0.95876 0.97332
  -1   6   0 247.061 72.4851   2 0.48554-0.56375 0.33222 0.16828 0.88596-0.90067
   1   6   0 160.337 58.7200   2 0.38678-0.30878 0.19585 0.30424 0.95809-0.94324
   1  -6   0 100.812 41.1805   8 0.56187-0.48373-0.16846-0.33168 0.90156-0.88690
  -1  -6   0 159.118 65.5188   4-0.11107 0.03268-0.23892-0.26160-0.96833 0.95329
  -1  -6   0 201.888 93.4083   9 0.10802-0.18600-0.27304-0.22708 0.95900-0.97394
   1   6   0 128.042 64.3641   1 0.15579-0.07794 0.23192 0.26839 0.97238-0.95747
   1   6   0 136.265 64.9790   6-0.29635 0.37461 0.30246 0.19789-0.94556 0.96039
   1  -6   0 163.039 77.8032   9 0.12353-0.04523-0.23690-0.26324 0.96954-0.95490
  -1   6   0 203.751 74.3803   6-0.27072 0.19253 0.21398 0.28650-0.97279 0.95809
   1  -6   0 201.726 61.5914   3-0.59218 0.67063-0.34876-0.15142-0.82539 0.83995
   1   6   0 181.659 55.8426   5 0.49227-0.41430 0.17923 0.32088 0.92959-0.91465
  -1  -6   0 133.264 61.2368   3-0.42985 0.35182-0.18901-0.31134-0.94832 0.93333
  -2   6   0 1375.42 129.080   7-0.58551 0.42937 0.09137 0.40877-0.90173 0.87210
   2   6   0 1348.11 170.729   6-0.31527 0.47176 0.37292 0.12732-0.91646 0.94602
  -2   6   0 1157.09 169.216   6-0.26407 0.10768 0.19211 0.30838-0.97802 0.94854
   2  -6   0 1188.03 172.143   4-0.08528 0.24161-0.30107-0.19929-0.94885 0.97820
  -2  -6   0 1118.26 148.037   3-0.39037 0.23407-0.15251-0.34789-0.96544 0.93564
   2   6   0 1174.61 153.866   2 0.36078-0.20471 0.16180 0.33813 0.97022-0.94062
   2  -6   0 1451.11 175.174   9 0.12400 0.03244-0.23579-0.26437 0.96984-0.94041
  -2  -6   0 1176.89 158.526   4-0.11060-0.04600-0.24007-0.26045-0.96801 0.93817
   2  -6   0 1147.37 135.129   8 0.46672-0.31053-0.12869-0.37139 0.94748-0.91805
  -2  -6   0 1272.27 183.399   9 0.09446-0.25058-0.30397-0.19612 0.94864-0.97836
   2   6   0 1207.09 172.075   1 0.15719-0.00121 0.22541 0.27487 0.97394-0.94424
  -2   6   0 1212.01 139.073   2 0.56288-0.71928 0.45056 0.05013 0.78698-0.81650
   3  -6   0 32.9405 63.3400   4-0.06968 0.30424-0.33753-0.16271-0.93506 0.97917
   3   6   0 34.2871 58.0760   1 0.15577 0.07834 0.23199 0.26827 0.97236-0.92788
  -3  -6   0 -55.793 58.6826   3-0.36829 0.13373-0.13240-0.36803-0.97333 0.92872
  -3  -6   0 -46.932 56.0309   4-0.10388-0.13091-0.25650-0.24399-0.96332 0.91867
  -3   6   0 -48.227 53.4541   7-0.49395 0.25962 0.07341 0.42691-0.94419 0.89981
  -3   6   0 -33.530 55.9045   6-0.26120 0.02662 0.18275 0.31775-0.98008 0.93582
   3   6   0 -39.302 69.5704   2 0.34603-0.11195 0.14280 0.35699 0.97605-0.93170
   3  -6   0 89.3615 59.8976   8 0.41848-0.18421-0.10889-0.39116 0.96455-0.92037
   3  -6   0 26.3471 62.8173   9 0.11806 0.11651-0.24976-0.25044 0.96598-0.92177
  -3  -6   0 15.7622 66.0840   9 0.07769-0.31195-0.34138-0.15871 0.93438-0.97889
   3   6   0 48.2272 47.4145   6-0.33730 0.57201 0.46294 0.03716-0.86862 0.91285
   4  -6   0 858.435 146.722   8 0.39651-0.08416-0.09993-0.40008 0.97110-0.91217
  -4  -6   0 731.695 154.728   3-0.35862 0.04581-0.12367-0.37679-0.97643 0.91700
   4  -6   0 687.574 151.935   4-0.05123 0.36402-0.37954-0.12057-0.91688 0.97572
  -4  -6   0 791.363 170.780   9 0.05807-0.37047-0.38397-0.11611 0.91573-0.97504
  -4   6   0 692.174 150.278   6-0.26171-0.05104 0.18438 0.31612-0.97973 0.92068
   4  -6   0 774.568 125.378   9 0.10366 0.20905-0.28307-0.21716 0.95578-0.89679
  -4   6   0 833.670 131.442   7-0.45198 0.13940 0.06526 0.43518-0.95908 0.89992
   4   6   0 756.662 130.444   6-0.36027 0.67317 0.57263-0.07269-0.79116 0.85000
   4   6   0 727.210 147.826   2 0.34005-0.02795 0.13513 0.36454 0.97821-0.91912
  -5   6   0 53.3062 67.1452   7-0.43596 0.04513 0.06216 0.43838-0.96408 0.89012
   5   6   0 -44.863 96.1639   2 0.34089 0.04922 0.13620 0.36337 0.97792-0.90409
  -5  -6   0 -22.634 80.7408   9 0.03589-0.42644-0.43065-0.06942 0.89216-0.96627
  -5   6   0 -23.533 64.8652   6-0.26518-0.12571 0.19573 0.30475-0.97720 0.90337
   5  -6   0 -46.397 82.1393   8 0.39057-0.00014-0.09752-0.40247 0.97274-0.89905
   5  -6   0 1.22560 75.4726   4-0.03023 0.42124-0.42598-0.07398-0.89375 0.96729
  -5  -6   0 27.4368 61.3209   3-0.35800-0.03307-0.12311-0.37735-0.97662 0.90237
  -6  -6   0 247.647 104.802   3-0.36413-0.10519-0.12864-0.37182-0.97469 0.88562
   6   6   0 318.368 120.819   2 0.34712 0.12101 0.14418 0.35532 0.97565-0.88710
  -6   6   0 65.1765 79.1708   6-0.27125-0.19776 0.21577 0.28470-0.97234 0.88374
  -6   6   0 91.9463 70.7473   7-0.43515-0.03393 0.06201 0.43862-0.96432 0.87554
   6  -6   0 50.1568 112.743   4-0.00688 0.47609-0.47586-0.02393-0.86506 0.95328
   6  -6   0 171.772 87.1984   8 0.39510 0.07343-0.09935-0.40061 0.97149-0.88305
  -6  -6   0 207.666 108.136   9 0.01139-0.48008-0.48043-0.01963 0.86311-0.95201
  -7  -6   0 113.774 91.5215   3-0.37540-0.17217-0.13885-0.36161-0.97092 0.86701
   7  -6   0 66.7621 98.6446   4 0.01861 0.52879-0.52831 0.02868-0.83017 0.93301
  -7   6   0 124.748 104.839   7-0.44403-0.10332 0.06372 0.43697-0.96161 0.85799
   7   6   0 348.920 131.908   2 0.35762 0.18851 0.15772 0.34171 0.97153-0.86826
  -7   6   0 11.1786 116.916   6-0.27954-0.26758 0.24367 0.25678-0.96476 0.86138
   7  -6   0 129.654 116.679   8 0.40682 0.13980-0.10412-0.39583 0.96812-0.86492
  -7  -6   0 316.827 118.540   9-0.01524-0.53161-0.53243 0.03238 0.82798-0.93167
   8  -6   0 390.631 186.177   4 0.04610 0.57945-0.58247 0.08301-0.78836 0.90578
  -8  -6   0 396.924 139.776   3-0.39066-0.23516-0.15277-0.34768-0.96533 0.84660
  -8   6   0 491.216 152.391   7-0.45943-0.16617 0.06670 0.43404-0.95663 0.83816
   8   6   0 431.585 133.616   2 0.37159 0.25255 0.17588 0.32352 0.96547-0.84749
   8  -6   0 667.187 186.907   8 0.42367 0.20103-0.11101-0.38893 0.96290-0.84493
  -8   6   0 344.495 136.817   6-0.28970-0.33549 0.27885 0.22160-0.95381 0.83568
  -8  -6   0 334.238 142.883   9-0.04385-0.58115-0.58585 0.08582 0.78611-0.90460
  -9   6   0 0.57026 85.1595   7-0.47945-0.22441 0.07058 0.43020-0.94964 0.81631
  -9  -6   0 99.1747 105.222   3-0.40907-0.29498-0.16970-0.33073-0.95783 0.82428
   9   6   0 -260.99 161.943   2 0.38837 0.31380 0.19794 0.30142 0.95727-0.82459
   9   6   0 11.1402 72.1896   5 0.42943 0.27352 0.14038 0.35976 0.95729-0.82402
   9  -6   0 -197.93 133.403   8 0.44433 0.25846-0.11948-0.38045 0.95588-0.82316
 -10   6   0 314.059 165.705   7-0.50285-0.27928 0.07513 0.42568-0.94069 0.79248
   0   7   0 7.81488 55.1054   6-0.29337 0.29341 0.29180 0.29205-0.94937 0.94943
   0  -7   0 -22.504 67.4467   4-0.08920 0.08899-0.29178-0.29212-0.95208 0.95178
   0  -7   0 100.442 95.9924   9 0.09985-0.09966-0.29176-0.29172 0.95288-0.95306
   0  -7   0 -42.041 53.3405   3-0.53642 0.53668-0.29175-0.29189-0.87917 0.87890
   0   7   0 -20.696 43.7981   2 0.45733-0.45742 0.29195 0.29174 0.91143-0.91136
   1   7   0 577.608 110.912   6-0.30605 0.38433 0.33796 0.24581-0.93176 0.94657
   1   7   0 507.255 117.881   2 0.42036-0.34234 0.24084 0.34265 0.93860-0.92376
  -1  -7   0 556.387 137.109   9 0.09210-0.17005-0.30932-0.27416 0.94672-0.96169
  -1  -7   0 502.840 99.2992   3-0.47651 0.39852-0.23315-0.35057-0.92259 0.90754
  -1  -7   0 493.150 114.549   4-0.09216 0.01371-0.28471-0.29919-0.95446 0.93935
   1  -7   0 600.317 131.941   9 0.10363-0.02531-0.28314-0.30037 0.95576-0.94115
  -1   7   0 615.460 136.373   6-0.28402 0.20584 0.25904 0.32485-0.96017 0.94546
  -1   7   0 536.101 106.173   2 0.50801-0.58622 0.36525 0.21865 0.86217-0.87690
   1  -7   0 473.515 130.129   4-0.08236 0.16038-0.30799-0.27586-0.94637 0.96087
  -2   7   0 1631.59 223.970   6-0.27798 0.12158 0.23835 0.34555-0.96628 0.93679
  -2  -7   0 1530.43 233.589   9 0.08089-0.23698-0.33432-0.24914 0.93722-0.96697
   2  -7   0 1491.31 206.033   9 0.10271 0.05375-0.28523-0.29830 0.95507-0.92567
  -2  -7   0 1494.96 200.671   4-0.09056-0.06610-0.28854-0.29536-0.95318 0.92326
   2   7   0 1794.97 223.454   6-0.32186 0.47837 0.39881 0.18486-0.90399 0.93353
   2   7   0 1570.33 198.947   2 0.39514-0.23908 0.20694 0.37637 0.95366-0.92406
   2   7   0 1580.59 173.278   5 0.49402-0.33794 0.18033 0.40317 0.92869-0.89894
   2  -7   0 1781.49 191.565   8 0.55290-0.39668-0.16467-0.41878 0.90666-0.87726
  -2  -7   0 1624.06 203.854   3-0.43694 0.28069-0.19564-0.38815-0.94482 0.91497
   2  -7   0 1771.20 240.242   4-0.07211 0.22839-0.33190-0.25187-0.93731 0.96658
  -3   7   0 2789.80 305.070   6-0.27506 0.04047 0.22850 0.35541-0.96900 0.92473
   3   7   0 3422.11 293.490   6-0.34012 0.57485 0.47533 0.10821-0.86100 0.90521
   3  -7   0 3358.68 272.292   8 0.49452-0.26022-0.14022-0.44319 0.93584-0.89168
   3   7   0 3163.46 298.435   2 0.37959-0.14550 0.18637 0.39679 0.96169-0.91735
  -3  -7   0 2831.48 268.061   4-0.08342-0.15142-0.30547-0.27838-0.94728 0.90256
   3   7   0 2844.50 253.165   5 0.45492-0.22071 0.15603 0.42747 0.94703-0.90249
   3  -7   0 3212.91 284.164   9 0.09607 0.13852-0.30033-0.28323 0.94992-0.90574
  -3  -7   0 2886.67 288.455   3-0.41269 0.17817-0.17304-0.41078-0.95626 0.91160
  -3  -7   0 3320.90 337.753   9 0.06662-0.30085-0.36556-0.21788 0.92412-0.96866
   3  -7   0 3142.72 324.689   4-0.05885 0.29339-0.36232-0.22136-0.92464 0.96867
  -4  -7   0 142.325 100.454   9 0.04959-0.36197-0.40198-0.18145 0.90704-0.96638
  -4  -7   0 68.1033 79.4954   3-0.39992 0.08714-0.16126-0.42258-0.96166 0.90219
   4  -7   0 -93.423 89.9700   4-0.04287 0.35565-0.39819-0.18537-0.90798 0.96676
  -4  -7   0 107.607 93.6075   4-0.06924-0.24373-0.33853-0.24525-0.93466 0.87514
   4   7   0 125.790 114.811   2 0.37186-0.05974 0.17624 0.40680 0.96535-0.90627
   4  -7   0 2.04029 55.5894   9 0.08212 0.23061-0.33160-0.25200 0.93829-0.87933
  -4   7   0 -40.340 74.5356   6-0.27501-0.03775 0.22834 0.35557-0.96904 0.90999
   4   7   0 32.6374 63.8795   6-0.35935 0.67229 0.56772 0.01567-0.79515 0.85398
   4   7   0 19.5125 50.5295   5 0.43378-0.12144 0.14304 0.44047 0.95563-0.89630
   4  -7   0 25.1769 70.1677   8 0.46333-0.15095-0.12729-0.45607 0.94881-0.88990
  -5  -7   0 167.459 110.204   3-0.39587 0.00484-0.15754-0.42631-0.96329 0.88899
   5   7   0 141.538 86.0429   2 0.37046 0.01967 0.17440 0.40853 0.96599-0.89218
   5   7   0 252.863 109.304   5 0.42517-0.03471 0.13779 0.44573 0.95889-0.88475
  -5   7   0 50.2743 109.430   6-0.27755-0.11337 0.23692 0.34698-0.96668 0.89285
   5  -7   0 -123.42 94.9673   4-0.02440 0.41542-0.43858-0.14485-0.88689 0.96038
   5  -7   0 64.7201 76.7012   8 0.44946-0.05901-0.12158-0.46175 0.95403-0.88037
  -5  -7   0 75.4584 72.7200   9 0.03007-0.42059-0.44263-0.14079 0.88555-0.95968
  -6  -7   0 720.409 185.139   3-0.39854-0.07075-0.15999-0.42387-0.96222 0.87310
   6   7   0 643.697 167.359   5 0.42558 0.04300 0.13803 0.44548 0.95873-0.86981
  -6  -7   0 624.901 197.934   9 0.00825-0.47692-0.48666-0.09675 0.85917-0.94809
  -6   7   0 302.997 172.651   6-0.28239-0.18665 0.25342 0.33045-0.96188 0.87328
   6  -7   0 559.307 214.500   4-0.00366 0.47288-0.48263-0.10064-0.86085 0.94901
   6  -7   0 624.085 181.712   8 0.44726 0.02128-0.12068-0.46264 0.95483-0.86641
   6   7   0 696.099 190.608   2 0.37418 0.09396 0.17927 0.40356 0.96427-0.87574
  -7  -7   0 -39.538 93.2590   3-0.40645-0.14109-0.16728-0.41658-0.95895 0.85500
   7  -7   0 16.5250 91.6625   4 0.01924 0.52821-0.52958-0.05353-0.82926 0.93206
  -7   7   0 112.014 121.559   7-0.50430-0.04292 0.07542 0.50864-0.94011 0.83643
  -7  -7   0 -119.11 89.4053   9-0.01570-0.53111-0.53332-0.05008 0.82733-0.93105
   7  -7   0 127.439 90.4679   8 0.45325 0.09336-0.12314-0.46016 0.95263-0.84946
   7   7   0 190.675 105.233   2 0.38211 0.16404 0.18968 0.39308 0.96045-0.85721
   7   7   0 130.172 106.896   5 0.43268 0.11402 0.14237 0.44114 0.95606-0.85234
  -7   7   0 49.4791 111.542   6-0.28923-0.25792 0.27721 0.30664-0.95435 0.85098
   8   7   0 444.520 174.183   2 0.39349 0.23067 0.20474 0.37798 0.95456-0.83661
  -8   7   0 369.185 137.754   7-0.51297-0.11251 0.07711 0.50702-0.93655 0.81802
  -8  -7   0 328.025 171.510   3-0.41853-0.20726-0.17846-0.40540-0.95364 0.83486
   8  -7   0 379.028 174.062   8 0.46521 0.15950-0.12807-0.45521 0.94807-0.83015
  -8  -7   0 287.010 141.613   9-0.04167-0.58330-0.58188-0.00151 0.78944-0.90796
   8  -7   0 71.4949 93.7687   4 0.04415 0.58148-0.57869-0.00425-0.79149 0.90889
   8   7   0 288.433 139.546   5 0.44484 0.17998 0.14983 0.43368 0.95124-0.83273
  -8   7   0 78.4097 150.568   6-0.29782-0.32743 0.30775 0.27607-0.94361 0.82547
  -9   7   0 -138.48 97.1224   7-0.52745-0.17630 0.07995 0.50424-0.93034 0.79694
   9  -7   0 45.8955 119.601   8 0.48165 0.22116-0.13486-0.44840 0.94140-0.80872
  -9   7   0 -6.4564 102.788   6-0.30786-0.39546 0.34469 0.23911-0.92895 0.79606
   0  -8   0 5236.66 437.764   9 0.08128-0.08107-0.33345-0.33339 0.93756-0.93777
   0   8   0 5899.38 393.344   2 0.48656-0.48663 0.33368 0.33341 0.88496-0.88493
   0   8   0 5064.64 409.216   6-0.30484 0.30490 0.33346 0.33378-0.93360 0.93364
   0  -8   0 5160.48 422.257   4-0.07145 0.07117-0.33343-0.33386-0.93670 0.93631
  -1  -8   0 436.443 137.133   4-0.07315-0.00535-0.32949-0.33781-0.93826 0.92307
   1  -8   0 368.692 130.489   4-0.06612 0.14410-0.34570-0.32156-0.93172 0.94613
   1  -8   0 416.524 139.516   9 0.08362-0.00528-0.32825-0.33861 0.93960-0.92502
  -1   8   0 306.297 110.923   6-0.29659 0.21842 0.30334 0.36396-0.94524 0.93051
  -1   8   0 468.985 115.768   2 0.53131-0.60951 0.40055 0.26676 0.83361-0.84837
   1   8   0 498.413 134.636   2 0.45253-0.37450 0.28519 0.38170 0.91534-0.90054
  -1  -8   0 348.089 131.135   9 0.07521-0.15315-0.34682-0.32001 0.93214-0.94714
  -1  -8   0 411.104 117.886   3-0.52144 0.44351-0.27688-0.39022-0.89125 0.87614
   1   8   0 506.281 143.203   6-0.31581 0.39410 0.37500 0.29219-0.91550 0.93028
  -2  -8   0 45.6750 63.9749   3-0.48227 0.32607-0.23868-0.42847-0.91896 0.88905
   2  -8   0 14.7489 85.6892   9 0.08163 0.07484-0.33268-0.33421 0.93787-0.90850
   2   8   0 28.9324 72.6668   2 0.42820-0.27213 0.25154 0.41517 0.93337-0.90380
   2  -8   0 3.68973 82.6059   4-0.05762 0.21385-0.36513-0.30208-0.92340 0.95259
  -2  -8   0 -81.810 72.2231   4-0.07065-0.08606-0.33527-0.33200-0.93597 0.90597
  -2   8   0 101.022 96.5093   6-0.29107 0.13468 0.28365 0.38367-0.95219 0.92269
   2   8   0 13.5388 67.3095   6-0.32925 0.48578 0.42883 0.23827-0.88826 0.91775
  -2  -8   0 89.3787 84.6976   9 0.06588-0.22194-0.36716-0.29965 0.92341-0.95319
   3   8   0 483.886 126.743   5 0.51503-0.28087 0.19352 0.47334 0.91745-0.87286
  -3  -8   0 347.773 133.800   3-0.45654 0.22209-0.21411-0.45309-0.93439 0.88967
   3  -8   0 172.827 94.0837   4-0.04624 0.28073-0.39071-0.27642-0.91162 0.95557
  -3  -8   0 345.020 107.142   4-0.06314-0.17175-0.35255-0.31466-0.92885 0.88404
  -3  -8   0 440.166 143.306   9 0.05363-0.28783-0.39345-0.27335 0.91122-0.95579
   3   8   0 224.409 113.474   2 0.41221-0.17810 0.22982 0.43672 0.94375-0.89944
   3   8   0 365.561 118.564   6-0.34463 0.57939 0.49564 0.17133-0.84793 0.89211
  -3   8   0 69.6208 111.573   6-0.28817 0.05358 0.27348 0.39384-0.95558 0.91130
   3  -8   0 398.432 116.854   9 0.07442 0.16019-0.34857-0.31835 0.93141-0.88727
   4  -8   0 250.851 121.407   4-0.03226 0.34501-0.42154-0.24547-0.89610 0.95480
  -4  -8   0 198.555 114.111   9 0.03871-0.35107-0.42478-0.24201 0.89532-0.95468
  -4   8   0 36.3358 138.984   6-0.28775-0.02503 0.27199 0.39533-0.95606 0.89701
   4   8   0 189.871 102.367   2 0.40322-0.09108 0.21771 0.44869 0.94912-0.89007
  -4  -8   0 165.533 96.0330   3-0.44137 0.12865-0.19980-0.46744-0.94255 0.88302
   4   8   0 53.3588 73.6390   5 0.48921-0.17691 0.17732 0.48956 0.93113-0.87175
  -5  -8   0 288.939 133.880   3-0.43450 0.04351-0.19335-0.47391-0.94604 0.87169
   5   8   0 390.778 135.925   2 0.40004-0.00989 0.21347 0.45282 0.95093-0.87716
  -5   8   0 77.8188 83.9917   6-0.28958-0.10135 0.27842 0.38888-0.95395 0.88011
   5   8   0 312.546 148.123   5 0.47586-0.08542 0.16900 0.49788 0.93762-0.86345
   5  -8   0 362.306 119.345   8 0.51243-0.12196-0.14768-0.51902 0.92760-0.85396
  -5  -8   0 514.112 177.801   9 0.02138-0.41187-0.46034-0.20643 0.87534-0.94950
   5  -8   0 332.544 164.561   4-0.01588 0.40689-0.45685-0.21004-0.87649 0.94990
   6   8   0 633.533 180.115   2 0.40171 0.06644 0.21571 0.45047 0.94998-0.86149
  -6  -8   0 833.467 209.634   3-0.43418-0.03507-0.19306-0.47422-0.94620 0.85701
  -6   8   0 256.711 189.780   6-0.29346-0.17562 0.29213 0.37515-0.94926 0.86064
   6   8   0 657.063 160.602   5 0.47176-0.00320 0.16645 0.50043 0.93953-0.85057
  -6  -8   0 639.971 215.703   9 0.00179-0.47042-0.49942-0.16734 0.85087-0.93983
   6  -8   0 765.053 181.428   8 0.50375-0.03520-0.14406-0.52262 0.93167-0.84328
   6  -8   0 449.831 210.923   4 0.00273 0.46651-0.49590-0.17085-0.85234 0.94043
   7  -8   0 22.3845 101.237   4 0.02344 0.52402-0.53801-0.12858-0.82314 0.92588
   7   8   0 323.214 171.244   2 0.40744 0.13872 0.22339 0.44272 0.94664-0.84344
  -7  -8   0 23.9602 87.3248   3-0.43912-0.10838-0.19768-0.46958-0.94371 0.83969
  -7   8   0 -68.006 98.4521   6-0.29915-0.24805 0.31259 0.35465-0.94180 0.83841
  -7  -8   0 177.199 115.553   9-0.01991-0.52686-0.54134-0.12542 0.82143-0.92518
   7   8   0 52.4605 107.526   5 0.47468 0.07201 0.16826 0.49862 0.93818-0.83441
   7  -8   0 234.463 141.287   8 0.50412 0.04252-0.14421-0.52245 0.93150-0.82836
  -8   8   0 -71.002 91.3005   6-0.30644-0.31886 0.33937 0.32784-0.93118 0.81303
   8  -8   0 -10.928 95.4479   8 0.51118 0.11355-0.14715-0.51948 0.92819-0.81031
   8  -8   0 18.6712 100.166   4 0.04614 0.57952-0.58255-0.08388-0.78829 0.90564
   8   8   0 93.3964 104.867   5 0.48301 0.14178 0.17345 0.49343 0.93419-0.81563
  -8  -8   0 184.567 134.159   9-0.04363-0.58131-0.58544-0.08130 0.78645-0.90500
   0  -9   0 -79.326 77.2003   9 0.06219-0.06195-0.37514-0.37507 0.91982-0.92006
   0  -9   0 -29.776 81.0781   4-0.05321 0.05288-0.37507-0.37560-0.91893 0.91844
   0   9   0 123.470 88.0402   6-0.31585 0.31591 0.37514 0.37553-0.91543 0.91543
   1  -9   0 81.6076 75.1806   4-0.04914 0.12706-0.38422-0.36646-0.91470 0.92900
  -1  -9   0 -7.6551 76.9322   4-0.05388-0.02469-0.37358-0.37709-0.91962 0.90432
  -1  -9   0 89.6411 81.4196   9 0.05751-0.13542-0.38518-0.36501 0.91517-0.93019
  -1   9   0 11.1705 82.4042   6-0.30851 0.23034 0.34712 0.40359-0.92792 0.91317
   1  -9   0 -39.913 74.1443   9 0.06335 0.01501-0.37263-0.37760 0.92096-0.90641
   1   9   0 94.7206 67.8287   2 0.48339-0.40536 0.32909 0.42121 0.88807-0.87330
   1   9   0 18.3775 95.5505   6-0.32541 0.40371 0.41305 0.33756-0.89670 0.91144
  -2   9   0 153.159 76.7546   6-0.30345 0.14705 0.32829 0.42245-0.93569 0.90617
   2  -9   0 -18.714 94.9333   4-0.04206 0.19824-0.40001-0.35063-0.90709 0.93617
   2   9   0 -7.5813 82.2160   6-0.33696 0.49351 0.46150 0.28901-0.86949 0.89893
  -2  -9   0 112.300 93.2714   9 0.04972-0.20576-0.40173-0.34843 0.90716-0.93698
   2  -9   0 -44.540 70.1788   9 0.06045 0.09604-0.37887-0.37138 0.91811-0.88878
  -2  -9   0 84.6847 104.556   4-0.05063-0.10616-0.38088-0.36974-0.91626 0.88615
  -2  -9   0 -101.14 93.2424   3-0.52631 0.37017-0.28169-0.46884-0.88742 0.85744
   2   9   0 155.892 118.262   2 0.46004-0.30396 0.29576 0.45435 0.90917-0.87965
   3   9   0 219.848 84.0851   2 0.44391-0.20977 0.27317 0.47676 0.92205-0.87778
   3  -9   0 409.391 171.353   4-0.03224 0.26668-0.42160-0.32896-0.89607 0.93992
  -3  -9   0 475.352 167.619   9 0.03912-0.27331-0.42393-0.32622 0.89577-0.94037
  -3  -9   0 468.635 155.895   3-0.49970 0.26528-0.25555-0.49504-0.90730 0.86251
  -3   9   0 105.460 142.964   6-0.30063 0.06603 0.31794 0.43280-0.93975 0.89546
   3   9   0 418.558 162.944   6-0.35004 0.58481 0.52097 0.22943-0.83056 0.87468
   3  -9   0 320.280 127.740   9 0.05273 0.18190-0.39536-0.35492 0.91029-0.86618
  -3  -9   0 389.979 133.779   4-0.04276-0.19220-0.39844-0.35213-0.90786 0.86294
   4  -9   0 376.947 176.857   4-0.01991 0.33263-0.44824-0.30223-0.88146 0.94005
   4   9   0 546.453 165.263   2 0.43400-0.12184 0.25950 0.49029 0.92932-0.87032
  -4  -9   0 438.875 167.989   9 0.02598-0.33831-0.45100-0.29914 0.88080-0.94019
  -4   9   0 303.537 171.690   6-0.29994-0.01286 0.31543 0.43530-0.94072 0.88164
  -4  -9   0 239.462 131.900   3-0.48269 0.17002-0.23909-0.51154-0.91869 0.85909
   5  -9   0 173.534 78.9907   4-0.00527 0.39626-0.47924-0.27112-0.86297 0.93628
   5   9   0 63.7291 96.1501   5 0.52804-0.13763 0.20175 0.54848 0.90996-0.83574
   5   9   0 208.306 143.325   2 0.42944-0.03927 0.25323 0.49643 0.93252-0.85879
  -5  -9   0 146.064 116.410   9 0.01048-0.40094-0.48224-0.26788 0.86197-0.93616
  -5   9   0 34.6222 138.023   6-0.30123-0.08973 0.32015 0.43055-0.93890 0.86505
  -5  -9   0 211.128 130.976   3-0.47349 0.08255-0.23026-0.52039-0.92445 0.85003
   6   9   0 300.644 177.251   2 0.42943 0.03876 0.25321 0.49634 0.93253-0.84409
   6  -9   0 53.4049 84.8830   4 0.01153 0.45770-0.51396-0.23626-0.84023 0.92823
   6   9   0 14.6950 77.9034   5 0.51989-0.05135 0.19659 0.55365 0.91470-0.82569
  -6  -9   0 369.863 197.025   9-0.00723-0.46137-0.51702-0.23310 0.83894-0.92792
  -6   9   0 103.940 122.221   6-0.30434-0.16476 0.33161 0.41907-0.93436 0.84573
  -6  -9   0 342.951 116.479   3-0.47063 0.00143-0.22753-0.52315-0.92619 0.83694
   7   9   0 6.71124 114.357   5 0.51894 0.02771 0.19599 0.55425 0.91524-0.81143
   0 -10   0 242.475 142.669   9 0.04253-0.04229-0.41682-0.41674 0.89950-0.89977
   0  10   0 323.517 176.238   6-0.32632 0.32640 0.41681 0.41729-0.89473 0.89467
   0 -10   0 193.107 87.2852   4-0.03447 0.03406-0.41672-0.41736-0.89863 0.89801
   1 -10   0 124.947 141.292   4-0.03146 0.10931-0.42328-0.41079-0.89518 0.90936
   1 -10   0 274.676 135.007   9 0.04268 0.03570-0.41650-0.41708 0.89967-0.88515
  -1 -10   0 280.059 156.775   9 0.03903-0.11692-0.42412-0.40942 0.89566-0.91072
  -1 -10   0 96.5532 103.504   4-0.03425-0.04440-0.41721-0.41683-0.89837 0.88295
   1  10   0 142.407 124.539   6-0.33472 0.41303 0.45180 0.38224-0.87525 0.88992
  -1  10   0 60.3915 106.502   6-0.31978 0.24162 0.39054 0.44359-0.90809 0.89329
  -2 -10   0 173.896 132.056   4-0.03033-0.12652-0.42576-0.40824-0.89387 0.86363
   2  10   0 232.919 155.727   6-0.34470 0.50126 0.49598 0.33796-0.84771 0.87709
  -2  10   0 57.6274 145.345   6-0.31515 0.15876 0.37245 0.46170-0.91668 0.88712
   2 -10   0 261.116 145.159   9 0.03899 0.11752-0.42421-0.40940 0.89562-0.86632
  -2 -10   0 494.647 212.469   9 0.03255-0.18857-0.43753-0.39598 0.88840-0.91824
   2 -10   0 192.080 145.472   4-0.02557 0.18169-0.43606-0.39799-0.88829 0.91724
   2  10   0 87.4885 98.6301   2 0.49069-0.33459 0.33971 0.49381 0.88080-0.85133
  -3  10   0 132.441 139.571   6-0.31244 0.07783 0.36202 0.47214-0.92142 0.87709
   3 -10   0 56.5610 111.623   4-0.01707 0.25146-0.45431-0.37969-0.87797 0.92169
  -3 -10   0 36.3960 118.612   9 0.02337-0.25754-0.45630-0.37720 0.87772-0.92236
   3  10   0 -75.593 136.117   2 0.47463-0.24048 0.31649 0.51685 0.89635-0.85214
  -4 -10   0 -60.859 112.546   3-0.52359 0.21098-0.27901-0.55501-0.88957 0.82989
   4  10   0 10.4017 82.1360   2 0.46412-0.15194 0.30151 0.53166 0.90571-0.84676
  -5 -10   0 46.8373 117.819   3-0.51253 0.12164-0.26809-0.56595-0.89804 0.82354
   0 -11   0 -48.307 110.269   9 0.02229-0.02202-0.45850-0.45840 0.87643-0.87674
   0 -11   0 -139.41 115.189   4-0.01517 0.01470-0.45836-0.45910-0.87561 0.87484
   0  11   0 -197.53 151.572   6-0.33626 0.33634 0.45847 0.45904-0.87130 0.87118
   1  11   0 516.907 222.591   6-0.34362 0.42195 0.49104 0.42641-0.85096 0.86556
   1 -11   0 462.307 192.854   9 0.02154 0.05685-0.46002-0.45691 0.87553-0.86106
  -1 -11   0 174.818 113.531   4-0.01415-0.06455-0.46052-0.45691-0.87433 0.85876
  12   0  -1 1040.70 270.310   8 0.55749 0.35958-0.16661 0.16665 0.90407-0.83340
  12   0  -1 766.885 209.250   5 0.55603 0.36093 0.21962-0.21975 0.89239-0.82175
 -11   0   1 97.3775 163.144   7-0.53133-0.30851 0.08071-0.08079-0.92861 0.87224
  11   0  -1 -201.01 117.404   8 0.53017 0.30881-0.15509 0.15514 0.91883-0.86293
  11   0  -1 -154.18 126.435   5 0.52890 0.30997 0.20230-0.20242 0.90945-0.85359
  10   0  -1 5.92870 87.0996   5 0.50375 0.25702 0.18642-0.18654 0.92361-0.88254
 -10   0   1 123.061 113.961   7-0.50591-0.25569 0.07573-0.07581-0.93945 0.89795
  10   0  -1 -87.667 91.4109   8 0.50486 0.25602-0.14452 0.14454 0.93116-0.89002
  -9   0   1 50.0216 117.442   7-0.48322-0.20014 0.07132-0.07138-0.94825 0.92161
  -9   0   1 -17.598 53.1760   3-0.47927-0.20436-0.23581 0.23601-0.92086 0.89428
   9   0  -1 61.1029 86.2459   8 0.48225 0.20054-0.13511 0.13515 0.94115-0.91478
   9   0  -1 -45.972 66.6679   5 0.48127 0.20140 0.17237-0.17248 0.93503-0.90874
   8   0  -1 1490.74 173.841   2 0.45664 0.14835 0.29098-0.29100 0.91200-0.90011
  -8   0   1 1255.57 173.327   3-0.46056-0.14487-0.21792 0.21811-0.93211 0.92034
   8   0  -1 1292.44 186.827   5 0.46247 0.14210 0.16070-0.16081 0.94374-0.93223
  -8   0   1 1087.40 204.611   7-0.46426-0.14085 0.06763-0.06770-0.95500 0.94319
   8   0  -1 1322.41 199.242   8 0.46336 0.14134-0.12730 0.12732 0.94880-0.93721
   7   0  -1 -31.893 31.5181   2 0.44308 0.08385 0.27203-0.27205 0.92268-0.92553
  -7   0   1 -10.628 45.1709   3-0.44692-0.08029-0.20502 0.20520-0.93964 0.94268
   7   0  -1 14.9896 43.9153   8 0.44973 0.07687-0.12170 0.12171 0.95393-0.95711
  -7   0   1 19.2424 47.1027   7-0.45061-0.07625 0.06500-0.06505-0.95952 0.96253
   7   0  -1 40.6849 37.7430   5 0.44890 0.07758 0.15232-0.15243 0.94957-0.95284
   6   0  -1 94.7602 44.5727   2 0.43667 0.01218 0.26317-0.26318 0.92741-0.94502
   6   0  -1 10.1161 29.1894   5 0.44302 0.00534 0.14871-0.14881 0.95198-0.97002
   6   0  -1 65.8891 43.1010   8 0.44391 0.00461-0.11930 0.11930 0.95603-0.97400
  -6   0   1 -37.463 17.6320   9-0.04999-0.39876-0.59698 0.59716 0.77656-0.75877
  -6   0   1 82.0522 49.1539   7-0.44482-0.00380 0.06388-0.06393-0.96136 0.97917
   5   0  -1 -10.310 30.7055   2 0.44115-0.07037 0.26936-0.26935 0.92412-0.95651
  -5   0   1 -19.732 34.2403   7-0.45128 0.08090 0.06513-0.06518-0.95931 0.99191
   5   0  -1 13.9027 14.3699   4-0.06408 0.43502-0.35040 0.35057-0.92976 0.89678
   5   0  -1 40.5383 31.8844   8 0.45018-0.07976-0.12188 0.12187 0.95376-0.98652
  -5   0   1 -40.653 38.7401   3-0.44620 0.07543-0.20434 0.20450-0.94003 0.97266
  -5   0   1 -40.678 18.6111   9 0.06059-0.43116-0.37858 0.37874 0.91824-0.88566
   5   0  -1 18.5740 34.0235   5 0.44909-0.07882 0.15244-0.15253 0.94949-0.98231
   4   0  -1 2999.77 120.399   4-0.18656 0.47959-0.04195 0.04188-0.99913 0.95142
   4   0  -1 2893.48 163.522   2 0.46269-0.16998 0.29950-0.29946 0.90693-0.95413
   4   0  -1 2787.54 125.412   6-0.18620 0.47897-0.04138 0.04142-0.99915 0.95166
  -4   0   1 3044.00 179.420   3-0.47020 0.17764-0.22711 0.22726-0.92645 0.97387
  -4   0   1 2753.06 114.674   9 0.18526-0.47767-0.08411 0.08425 0.99643-0.94907
   4   0  -1 3064.29 184.150   5 0.47468-0.18251 0.16826-0.16836 0.93818-0.98577
  -4   0   1 2966.45 202.493   7-0.47809 0.18592 0.07032-0.07037-0.95013 0.99750
   4   0  -1 2848.40 190.149   8 0.47641-0.18408-0.13270 0.13268 0.94358-0.99111
  -3   0   1 -0.7926 7.07292   9 0.31011-0.52437 0.28480-0.28467 0.94940-0.88727
   3   0  -1 9.28151 22.0118   8 0.53774-0.32351-0.15828 0.15825 0.91489-0.97722
   3   0  -1 4.31368 17.1058   5 0.53404-0.31998 0.20557-0.20565 0.90636-0.96873
   3   0  -1 5.77616 9.50534   6-0.30376 0.51826 0.32944-0.32947-0.93523 0.87297
  -3   0   1 7.83313 12.3849   3-0.52512 0.31078-0.28051 0.28066-0.88836 0.95057
  -3   0   1 -21.195 23.5366   7-0.54116 0.32720 0.08263-0.08269-0.92412 0.98622
   3   0  -1 13.2559 12.6076   2 0.51072-0.29611 0.36929-0.36924 0.85907-0.92110
   3   0  -1 11.6313 10.4248   4-0.30413 0.51908 0.32907-0.32930-0.93531 0.87267
  -2   0   1 1119.58 96.8914   7-0.67147 0.53565 0.10856-0.10861-0.84685 0.92364
   2   0  -1 1241.44 103.274   5 0.65115-0.51518 0.28225-0.28234 0.81503-0.89216
   2   0  -1 1084.26 97.3127   8 0.66199-0.52587-0.21152 0.21148 0.83131-0.90845
  -2   0   1 1142.79 97.5972   3-0.62768 0.49153-0.38669 0.38682-0.78224 0.85921
  -4   0  -1 3427.70 401.180   7 0.12824-0.46188-0.04290 0.04300-0.94866 0.78251
   5   0   1 88.0162 78.3087   8-0.03562 0.44613 0.06902-0.06887 0.97225-0.79180
  -5   0  -1 -65.445 112.230   7 0.03513-0.44702-0.02604 0.02614-0.97435 0.79341
  -6   0  -1 859.594 230.959   7-0.04246-0.44765-0.01184 0.01194-0.98902 0.79326
   6   0   1 437.008 121.837   8 0.04164 0.44696 0.03973-0.03957 0.98820-0.79297
  -7   0  -1 44.9914 183.742   7-0.11039-0.45796 0.00068-0.00058-0.99682 0.78625
   7   0   1 155.913 112.223   8 0.10944 0.45725 0.01370-0.01353 0.99665-0.78664
   8   0   1 913.030 236.372   8 0.17097 0.47382-0.01017 0.01036 0.99977-0.77498
  12   1  -1 -14.797 122.591   5 0.54202 0.37495 0.21066-0.12744 0.90144-0.83075
  12   1  -1 -15.977 108.843   8 0.57550 0.34160-0.17424 0.25762 0.89347-0.82276
 -11  -1   1 479.932 210.588   7-0.54274-0.29703 0.08294-0.16648-0.92339 0.86697
 -11   1   1 505.505 209.706   7-0.52780-0.31207 0.08002 0.00336-0.93018 0.87383
  11  -1  -1 623.964 212.227   8 0.52017 0.31877-0.15091 0.06762 0.92384-0.86798
  11   1  -1 529.546 179.736   5 0.51514 0.32374 0.19359-0.11037 0.91738-0.86149
  11   1  -1 486.194 162.755   8 0.54881 0.29021-0.16293 0.24631 0.90893-0.85299
 -10  -1   1 202.364 116.553   7-0.51799-0.24355 0.07809-0.16162-0.93444 0.89289
 -10   1   1 -38.274 98.5631   7-0.50254-0.25909 0.07507 0.00831-0.94081 0.89934
  10   1  -1 282.088 115.910   5 0.49016 0.27062 0.17791-0.09468 0.93065-0.88954
  10   1  -1 275.914 139.038   8 0.52433 0.23659-0.15265 0.23602 0.92178-0.88061
  10  -1  -1 -6.6141 76.7624   5 0.52787 0.23288 0.20164-0.28511 0.91006-0.86902
 -10  -1   1 149.427 110.203   3-0.48233-0.27955-0.23874 0.15557-0.91892 0.87749
  10  -1  -1 41.5288 87.8919   8 0.49492 0.26593-0.14038 0.05708 0.93566-0.89457
  -9  -1   1 268.064 105.329   3-0.46018-0.22350-0.21756 0.13438-0.93233 0.90571
  -9   1   1 198.504 123.175   7-0.47996-0.20341 0.07068 0.01270-0.94945 0.92283
   9  -1  -1 60.3783 107.698   8 0.47227 0.21049-0.13099 0.04768 0.94526-0.91894
  -9  -1   1 347.421 139.423   7-0.49614-0.18715 0.07383-0.15734-0.94334 0.91665
   9  -1  -1 200.655 94.0206   5 0.50658 0.17608 0.18819-0.27165 0.92210-0.89584
   9   1  -1 230.008 106.045   8 0.50286 0.17996-0.14369 0.22705 0.93207-0.90568
   9   1  -1 256.252 103.769   2 0.44983 0.23308 0.28143-0.19814 0.91748-0.89083
   9   1  -1 63.4681 80.6345   5 0.46773 0.21496 0.16395-0.08071 0.94138-0.91505
  -8  -1   1 585.371 134.921   3-0.44128-0.16418-0.19970 0.11651-0.94261 0.93080
  -8   1   1 558.500 148.105   7-0.46107-0.14406 0.06701 0.01636-0.95608 0.94430
  -8  -1   1 465.894 141.576   7-0.47833-0.12672 0.07037-0.15386-0.95004 0.93819
  -8   1   1 634.861 118.857   3-0.49589-0.10949-0.25185 0.33541-0.90993 0.89818
   8   1  -1 601.696 129.615   8 0.48559 0.11914-0.13650 0.21987 0.93973-0.92811
   8   1  -1 822.134 144.348   2 0.43128 0.17356 0.25576-0.17247 0.93124-0.91931
   8  -1  -1 446.815 118.016   5 0.48953 0.11502 0.17752-0.26097 0.93097-0.91948
   8  -1  -1 520.001 137.754   8 0.45314 0.15153-0.12310 0.03978 0.95267-0.94112
   8   1  -1 645.938 131.733   5 0.44873 0.15585 0.15221-0.06898 0.94965-0.93810
   7  -1  -1 117.957 46.6098   4 0.02747 0.49967-0.54603 0.46313-0.81718 0.81341
  -7   1   1 81.9781 66.2534   7-0.44735-0.07952 0.06437 0.01901-0.96056 0.96360
   7   1  -1 29.1619 49.5389   2 0.41689 0.10990 0.23614-0.15284 0.94083-0.94363
  -7  -1   1 39.6238 43.5409   7-0.46629-0.06052 0.06803-0.15150-0.95430 0.95727
   7  -1  -1 50.5822 42.3691   5 0.47870 0.04777 0.17076-0.25420 0.93627-0.93957
   7  -1  -1 125.301 76.9690   8 0.43896 0.08763-0.11727 0.03394 0.95777-0.96099
  -7   1   1 -26.549 28.4514   6-0.35107-0.17565 0.52594-0.44226-0.82701 0.83021
   7  -1  -1 78.3175 43.5052   2 0.49325 0.03385 0.34344-0.42680 0.87817-0.88112
  -7  -1   1 141.697 66.8545   9-0.02755-0.49930-0.55574 0.47257 0.81048-0.80750
  -7  -1   1 30.2914 35.6699   3-0.42686-0.10036-0.18622 0.10302-0.94976 0.95277
   7   1  -1 3.62081 50.0119   8 0.47435 0.05229-0.13184 0.21521 0.94442-0.94758
   7   1  -1 83.9745 53.4155   5 0.43449 0.09198 0.14348-0.06024 0.95536-0.95859
  -6   1   1 1353.04 172.740   7-0.44125-0.00738 0.06318 0.02018-0.96247 0.98031
  -6  -1   1 1423.26 171.997   7-0.46285 0.01427 0.06736-0.15082-0.95548 0.97325
   6  -1  -1 1429.33 128.580   2 0.49414-0.04512 0.34475-0.42812 0.87725-0.89496
  -6   1   1 1646.80 139.101   6-0.34213-0.10653 0.48431-0.40072-0.85531 0.87324
   6  -1  -1 1683.87 143.826   4-0.04348 0.49262-0.39685 0.31378-0.90864 0.89032
   6   1  -1 1444.74 168.415   5 0.42711 0.02126 0.13896-0.05572 0.95817-0.97618
   6  -1  -1 1397.99 174.309   8 0.43191 0.01658-0.11438 0.03104 0.96018-0.97818
  -6  -1   1 1457.75 167.794   3-0.41884-0.03017-0.17875 0.09554-0.95350 0.97131
   6  -1  -1 1405.82 148.229   5 0.47724-0.02888 0.16985-0.25329 0.93697-0.95504
   6   1  -1 1487.46 157.873   2 0.40831 0.04042 0.22456-0.14124 0.94612-0.96368
  -6   1   1 1412.09 142.134   3-0.48526 0.03629-0.24157 0.32509-0.91703 0.93488
   6   1  -1 1406.21 162.566   8 0.47218-0.02364-0.13095 0.21430 0.94530-0.96324
  -6  -1   1 1587.86 140.236   9 0.04444-0.49313-0.41283 0.32965 0.90156-0.88380
  -5  -1   1 148.122 62.3189   7-0.47294 0.10259 0.06932-0.15276-0.95198 0.98453
   5  -1  -1 212.841 53.2774   4-0.11520 0.48633-0.22874 0.14543-0.97105 0.93808
   5   1  -1 135.750 54.7027   2 0.40813-0.03745 0.22430-0.14095 0.94623-0.97856
  -5   1   1 273.824 62.1046   3-0.50067 0.12993-0.25651 0.34002-0.90661 0.93926
  -5  -1   1 205.864 50.2718   9 0.11804-0.48857-0.24980 0.16660 0.96597-0.93342
   5  -1  -1 243.321 55.9581   2 0.51129-0.14036 0.37015-0.45353 0.85841-0.89091
   5  -1  -1 192.072 65.6981   8 0.43573-0.06532-0.11594 0.03258 0.95889-0.99166
   5   1  -1 237.366 73.8229   8 0.48442-0.11397-0.13601 0.21937 0.94023-0.97296
   5  -1  -1 146.710 45.3908   5 0.49081-0.12055 0.17832-0.26174 0.93032-0.96317
   5   1  -1 242.521 64.2829   5 0.42999-0.05973 0.14073-0.05748 0.95708-0.98987
  -5   1   1 161.771 46.5975   6-0.33712-0.03347 0.46216-0.37864-0.86909 0.90176
  -5   1   1 245.901 80.0771   7-0.44684 0.07645 0.06427 0.01909-0.96072 0.99335
  -4   1   1 13556.0 437.419   7-0.47157 0.17941 0.06905 0.01428-0.95246 0.99985
   4  -1  -1 13506.7 341.684   4-0.18659 0.47965-0.04188-0.04166-0.99913 0.95140
  -4   1   1 12620.9 294.760   1 0.18985-0.48208 0.05900 0.02456 0.99827-0.95118
  -4  -1   1 13690.8 418.416   7-0.50575 0.21361 0.07570-0.15912-0.93952 0.98684
   4  -1  -1 15148.6 350.142   2 0.55432-0.26150 0.43672-0.52011 0.80067-0.84801
  -4   1   1 14266.7 361.694   3-0.54281 0.25027-0.29815 0.38165-0.87373 0.92116
  -4   1   1 14120.2 365.283   6-0.33757 0.04508 0.46414-0.38068-0.86790 0.91532
   4   1  -1 13293.6 387.924   2 0.42029-0.12768 0.24075-0.15736 0.93864-0.98577
  -4  -1   1 13279.0 411.899   3-0.43586 0.14330-0.19462 0.11140-0.94536 0.99277
  -4  -1   1 13097.6 335.511   9 0.19222-0.48460-0.06589-0.01732 0.99780-0.95047
   4  -1  -1 12538.7 348.523   5 0.52994-0.23778 0.20296-0.28638 0.90883-0.95644
   4   1  -1 13640.2 414.674   5 0.44900-0.15685 0.15238-0.06914 0.94953-0.99710
   4  -1  -1 13028.6 425.792   8 0.45690-0.16458-0.12464 0.04127 0.95127-0.99883
   4   1  -1 12575.2 373.410   8 0.52102-0.22866-0.15126 0.23460 0.92343-0.97095
  -3   1   1 135.578 27.9120   2 0.36124-0.57584 0.16240-0.07898 0.97003-0.90802
  -3  -1   1 139.204 40.9198   7-0.57935 0.36540 0.09015-0.17355-0.90506 0.96711
  -3   1   1 139.864 41.5659   7-0.52974 0.31579 0.08040 0.00292-0.92932 0.99144
  -3  -1   1 179.360 40.4187   9 0.26410-0.47832 0.13655-0.21978 0.98754-0.92543
  -3   1   1 164.013 37.9211   6-0.34481 0.13042 0.49645-0.41306-0.84739 0.90959
  -3   1   1 135.411 29.1265   1 0.23081-0.44491-0.21269 0.29613 0.97593-0.91407
  -3   1   1 177.358 38.2664   3-0.62887 0.41452-0.38799 0.47146-0.78065 0.84286
   3  -1  -1 136.647 33.9445   4-0.25473 0.46963 0.16028-0.24400-0.98457 0.92197
  -3  -1   1 153.015 40.0504   3-0.47410 0.25977-0.23084 0.14763-0.92408 0.98627
   3   1  -1 140.335 38.5324   2 0.45091-0.23638 0.28295-0.19950 0.91662-0.97856
   3  -1  -1 145.733 39.4616   5 0.61424-0.40017 0.25755-0.34097 0.84869-0.91108
   3  -1  -1 109.310 42.4983   8 0.50759-0.29337-0.14565 0.06226 0.92989-0.99223
   3   1  -1 107.573 30.7029   8 0.60123-0.38698-0.18522 0.26855 0.87702-0.93935
  -2   1   1 35071.3 545.638   7-0.64906 0.51324 0.10405-0.02077-0.86279 0.93961
   2   1  -1 36192.9 552.057   2 0.50791-0.37150 0.36511-0.28160 0.86228-0.93907
  -2   1   1 37600.7 551.313   6-0.35884 0.22257 0.56501-0.48168-0.79733 0.87429
  -2  -1   1 36559.9 528.058   9 0.32791-0.46400 0.34815-0.43139 0.92448-0.84760
  -2  -1   1 37714.0 550.025   7-0.72678 0.59093 0.11982-0.20318-0.80165 0.87841
   2  -1  -1 35294.2 551.018   8 0.61031-0.47419-0.18911 0.10570 0.87083-0.94798
  -4  -1  -1 2002.07 283.170   7 0.12854-0.46214-0.04296-0.04042-0.94856 0.78240
  -4   1  -1 2083.33 252.437   7 0.10871-0.44237-0.03937 0.12295-0.95479 0.78866
   4  -1   1 1911.01 201.210   8-0.09601 0.42843 0.09167-0.17487 0.95511-0.78948
  -5   1  -1 614.946 172.113   7 0.02199-0.43389-0.02364 0.10722-0.97727 0.79634
  -5  -1  -1 550.230 153.853   7 0.03186-0.44372-0.02544-0.05793-0.97509 0.79414
   5  -1   1 442.717 117.944   8-0.01502 0.42552 0.06124-0.14444 0.97716-0.79675
   5   1   1 495.553 112.240   8-0.04149 0.45201 0.07123 0.01224 0.97076-0.79027
   6  -1   1 1089.48 180.415   8 0.05474 0.43385 0.03472-0.11789 0.99024-0.79505
  -6   1  -1 1492.24 293.670   7-0.05140-0.43874-0.01020 0.09378-0.99031 0.79458
   6   1   1 1390.75 203.691   8 0.04203 0.44659 0.03958 0.04391 0.98826-0.79298
  -6  -1  -1 2021.72 328.692   7-0.04775-0.44232-0.01087-0.07250-0.98979 0.79403
  -7  -1  -1 1796.32 382.969   7-0.11692-0.45138 0.00189-0.08526-0.99732 0.78674
  -7   1  -1 2051.40 382.511   7-0.11638-0.45199 0.00179 0.08178-0.99728 0.78672
   7   1   1 1619.36 243.180   8 0.11393 0.45278 0.01197 0.07153 0.99703-0.78697
   7  -1   1 1456.18 241.026   8 0.11727 0.44941 0.01067-0.09384 0.99729-0.78733
  -8  -1  -1 613.267 266.298   7-0.17924-0.46726 0.01347-0.09685-0.99985 0.77445
   8   1   1 -69.256 98.0894   8 0.17828 0.46652-0.01303 0.09654 0.99985-0.77501
 -11   2   1 256.048 156.362   7-0.53180-0.30810 0.08080 0.08606-0.92840 0.87207
  11  -2  -1 198.668 153.427   8 0.51797 0.32096-0.14999-0.01664 0.92492-0.86910
 -11  -2   1 -216.40 132.803   7-0.56245-0.27725 0.08682-0.25380-0.91383 0.85736
 -11  -2   1 36.5064 97.5306   3-0.49645-0.34368-0.25239 0.08584-0.90955 0.85326
  11   2  -1 114.140 109.062   5 0.50954 0.32935 0.19006-0.02349 0.92048-0.86455
  11   2  -1 3.01784 82.1344   8 0.57704 0.26201-0.17489 0.34161 0.89253-0.83655
  10   2  -1 70.3711 87.3847   5 0.48545 0.27533 0.17497-0.00839 0.93299-0.89184
  10  -2  -1 108.745 127.940   8 0.49349 0.26735-0.13979-0.02685 0.93630-0.89524
 -10  -2   1 171.608 105.622   3-0.47293-0.28899-0.22972 0.06315-0.92480 0.88333
 -10   2   1 211.348 134.723   7-0.50739-0.25425 0.07602 0.09083-0.93885 0.89739
  10   2  -1 384.337 140.641   2 0.45730 0.30354 0.29189-0.12531 0.91146-0.87009
  10   2  -1 21.9102 93.5583   8 0.55450 0.20645-0.16535 0.33206 0.90576-0.86456
 -10  -2   1 438.188 162.582   7-0.53923-0.22223 0.08225-0.24921-0.92502 0.88342
  -9  -2   1 237.004 121.379   3-0.45180-0.23190-0.20962 0.04304-0.93701 0.91036
   9   2  -1 161.926 81.9932   2 0.43694 0.24584 0.26354-0.09697 0.92721-0.90054
  -9   2   1 269.377 142.668   7-0.48580-0.19759 0.07182 0.09503-0.94729 0.92069
   9  -2  -1 259.201 112.692   8 0.47165 0.21109-0.13073-0.03591 0.94551-0.91922
  -9  -2   1 60.6840 82.6627   7-0.51932-0.16390 0.07835-0.24528-0.93387 0.90712
   9  -2  -1 338.229 111.323   5 0.54613 0.13651 0.21328-0.38006 0.89884-0.87261
   9   2  -1 335.633 89.4751   8 0.53556 0.14730-0.15736 0.32408 0.91604-0.88961
   9   2  -1 284.552 110.574   5 0.46392 0.21877 0.16159 0.00499 0.94310-0.91673
   8   2  -1 1162.49 171.641   2 0.41946 0.18528 0.23962-0.07304 0.93918-0.92723
  -8   2   1 857.839 184.811   7-0.46803-0.13710 0.06836 0.09846-0.95370 0.94193
  -8  -2   1 845.446 159.076   7-0.50402-0.10097 0.07536-0.24227-0.94022 0.92831
   8   2  -1 996.597 165.974   8 0.52167 0.08309-0.15154 0.31825 0.92310-0.91145
  -8  -2   1 1084.33 181.544   3-0.43382-0.17165-0.19272 0.02611-0.94638 0.93454
   8  -2  -1 965.679 153.440   5 0.53312 0.07142 0.20498-0.37176 0.90692-0.89547
   8  -2  -1 1222.36 202.348   8 0.45336 0.15130-0.12319-0.04347 0.95259-0.94107
   8   2  -1 1009.02 180.394   5 0.44578 0.15881 0.15040 0.01619 0.95086-0.93928
  -7  -2   1 137.492 85.7802   3-0.42008-0.10716-0.17990 0.01330-0.95294 0.95591
  -7   2   1 126.757 64.9054   7-0.45559-0.07129 0.06595 0.10086-0.95791 0.96096
  -7  -2   1 144.172 69.2047   7-0.49532-0.03142 0.07367-0.24055-0.94366 0.94657
   7  -2  -1 65.5543 117.208   4-0.01955 0.54690-0.44901 0.28269-0.88102 0.87733
   7   2  -1 254.995 97.3742   2 0.40579 0.12090 0.22117-0.05457 0.94762-0.95040
  -7   2   1 250.780 79.4717   6-0.33009-0.19670 0.43230-0.26539-0.88635 0.88948
  -7  -2   1 171.141 56.5329   9 0.02159-0.54840-0.45992 0.29340 0.87559-0.87264
  -7   2   1 199.995 86.5871   3-0.55145 0.02432-0.30686 0.47374-0.86610 0.86918
   7  -2  -1 265.750 101.944   8 0.43994 0.08663-0.11767-0.04900 0.95743-0.96068
   7  -2  -1 75.0993 68.5163   5 0.52811-0.00166 0.20180-0.36856 0.90992-0.91324
   7   2  -1 254.602 85.0144   8 0.51517 0.01151-0.14882 0.31553 0.92628-0.92942
   7   2  -1 315.161 95.8653   5 0.43225 0.09424 0.14210 0.02449 0.95622-0.95942
  -6   2   1 2543.34 238.378   7-0.45088 0.00225 0.06505 0.10174-0.95944 0.97729
   6  -2  -1 2351.57 235.393   8 0.43347 0.01502-0.11502-0.05167 0.95966-0.97768
   6  -2  -1 2599.64 203.405   4-0.07402 0.52332-0.32747 0.16092-0.93905 0.92074
   6   2  -1 2499.64 207.893   8 0.51995-0.07136-0.15081 0.31753 0.92396-0.94188
  -6   2   1 2875.67 192.815   3-0.56388 0.11495-0.31948 0.48635-0.85455 0.87242
  -6   2   1 2348.96 186.465   6-0.32112-0.12760 0.39585-0.22901-0.90547 0.92336
   6   2  -1 2318.93 210.748   2 0.39728 0.05137 0.20977-0.04315 0.95248-0.97001
  -6  -2   1 2439.04 227.238   3-0.41216-0.03685-0.17256 0.00595-0.95649 0.97427
  -6  -2   1 2513.21 226.126   7-0.49656 0.04803 0.07391-0.24076-0.94318 0.96089
  -6  -2   1 2189.77 184.528   9 0.07769-0.52634-0.34137 0.17483 0.93438-0.91665
   6   2  -1 2606.44 231.572   5 0.42520 0.02318 0.13780 0.02880 0.95888-0.97686
   6  -2  -1 2655.42 195.882   5 0.53556-0.08721 0.20653-0.37330 0.90544-0.92353
   5  -2  -1 6257.48 295.115   4-0.12684 0.49805-0.19971 0.03293-0.97812 0.94512
  -5   2   1 6003.21 331.423   7-0.45790 0.08752 0.06640 0.10035-0.95714 0.98978
  -5  -2   1 6017.26 312.258   7-0.51348 0.14317 0.07721-0.24402-0.93634 0.96883
  -5  -2   1 6276.12 289.875   9 0.13253-0.50302-0.21552 0.04897 0.97500-0.94248
  -5   2   1 6289.74 287.855   6-0.31557-0.05507 0.37406-0.20727-0.91594 0.94859
   5  -2  -1 6690.93 274.299   5 0.56350-0.19325 0.22442-0.39118 0.88735-0.92022
   5   2  -1 6529.64 324.962   2 0.39583-0.02524 0.20786-0.04119 0.95328-0.98558
  -5  -2   1 6330.29 333.242   3-0.41246 0.04167-0.17284 0.00623-0.95636 0.98895
   5   2  -1 6049.75 320.752   5 0.42752-0.05726 0.13921 0.02738 0.95801-0.99078
  -5   2   1 7153.76 267.378   3-0.60037 0.22964-0.35738 0.52421-0.81615 0.84881
   5  -2  -1 6570.96 349.891   8 0.43725-0.06687-0.11657-0.05014 0.95836-0.99117
   5   2  -1 6287.09 288.240   8 0.54292-0.17243-0.16045 0.32717 0.91214-0.94485
  -4   2   1 172.758 83.9703   7-0.48371 0.19156 0.07141 0.09531-0.94807 0.99547
  -4  -2   1 185.772 72.4149   7-0.55677 0.26467 0.08570-0.25247-0.91665 0.96391
   4   2  -1 196.826 81.2664   2 0.40428-0.11173 0.21914-0.05241 0.94850-0.99558
  -4  -2   1 225.839 47.4408   1 0.22480-0.51689-0.16539-0.00119 0.98541-0.93840
  -4   2   1 210.974 69.0813   1 0.18521-0.47747 0.08460 0.08233 0.99643-0.94932
   4  -2  -1 272.044 80.7324   4-0.17739 0.47046-0.06720-0.09980-0.99769 0.94993
  -4  -2   1 175.059 72.0821   9 0.18547-0.47781-0.08357-0.08300 0.99647-0.94917
   4  -2  -1 147.396 77.6572   8 0.45698-0.16468-0.12468-0.04205 0.95124-0.99882
   4  -2  -1 199.365 62.3657   5 0.62677-0.33460 0.26588-0.43261 0.83784-0.88548
   4   2  -1 74.9565 49.6154   8 0.59702-0.30464-0.18341 0.35013 0.87982-0.92734
  -4   2   1 106.064 61.6544   6-0.31447 0.02194 0.36984-0.20310-0.91788 0.96531
   3   2  -1 10.9636 15.0500   2 0.42665-0.21217 0.24941-0.08261 0.93443-0.99631
   3  -2  -1 -9.2406 10.3894   3-0.34333 0.55777-0.10992-0.05695-0.98090 0.91862
  -3  -2   1 -13.150 24.4841   7-0.64684 0.43291 0.10361-0.27031-0.86430 0.92629
   3   2  -1 11.3891 9.37810   4-0.13095 0.34555-0.18935 0.35602-0.98039 0.91803
   3   2  -1 16.2199 12.8634   6-0.13058 0.34517-0.18879 0.35584-0.98048 0.91817
  -3   2   1 -8.4091 15.8990   1 0.21299-0.42714-0.08175 0.24859 0.99632-0.93442
   3   2  -1 35.3639 37.1980   8 0.70513-0.49087-0.23060 0.39733 0.79185-0.85417
   3  -2  -1 -9.3367 14.8643   4-0.22470 0.43957 0.06773-0.23491-0.99701 0.93442
  -3   2   1 13.3342 10.7174   9 0.15695-0.37129-0.15604 0.32289 0.98724-0.92503
  -3   2   1 -10.416 17.6793   6-0.31890 0.10447 0.38703-0.22034-0.90979 0.97199
  -3  -2   1 -10.564 24.5702   9 0.23548-0.44967 0.05245-0.21902 0.99750-0.93542
  -3   2   1 -10.677 25.3812   7-0.54150 0.32756 0.08270 0.08397-0.92396 0.98609
   3  -2  -1 14.1819 28.3207   8 0.50273-0.28852-0.14363-0.02312 0.93214-0.99450
  -2  -2   1 52.3333 27.4967   9 0.28109-0.41715 0.18912-0.35571 0.97710-0.90024
  -2   2   1 40.7623 18.9459   7-0.65566 0.51986 0.10537 0.06125-0.85822 0.93505
   2   2  -1 48.5008 23.9560   6-0.05735 0.19368-0.36441 0.53154-0.92365 0.84649
  -2   2   1 -3.3223 19.1952   6-0.32956 0.19328 0.43009-0.26345-0.88756 0.96454
   2  -2  -1 34.2415 20.7578   4-0.26746 0.40407 0.20153-0.36886-0.97579 0.89833
  -2   2   1 43.5372 20.7538   1 0.23283-0.36889-0.22953 0.39628 0.97197-0.89530
   2   2  -1 57.5312 25.4375   5 0.55718-0.42124 0.22035-0.05378 0.89163-0.96872
   2  -2  -1 17.7669 18.0585   8 0.59247-0.45636-0.18146 0.01469 0.88280-0.95996
  -2  -2   1 53.1193 21.1499   8 0.61302-0.74911-0.19028 0.02355 0.86894-0.79183
  -1   2   1 7787.43 280.980   6-0.34618 0.28805 0.50278-0.33621-0.84316 0.93488
  -1  -2   1 7922.19 284.097   3-0.60443 0.54653-0.36167 0.19512-0.81142 0.90313
   1   2  -1 7804.29 306.431   5 0.68427-0.62644 0.30495-0.13837 0.77995-0.87179
  -1  -2   1 7939.56 283.446   9 0.32053-0.37846 0.32139-0.48799 0.93568-0.84404
   0   2   1 16.1610 18.9345   6-0.36609 0.38611 0.60507-0.43857-0.76340 0.86984
   0  -2  -1 10.9506 18.6011   9-0.05590 0.03578-0.60758 0.44078 0.76718-0.87377
  -3   2  -1 6309.96 390.917   7 0.16795-0.42335-0.05004 0.21709-0.93497 0.78367
   4  -2   1 2214.33 214.035   8-0.05155 0.38396 0.07502-0.24156 0.96813-0.80254
  -4  -2  -1 3647.85 354.670   7 0.10687-0.44042-0.03904-0.12780-0.95535 0.78919
  -4   2  -1 2681.44 267.078   7 0.07198-0.40563-0.03274 0.19978-0.96525 0.79915
  -5   2  -1 363.904 96.1762   6-0.10740-0.30346-0.24649 0.41348-0.96617 0.78570
   5  -2   1 671.865 140.339   8 0.01759 0.39290 0.04889-0.21541 0.98395-0.80359
  -5   2  -1 592.235 140.743   7-0.00601-0.40589-0.01853 0.18558-0.98289 0.80199
  -5  -2  -1 1128.32 210.481   7 0.01021-0.42200-0.02150-0.14533-0.97973 0.79877
   5   2   1 749.449 121.508   8-0.02881 0.43935 0.06645 0.10035 0.97392-0.79338
  -6   2  -1 1596.21 263.312   7-0.07335-0.41678-0.00616 0.17321-0.99315 0.79744
  -6   2  -1 817.727 148.620   6-0.13559-0.35336-0.17605 0.34306-0.98309 0.78787
  -6  -2  -1 1935.78 296.641   7-0.06878-0.42124-0.00701-0.15982-0.99260 0.79684
   6   2   1 1443.02 190.450   8 0.05897 0.42967 0.03310 0.13372 0.99085-0.79552
   6  -2   1 1444.62 219.350   8 0.07907 0.40952 0.02539-0.19191 0.99351-0.79837
  -7  -2  -1 -59.046 118.445   7-0.13712-0.43109 0.00564-0.17246-0.99859 0.78801
  -7   2  -1 -45.059 86.9133   6-0.16549-0.40154-0.09785 0.26487-0.99496 0.78500
  -7   2  -1 173.418 160.634   7-0.13394-0.43441 0.00504 0.16201-0.99842 0.78788
   7  -2   1 163.229 117.576   8 0.13555 0.43113 0.00360-0.17010 0.99851-0.78860
   7   2   1 -132.50 73.0036   8 0.13320 0.43353 0.00451 0.16232 0.99838-0.78826
  -8  -2  -1 -239.99 185.876   7-0.19865-0.44777 0.01710-0.18393-0.99980 0.77439
   8   2   1 291.323 138.908   8 0.19890 0.44593-0.02109 0.18793 0.99972-0.77483
 -11   3   1 601.480 230.473   7-0.54288-0.29700 0.08297 0.16736-0.92332 0.86698
 -11  -3   1 1034.74 269.462   7-0.59080-0.24878 0.09242-0.34282-0.89881 0.84227
  11   3  -1 1695.57 308.414   5 0.51095 0.32794 0.19095 0.05899 0.91971-0.86373
  11  -3  -1 1586.55 297.442   8 0.52276 0.31616-0.15199-0.09797 0.92257-0.86680
 -11  -3   1 1436.28 296.514   3-0.49332-0.34684-0.24936-0.00060-0.91168 0.85534
 -10   3   1 156.882 122.108   7-0.51999-0.24164 0.07848 0.17183-0.93358 0.89212
 -10  -3   1 174.792 80.6990   7-0.57007-0.19128 0.08833-0.33869-0.90994 0.86827
  10  -3  -1 66.3313 105.340   8 0.49961 0.26121-0.14234-0.10764 0.93356-0.89254
  10   3  -1 322.609 141.858   5 0.48826 0.27254 0.17672 0.07322 0.93160-0.89042
  10   3  -1 454.310 154.940   2 0.45156 0.30917 0.28384-0.03398 0.91611-0.87473
 -10  -3   1 139.453 81.5435   3-0.47128-0.29066-0.22815-0.02183-0.92580 0.88428
  -9   3   1 2367.17 313.869   7-0.50013-0.18323 0.07460 0.17569-0.94177 0.91516
  -9  -3   1 2137.36 293.581   3-0.45169-0.23202-0.20952-0.04047-0.93707 0.91038
   9  -3  -1 2132.84 293.789   8 0.47926 0.20347-0.13388-0.11610 0.94240-0.91615
   9   3  -1 2180.17 270.050   2 0.43282 0.24986 0.25788-0.00802 0.93015-0.90347
   9   3  -1 2160.43 281.479   5 0.46821 0.21448 0.16425 0.08570 0.94116-0.91476
  -9  -3   1 2015.76 272.581   7-0.55328-0.12984 0.08501-0.33534-0.91836 0.89155
   9   3  -1 2392.46 270.922   8 0.58190 0.10100-0.17696 0.42703 0.88952-0.86307
   8  -3  -1 32.9352 74.3753   4 0.00580 0.59974-0.50223 0.25265-0.84816 0.85906
   8   3  -1 62.0659 63.0517   2 0.41691 0.18773 0.23618 0.01370 0.94081-0.92885
  -8   3   1 226.213 101.285   7-0.48440-0.12071 0.07155 0.17873-0.94782 0.93604
  -8  -3   1 -15.411 54.7217   7-0.54196-0.06293 0.08279-0.33308-0.92375 0.91177
   8  -3  -1 110.135 98.5856   8 0.46261 0.14205-0.12699-0.12300 0.94909-0.93761
  -8  -3   1 24.0037 59.4614   3-0.43524-0.17025-0.19405-0.05595-0.94567 0.93380
  -8   3   1 92.8165 82.4442   6-0.32997-0.27493 0.43180-0.18154-0.88662 0.87500
   8   3  -1 41.6455 66.0091   8 0.57361 0.03120-0.17344 0.42350 0.89462-0.88295
   8   3  -1 114.128 66.6642   5 0.45164 0.15296 0.15401 0.09594 0.94843-0.93681
  -8  -3   1 126.911 79.8190   9-0.00365-0.60128-0.51007 0.26019 0.84372-0.85560
  -7  -3   1 1399.59 209.914   7-0.53855 0.01188 0.08211-0.33237-0.92533 0.92817
  -7   3   1 815.876 154.638   7-0.47435-0.05250 0.06959 0.18066-0.95148 0.95453
   7  -3  -1 719.489 140.812   4-0.04030 0.56778-0.40389 0.15410-0.90516 0.90149
   7  -3  -1 948.923 167.137   8 0.45093 0.07562-0.12219-0.12782 0.95349-0.95678
  -7  -3   1 1328.80 209.317   3-0.42293-0.10432-0.18255-0.06745-0.95162 0.95456
  -7   3   1 1018.98 150.531   6-0.31963-0.20722 0.38996-0.13976-0.90837 0.91150
  -7  -3   1 834.287 137.852   9 0.04389-0.57066-0.41398 0.16409 0.90097-0.89806
   7  -3  -1 945.853 133.740   5 0.60254-0.07611 0.24983-0.49993 0.85833-0.86169
  -6  -3   1 175.615 88.5707   3-0.41614-0.03288-0.17624-0.07376-0.95472 0.97248
  -6   3   1 -12.967 49.2631   7-0.47244 0.02385 0.06922 0.18099-0.95215 0.97000
  -6  -3   1 53.4453 75.9174   7-0.54700 0.09854 0.08378-0.33398-0.92138 0.93902
   6  -3  -1 36.8998 49.7177   4-0.08433 0.53372-0.30331 0.05329-0.94806 0.92974
  -6  -3   1 15.1741 36.8022   9 0.08960-0.53820-0.31492 0.06502 0.94466-0.92696
  -6   3   1 69.2223 55.6129   6-0.31157-0.13721 0.35872-0.10856-0.92289 0.94078
   6   3  -1 325.576 163.778   8 0.59071-0.14208-0.18071 0.43079 0.88394-0.90186
   6  -3  -1 50.4934 40.0080   5 0.62541-0.17707 0.26497-0.51505 0.83905-0.85717
   6  -3  -1 121.470 74.1561   8 0.44625 0.00221-0.12026-0.12977 0.95519-0.97325
   5  -3  -1 1187.80 152.912   4-0.12607 0.49733-0.20163-0.04862-0.97768 0.94465
  -5   3   1 1198.10 155.717   7-0.48270 0.11235 0.07122 0.17895-0.94845 0.98108
  -5  -3   1 1228.16 163.861   3-0.41687 0.04609-0.17692-0.07309-0.95439 0.98696
  -5  -3   1 1136.73 135.071   7-0.57419 0.20394 0.08914-0.33928-0.90780 0.94022
  -5   3   1 1221.80 145.214   6-0.30647-0.06421 0.33952-0.08941-0.93112 0.96378
   5   3  -1 1256.88 152.485   2 0.39588-0.02534 0.20793 0.04206 0.95325-0.98553
  -5  -3   1 1307.87 154.871   9 0.13319-0.50365-0.21395-0.03595 0.97538-0.94288
   5   3  -1 1353.44 158.057   5 0.43737-0.06711 0.14524 0.10471 0.95423-0.98697
   5  -3  -1 1512.05 138.864   5 0.67709-0.30684 0.29998-0.55004 0.78799-0.82089
   5  -3  -1 1067.94 146.411   8 0.45166-0.08128-0.12249-0.12756 0.95322-0.98606
   5   3  -1 1385.03 136.455   8 0.63033-0.25982-0.19774 0.44784 0.85642-0.88913
  -4   3   1 585.336 95.9006   1 0.17869-0.47100 0.11934 0.13097 0.99284-0.94570
  -4   3   1 514.313 95.6019   7-0.51199 0.21987 0.07692 0.17318-0.93695 0.98434
  -4  -3   1 378.963 75.5752   7-0.63252 0.34046 0.10073-0.35081-0.87377 0.92095
   4   3  -1 388.146 88.7493   2 0.40302-0.11052 0.21744 0.03262 0.94924-0.99629
  -4  -3   1 403.186 86.8243   9 0.17429-0.46659-0.11240-0.13751 0.99353-0.94625
   4   3  -1 414.872 49.9090   6-0.28676 0.57959 0.26857-0.01844-0.95717 0.90966
  -4   3   1 438.383 55.6764   9 0.31978-0.61228 0.31872-0.06853 0.93674-0.88931
   4  -3  -1 413.019 92.6412   4-0.16516 0.45822-0.10029-0.15017-0.99471 0.94692
  -4   3   1 356.477 75.7758   6-0.30507 0.01251 0.33432-0.08424-0.93325 0.98070
   4  -3  -1 404.164 85.7307   8 0.47224-0.17995-0.13097-0.11910 0.94528-0.99288
   4   3  -1 631.779 103.585   8 0.70938-0.41699-0.23250 0.48262 0.78758-0.83510
   3  -3  -1 2000.10 185.882   4-0.20112 0.41595-0.00103-0.24961-0.99993 0.93732
  -3   3   1 2061.62 171.834   1 0.19985-0.41405 0.00118 0.24903 0.99994-0.93801
   3   3  -1 2327.78 149.759   6-0.20156 0.41616 0.00185 0.24854-0.99992 0.93766
  -3   3   1 2338.65 196.919   6-0.30810 0.09365 0.34560-0.09555-0.92857 0.99080
  -3   3   1 2066.00 177.696   7-0.57262 0.35870 0.08883 0.16120-0.90862 0.97073
   3   3  -1 2197.91 190.307   5 0.48932-0.27530 0.17738 0.07256 0.93107-0.99337
  -3  -3   1 2270.65 164.790   7-0.74318 0.52923 0.12321-0.37320-0.78640 0.84833
  -3  -3   1 2508.67 206.590   9 0.21238-0.42655-0.01190-0.23803 0.99965-0.93758
   3  -3  -1 2480.57 206.345   8 0.51661-0.30241-0.14942-0.10068 0.92559-0.98797
   2   3  -1 8776.54 318.657   5 0.55458-0.41866 0.21868 0.03125 0.89335-0.97043
   2  -3  -1 7822.49 323.252   4-0.23344 0.37001 0.09403-0.34481-0.99448 0.91703
  -2   3   1 8194.59 323.463   1 0.21617-0.35228-0.10334 0.35349 0.99421-0.91750
   2   3  -1 7711.13 276.516   6-0.14777 0.28412-0.14467 0.39517-0.98871 0.91164
  -2   3   1 8081.09 330.851   6-0.31613 0.17983 0.37623-0.12623-0.91493 0.99193
  -2  -3   1 8231.39 337.994   9 0.24691-0.38295 0.08545-0.33538 0.99457-0.91772
  -2   3   1 8704.29 300.886   7-0.68568 0.54990 0.11144 0.13851-0.83607 0.91287
  -2  -3   1 8079.61 329.919   3-0.50114 0.36506-0.25695 0.00700-0.90629 0.98322
   2  -3  -1 8848.72 305.753   9-0.02261 0.15882-0.54644 0.29622 0.81760-0.89463
  -2  -3   1 9167.75 203.605   8 0.60062-0.73670-0.18495-0.06512 0.87743-0.80033
   2  -3  -1 8373.55 309.503   8 0.59923-0.46311-0.18435-0.06579 0.87836-0.95554
  -2  -3   1 8847.07 312.020   4 0.02936-0.16574-0.54980 0.30001-0.81433 0.89120
   1  -3  -1 -64.987 35.8944   8 0.73854-0.68053-0.24564-0.00453 0.75628-0.84825
  -1  -3   1 614.320 86.1214   4 0.01229-0.07055-0.51549 0.26576-0.83918 0.93082
   1   3  -1 592.090 85.1345   6-0.11658 0.17471-0.22389 0.47443-0.97226 0.88038
   1   3  -1 543.196 85.9980   2 0.50620-0.44799 0.36255-0.11219 0.86422-0.95574
  -1   3   1 466.190 77.0132   6-0.32931 0.27118 0.42905-0.17912-0.88813 0.97990
  -1  -3   1 512.715 84.2397   9 0.27727-0.33517 0.17712-0.42708 0.97978-0.88815
  -1  -3   1 559.552 82.4786   3-0.57644 0.51858-0.33238 0.08246-0.84212 0.93381
   1   3  -1 705.173 91.9095   5 0.66224-0.60444 0.28979-0.03988 0.80384-0.89566
   1  -3  -1 528.310 80.9971   9-0.00554 0.06360-0.51374 0.26355 0.84120-0.93302
   0  -3   1 28.1337 21.9296   4 0.00855 0.01130-0.50788 0.25822-0.84438 0.95079
   0   3  -1 65.1360 36.6658   6-0.10114 0.08105-0.26172 0.51227-0.96171 0.85504
   0  -3   1 45.3045 34.4270   9 0.30290-0.28266 0.26022-0.51019 0.95763-0.85122
   0   3   1 81.1141 34.7203   6-0.34685 0.36688 0.50589-0.25603-0.84105 0.94755
   0  -3  -1 24.6110 16.9039   9-0.00249-0.01759-0.50780 0.25764 0.84526-0.95187
   0  -3  -1 31.0028 20.9474   4-0.28514 0.26508 0.26117-0.51209-0.95945 0.85228
  -1  -3  -1 12565.3 392.582   4-0.30371 0.20531 0.32748-0.57840-0.93594 0.81393
  -1  -3  -1 11750.1 420.080   9-0.00876-0.08948-0.51998 0.26983 0.83687-0.95827
  -1   3  -1 12188.4 433.731   6-0.09684-0.00145-0.27211 0.52264-0.95849 0.83705
   1  -3   1 12436.2 401.326   9 0.32338-0.22501 0.33162-0.58161 0.93152-0.81033
  -2   3  -1 1796.11 176.390   6-0.10061-0.07586-0.26301 0.51351-0.96132 0.82511
  -2  -3  -1 1706.17 169.232   9-0.02160-0.15478-0.54453 0.29440 0.81904-0.95523
   2  -3   1 1689.44 172.067   4 0.02571 0.15044-0.54253 0.29305-0.81979 0.95568
  -2   3  -1 1084.30 136.164   7 0.20291-0.38000-0.05629 0.30679-0.92154 0.78509
  -3   3  -1 3924.19 273.172   7 0.09948-0.35483-0.03771 0.28822-0.95755 0.80631
  -3  -3  -1 3128.33 237.044   9-0.03928-0.21526-0.57749 0.32738 0.79309-0.94407
  -3   3  -1 3219.19 249.395   6-0.11038-0.14426-0.23919 0.48967-0.96821 0.81724
   3  -3   1 3286.42 232.117   8-0.06087 0.31519 0.07852-0.32841 0.96558-0.81480
   3  -3   1 3259.59 253.666   4 0.04235 0.21194-0.57522 0.32584-0.79433 0.94491
  -3  -3  -1 2170.74 243.103   7 0.18304-0.43829-0.05274-0.19756-0.92933 0.77797
  -4  -3  -1 2.85128 38.9899   7 0.05932-0.39280-0.03044-0.21984-0.96853 0.80239
  -4   3  -1 5.94498 44.6286   7 0.01958-0.35319-0.02320 0.27371-0.97778 0.81174
  -4   3  -1 37.7063 46.0088   6-0.12469-0.20809-0.20365 0.45411-0.97718 0.81146
  -4  -3  -1 -1.5988 16.8763   9-0.06063-0.27205-0.61599 0.36590 0.75953-0.92531
   4   3   1 64.0668 39.5508   8-0.10679 0.43926 0.09569 0.15444 0.95161-0.78580
   4  -3   1 18.4771 34.2555   8 0.00310 0.32930 0.05438-0.30427 0.98108-0.81553
  -5  -3  -1 5738.57 397.223   7-0.03253-0.37917-0.01367-0.23658-0.98748 0.80654
   5   3   1 5326.15 302.524   8 0.00826 0.40231 0.05243 0.19771 0.98213-0.80153
   5  -3   1 6072.30 419.077   8 0.06015 0.35034 0.03265-0.28251 0.99102-0.81069
  -6  -3  -1 3132.74 333.534   7-0.10745-0.38247 0.00013-0.25038-0.99658 0.80083
  -6   3  -1 2521.76 312.725   7-0.10736-0.38274 0.00012 0.25040-0.99657 0.80089
  -6   3  -1 2130.05 253.537   6-0.16312-0.32588-0.10417 0.35460-0.99426 0.79904
   6  -3   1 2579.42 280.945   8 0.11290 0.37569 0.01237-0.26221 0.99695-0.80184
   6   3   1 2347.38 223.010   8 0.09690 0.39177 0.01854 0.23162 0.99548-0.80010
  -7   3  -1 2532.71 349.863   7-0.16228-0.40605 0.01031 0.24021-0.99957 0.78906
  -7  -3  -1 3300.54 387.818   7-0.17247-0.39564 0.01221-0.26247-0.99978 0.78921
  -7   3  -1 2516.72 292.969   6-0.18593-0.38115-0.04212 0.29256-0.99912 0.78916
   7   3   1 2706.84 248.628   8 0.17072 0.39605-0.01008 0.26024 0.99977-0.78960
   7  -3   1 2825.73 318.330   8 0.16279 0.40388-0.00699-0.24285 0.99961-0.78974
 -11  -4   1 136.279 141.083   3-0.49612-0.34405-0.25207-0.08128-0.90977 0.85338
  11   4  -1 -152.74 130.798   2 0.47119 0.36749 0.31159 0.02156 0.89947-0.84343
 -10   4   1 -165.23 139.320   7-0.53984-0.22175 0.08237 0.25141-0.92474 0.88325
 -10  -4   1 35.3004 110.881   7-0.61090-0.15033 0.09642-0.43015-0.88721 0.84545
  10  -4  -1 111.234 89.1570   8 0.51246 0.24836-0.14769-0.18562 0.92758-0.88661
  10   4  -1 -41.427 95.6265   5 0.49743 0.26336 0.18245 0.15085 0.92694-0.88571
  10   4  -1 142.433 106.918   2 0.45204 0.30861 0.28451 0.04862 0.91573-0.87436
 -10  -4   1 -90.542 83.0814   3-0.47582-0.28613-0.23248-0.10090-0.92302 0.88146
  -9  -4   1 559.313 170.055   3-0.45803-0.22568-0.21552-0.11787-0.93355 0.90681
   9   4  -1 565.684 164.393   2 0.43510 0.24752 0.26101 0.07214 0.92854-0.90187
  -9   4   1 285.922 133.170   7-0.52237-0.16094 0.07895 0.25479-0.93255 0.90592
  -9  -4   1 478.898 152.876   7-0.59848-0.08453 0.09395-0.42764-0.89448 0.86758
   9  -4  -1 374.158 118.250   8 0.49410 0.18863-0.14004-0.19328 0.93603-0.90982
   9   4  -1 528.420 145.661   5 0.47927 0.20342 0.17112 0.16219 0.93600-0.90956
  -8  -4   1 358.617 115.697   3-0.44343-0.16205-0.20173-0.13167-0.94149 0.92957
   8   4  -1 278.388 103.382   2 0.42095 0.18364 0.24165 0.09151 0.93821-0.92625
   8  -4  -1 266.148 113.664   4-0.00910 0.61478-0.47121 0.13816-0.86792 0.87883
  -8   4   1 467.734 158.490   7-0.50944-0.09561 0.07642 0.25729-0.93801 0.92622
  -8  -4   1 379.635 122.014   7-0.59274-0.01205 0.09281-0.42645-0.89773 0.88566
  -8  -4   1 493.952 133.086   9 0.01225-0.61713-0.47871 0.14547 0.86419-0.87609
   8  -4  -1 378.218 137.778   8 0.47965 0.12499-0.13404-0.19930 0.94223-0.93080
   8   4  -1 605.727 154.765   5 0.46471 0.13988 0.16208 0.17123 0.94275-0.93109
  -8   4   1 362.362 113.414   6-0.32473-0.28024 0.41031-0.07675-0.89813 0.88650
  -7   4   1 2118.24 254.756   7-0.50270-0.02410 0.07510 0.25856-0.94075 0.94377
  -7  -4   1 2514.39 257.504   7-0.59662 0.07004 0.09358-0.42717-0.89554 0.89829
  -7   4   1 1809.98 219.025   6-0.31564-0.21126 0.37435-0.04083-0.91580 0.91893
   7   4  -1 1840.07 226.010   2 0.41032 0.11624 0.22727 0.10593 0.94491-0.94768
   7   4  -1 1780.28 226.903   5 0.45486 0.07161 0.15600 0.17731 0.94706-0.95020
  -7  -4   1 1905.64 227.071   9 0.05287-0.57959-0.39507 0.06182 0.91043-0.90755
  -7  -4   1 1887.68 245.619   3-0.43293-0.09432-0.19188-0.14153-0.94682 0.94972
   7  -4  -1 1663.34 227.318   8 0.47043 0.05612-0.13022-0.20313 0.94600-0.94933
   7  -4  -1 1737.47 224.886   4-0.04826 0.57585-0.38617 0.05291-0.91378 0.91008
  -6   4   1 614.414 134.457   7-0.50471 0.05617 0.07550 0.25811-0.93994 0.95777
  -6  -4   1 562.881 110.689   7-0.61491 0.16653 0.09722-0.43074-0.88480 0.90234
   6   4  -1 490.207 127.574   2 0.40416 0.04437 0.21898 0.11426 0.94857-0.96609
   6  -4  -1 441.883 136.234   4-0.08516 0.53460-0.30136-0.03214-0.94875 0.93040
   6   4  -1 544.503 123.006   5 0.45133-0.00297 0.15382 0.17949 0.94856-0.96648
  -6  -4   1 501.060 110.485   9 0.09132-0.53989-0.31106-0.02220 0.94609-0.92841
  -6   4   1 613.198 127.445   6-0.30865-0.14018 0.34765-0.01415-0.92770 0.94560
  -6  -4   1 515.474 123.984   3-0.42774-0.02125-0.18704-0.14637-0.94934 0.96706
   6  -4  -1 467.064 124.674   8 0.46837-0.01991-0.12938-0.20400 0.94682-0.96492
   6   4  -1 781.870 122.774   8 0.68759-0.23893-0.22280 0.55627 0.80869-0.82660
  -5   4   1 -44.341 56.1774   7-0.51955 0.14925 0.07840 0.25515-0.93377 0.96637
   5   4  -1 58.6356 64.2854   2 0.40369-0.03319 0.21835 0.11496 0.94884-0.98112
  -5  -4   1 -41.290 43.1358   7-0.65568 0.28549 0.10538-0.43883-0.85821 0.89054
  -5   4   1 9.98091 42.3004   6-0.30425-0.06648 0.33127 0.00220-0.93450 0.96718
   5  -4  -1 -35.088 50.1314   4-0.11960 0.49087-0.21783-0.11589-0.97383 0.94076
  -5  -4   1 55.8489 59.2770   9 0.12742-0.49785-0.22770-0.10557 0.97196-0.93949
   5   4  -1 62.0925 37.9411   6-0.35497 0.72597 0.54516-0.21191-0.81281 0.77982
  -5  -4   1 23.3455 45.4806   3-0.42960 0.05884-0.18877-0.14464-0.94845 0.98098
   5   4  -1 -45.591 48.5980   5 0.45645-0.08620 0.15697 0.17634 0.94638-0.97909
   5  -4  -1 83.2884 53.2555   8 0.47643-0.10606-0.13271-0.20069 0.94357-0.97643
   4  -4  -1 1220.54 160.703   4-0.15137 0.44442-0.13678-0.19714-0.98996 0.94213
  -4   4   1 1199.33 143.253   7-0.55398 0.26189 0.08515 0.24831-0.91802 0.96538
  -4  -4   1 1302.67 132.006   7-0.73235 0.44029 0.12097-0.45433-0.79657 0.84367
   4   4  -1 1239.21 110.023   6-0.28941 0.58227 0.27783 0.05573-0.95415 0.90662
  -4   4   1 1190.05 149.853   6-0.30300 0.01039 0.32663 0.00682-0.93635 0.98382
   4   4  -1 1147.31 152.088   2 0.41054-0.11808 0.22756 0.10584 0.94477-0.99182
   4  -4  -1 1193.95 148.274   8 0.49926-0.20696-0.14218-0.19124 0.93372-0.98136
  -4  -4   1 1259.86 166.333   3-0.44088 0.14836-0.19933-0.13406-0.94281 0.99014
  -4  -4   1 1227.47 159.594   9 0.16092-0.45320-0.14617-0.18710 0.98886-0.94160
   4   4  -1 1051.51 136.063   5 0.47370-0.18158 0.16766 0.16565 0.93863-0.98612
  -3  -4   1 104.916 40.7857   4 0.01998-0.23451-0.53106 0.19788-0.82819 0.89026
  -3   4   1 36.8913 25.6613   7-0.61938 0.40550 0.09811 0.23526-0.88206 0.94413
   3   4  -1 59.6583 31.3805   6-0.23472 0.44935 0.09959 0.23419-0.99387 0.93162
   3  -4  -1 32.8312 36.7605   4-0.18017 0.39498-0.05959-0.27450-0.99820 0.93557
  -3   4   1 79.5404 45.5843   6-0.30537 0.09091 0.33540-0.00199-0.93281 0.99507
   3  -4  -1 17.7517 29.9970   9-0.01215 0.22652-0.52651 0.19291 0.83224-0.89452
  -3  -4   1 93.1930 61.8209   3-0.46496 0.25068-0.22211-0.11126-0.92956 0.99169
  -3  -4   1 96.0273 51.4129   9 0.19150-0.40564-0.06779-0.26549 0.99768-0.93564
  -3  -4   1 66.8500 22.7429   8 0.02364-0.23784 0.04659-0.37995 0.98508-0.92286
  -3   4   1 51.6656 19.5409   2 0.43768-0.65230 0.26456 0.06911 0.92668-0.86460
   3  -4  -1 121.168 55.5592   8 0.54430-0.33008-0.16103-0.17242 0.91139-0.97381
   2   4  -1 2750.30 115.909   7-0.30650 0.44241 0.03741 0.29602-0.99194 0.91503
  -2   4   1 2988.85 190.016   7-0.73336 0.59758 0.12118 0.21210-0.79564 0.87239
   2  -4  -1 2743.06 197.421   9 0.01088 0.12535-0.48143 0.14786 0.86248-0.93953
   2   4  -1 2582.21 189.664   6-0.19492 0.33130-0.01699 0.35088-0.99984 0.92281
  -2   4   1 2231.75 198.672   6-0.31180 0.17549 0.35955-0.02618-0.92252 0.99955
  -2  -4   1 2486.89 206.930   9 0.21887-0.35487 0.00590-0.33919 0.99953-0.92270
  -2  -4   1 2395.55 196.722   3-0.50632 0.37028-0.26201-0.07133-0.90259 0.97950
  -2  -4   1 2500.00 82.4411   8 0.47859-0.61466-0.13360-0.19981 0.94268-0.86561
   2   4  -1 2448.83 181.212   5 0.56827-0.43239 0.22751 0.10577 0.88404-0.96109
   2  -4  -1 2693.46 189.181   8 0.62320-0.48707-0.19466-0.13884 0.86168-0.93887
  -2  -4   1 2731.45 202.199   4-0.00267-0.13379-0.48470 0.15157-0.85954 0.93639
   1   4  -1 7589.57 347.503   6-0.16830 0.22643-0.09030 0.42426-0.99573 0.90389
   1   4  -1 8054.40 360.053   2 0.49765-0.43944 0.34989-0.01615 0.87357-0.96506
  -1   4   1 7754.03 359.006   6-0.32242 0.26430 0.40103-0.06772-0.90288 0.99467
   1  -4  -1 8069.76 349.448   9 0.02022 0.03786-0.46269 0.12915 0.87395-0.96579
  -1  -4   1 7933.09 363.989   9 0.24268-0.30055 0.07315-0.40645 0.99581-0.90421
   1   4  -1 9610.35 367.915   5 0.66260-0.60483 0.29003 0.04322 0.80347-0.89527
  -1  -4   1 8240.79 346.307   3-0.57001 0.51219-0.32576-0.00753-0.84858 0.94024
  -1  -4   1 8588.59 373.898   4-0.01240-0.04594-0.46426 0.13117-0.87211 0.96375
  -1   4  -1 299.802 51.3137   7 0.18960-0.28837-0.05391 0.38784-0.92681 0.80523
   1   4   1 228.044 59.1943   1 0.22526-0.12713-0.16896 0.50240 0.98478-0.86370
  -1   4  -1 266.992 77.6753   6-0.14507 0.04677-0.15166 0.48563-0.98756 0.86615
   1  -4   1 281.706 52.1107   8-0.08729 0.18543 0.08841-0.42167 0.95784-0.83663
   1   4   1 265.691 64.8934   6-0.35415 0.45239 0.54106-0.20791-0.81590 0.93715
  -1  -4  -1 205.088 67.2793   9 0.01305-0.11126-0.47709 0.14359 0.86519-0.98661
   1  -4   1 221.270 44.4074   9 0.27833-0.17992 0.18042-0.51375 0.97906-0.85789
  -1  -4  -1 277.790 67.2492   4-0.25988 0.16150 0.17680-0.51118-0.98130 0.85933
  -2   4  -1 30.1386 37.9394   7 0.08810-0.26515-0.03565 0.36958-0.96083 0.82445
   2   4   1 -31.137 26.4578   1 0.22793-0.05170-0.18960 0.52302 0.98087-0.84500
  -2  -4  -1 11.3739 38.9053   9 0.00072-0.17707-0.50153 0.16804 0.84947-0.98569
  -2   4  -1 -30.992 45.7413   6-0.14451-0.03197-0.15312 0.48706-0.98731 0.85113
  -2  -4  -1 -9.6523 36.9130   4-0.26932 0.09264 0.20763-0.54201-0.97432 0.83752
   2  -4   1 34.5428 38.2009   9 0.28946-0.11294 0.21593-0.54927 0.97050-0.83455
   2  -4   1 5.44189 29.9364   8-0.03088 0.20710 0.06723-0.40049 0.97342-0.83743
   3  -4   1 1356.73 180.494   4 0.01990 0.23444-0.53091 0.19815-0.82830 0.97894
  -3  -4  -1 1055.54 128.248   4-0.27364 0.01868 0.22203-0.55637-0.97067 0.81907
  -3   4  -1 1478.78 185.617   6-0.14934-0.10530-0.14053 0.47446-0.98937 0.83842
   3   4   1 1432.81 151.675   1 0.22831 0.02605-0.19263 0.52605 0.98025-0.82959
   3  -4   1 1467.11 154.074   9 0.29555-0.04088 0.23576-0.56914 0.96504-0.81431
  -3  -4  -1 1316.84 173.333   9-0.01579-0.23871-0.53348 0.20001 0.82722-0.97822
   3  -4   1 1336.28 151.215   8 0.01925 0.23506 0.04826-0.38149 0.98426-0.83351
  -3  -4  -1 1699.56 152.527   7 0.08810-0.34326-0.03565-0.29804-0.96083 0.80952
  -3   4  -1 1446.54 156.005   7 0.01412-0.26941-0.02221 0.35615-0.97893 0.82775
  -4  -4  -1 6.13912 42.2994   7-0.02001-0.31338-0.01597-0.31770-0.98540 0.81930
  -4   4  -1 11.2457 53.6081   7-0.04726-0.28628-0.01096 0.34492-0.98972 0.82373
   4  -4   1 31.0671 60.5195   4 0.03874 0.29377-0.56821 0.23555-0.79999 0.96531
   4  -4   1 -14.644 36.6051   9 0.29571 0.03709 0.23630-0.56969 0.96488-0.79937
  -4   4  -1 -14.222 66.2715   6-0.15852-0.17428-0.11641 0.45031-0.99279 0.82708
  -4  -4  -1 6.57639 32.7943   4-0.27186-0.06134 0.21606-0.55035-0.97221 0.80583
   4   4   1 1.78112 26.5716   8-0.03184 0.36434 0.06760 0.26586 0.97318-0.80732
   4   4   1 14.6500 26.4151   1 0.22625 0.10626-0.17644 0.50985 0.98341-0.81795
  -4  -4  -1 17.2344 50.3563   9-0.03565-0.29700-0.57080 0.23735 0.79854-0.96434
   4  -4   1 -45.666 66.0093   8 0.06611 0.26629 0.03037-0.36358 0.99185-0.82632
  -5   4  -1 3463.28 304.765   7-0.10192-0.30988-0.00089 0.33484-0.99610 0.81529
  -5  -4  -1 2870.33 184.934   4-0.26191-0.14947 0.18337-0.51760-0.97991 0.79876
   5   4   1 3113.23 204.647   1 0.22115 0.18950-0.13845 0.47185 0.98973-0.80947
  -5   4  -1 3673.70 323.392   6-0.17121-0.23973-0.08247 0.41634-0.99646 0.81599
   5  -4   1 3130.54 201.172   9 0.28817 0.12275 0.21176-0.54518 0.97158-0.79127
   5  -4   1 3266.58 282.402   8 0.11108 0.29942 0.01307-0.34627 0.99679-0.81649
   5   4   1 3612.93 218.050   8 0.07948 0.33114 0.02524 0.30825 0.99356-0.81290
  -5  -4  -1 3571.74 272.616   7-0.10011-0.31148-0.00122-0.33243-0.99594 0.81504
  -6   4  -1 314.617 134.552   7-0.15259-0.33744 0.00851 0.32545-0.99927 0.80363
  -6  -4  -1 269.230 94.5290   7-0.16635-0.32345 0.01107-0.34472-0.99967 0.80394
  -6   4  -1 298.401 125.457   6-0.18674-0.30230-0.03988 0.37374-0.99921 0.80400
   6   4   1 322.380 90.6343   8 0.16273 0.32598-0.00696 0.34046 0.99961-0.80417
   6  -4   1 361.323 119.394   8 0.15484 0.33373-0.00389-0.32929 0.99938-0.80431
  -8  -4  -1 19.0123 74.7012   7-0.27876-0.36745 0.03216-0.36586-0.99522 0.76991
 -10   5   1 146.645 146.407   7-0.56645-0.19506 0.08761 0.32961-0.91180 0.87027
  10  -5  -1 -26.528 127.321   8 0.53126 0.22955-0.15556-0.26109 0.91827-0.87735
  10   5  -1 130.424 146.287   5 0.51201 0.24879 0.19162 0.22504 0.91913-0.87786
  10   5  -1 338.852 160.685   2 0.45723 0.30335 0.29180 0.12461 0.91151-0.87017
 -10  -5   1 99.6609 152.507   3-0.48532-0.27663-0.24162-0.17518-0.91699 0.87538
  -9  -5   1 1065.52 241.757   3-0.46946-0.21425-0.22641-0.19040-0.92689 0.90011
   9   5  -1 962.024 214.314   2 0.44210 0.24046 0.27068 0.14574 0.92341-0.89675
  -9   5   1 759.034 199.298   7-0.55194-0.13131 0.08475 0.33244-0.91901 0.89234
   9   5  -1 911.997 207.868   5 0.49599 0.18670 0.18155 0.23511 0.92769-0.90121
   9  -5  -1 761.217 195.782   8 0.51526 0.16746-0.14886-0.26781 0.92624-0.90008
  -8  -5   1 172.182 117.628   3-0.45684-0.14864-0.21440-0.20242-0.93422 0.92226
   8   5  -1 80.0257 75.3406   2 0.42975 0.17479 0.25365 0.16280 0.93231-0.92037
   8  -5  -1 -211.95 102.585   4-0.01494 0.62072-0.45883 0.04231-0.87532 0.88621
  -8   5   1 56.1306 70.5182   7-0.54243-0.06255 0.08288 0.33425-0.92353 0.91170
  -8   5   1 -13.723 94.8339   6-0.32357-0.28146 0.40565 0.01125-0.90053 0.88891
  -8  -5   1 -88.012 86.6835   9 0.01875-0.62360-0.46566 0.04907 0.87217-0.88411
   8  -5  -1 173.415 93.5871   8 0.50345 0.10119-0.14393-0.27276 0.93181-0.92041
   8   5  -1 -21.581 76.7557   5 0.48370 0.12087 0.17388 0.24279 0.93385-0.92217
  -7  -5   1 1012.94 199.554   3-0.44829-0.07895-0.20631-0.21051-0.93891 0.94178
   7   5  -1 680.558 155.774   2 0.42079 0.10573 0.24143 0.17507 0.93832-0.94110
  -7   5   1 754.020 156.260   7-0.53973 0.01300 0.08235 0.33472-0.92479 0.92777
   7   5  -1 737.174 154.112   5 0.47626 0.05021 0.16925 0.24743 0.93743-0.94053
   7  -5  -1 610.455 162.087   4-0.04894 0.57658-0.38466-0.03209-0.91449 0.91076
  -7  -5   1 978.810 187.618   9 0.05414-0.58083-0.39237-0.02423 0.91174-0.90888
   7  -5  -1 962.024 190.748   8 0.49712 0.02943-0.14130-0.27541 0.93468-0.93804
  -7   5   1 827.135 171.399   6-0.31567-0.21129 0.37447 0.04240-0.91575 0.91889
   6   5  -1 487.670 120.233   2 0.41605 0.03245 0.23500 0.18156 0.94136-0.95888
  -6   5   1 650.450 151.002   7-0.54647 0.09799 0.08367 0.33333-0.92163 0.93941
  -6  -5   1 619.992 123.613   7-0.70032 0.25201 0.11441-0.53122-0.82439 0.84183
   6  -5  -1 1072.12 178.902   4-0.08065 0.53011-0.31200-0.10498-0.94491 0.92650
  -6  -5   1 409.047 111.879   3-0.44490-0.00409-0.20311-0.21371-0.94072 0.95839
  -6   5   1 430.370 116.450   6-0.30969-0.13919 0.35156 0.06531-0.92602 0.94394
   6   5  -1 475.854 117.514   5 0.47514-0.02679 0.16855 0.24812 0.93796-0.95585
  -6  -5   1 591.224 146.688   9 0.08727-0.53581-0.32014-0.09648 0.94271-0.92506
   6  -5  -1 578.841 134.801   8 0.49822-0.04975-0.14175-0.27498 0.93419-0.95232
   5  -5  -1 1169.48 199.035   4-0.10990 0.48116-0.24180-0.17538-0.96753 0.93441
  -5   5   1 1417.71 179.223   7-0.56682 0.19658 0.08769 0.32924-0.91161 0.94416
  -5  -5   1 1045.98 133.834   7-0.75684 0.38667 0.12603-0.54275-0.77297 0.80519
  -5   5   1 1153.55 186.843   6-0.30600-0.06477 0.33774 0.07910-0.93185 0.96456
   5   5  -1 1388.18 192.575   2 0.41655-0.04608 0.23569 0.18096 0.94104-0.97332
  -5  -5   1 1466.01 194.908   9 0.11801-0.48841-0.24987-0.16675 0.96595-0.93351
  -5  -5   1 1354.62 195.843   3-0.44816 0.07741-0.20618-0.21063-0.93898 0.97147
   5   5  -1 1533.87 187.749   5 0.48247-0.11224 0.17311 0.24356 0.93445-0.96713
   5  -5  -1 1423.22 192.077   8 0.50953-0.13915-0.14646-0.27028 0.92897-0.96187
   4  -5  -1 1840.00 219.410   4-0.13656 0.42959-0.17506-0.24231-0.98332 0.93544
  -4   5   1 2127.85 204.174   7-0.60733 0.31530 0.09571 0.32110-0.88933 0.93662
   4  -5  -1 2463.14 205.100   9-0.02509 0.31763-0.55112 0.13414 0.81404-0.86155
   4   5  -1 1999.62 163.410   6-0.29723 0.59012 0.30565 0.11132-0.94439 0.89684
  -4   5   1 1695.95 198.447   6-0.30500 0.01238 0.33405 0.08277-0.93336 0.98086
   4   5  -1 1715.46 199.977   2 0.42358-0.13114 0.24523 0.17152 0.93649-0.98354
  -4  -5   1 1957.82 220.175   9 0.14618-0.43843-0.18255-0.23408 0.98231-0.93508
   4   5  -1 1744.33 187.475   5 0.50132-0.20920 0.18489 0.23178 0.92491-0.97237
  -4  -5   1 1747.54 206.143   3-0.46004 0.16754-0.21743-0.19936-0.93241 0.97970
   4  -5  -1 1888.90 198.871   8 0.53531-0.24302-0.15726-0.25952 0.91617-0.96383
  -4   5   1 1718.21 200.419   1 0.16324-0.45563 0.19674 0.22032 0.98025-0.93307
  -4  -5   1 2339.19 210.288   4 0.03234-0.32503-0.55567 0.13913-0.80984 0.85706
   3   5  -1 854.898 136.934   2 0.43870-0.22431 0.26597 0.15089 0.92593-0.98778
  -3   5   1 1051.70 134.032   7-0.67834 0.46447 0.10995 0.30674-0.84171 0.90371
   3   5  -1 1045.57 133.178   6-0.25733 0.47198 0.17028 0.24688-0.98267 0.92040
  -3   5   1 1004.24 87.3354   2 0.47268-0.68729 0.31370 0.10342 0.89813-0.83604
   3  -5  -1 922.481 132.257   8 0.58204-0.36784-0.17702-0.23979 0.88944-0.95187
   3  -5  -1 795.875 139.936   4-0.16042 0.37520-0.11290-0.30463-0.99324 0.93058
  -3  -5   1 1032.60 154.955   9 0.17158-0.38569-0.11929-0.29734 0.99269-0.93067
  -3  -5   1 887.868 143.327   3-0.48318 0.26893-0.23956-0.17720-0.91837 0.98046
   3   5  -1 1078.24 143.760   5 0.53603-0.32205 0.20683 0.20982 0.90515-0.96739
  -3   5   1 815.971 132.640   6-0.30706 0.09259 0.34172 0.07508-0.93020 0.99247
   3  -5  -1 1141.02 143.740   9 0.00538 0.20901-0.49235 0.07538 0.85551-0.91781
  -3  -5   1 1219.47 150.669   4 0.00296-0.21758-0.49637 0.07985-0.85203 0.91405
  -3   5   1 1064.01 151.940   1 0.17783-0.39214 0.12378 0.29321 0.99229-0.93032
   2  -5  -1 28.9150 16.5317   3-0.36992 0.50627-0.13387-0.28320-0.97279 0.89559
  -2  -5   1 83.7041 59.5310   9 0.19396-0.32994-0.06131-0.35533 0.99809-0.92129
  -2   5   1 43.1569 45.8304   1 0.18958-0.32580 0.06048 0.35644 0.99819-0.92142
   2   5  -1 76.8612 43.7801   6-0.22628 0.36267 0.07407 0.34321-0.99649 0.91947
   2  -5  -1 -42.830 51.7124   4-0.18129 0.31779-0.05651-0.36113-0.99839 0.92090
  -2   5   1 103.593 69.7778   6-0.31247 0.17615 0.36211 0.05465-0.92138 0.99844
  -2   5   1 50.1782 23.9115   2 0.32393-0.46038 0.11465 0.30216 0.98347-0.90670
  -2  -5   1 88.8097 57.4942   3-0.52090 0.38488-0.27634-0.14039-0.89168 0.96855
   2  -5  -1 21.1350 51.5280   9 0.02179 0.11446-0.45952 0.04259 0.87583-0.95290
   2   5  -1 98.7812 55.6330   2 0.46370-0.32740 0.30093 0.11606 0.90607-0.98272
   2  -5  -1 32.9556 41.8629   8 0.65901-0.52288-0.21022-0.20664 0.83381-0.91102
  -1  -5   1 321.129 94.2545   9 0.21310-0.27093-0.00996-0.40670 0.99965-0.90807
   1  -5  -1 351.088 88.5177   9 0.02836 0.02974-0.44613 0.02922 0.88358-0.97544
   1   5  -1 292.901 75.7403   6-0.20386 0.26201 0.00843 0.40893-0.99985 0.90803
   1  -5  -1 314.123 83.4033   4-0.19892 0.25712-0.00728-0.41046-0.99993 0.90762
  -1   5   1 313.900 84.7033   6-0.32131 0.26319 0.39660 0.02011-0.90510 0.99692
   1   5  -1 424.988 95.9363   5 0.67739-0.61965 0.30019 0.11641 0.78766-0.87942
  -1  -5   1 411.903 91.0711   3-0.57669 0.51891-0.33263-0.08404-0.84187 0.93350
  -1  -5   1 361.348 37.9412   8 0.13094-0.18897 0.00538-0.42205 0.99824-0.90651
  -1   5   1 269.375 83.9396   1 0.19871-0.25682 0.00799 0.40888 0.99992-0.90838
   0  -5  -1 2616.62 103.955   7-0.28020 0.25981 0.03243-0.44912-0.99507 0.88847
   0  -5  -1 2424.36 229.839   4-0.21304 0.19294 0.03332-0.45112-0.99914 0.89200
   0   5   1 2556.73 233.195   1 0.20538-0.18541-0.03267 0.44952 0.99932-0.89299
   0  -5   1 2613.23 232.801   9 0.22870-0.20840 0.03327-0.44993 0.99864-0.89227
   0   5  -1 2853.99 227.293   2 0.54899-0.56898 0.42822-0.01096 0.80877-0.91509
   0   5  -1 2656.38 239.793   6-0.18913 0.16906-0.03321 0.45060-0.99946 0.89286
   0   5   1 2469.62 226.220   6-0.33344 0.35351 0.44640-0.02976-0.87838 0.98495
   0  -5   1 2564.93 145.796   8 0.06255-0.04249 0.03173-0.44837 0.99136-0.88489
   0  -5  -1 2520.86 231.716   9 0.02762-0.04765-0.44766 0.03077 0.88271-0.98936
   0  -5   1 2565.60 232.591   4-0.02023 0.04002-0.44757 0.03115-0.88184 0.98825
   0   5  -1 2513.77 112.008   7 0.03905-0.05950-0.02675 0.44398-0.97345 0.86680
   1   5   1 1622.56 194.107   1 0.20977-0.11169-0.06057 0.47739 0.99792-0.87681
  -1   5  -1 1579.51 192.863   6-0.18099 0.08270-0.05576 0.47315-0.99843 0.87704
   1   5   1 1773.28 193.414   6-0.34817 0.44643 0.51206-0.09551-0.83681 0.95809
  -1  -5  -1 1715.75 200.544   9 0.02117-0.11935-0.46076 0.04390 0.87509-0.99653
   1  -5   1 1954.73 199.409   9 0.24043-0.14200 0.06665-0.48333 0.99639-0.87525
   1  -5   1 1778.84 147.976   8 0.06149 0.03665 0.03214-0.44875 0.99121-0.86999
   1  -5   1 1855.45 203.936   4-0.01461 0.11258-0.45955 0.04320-0.87490 0.99608
  -1   5  -1 1546.84 116.965   7-0.00454-0.09416-0.01880 0.43606-0.98261 0.86115
   2   5   1 1507.34 183.175   1 0.21193-0.03573-0.07474 0.49154 0.99690-0.86100
  -2  -5  -1 1389.58 188.222   9 0.01015-0.18647-0.48289 0.06604 0.86156-0.99780
  -2   5  -1 1341.12 181.164   6-0.17842 0.00192-0.06285 0.48022-0.99798 0.86182
   2   5   1 795.662 127.600   6-0.36397 0.54042 0.59289-0.17643-0.77412 0.91007
   2  -5   1 1460.86 173.122   9 0.24785-0.07129 0.08819-0.50489 0.99427-0.85834
   2  -5   1 1414.67 149.900   8 0.07941 0.09682 0.02526-0.44185 0.99355-0.85757
   2  -5   1 1530.49 199.195   4-0.00450 0.18067-0.48085 0.06458-0.86196 0.99790
  -2  -5  -1 1547.53 92.1828   7 0.04627-0.22310-0.02806-0.38897-0.97175 0.83530
  -2   5  -1 1454.76 136.117   7-0.04607-0.13088-0.01118 0.42848-0.98955 0.85326
  -3   5  -1 694.004 105.391   7-0.08696-0.16824-0.00365 0.42098-0.99466 0.84355
   3  -5   1 858.002 159.106   4 0.00932 0.24504-0.50945 0.09327-0.84331 0.99397
   3   5   1 685.136 119.486   1 0.21183 0.04250-0.07407 0.49086 0.99695-0.84626
  -3   5  -1 652.894 143.328   6-0.18049-0.07418-0.05714 0.47450-0.99835 0.84741
  -3  -5  -1 829.351 156.090   9-0.00463-0.24984-0.51197 0.09514 0.84242-0.99344
   3   5   1 742.523 61.2816   8-0.02964 0.28409 0.06677 0.35003 0.97372-0.82258
   3  -5   1 856.973 129.617   8 0.10555 0.14876 0.01520-0.43177 0.99631-0.84557
   3  -5   1 897.640 133.793   9 0.25031 0.00438 0.09541-0.51213 0.99344-0.84272
  -3  -5  -1 802.983 86.5861   7-0.06899-0.18605-0.00697-0.41003-0.99263 0.84139
  -4  -5  -1 25.3459 40.2858   7-0.14080-0.19245 0.00632-0.42331-0.99877 0.83273
   4  -5   1 -3.6497 58.8399   4 0.02629 0.30626-0.54368 0.12761-0.81894 0.98430
  -4  -5  -1 61.6710 60.9837   9-0.02257-0.31004-0.54636 0.12954 0.81766-0.98348
   4   5   1 -21.678 41.4938   1 0.20924 0.12323-0.05714 0.47393 0.99814-0.83264
  -4   5  -1 -48.213 45.4197   6-0.18647-0.14636-0.04062 0.45796-0.99918 0.83348
  -4  -5  -1 36.7749 45.1178   4-0.22516-0.10798 0.06908-0.48679-0.99690 0.83054
  -4   5  -1 9.63499 60.4914   7-0.12756-0.20589 0.00386 0.41350-0.99804 0.83210
   4  -5   1 -5.5948 44.3389   8 0.13603 0.19637 0.00341-0.41997 0.99854-0.83303
   4  -5   1 4.47707 33.9496   9 0.24671 0.08611 0.08487-0.50161 0.99463-0.82913
   5   5   1 350.682 83.4142   1 0.20365 0.20699-0.02186 0.43864 0.99965-0.81935
   5  -5   1 327.478 130.771   4 0.04593 0.36478-0.58215 0.16620-0.78863 0.96865
  -5   5  -1 348.284 102.026   7-0.16802-0.24369 0.01138 0.40599-0.99970 0.81893
  -5  -5  -1 419.321 87.5241   7-0.19814-0.21329 0.01701-0.43400-0.99981 0.81895
  -5   5  -1 426.223 121.520   6-0.19572-0.21524-0.01473 0.43204-0.99987 0.81942
  -5  -5  -1 269.937 95.2093   9-0.04321-0.36756-0.58467 0.16788 0.78710-0.96771
   5  -5   1 366.311 96.9423   8 0.16908 0.24140-0.00944-0.40710 0.99974-0.81947
  -6   5  -1 281.934 104.611   7-0.20843-0.28151 0.01893 0.39848-0.99962 0.80403
  -6  -5  -1 510.484 112.070   7-0.24941-0.24026 0.02663-0.44367-0.99773 0.80213
  -6   5  -1 487.590 145.287   6-0.20771-0.28137 0.01949 0.39778-0.99963 0.80441
   6  -5   1 630.403 151.668   8 0.20379 0.28478-0.02301-0.39351 0.99962-0.80458
  -7   5  -1 1310.67 240.928   7-0.24882-0.31938 0.02652 0.39093-0.99777 0.78737
   7  -5   1 973.632 200.277   8 0.23965 0.32702-0.03712-0.37940 0.99796-0.78815
  -7   5  -1 837.822 203.876   6-0.22200-0.34517 0.06132 0.35593-0.99753 0.78758
   8   5   1 39.1291 103.309   2 0.27503 0.36876 0.05379 0.36197 0.99464-0.77073
 -10   6   1 309.204 181.053   7-0.59935-0.16208 0.09412 0.40654-0.89398 0.85238
  -9   6   1 -210.96 152.818   7-0.58822-0.09494 0.09191 0.40869-0.90024 0.87350
  -9  -6   1 136.402 97.1130   9-0.01430-0.66867-0.53064 0.03070 0.82928-0.85604
   9   6  -1 78.7997 87.5441   5 0.51743 0.16525 0.19504 0.30499 0.91609-0.88957
   9  -6  -1 114.982 122.886   8 0.54195 0.14077-0.16005-0.33996 0.91265-0.88653
  -9  -6   1 -141.72 143.809   3-0.48492-0.19878-0.24124-0.25898-0.91725 0.89041
   9   6  -1 -19.460 77.6604   2 0.45268 0.22985 0.28540 0.21431 0.91522-0.88860
   8   6  -1 328.278 139.993   2 0.44203 0.16249 0.27058 0.22918 0.92346-0.91155
   8  -6  -1 105.366 122.673   4-0.01497 0.62081-0.45877-0.04124-0.87536 0.88620
  -8   6   1 411.142 161.322   7-0.58264-0.02226 0.09081 0.40973-0.90329 0.89139
  -8   6   1 406.415 158.697   6-0.32512-0.27999 0.41186 0.08839-0.89733 0.88571
  -8  -6   1 169.663 98.1880   9 0.01916-0.62398-0.46483-0.03511 0.87267-0.88463
   8   6  -1 283.408 117.566   5 0.50758 0.09699 0.18882 0.31121 0.92156-0.90983
   8  -6  -1 422.160 146.281   8 0.53304 0.07160-0.15630-0.34372 0.91735-0.90599
  -8  -6   1 463.767 159.876   3-0.47430-0.13117-0.23102-0.26919-0.92396 0.91195
  -7  -6   1 -141.37 117.320   3-0.46769-0.05952-0.22472-0.27551-0.92795 0.93076
   7   6  -1 10.1730 81.1484   2 0.43468 0.09182 0.26043 0.23938 0.92884-0.93165
  -7   6   1 196.214 121.907   7-0.58450 0.05785 0.09117 0.40929-0.90228 0.90519
   7  -6  -1 -101.87 84.0703   4-0.04499 0.57265-0.39350-0.10673-0.91027 0.90649
  -7   6   1 -69.425 89.1346   6-0.31828-0.20875 0.38461 0.11563-0.91096 0.91411
  -7  -6   1 105.288 103.918   9 0.05047-0.57712-0.40015-0.09981 0.90795-0.90512
   7  -6  -1 84.9870 110.189   8 0.52991-0.00335-0.15499-0.34506 0.91896-0.92237
   7   6  -1 39.6928 64.5442   5 0.50265 0.02379 0.18573 0.31430 0.92420-0.92727
  -6  -6   1 57.5224 70.8735   3-0.46612 0.01716-0.22322-0.27701-0.92888 0.94651
   6   6  -1 257.256 90.4609   2 0.43132 0.01716 0.25581 0.24407 0.93121-0.94876
  -6   6   1 116.542 68.3816   7-0.59654 0.14813 0.09356 0.40681-0.89559 0.91329
   6  -6  -1 259.932 121.359   4-0.07272 0.52220-0.33048-0.16997-0.93787 0.91941
  -6   6   1 127.002 101.951   6-0.31317-0.13574 0.36486 0.13538-0.92015 0.93808
  -6  -6   1 236.122 106.114   9 0.07953-0.52804-0.33733-0.16263 0.93602-0.91839
   6  -6  -1 229.474 114.784   8 0.53442-0.08595-0.15688-0.34319 0.91663-0.93480
   6   6  -1 184.528 79.9806   5 0.50407-0.05574 0.18662 0.31341 0.92344-0.94130
  -5  -6   1 1298.19 203.148   3-0.47084 0.10013-0.22772-0.27249-0.92606 0.95851
  -5   6   1 1515.22 202.445   7-0.62291 0.25273 0.09881 0.40146-0.87988 0.91234
   5   6  -1 1260.95 197.658   2 0.43281-0.06235 0.25785 0.24212 0.93017-0.96247
   5  -6  -1 979.756 199.030   4-0.09809 0.46934-0.27050-0.23015-0.95905 0.92587
  -5   6   1 1649.02 235.172   6-0.31013-0.06067 0.35324 0.14699-0.92529 0.95801
  -5  -6   1 1325.12 215.760   9 0.10623-0.47660-0.27717-0.22281 0.95769-0.92528
   5   6  -1 1155.23 180.189   5 0.51376-0.14355 0.19272 0.30730 0.91815-0.95080
   5  -6  -1 982.795 172.031   8 0.54926-0.17887-0.16312-0.33697 0.90868-0.94161
   4   6  -1 349.293 105.861   2 0.44016-0.14773 0.26799 0.23210 0.92486-0.97193
  -4   6   1 498.680 110.852   7-0.66982 0.37784 0.10823 0.39192-0.84807 0.89526
   4  -6  -1 523.248 140.252   4-0.12097 0.41397-0.21441-0.28641-0.97467 0.92673
  -4   6   1 598.076 139.007   6-0.30942 0.01676 0.35056 0.14966-0.92645 0.97395
  -4  -6   1 554.809 127.976   9 0.13045-0.42267-0.22050-0.27948 0.97378-0.92658
   4  -6  -1 527.317 121.603   9-0.01530 0.30786-0.53254 0.03219 0.82790-0.87544
   4   6  -1 532.181 105.604   6-0.30655 0.59946 0.33979 0.16059-0.93100 0.88342
   4   6  -1 294.130 87.9566   5 0.53439-0.24230 0.20579 0.29423 0.90615-0.95358
   4  -6  -1 386.991 99.4980   8 0.57830-0.28599-0.17543-0.32471 0.89176-0.93945
  -4  -6   1 388.474 117.658   3-0.48350 0.19103-0.23987-0.26032-0.91817 0.96541
  -3  -6   1 469.070 131.140   9 0.15201-0.36609-0.16826-0.33173 0.98507-0.92308
  -3  -6   1 491.722 108.955   4-0.00041-0.21430-0.48939-0.01048-0.85655 0.91850
  -3   6   1 524.633 111.230   7-0.74612 0.53226 0.12380 0.37621-0.78357 0.84547
   3  -6  -1 450.374 120.297   4-0.14121 0.35594-0.16314-0.33782-0.98557 0.92285
   3   6  -1 436.396 97.7065   6-0.27544 0.49011 0.22980 0.27076-0.96865 0.90636
  -3   6   1 395.487 115.147   1 0.16741-0.38176 0.17646 0.32391 0.98417-0.92218
   3  -6  -1 401.331 95.8282   9 0.00853 0.20588-0.48611-0.01421 0.85952-0.92184
  -3   6   1 436.522 113.643   6-0.31131 0.09682 0.35772 0.14247-0.92333 0.98562
   3   6  -1 323.502 84.6090   5 0.56955-0.35559 0.22833 0.27167 0.88315-0.94536
   3  -6  -1 390.748 100.825   8 0.62708-0.41285-0.19633-0.30383 0.85884-0.92130
  -3  -6   1 396.241 111.801   3-0.50619 0.29198-0.26189-0.23827-0.90269 0.96473
   3   6  -1 431.249 114.770   2 0.45457-0.24020 0.28807 0.21215 0.91369-0.97554
   2   6  -1 1158.65 164.584   6-0.25023 0.38665 0.14769 0.35300-0.98688 0.90984
   2   6  -1 1101.38 161.951   2 0.47735-0.34105 0.32039 0.17997 0.89383-0.97048
  -2   6   1 1203.69 187.573   6-0.31600 0.17968 0.37573 0.12444-0.91516 0.99223
  -2  -6   1 1097.53 165.809   3-0.54137 0.40540-0.29670-0.20341-0.87497 0.95179
   2  -6  -1 1590.39 208.060   8 0.70273-0.56659-0.22952-0.27069 0.79422-0.87147
  -2   6   1 1248.87 130.409   2 0.38811-0.52456 0.19760 0.30266 0.95740-0.88060
   2  -6  -1 998.766 166.816   4-0.15862 0.29507-0.11769-0.38339-0.99264 0.91512
   2  -6  -1 1243.11 111.055   3-0.47429 0.61070-0.23103-0.26939-0.92396 0.84672
   2  -6  -1 1010.00 163.965   9 0.02186 0.11440-0.45936-0.04092 0.87592-0.95302
  -2  -6   1 1023.18 161.570   9 0.17074-0.30668-0.12143-0.37856 0.99241-0.91564
  -2   6   1 1083.92 175.272   1 0.17771-0.31396 0.12443 0.37589 0.99221-0.91543
  -2  -6   1 1266.50 176.233   4-0.01367-0.12293-0.46156-0.03831-0.87372 0.95048
  -1   6   1 3399.73 299.205   1 0.18573-0.24389 0.08178 0.41849 0.99667-0.90510
   1  -6  -1 4497.02 341.534   4-0.17301 0.23116-0.07915-0.42200-0.99676 0.90442
   1   6  -1 4668.28 320.886   2 0.50962-0.45144 0.36765 0.13287 0.86033-0.95181
   1   6  -1 3449.91 293.181   6-0.23115 0.28932 0.08874 0.41202-0.99507 0.90326
  -1   6   1 4837.56 350.536   6-0.32356 0.26544 0.40559 0.09453-0.90056 0.99240
  -1   6   1 4690.03 263.375   2 0.31579-0.37415 0.10439 0.39561 0.98581-0.89431
  -1  -6   1 4738.47 345.930   9 0.18639-0.24421-0.08116-0.41885 0.99668-0.90512
   1  -6  -1 4992.76 349.151   9 0.02739 0.03074-0.44812-0.05215 0.88245-0.97433
  -1  -6   1 5079.33 320.641   3-0.59141 0.53367-0.34795-0.15211-0.82625 0.91784
   1  -6  -1 4715.74 237.603   3-0.34214 0.40029-0.10886-0.39167-0.98123 0.88917
  -1  -6   1 4750.88 341.267   4-0.01951-0.03893-0.44911-0.05074-0.88096 0.97254
   0  -6   1 266.564 84.8369   4-0.01950 0.03924-0.44913-0.05069-0.88095 0.98732
   0   6  -1 261.111 92.7567   6-0.21783 0.19776 0.04901 0.45179-0.99835 0.89176
   0   6   1 203.067 74.5538   1 0.19157-0.17164 0.04933 0.45091 0.99879-0.89244
   0  -6  -1 231.795 86.1264   4-0.18410 0.16398-0.04876-0.45243-0.99881 0.89166
   0   6  -1 303.873 98.9177   2 0.55168-0.57166 0.43249 0.06818 0.80473-0.91105
   0  -6   1 234.191 82.0148   9 0.19874-0.17842-0.04866-0.45136 0.99875-0.89241
   0  -6  -1 228.065 85.9120   9 0.02682-0.04684-0.44928-0.05096 0.88178-0.98846
   0  -6   1 182.599 41.0465   8 0.27002-0.24995-0.04914-0.45087 0.99531-0.88881
   0   6   1 165.527 68.9589   6-0.33387 0.35395 0.44817 0.05189-0.87736 0.98394
  -1   6  -1 6537.17 236.318   7-0.22695 0.12837 0.02241 0.47808-0.99900 0.87762
   1  -6   1 6668.81 299.108   8 0.20858-0.11044-0.02489-0.47508 0.99949-0.87825
  -1  -6  -1 5753.31 381.911   4-0.19158 0.09317-0.02796-0.47325-0.99961 0.87765
   1   6   1 6004.31 400.120   1 0.19532-0.09728 0.02786 0.47235 0.99960-0.87846
  -1   6  -1 5700.28 397.059   6-0.20971 0.11143 0.02528 0.47552-0.99945 0.87808
   1   6   1 5604.80 374.778   6-0.34645 0.44474 0.50401-0.00403-0.84233 0.96363
  -1  -6  -1 5948.84 404.774   9 0.02132-0.11948-0.46045-0.03976 0.87528-0.99674
   1  -6   1 6341.12 390.136   9 0.20742-0.10897-0.02537-0.47468 0.99950-0.87837
   1  -6   1 5476.85 384.100   4-0.01470 0.11265-0.45934-0.04043-0.87502 0.99618
  -2   6  -1 46.4087 37.7772   7-0.19876 0.02194 0.01712 0.48347-0.99980 0.86358
   2  -6   1 172.063 95.4307   4-0.00592 0.18208-0.47788-0.02181-0.86381 0.99973
   2  -6   1 99.4176 61.0585   9 0.21199-0.03540-0.01299-0.48707 0.99964-0.86373
   2   6   1 88.0906 78.3798   6-0.36032 0.53682 0.57290-0.07302-0.79094 0.92692
  -2   6  -1 76.7042 47.2251   6-0.20616 0.02968 0.01504 0.48576-0.99973 0.86358
  -2  -6  -1 112.501 73.4336   4-0.19498 0.01830-0.01843-0.48277-0.99982 0.86304
  -2  -6  -1 40.0897 68.4347   9 0.01173-0.18803-0.47974-0.02047 0.86354-0.99980
   2   6   1 62.8915 51.1040   1 0.19698-0.02082 0.01821 0.48199 0.99981-0.86388
   2  -6   1 52.1279 45.8740   8 0.19265-0.01642-0.01865-0.48130 0.99981-0.86383
  -3   6  -1 52.2209 44.6397   7-0.20287-0.05221 0.01789 0.48278-0.99974 0.84868
   3  -6   1 -15.781 65.6574   4 0.00627 0.24809-0.50319 0.00359-0.84752 0.99818
  -3   6  -1 88.6967 66.6288   6-0.20660-0.04807 0.01631 0.48447-0.99971 0.84878
  -3  -6  -1 42.0221 69.5537   4-0.19358-0.06133-0.02234-0.47881-0.99975 0.84817
  -3  -6  -1 -24.429 51.4520   9-0.00133-0.25311-0.50553 0.00535 0.84679-0.99784
   3   6   1 35.3339 47.3122   1 0.19645 0.05784 0.02132 0.47887 0.99975-0.84903
   3  -6   1 -15.353 46.1173   8 0.19677 0.05754-0.02026-0.47966 0.99976-0.84902
   3  -6   1 -2.1148 51.3111   9 0.21173 0.04299-0.01368-0.48640 0.99964-0.84894
  -4   6  -1 2362.09 242.222   7-0.22055-0.11277 0.02121 0.47952-0.99926 0.83337
  -4  -6  -1 2337.91 228.044   4-0.18629-0.14681-0.04270-0.45839-0.99910 0.83275
   4   6   1 2418.20 235.228   1 0.19349 0.13895 0.03840 0.46178 0.99926-0.83375
  -4   6  -1 2168.54 293.081   6-0.21050-0.12235 0.02756 0.47319-0.99938 0.83368
   4  -6   1 2590.17 233.898   9 0.20555 0.12730-0.03042-0.46970 0.99939-0.83390
  -4  -6  -1 2222.39 290.226   9-0.01738-0.31520-0.53652 0.03635 0.82499-0.99083
   4  -6   1 2465.77 256.728   8 0.21169 0.12072-0.02611-0.47380 0.99939-0.83389
   4  -6   1 2292.25 289.893   4 0.02141 0.31115-0.53396 0.03446-0.82610 0.99146
  -5   6  -1 2353.00 254.314   7-0.24534-0.16625 0.02586 0.47492-0.99800 0.81729
  -5   6  -1 1110.78 287.885   6-0.21735-0.19363 0.04760 0.45312-0.99843 0.81798
   5  -6   1 2323.12 272.045   8 0.23313 0.17737-0.03455-0.46535 0.99838-0.81812
   5  -6   1 2103.20 308.576   4 0.03915 0.37161-0.56901 0.06963-0.79934 0.97938
  -6   6  -1 44.7133 96.7054   7-0.27432-0.21552 0.03132 0.46952-0.99567 0.80015
  -6   6  -1 -51.362 104.310   6-0.22676-0.26235 0.07554 0.42515-0.99636 0.80115
   6  -6   1 117.046 77.7341   8 0.25882 0.22976-0.04470-0.45518 0.99642-0.80141
   6   6   1 31.1058 47.9278   2 0.26395 0.22382 0.04027 0.45889 0.99624-0.80176
  -6  -6  -1 -30.522 49.8428   9-0.05702-0.43186-0.60959 0.10945 0.76537-0.96080
   7   6   1 89.0891 89.5244   2 0.28195 0.28383 0.06231 0.43681 0.99348-0.78428
  -8  -6  -1 -216.76 129.987   3-0.30970-0.33645-0.08004-0.42060-0.98897 0.76347
   8   6   1 26.3764 70.1217   2 0.30263 0.34117 0.08791 0.41117 0.98919-0.76528
   9  -7  -1 78.9220 117.887   4 0.01801 0.66603-0.52709-0.05620-0.83104 0.85640
  -9   7   1 52.9474 104.879   7-0.63064-0.05244 0.10036 0.48364-0.87499 0.84815
  -9   7   1 128.702 164.164   6-0.33568-0.34755 0.45594 0.12769-0.87281 0.84643
  -9  -7   1 -60.896 123.076   9-0.01485-0.66809-0.53168-0.05161 0.82852-0.85531
   9  -7  -1 215.630 179.640   8 0.57346 0.10927-0.17337-0.40999 0.89471-0.86863
   8  -7  -1 -160.15 115.039   4-0.01098 0.61685-0.46724-0.11626-0.87032 0.88110
  -8   7   1 144.916 149.485   7-0.62934 0.02453 0.10010 0.48382-0.87582 0.86382
  -8   7   1 36.3007 114.369   6-0.32845-0.27670 0.42553 0.15809-0.89006 0.87844
  -8  -7   1 -200.02 160.906   9 0.01532-0.62011-0.47255-0.11075 0.86799-0.87998
   8   7  -1 -242.62 148.995   5 0.53543 0.06912 0.20645 0.37695 0.90552-0.89375
   8  -7  -1 1.82124 122.259   8 0.56760 0.03704-0.17088-0.41250 0.89821-0.88689
   8   7  -1 157.611 140.906   2 0.45689 0.14761 0.29132 0.29175 0.91179-0.89992
  -8  -7   1 54.0608 108.207   3-0.49489-0.11055-0.25088-0.33276-0.91061 0.89854
   7  -7  -1 52.6128 138.302   4-0.03781 0.56549-0.40937-0.17434-0.90240 0.89854
  -7   7   1 184.058 124.053   7-0.63610 0.10954 0.10145 0.48238-0.87145 0.87426
  -7  -7   1 6.80736 91.4024   9 0.04336-0.56999-0.41509-0.16822 0.90040-0.89760
  -7   7   1 -3.8356 102.466   6-0.32255-0.20451 0.40155 0.18207-0.90262 0.90578
   7   7  -1 446.589 162.124   5 0.53305-0.00661 0.20493 0.37847 0.90697-0.90999
   7  -7  -1 316.068 117.809   8 0.56779-0.04122-0.17096-0.41244 0.89810-0.90154
  -7  -7   1 148.826 95.8009   3-0.49018-0.03701-0.24632-0.33732-0.91379 0.91654
   7   7  -1 130.393 101.728   2 0.45103 0.07545 0.28311 0.30003 0.91653-0.91937
   6  -7  -1 246.670 127.132   4-0.06243 0.51190-0.35416-0.22976-0.92817 0.90963
  -6   7   1 37.4699 94.6348   6-0.31823-0.13073 0.38442 0.19920-0.91105 0.92899
  -6  -7   1 309.700 122.928   9 0.06920-0.51769-0.35995-0.22336 0.92657-0.90898
   6   7  -1 517.498 151.981   5 0.53698-0.08868 0.20744 0.37596 0.90457-0.92238
   6  -7  -1 429.943 153.151   8 0.57582-0.12734-0.17437-0.40905 0.89328-0.91147
  -6  -7   1 285.320 119.318   3-0.49033 0.04139-0.24647-0.33716-0.91369 0.93127
   6   7  -1 327.885 131.771   2 0.44895-0.00047 0.28019 0.30302 0.91817-0.93575
   5  -7  -1 71.6355 98.9851   4-0.08478 0.45600-0.30227-0.28183-0.94843 0.91517
  -5  -7   1 142.032 83.9874   9 0.09275-0.46309-0.30783-0.27549 0.94726-0.91487
  -5   7   1 -28.900 61.5853   6-0.31573-0.05510 0.37467 0.20895-0.91565 0.94838
   5   7  -1 181.462 108.879   5 0.54899-0.17881 0.21510 0.36828 0.89700-0.92961
   5  -7  -1 200.238 107.395   8 0.59422-0.22382-0.18221-0.40124 0.88166-0.91462
  -5  -7   1 207.291 102.372   3-0.49645 0.12576-0.25239-0.33122-0.90955 0.94194
   5   7  -1 322.347 133.000   2 0.45134-0.08089 0.28354 0.29978 0.91628-0.94861
  -4  -7   1 809.913 170.034   4 0.02309-0.31597-0.53731-0.04592-0.82365 0.87072
   4  -7  -1 486.661 149.947   4-0.10472 0.39769-0.25444-0.32982-0.96392 0.91591
   4  -7  -1 846.347 170.208   9-0.01613 0.30870-0.53413-0.04957 0.82674-0.87431
   4   7  -1 654.016 137.921   6-0.31629 0.60923 0.37686 0.20694-0.91463 0.86700
  -4   7   1 179.525 156.486   6-0.31527 0.02260 0.37292 0.21070-0.91646 0.96398
  -4  -7   1 643.683 154.763   9 0.11389-0.40609-0.25946-0.32387 0.96316-0.91599
   4   7  -1 713.945 138.918   5 0.57137-0.27931 0.22951 0.35387 0.88187-0.92926
   4   7  -1 595.463 145.005   2 0.45905-0.16663 0.29435 0.28909 0.91001-0.95710
   4  -7  -1 614.317 136.462   8 0.62646-0.33414-0.19607-0.38742 0.85929-0.90702
  -4  -7   1 703.026 161.658   3-0.50990 0.21747-0.26551-0.31807-0.89999 0.94718
  -3  -7   1 322.522 119.215   4 0.00348-0.21827-0.49745-0.08580-0.85132 0.91321
   3  -7  -1 169.731 70.1191   4-0.12215 0.33685-0.21146-0.37293-0.97538 0.91260
  -3   7   1 200.458 78.6515   1 0.15697-0.37136 0.22644 0.35733 0.97370-0.91169
   3   7  -1 150.428 46.8522   6-0.29107 0.50577 0.28366 0.30031-0.95218 0.88986
  -3   7   1 61.3678 60.3421   6-0.31706 0.10256 0.37987 0.20374-0.91322 0.97552
  -3  -7   1 81.2537 50.0205   9 0.13250-0.34656-0.21561-0.36773 0.97498-0.91302
   3   7  -1 231.862 82.2258   5 0.60705-0.39312 0.25280 0.33055 0.85467-0.91684
   3   7  -1 183.054 86.7402   2 0.47297-0.25860 0.31411 0.26947 0.89787-0.95975
  -3  -7   1 202.955 69.3399   3-0.53233 0.31814-0.28767-0.29588-0.88255 0.94455
   3  -7  -1 27.7211 65.0270   8 0.67714-0.46290-0.21818-0.36535 0.81819-0.88069
   3  -7  -1 191.710 80.6845   9 0.00412 0.21031-0.49483-0.08884 0.85389-0.91624
   2  -7  -1 1894.75 255.768   4-0.13692 0.27332-0.17415-0.41033-0.98350 0.90591
   2   7  -1 1436.14 201.900   2 0.49405-0.35776 0.34462 0.23911 0.87734-0.95402
   2   7  -1 1687.92 212.701   6-0.27006 0.40649 0.21179 0.37230-0.97334 0.89628
  -2   7   1 2014.47 259.521   6-0.32122 0.18490 0.39624 0.18734-0.90528 0.98235
  -2  -7   1 2166.52 270.374   9 0.14839-0.28431-0.17715-0.40620 0.98338-0.90664
   2  -7  -1 1790.51 228.340   9 0.01587 0.12042-0.47144-0.11220 0.86867-0.94579
  -2  -7   1 1820.92 220.456   3-0.56555 0.42962-0.32119-0.26231-0.85294 0.92971
  -2   7   1 1760.81 229.450   1 0.16614-0.30245 0.18269 0.40102 0.98302-0.90622
   2   7  -1 2438.42 252.176   5 0.65940-0.52360 0.28785 0.29548 0.80675-0.88369
  -2  -7   1 2135.28 261.197   4-0.00817-0.12848-0.47317-0.11009-0.86672 0.94342
  -1  -7   1 96.7010 64.6105   4-0.01358-0.04491-0.46175-0.12150-0.87360 0.96512
  -1   7   1 141.481 56.4130   2 0.37364-0.43198 0.17856 0.40488 0.96452-0.87300
  -1  -7   1 112.309 85.4280   9 0.16138-0.21917-0.14501-0.43836 0.98904-0.89751
   1  -7  -1 81.2978 86.6560   4-0.14881 0.20692-0.14347-0.44109-0.98893 0.89654
   1   7  -1 101.076 74.8409   6-0.25359 0.31179 0.15834 0.42582-0.98497 0.89314
  -1   7   1 28.4485 74.2785   6-0.32779 0.26969 0.42282 0.16073-0.89152 0.98336
   1   7  -1 134.942 88.7329   2 0.52304-0.46487 0.38789 0.19601 0.84425-0.93575
   1  -7  -1 -20.488 77.8197   9 0.02105 0.03710-0.46100-0.12262 0.87495-0.96686
  -1  -7   1 140.891 84.4203   3-0.61112 0.55342-0.36880-0.21464-0.80340 0.89493
  -1   7   1 -6.0212 77.3168   1 0.17326-0.23147 0.14727 0.43639 0.98904-0.89745
   0   7   1 189.304 92.6016   1 0.17840-0.15850 0.12085 0.46279 0.99266-0.88628
   0  -7   1 154.022 126.696   4-0.01390 0.03361-0.46105-0.12218-0.87402 0.98034
   0  -7  -1 187.472 79.3301   3-0.35812 0.33805-0.12321-0.46076-0.97659 0.86966
   0  -7   1 113.279 60.0924   9 0.17121-0.15086-0.12023-0.46315 0.99257-0.88625
   0  -7  -1 140.149 81.4561   4-0.15758 0.13741-0.12043-0.46416-0.99228 0.88509
   0   7  -1 8.95231 65.3030   6-0.24161 0.22157 0.12076 0.46345-0.99112 0.88453
   0   7   1 131.623 64.2274   2 0.33038-0.31067 0.12282 0.46040 0.98146-0.87523
   0   7  -1 206.196 85.3006   2 0.55997-0.57996 0.44584 0.13822 0.79173-0.89806
   0  -7  -1 148.678 74.4219   9 0.02094-0.04093-0.46124-0.12236 0.87481-0.98151
   0   7   1 196.663 124.284   6-0.33667 0.35677 0.46023 0.12325-0.87025 0.97684
   1   7   1 1368.83 218.000   1 0.18158-0.08358 0.10407 0.47954 0.99458-0.87341
   1  -7   1 1526.55 229.998   4-0.00999 0.10790-0.46934-0.11385-0.86906 0.99016
  -1   7  -1 1691.20 246.760   6-0.23382 0.13554 0.09684 0.48738-0.99419 0.87281
  -1  -7  -1 1148.43 197.995   4-0.16292 0.06447-0.10626-0.47833-0.99404 0.87204
   1   7   1 1396.19 194.612   2 0.30324-0.20548 0.08867 0.49438 0.98904-0.86810
   1   7   1 1645.42 221.386   6-0.34750 0.44581 0.50892 0.07448-0.83898 0.96029
  -1  -7  -1 1396.05 219.732   9 0.01642-0.11455-0.47036-0.11323 0.86933-0.99082
  -1  -7  -1 1491.87 192.079   3-0.31724 0.21890-0.08670-0.49733-0.98737 0.86562
   1  -7   1 1415.74 217.772   9 0.17754-0.07906-0.10406-0.47934 0.99448-0.87338
   2   7   1 3690.79 346.185   1 0.18278-0.00666 0.09767 0.48593 0.99523-0.85928
  -2  -7  -1 3748.15 329.346   4-0.16437-0.01234-0.10241-0.48215-0.99448 0.85767
  -2   7  -1 3447.97 339.626   6-0.22983 0.05335 0.08477 0.49944-0.99548 0.85933
   2   7   1 3215.17 302.710   6-0.35957 0.53608 0.56883 0.01448-0.79426 0.93024
   2   7   1 3344.25 302.929   2 0.28806-0.11228 0.06983 0.51307 0.99234-0.85669
   2  -7   1 3609.51 320.800   9 0.17991-0.00330-0.09795-0.48546 0.99513-0.85924
  -2  -7  -1 3793.24 372.976   9 0.00816-0.18442-0.48684-0.09672 0.85905-0.99533
  -2  -7  -1 3408.93 312.265   3-0.29561 0.11900-0.06764-0.51642-0.99165 0.85507
   2  -7   1 3860.62 271.837   8 0.30797-0.13172-0.06425-0.51905 0.99034-0.85435
   2  -7   1 3644.40 357.804   4-0.00244 0.17856-0.48518-0.09796-0.85924 0.99511
   3  -7   1 434.923 138.126   4 0.00828 0.24608-0.50731-0.07573-0.84476 0.99537
   3   7   1 312.086 107.932   1 0.18189 0.07236 0.10245 0.48113 0.99475-0.84400
  -3  -7  -1 332.894 127.328   9-0.00333-0.25108-0.50944-0.07410 0.84415-0.99522
  -3  -7  -1 360.302 105.649   4-0.16124-0.09367-0.11072-0.47380-0.99351 0.84192
  -3   7  -1 40.1205 112.353   6-0.22927-0.02541 0.08306 0.50113-0.99565 0.84473
   3  -7   1 165.805 91.5416   9 0.17765 0.07709-0.10376-0.47969 0.99451-0.84384
   3   7   1 124.916 87.4722   2 0.28192-0.02813 0.06226 0.52051 0.99348-0.84313
   3  -7   1 389.029 119.170   8 0.29194-0.03760-0.05785-0.52543 0.99267-0.84193
   4   7   1 571.168 131.111   1 0.17866 0.15373 0.11945 0.46413 0.99283-0.82729
   4  -7   1 482.406 130.887   4 0.02178 0.31080-0.53470-0.04826-0.82556 0.99090
  -4  -7  -1 746.870 146.984   4-0.15255-0.18056-0.13368-0.45075-0.99043 0.82406
  -4   7  -1 212.048 171.444   6-0.23173-0.10112 0.09051 0.49366-0.99489 0.82920
  -4  -7  -1 700.135 194.386   9-0.01766-0.31488-0.53706-0.04647 0.82460-0.99046
   4  -7   1 602.765 133.879   9 0.16972 0.16316-0.12402-0.45945 0.99207-0.82661
   4   7   1 559.987 156.440   2 0.28276 0.04904 0.06330 0.51937 0.99333-0.82827
   4  -7   1 794.306 152.990   8 0.29215 0.04026-0.05793-0.52532 0.99264-0.82716
   5  -7   1 108.994 79.0258   8 0.30234 0.10816-0.06200-0.52124 0.99119-0.81096
   5  -7   1 -10.339 81.8483   4 0.03778 0.37301-0.56635-0.01650-0.80147 0.98150
  -5  -7  -1 -71.062 89.4882   3-0.29518-0.11621-0.06726-0.51683-0.99173 0.81066
  -5   7  -1 0.16772 75.4348   6-0.23688-0.17413 0.10616 0.47798-0.99307 0.81262
   5   7   1 22.2298 70.2069   2 0.28908 0.12072 0.07109 0.51148 0.99213-0.81236
   5   7   1 -133.52 84.0109   1 0.17271 0.23784 0.15001 0.43357 0.98862-0.80827
  -6  -7  -1 21.1036 94.6545   3-0.30779-0.18185-0.07835-0.50573-0.98935 0.79346
  -6   7  -1 -15.283 124.327   6-0.24435-0.24478 0.12925 0.45485-0.98988 0.79466
   6   7   1 18.5981 90.8742   2 0.29977 0.18804 0.08434 0.49815 0.98986-0.79538
  -6  -7  -1 165.333 91.3534   9-0.05366-0.43518-0.60359 0.02010 0.77074-0.96620
   6  -7   1 -8.7970 87.7372   8 0.31914 0.16946-0.06872-0.51451 0.98851-0.79352
  -7  -7  -1 34.6427 78.5858   3-0.32438-0.24350-0.09304-0.49104-0.98574 0.77502
   7   7   1 82.3925 60.2828   2 0.31398 0.25183 0.10212 0.48033 0.98631-0.77712
   8  -8  -1 1489.48 302.662   4-0.00403 0.60991-0.48185-0.18514-0.86133 0.87202
  -8   8   1 221.673 203.739   6-0.33301-0.27221 0.44454 0.22246-0.87945 0.86783
  -8  -8   1 1022.14 268.974   9 0.00835-0.61310-0.48646-0.18019 0.85930-0.87132
   8   8  -1 1129.40 260.614   5 0.56653 0.03801 0.22637 0.44038 0.88526-0.87345
   8  -8  -1 971.785 244.571   8 0.60637-0.00171-0.18742-0.47931 0.87354-0.86227
   7  -8  -1 -19.167 97.0785   4-0.02827 0.55594-0.43024-0.23696-0.89146 0.88751
  -7  -8   1 -41.452 114.399   9 0.03372-0.56032-0.43513-0.23154 0.88972-0.88695
   7   8  -1 -6.5443 103.912   5 0.56660-0.04019 0.22642 0.44033 0.88521-0.88819
   7   8  -1 -59.999 115.954   2 0.46914 0.05734 0.30865 0.35782 0.90131-0.90421
   7  -8  -1 104.634 105.937   8 0.60988-0.08331-0.18893-0.47782 0.87113-0.87461
  -7  -8   1 39.6853 107.345   3-0.51497-0.01219-0.27049-0.39656-0.89621 0.89890
  -7   8   1 -48.463 123.307   6-0.32791-0.19920 0.42330 0.24372-0.89126 0.89442
   6  -8  -1 456.445 161.269   4-0.05037 0.49981-0.38147-0.28591-0.91599 0.89735
  -6   8   1 375.476 189.575   6-0.32425-0.12474 0.40838 0.25864-0.89913 0.91707
  -6  -8   1 628.695 194.220   9 0.05694-0.50540-0.38638-0.28028 0.91460-0.89704
   6   8  -1 596.925 157.555   5 0.57295-0.12466 0.23053 0.43623 0.88075-0.89852
   6   8  -1 544.785 158.950   2 0.46819-0.01972 0.30730 0.35926 0.90216-0.91978
  -6  -8   1 695.935 210.295   3-0.51671 0.06780-0.27221-0.39482-0.89489 0.91240
   6  -8  -1 631.369 179.967   8 0.62139-0.17289-0.19388-0.47290 0.86299-0.88123
  -5  -8   1 -87.563 118.684   9 0.07794-0.44825-0.34083-0.32584 0.93460-0.90225
   5   8  -1 199.721 109.718   5 0.58711-0.21696 0.23974 0.42701 0.87035-0.90292
   5   8  -1 138.334 88.5495   2 0.47139-0.10094 0.31186 0.35481 0.89930-0.93167
  -5  -8   1 116.665 88.4123   3-0.52409 0.15345-0.27950-0.38752-0.88918 0.92150
   5  -8  -1 259.128 170.380   8 0.64319-0.27277-0.20332-0.46349 0.84658-0.87958
  -4  -8   1 482.819 154.628   9 0.09661-0.38879-0.29911-0.36758 0.95035-0.90321
   4  -8  -1 456.113 138.179   4-0.08787 0.38078-0.29494-0.37275-0.95100 0.90290
  -4   8   1 248.337 179.566   6-0.32198 0.02930 0.39927 0.26775-0.90376 0.95127
   4   8  -1 497.626 128.947   5 0.61106-0.31902 0.25545 0.41128 0.85136-0.89870
   4   8  -1 466.289 138.560   2 0.47940-0.18699 0.32334 0.34345 0.89189-0.93903
  -4  -8   1 307.797 118.772   3-0.53824 0.24585-0.29358-0.37341-0.87763 0.92476
  -3  -8   1 311.838 129.141   4 0.01177-0.22663-0.51445-0.15217-0.83989 0.90169
   3  -8  -1 15.6940 60.3346   4-0.10306 0.31770-0.25848-0.40932-0.96273 0.89986
  -3   8   1 92.4469 114.675   6-0.32369 0.10918 0.40612 0.26090-0.90029 0.96258
  -3  -8   1 219.002 114.684   9 0.11285-0.32688-0.26190-0.40480 0.96243-0.90050
   3  -8  -1 -13.972 96.5786   9-0.00487 0.21931-0.51243-0.15460 0.84210-0.90448
   3   8  -1 151.888 103.861   6-0.30507 0.51978 0.33429 0.33308-0.93327 0.87089
   3   8  -1 177.248 103.861   5 0.64711-0.43321 0.27952 0.38719 0.81897-0.88109
   3   8  -1 61.0839 69.6922   2 0.49293-0.27857 0.34297 0.32398 0.87851-0.94042
  -3  -8   1 113.884 106.684   3-0.56044 0.34631-0.31598-0.35096-0.85781 0.91973
  -2  -8   1 441.284 154.566   4 0.00101-0.13773-0.49234-0.17430-0.85465 0.93127
   2  -8  -1 250.260 98.4013   4-0.11570 0.25205-0.22751-0.44039-0.97137 0.89372
   2   8  -1 188.391 80.9294   6-0.28722 0.42368 0.27015 0.39733-0.95666 0.87956
  -2   8   1 211.478 111.461   6-0.32744 0.19111 0.42133 0.24567-0.89232 0.96939
  -2  -8   1 295.053 129.810   9 0.12648-0.26237-0.22993-0.43678 0.97138-0.89467
   2  -8  -1 73.0293 87.9241   9 0.00605 0.13026-0.49102-0.17597 0.85637-0.93353
   2   8  -1 208.163 84.4971   2 0.51263-0.37635 0.37216 0.29496 0.85685-0.93356
  -2  -8   1 155.693 102.084   3-0.59201 0.45612-0.34858-0.31831-0.82558 0.90228
  -1  -8   1 651.563 150.521   4-0.00429-0.05425-0.48130-0.18535-0.86168 0.95311
   1  -8  -1 485.438 139.210   4-0.12560 0.18367-0.20281-0.46513-0.97741 0.88496
   1   8  -1 593.629 154.315   6-0.27288 0.33109 0.22121 0.44635-0.97094 0.87909
  -1   8   1 624.975 160.485   1 0.16102-0.21927 0.20738 0.45968 0.97801-0.88641
   1   8  -1 911.430 178.131   2 0.53896-0.48080 0.41243 0.25486 0.82323-0.91476
  -1  -8   1 597.750 112.110   3-0.63384 0.57618-0.39344-0.27339-0.77386 0.86532
  -1   8   1 736.952 159.257   6-0.33322 0.27511 0.44545 0.22151-0.87893 0.97076
  -1  -8   1 651.688 151.325   9 0.13733-0.19509-0.20401-0.46271 0.97770-0.88620
   1  -8  -1 697.850 176.571   9 0.01121 0.04696-0.48077-0.18620 0.86290-0.95484
   0  -8   1 456.724 146.706   4-0.00506 0.02471-0.47969-0.18695-0.86269 0.96893
   0   8   1 348.062 92.5721   2 0.38158-0.36185 0.18899 0.47767 0.96071-0.85447
   0  -8  -1 302.050 108.263   4-0.13254 0.11231-0.18531-0.48266-0.98124 0.87399
   0   8  -1 267.801 113.340   6-0.26210 0.24207 0.18570 0.48192-0.97945 0.87283
   0   8   1 335.952 126.591   6-0.34095 0.36106 0.47899 0.18792-0.85870 0.96528
   0  -8   1 423.444 160.549   9 0.14515-0.12478-0.18507-0.48166 0.98180-0.87551
   0   8   1 299.570 95.3942   1 0.16554-0.14571 0.18556 0.48149 0.98247-0.87608
   0  -8  -1 262.491 120.452   9 0.01163-0.03160-0.47993-0.18702 0.86342-0.97015
  -1  -8  -1 472.557 119.285   3-0.38670 0.28843-0.14915-0.51824-0.96683 0.84504
   1  -8   1 518.848 161.138   4-0.00197 0.09984-0.48614-0.18047-0.85862 0.97966
  -1  -8  -1 456.537 145.603   4-0.13619 0.03769-0.17602-0.49193-0.98313 0.86107
   1   8   1 467.373 125.581   2 0.35353-0.25574 0.15243 0.51404 0.97318-0.85223
  -1   8  -1 580.679 180.165   6-0.25476 0.15649 0.16203 0.50559-0.98427 0.86289
   1   8   1 358.967 117.256   6-0.35032 0.44865 0.52226 0.14457-0.82965 0.95093
  -1  -8  -1 392.586 132.221   9 0.00805-0.10614-0.48707-0.17986 0.85891-0.98042
   1   8   1 683.966 175.451   1 0.16824-0.07029 0.17235 0.49466 0.98491-0.86373
   1  -8   1 420.019 124.122   9 0.14961-0.05110-0.17416-0.49260 0.98396-0.86289
   2  -8   1 29.8335 86.7535   4 0.00447 0.17163-0.49950-0.16706-0.84997 0.98578
  -2  -8  -1 124.959 103.456   3-0.35984 0.18330-0.12477-0.54267-0.97605 0.83943
   2   8   1 -41.296 69.4865   1 0.16905 0.00703 0.16839 0.49861 0.98561-0.84964
  -2  -8  -1 72.9116 63.4057   4-0.13611-0.04063-0.17622-0.49171-0.98309 0.84623
  -2   8  -1 137.875 139.734   6-0.25061 0.07412 0.14889 0.51874-0.98667 0.85051
   2   8   1 -27.026 66.1191   2 0.33609-0.16028 0.13007 0.53622 0.97958-0.84392
   2  -8   1 56.0677 95.9515   9 0.15027 0.02637-0.17255-0.49424 0.98427-0.84841
   2   8   1 190.048 105.382   6-0.36077 0.53732 0.57528 0.09145-0.78899 0.92495
  -2  -8  -1 120.557 110.885   9 0.00099-0.17723-0.50099-0.16592 0.84983-0.98614
   3  -8   1 66.4131 116.641   4 0.01388 0.24045-0.51875-0.14774-0.83692 0.98748
  -3  -8  -1 -13.130 64.7349   3-0.34581 0.09100-0.11215-0.55531-0.98021 0.82876
  -3  -8  -1 147.165 74.7560   4-0.13169-0.12327-0.18746-0.48039-0.98079 0.82915
  -3   8  -1 5.22755 77.9212   6-0.24942-0.00527 0.14511 0.52250-0.98732 0.83639
  -3  -8  -1 -65.767 99.2800   9-0.00911-0.24527-0.52065-0.14624 0.83640-0.98750
   3   8   1 184.149 98.4097   1 0.16782 0.08638 0.17440 0.49261 0.98455-0.83378
   3   8   1 37.8375 67.5925   2 0.32702-0.07320 0.11856 0.54759 0.98252-0.83216
   3  -8   1 142.322 116.814   9 0.14648 0.10830-0.18184-0.48497 0.98245-0.83181
   4  -8   1 889.359 213.395   4 0.02594 0.30663-0.54299-0.12341-0.81945 0.98474
  -4  -8  -1 582.280 176.600   3-0.34121 0.00813-0.10803-0.55945-0.98148 0.81520
  -4   8  -1 413.592 197.813   6-0.25089-0.08198 0.14974 0.51784-0.98652 0.82083
   4   8   1 703.360 143.249   1 0.16439 0.16797 0.19121 0.47579 0.98136-0.81580
   4   8   1 609.610 155.925   2 0.32464 0.00718 0.11555 0.55049 0.98325-0.81818
  -4  -8  -1 882.193 210.585   9-0.02191-0.31061-0.54512-0.12176 0.81859-0.98448
   5  -8   1 35.7234 145.779   4 0.04039 0.37041-0.57143-0.09487-0.79740 0.97739
  -5  -8  -1 24.7484 82.9486   3-0.34374-0.06760-0.11029-0.55719-0.98079 0.79968
  -5   8  -1 -16.044 96.9818   6-0.25475-0.15628 0.16201 0.50554-0.98428 0.80382
   5   8   1 -98.305 78.9579   2 0.32766 0.08218 0.11936 0.54658 0.98233-0.80256
   5  -8   1 147.559 132.340   8 0.37600 0.03452-0.09161-0.57499 0.97655-0.79633
  -5  -8  -1 77.7243 124.794   9-0.03717-0.37350-0.57361-0.09326 0.79627-0.97696
  -6  -8  -1 292.538 148.002   3-0.35178-0.13782-0.11750-0.54999-0.97850 0.78255
  -6   8  -1 433.388 240.946   6-0.26074-0.22842 0.18128 0.48624-0.98040 0.78518
   6   8   1 330.689 127.576   2 0.33506 0.15279 0.12876 0.53710 0.97993-0.78546
  -6  -8  -1 151.226 112.854   9-0.05464-0.43417-0.60535-0.06150 0.76918-0.96466
  -7  -8  -1 175.390 135.920   3-0.36417-0.20367-0.12867-0.53881-0.97468 0.76390
   7   8   1 45.9976 55.0452   2 0.34608 0.21977 0.14285 0.52294 0.97604-0.76686
   7   9  -1 136.597 111.304   5 0.60261-0.07622 0.24988 0.50024 0.85827-0.86121
   6  -9  -1 -17.166 137.670   4-0.03688 0.48628-0.41142-0.33942-0.90136 0.88261
  -6   9   1 175.021 159.168   6-0.33087-0.11816 0.43553 0.31490-0.88455 0.90248
  -6  -9   1 -74.885 110.287   9 0.04312-0.49156-0.41558-0.33443 0.90014-0.88261
   6   9  -1 -30.021 100.435   5 0.61118-0.16292 0.25552 0.49459 0.85126-0.86899
   6   9  -1 131.124 96.8951   2 0.48852-0.04005 0.33653 0.41337 0.88300-0.90069
  -6  -9   1 48.4275 125.422   3-0.54463 0.09576-0.29997-0.45046-0.87215 0.88959
   5  -9  -1 180.809 122.757   4-0.05476 0.42590-0.37158-0.37942-0.92052 0.88705
  -5   9   1 -3.2936 94.4891   6-0.32922-0.04166 0.42869 0.32174-0.88833 0.92105
  -5  -9   1 -83.256 111.656   9 0.06202-0.43230-0.37551-0.37453 0.91965-0.88733
   5   9  -1 72.6658 123.305   5 0.62726-0.25713 0.26620 0.48391 0.83741-0.86991
   5   9  -1 -108.60 106.863   2 0.49240-0.12195 0.34220 0.40783 0.87905-0.91148
  -5  -9   1 -97.355 141.597   3-0.55311 0.18250-0.30853-0.44188-0.86460 0.89686
   4  -9  -1 487.271 164.477   4-0.07043 0.36329-0.33578-0.41534-0.93577 0.88756
  -4   9   1 334.032 197.115   6-0.32917 0.03646 0.42846 0.32198-0.88846 0.93596
  -4  -9   1 626.402 213.083   9 0.07865-0.37080-0.33926-0.41078 0.93524-0.88813
   4   9  -1 669.159 171.481   2 0.50065-0.20823 0.35432 0.39585 0.87034-0.91753
  -4  -9   1 683.040 184.185   3-0.56781 0.27546-0.32351-0.42687-0.85074 0.89780
  -3  -9   1 -37.793 94.8915   4 0.02303-0.23796-0.53718-0.21281-0.82374 0.88543
  -3   9   1 92.4819 116.666   6-0.33080 0.11629 0.43528 0.31516-0.88469 0.94697
   3  -9  -1 95.1604 86.4594   4-0.08378 0.29835-0.30460-0.44662-0.94759 0.88463
   3   9  -1 140.802 91.8179   6-0.31785 0.53257 0.38292 0.36786-0.91176 0.84933
  -3  -9   1 -90.933 106.320   9 0.09293-0.30694-0.30742-0.44262 0.94740-0.88551
   3  -9  -1 63.8871 109.027   9-0.01694 0.23141-0.53568-0.21471 0.82561-0.88802
   3   9  -1 -73.993 112.269   2 0.51379-0.29943 0.37390 0.37643 0.85549-0.91746
  -3  -9   1 28.4608 83.8918   3-0.58973 0.37564-0.34619-0.40414-0.82809 0.88994
  -2  -9   1 1218.58 236.369   4 0.01276-0.14954-0.51646-0.23357-0.83851 0.91502
  -2   9   1 1111.04 219.718   6-0.33419 0.19787 0.44958 0.30084-0.87654 0.95359
   2  -9  -1 1023.70 231.979   4-0.09468 0.23096-0.27869-0.47260-0.95644 0.87869
   2   9  -1 1063.23 199.307   6-0.30251 0.43899 0.32483 0.42606-0.93706 0.85991
   2   9  -1 996.356 191.717   2 0.53228-0.39601 0.40205 0.34844 0.83233-0.90909
  -2  -9   1 1123.31 230.532   9 0.10471-0.24058-0.28067-0.46939 0.95657-0.87988
  -2  -9   1 1252.59 232.048   3-0.61975 0.48390-0.37808-0.37220-0.79261 0.86923
   2  -9  -1 1470.92 266.829   9-0.00644 0.14277-0.51549-0.23487 0.83999-0.91718
  -1  -9   1 349.596 142.259   4 0.00738-0.06599-0.50548-0.24458-0.84599 0.93733
   1  -9  -1 291.774 124.931   4-0.10296 0.16094-0.25874-0.49259-0.96265 0.87011
  -1   9   1 560.520 181.819   6-0.33932 0.28122 0.47180 0.27859-0.86320 0.95501
   1   9  -1 549.222 158.588   6-0.28992 0.34814 0.27960 0.47136-0.95355 0.86166
   1   9  -1 510.804 163.590   2 0.55635-0.49818 0.43996 0.31070 0.79751-0.88909
  -1  -9   1 509.473 168.891   9 0.11379-0.17153-0.25970-0.49038 0.96309-0.87162
   1  -9  -1 339.959 125.037   9-0.00112 0.05932-0.50513-0.24520 0.84706-0.93903
   0  -9   1 7.96432 81.3776   4 0.00614 0.01345-0.50292-0.24713-0.84770 0.95385
   0  -9  -1 199.576 93.5575   4-0.10837 0.08809-0.24554-0.50580-0.96649 0.85915
   0   9  -1 150.052 110.985   6-0.28021 0.26019 0.24598 0.50503-0.96409 0.85744
   0   9   1 24.7069 92.7326   6-0.34608 0.36620 0.50231 0.24802-0.84347 0.95002
   0  -9   1 223.107 125.544   9 0.11996-0.09957-0.24531-0.50479 0.96724-0.86098
   0  -9  -1 100.453 116.814   9-0.00014-0.01980-0.50321-0.24710 0.84835-0.95511
   1  -9   1 377.514 126.780   4 0.00846 0.08936-0.50769-0.24234-0.84450 0.96545
   1   9   1 324.194 125.505   2 0.39940-0.30159 0.21261 0.53728 0.95130-0.83035
  -1  -9  -1 308.790 117.547   4-0.11063 0.01209-0.24000-0.51132-0.96803 0.84590
   1   9   1 329.308 132.130   1 0.15507-0.05717 0.23523 0.51519 0.97157-0.85037
  -1   9  -1 311.644 133.712   6-0.27335 0.17510 0.22279 0.52824-0.97052 0.84911
   1  -9   1 259.785 142.400   9 0.12288-0.02436-0.23842-0.51169 0.96913-0.84808
   1   9   1 416.910 149.998   6-0.35421 0.45257 0.54136 0.20890-0.81568 0.93693
  -1  -9  -1 257.144 125.151   9-0.00287-0.09520-0.50854-0.24174 0.84476-0.96630
  -2  -9  -1 1237.42 215.398   3-0.42051 0.24404-0.18030-0.57050-0.95274 0.81607
   2  -9   1 1033.72 236.775   4 0.01392 0.16214-0.51883-0.23118-0.83686 0.97259
   2   9   1 1162.31 214.608   2 0.38063-0.20479 0.18774 0.56197 0.96118-0.82553
  -2  -9  -1 1241.92 235.352   4-0.10933-0.06746-0.24321-0.50806-0.96714 0.83021
   2   9   1 1468.00 254.662   1 0.15552 0.02051 0.23318 0.51723 0.97207-0.83608
  -2   9  -1 1558.00 270.130   6-0.26921 0.09274 0.20902 0.54203-0.97403 0.83785
   2  -9   1 1442.14 242.477   9 0.12214 0.05452-0.24019-0.50996 0.96865-0.83282
   2   9   1 1012.48 218.941   6-0.36326 0.53984 0.58895 0.16122-0.77751 0.91344
  -2  -9  -1 1155.16 251.655   9-0.00885-0.16736-0.52015-0.23011 0.83674-0.97308
   3  -9   1 116.362 133.159   4 0.02217 0.23212-0.53548-0.21447-0.82499 0.97547
  -3  -9  -1 227.725 124.528   3-0.40236 0.14761-0.16351-0.58733-0.96066 0.80916
  -3  -9  -1 154.715 123.278   4-0.10387-0.15113-0.25653-0.49466-0.96331 0.81159
   3   9   1 119.563 100.753   2 0.36951-0.11565 0.17318 0.57638 0.96641-0.81606
  -3   9  -1 55.3530 93.1072   6-0.26763 0.01294 0.20375 0.54728-0.97531 0.82436
   3  -9   1 53.9306 66.3246   9 0.11711 0.13768-0.25198-0.49820 0.96535-0.81473
  -3  -9  -1 93.8378 108.327   9-0.01772-0.23664-0.53716-0.21309 0.82452-0.97565
   4  -9   1 573.132 226.628   4 0.03296 0.29960-0.55688-0.19298-0.80890 0.97411
  -4  -9  -1 508.147 165.328   3-0.39353 0.06051-0.15539-0.59547-0.96422 0.79788
   4   9   1 461.929 145.165   2 0.36470-0.03282 0.16689 0.58253 0.96855-0.80349
  -4   9  -1 385.598 211.179   6-0.26838-0.06449 0.20625 0.54475-0.97471 0.80900
  -4  -9  -1 602.951 214.638   9-0.02917-0.30331-0.55877-0.19146 0.80812-0.97404
   5  -9   1 76.4539 135.882   4 0.04604 0.36475-0.58236-0.16742-0.78845 0.96837
  -5  -9  -1 81.8421 79.8284   3-0.39192-0.01936-0.15393-0.59696-0.96484 0.78368
   5   9   1 59.6594 97.4660   2 0.36506 0.04482 0.16737 0.58195 0.96839-0.78863
  -5   9  -1 -35.616 94.5275   6-0.27127-0.13976 0.21585 0.53511-0.97232 0.79184
  -5  -9  -1 -51.779 90.4502   9-0.04300-0.36763-0.58431-0.16591 0.78741-0.96812
   5   9   1 68.3980 58.4769   5 0.42455-0.01386 0.13740 0.61296 0.95912-0.77814
  -6  -9  -1 117.054 102.045   3-0.39602-0.09353-0.15767-0.59321-0.96323 0.76723
   6   9   1 74.9630 66.2569   5 0.42676 0.06204 0.13875 0.61160 0.95830-0.76252
  -5 -10   1 399.098 176.316   3-0.58294 0.21237-0.33911-0.49470-0.83538 0.86755
   4  10  -1 315.760 152.734   2 0.52234-0.22992 0.38682 0.44672 0.84513-0.89239
  -4 -10   1 121.318 83.4399   3-0.59802 0.30572-0.35490-0.47887-0.81884 0.86581
   3 -10  -1 48.2025 114.618   4-0.06422 0.27872-0.35007-0.48457-0.92990 0.86681
  -3  10   1 100.922 125.418   6-0.33812 0.12360 0.46654 0.36732-0.86644 0.92869
   3  10  -1 31.6660 96.8653   2 0.53507-0.32072 0.40637 0.42733 0.82858-0.89062
  -3 -10   1 332.315 167.150   9 0.07266-0.28665-0.35242-0.48099 0.92980-0.86793
  -2 -10   1 225.780 132.497   4 0.02643-0.16329-0.54398-0.28944-0.81872 0.89511
   2 -10  -1 317.946 172.756   4-0.07366 0.20986-0.32832-0.50637-0.93872 0.86086
   2  10  -1 241.944 140.843   6-0.31633 0.45281 0.37701 0.45729-0.91456 0.83735
   2  10  -1 397.811 168.115   2 0.55243-0.41616 0.43369 0.40019 0.80359-0.88042
  -2  10   1 298.833 175.134   6-0.34120 0.20487 0.48011 0.35374-0.85799 0.93501
  -2 -10   1 76.5340 96.9471   9 0.08286-0.21871-0.32995-0.50347 0.93894-0.86229
   2 -10  -1 213.843 109.975   9-0.02096 0.15731-0.54331-0.29040 0.81995-0.89717
  -1 -10   1 949.221 267.667   4 0.02088-0.07956-0.53288-0.30058-0.82688 0.91810
   1 -10  -1 513.904 184.071   4-0.08055 0.13847-0.31222-0.52249-0.94482 0.85218
   1  10  -1 1112.16 272.680   6-0.30524 0.36348 0.33490 0.49947-0.93302 0.84107
  -1  10   1 725.462 191.805   6-0.34575 0.28765 0.50079 0.33302-0.84450 0.93626
  -1 -10   1 625.526 215.211   9 0.09046-0.14817-0.31299-0.52045 0.94538-0.85394
   1 -10  -1 862.337 232.415   9-0.01538 0.07359-0.53270-0.30098 0.82778-0.91979
   0 -10   1 37.8406 83.7104   4 0.01916 0.00038-0.52941-0.30405-0.82938 0.93541
   0 -10  -1 145.156 91.3150   4-0.08468 0.06433-0.30249-0.53222-0.94835 0.84091
   0  10  -1 38.5534 109.738   6-0.29649 0.27648 0.30297 0.53145-0.94537 0.83868
   0  10   1 55.9767 102.010   6-0.35168 0.37181 0.52887 0.30490-0.82489 0.93139
   0 -10   1 -65.284 99.2130   9 0.09522-0.07480-0.30226-0.53119 0.94924-0.84302
   0 -10  -1 108.965 83.0594   9-0.01383-0.00609-0.52974-0.30392 0.82993-0.93672
   1 -10   1 949.804 249.189   4 0.02077 0.07699-0.53265-0.30081-0.82705 0.94787
  -1 -10  -1 849.997 222.790   4-0.08577-0.01284-0.29991-0.53477-0.94926 0.82702
  -1  10  -1 779.484 201.682   6-0.29013 0.19188 0.28034 0.55410-0.95330 0.83186
   1  10   1 944.801 224.841   6-0.35875 0.45711 0.56452 0.26918-0.79772 0.91893
  -1 -10  -1 776.158 212.765   9-0.01577-0.08228-0.53344-0.30019 0.82724-0.94882
   1 -10   1 955.362 250.467   9 0.09684 0.00171-0.29860-0.53488 0.95053-0.82952
   2 -10   1 510.857 209.382   4 0.02534 0.15067-0.54180-0.29164-0.82034 0.95595
   2  10   1 404.518 128.150   2 0.42228-0.24640 0.24345 0.58967 0.93734-0.80172
  -2 -10  -1 563.418 194.441   4-0.08343-0.09342-0.30546-0.52915-0.94729 0.81026
  -2  10  -1 145.719 187.053   6-0.28609 0.10962 0.26621 0.56824-0.95792 0.82171
   2 -10   1 361.287 138.860   9 0.09490 0.08178-0.30299-0.53052 0.94899-0.81319
   2  10   1 40.7794 82.7131   6-0.36655 0.54314 0.60773 0.22588-0.76101 0.89689
  -2 -10  -1 647.330 193.640   9-0.02078-0.15541-0.54299-0.29063 0.82019-0.95657
   3 -10   1 -15.940 93.3186   4 0.03257 0.22169-0.55613-0.27727-0.80948 0.95985
   3  10   1 14.0731 70.8045   2 0.40976-0.15586 0.22650 0.60647 0.94525-0.79492
  -3  10  -1 51.0824 143.011   6-0.28426 0.02958 0.25987 0.57456-0.95991 0.80893
  -3 -10  -1 -53.083 129.538   9-0.02855-0.22577-0.55761-0.27599 0.80902-0.96019
  -4 -10  -1 88.3616 78.4775   3-0.44463 0.11167-0.20286-0.63139-0.94086 0.77446
   4  10   1 242.397 137.557   2 0.40308-0.07117 0.21753 0.61529 0.94920-0.78417
  -5 -10  -1 38.8017 110.538   3-0.43957 0.02834-0.19810-0.63617-0.94348 0.76226
  -1 -11   1 103.753 107.222   4 0.03587-0.09462-0.56261-0.35425-0.80443 0.89551
   1  11  -1 112.233 109.810   6-0.31913 0.37738 0.38795 0.52981-0.90935 0.81732
   1 -11  -1 181.439 133.673   9-0.03121 0.08945-0.56257-0.35446 0.80513-0.89717
   0 -11   1 471.288 211.087   9 0.07063-0.05020-0.35684-0.55997 0.92791-0.82173
   0 -11  -1 329.940 165.012   9-0.02910 0.00921-0.55864-0.35837 0.80822-0.91505
  -1 -11  -1 -9.0406 103.261   4-0.06125-0.03743-0.35686-0.56115-0.92701 0.80465
   1 -11   1 115.214 153.457   9 0.07111 0.02746-0.35579-0.56104 0.92836-0.80738
   1  11   1 122.402 116.091   6-0.36357 0.46194 0.59064 0.32650-0.77606 0.89720
  12   0  -2 418.723 181.125   5 0.64039 0.25632 0.27499-0.27521 0.82539-0.86145
  12   0  -2 322.510 177.080   8 0.64504 0.25198-0.20412 0.20409 0.84512-0.88111
 -11   0   2 109.449 142.606   7-0.63223-0.18691 0.10068-0.10083-0.87396 0.92412
  11   0  -2 -179.51 116.824   5 0.62428 0.19432 0.26422-0.26443 0.84004-0.89089
  11   0  -2 -87.225 119.642   8 0.62877 0.19016-0.19707 0.19703 0.85758-0.90834
 -10   0   2 289.878 114.066   7-0.61964-0.12125 0.09816-0.09831-0.88190 0.94691
  10   0  -2 370.662 132.603   5 0.61171 0.12880 0.25587-0.25609 0.85082-0.91644
  10   0  -2 722.760 197.947   8 0.61614 0.12470-0.19162 0.19158 0.86674-0.93226
  -9   0   2 -37.722 74.5479   7-0.61193-0.05071 0.09663-0.09676-0.88659 0.96642
  -9   0   2 22.6470 62.2593   3-0.59344-0.06986-0.35007 0.35041-0.82401 0.90402
   9   0  -2 118.740 83.9194   5 0.60372 0.05869 0.25061-0.25081 0.85738-0.93778
   9   0  -2 0.26609 78.8490   8 0.60829 0.05446-0.18825 0.18820 0.87223-0.95253
  -8   0   2 200.504 106.372   7-0.61071 0.02631 0.09639-0.09651-0.88732 0.98195
  -8   0   2 332.448 96.5737   3-0.59064 0.00556-0.34714 0.34748-0.82710 0.92190
   8   0  -2 115.267 60.3493   5 0.60180-0.01749 0.24934-0.24955 0.85893-0.95410
   8   0  -2 155.623 76.6144   8 0.60673-0.02207-0.18758 0.18751 0.87330-0.96838
  -7   0   2 5.00994 62.7135   7-0.61825 0.11208 0.09788-0.09800-0.88276 0.99217
  -7   0   2 -42.881 52.7569   3-0.59509 0.08822-0.35182 0.35213-0.82215 0.93175
   7   0  -2 -89.056 68.5014   5 0.60793-0.10172 0.25338-0.25357 0.85395-0.96390
   7   0  -2 18.4037 50.0275   8 0.61360-0.10704-0.19053 0.19046 0.86853-0.97841
  -6   0   2 1476.42 186.466   7-0.63776 0.20980 0.10178-0.10190-0.87036 0.99452
   6   0  -2 1306.69 106.893   4-0.21174 0.64141 0.02955-0.02982-0.99929 0.87414
  -6   0   2 1253.28 102.895   9 0.21167-0.64021-0.01384 0.01409 0.99964-0.87535
   6   0  -2 1352.79 170.193   5 0.62483-0.19672 0.26459-0.26478 0.83956-0.96427
   6   0  -2 1359.10 175.278   8 0.63191-0.20344-0.19842 0.19835 0.85524-0.97990
  -5   0   2 -3.6657 28.4926   7-0.67374 0.32394 0.10902-0.10912-0.84517 0.98406
   5   0  -2 -14.879 27.6474   4-0.30013 0.65169 0.31438-0.31482-0.94105 0.80090
  -5   0   2 -19.770 20.7424   9 0.30671-0.65708 0.27314-0.27291 0.95340-0.81435
  -5   0   2 6.04226 41.9862   3-0.63467 0.28420-0.39435 0.39464-0.77271 0.91187
   5   0  -2 -47.391 42.8680   5 0.65596-0.30594 0.28551-0.28569 0.81024-0.94973
   5   0  -2 -61.361 54.5023   8 0.66566-0.31530-0.21313 0.21305 0.82820-0.96767
  -4   0   2 15979.9 533.015   7-0.73169 0.46002 0.12084-0.12092-0.79718 0.95077
   4   0  -2 15242.7 613.484   8 0.71944-0.44720-0.23701 0.23693 0.77721-0.93148
  12   1  -2 97.6608 127.574   5 0.62399 0.27273 0.26403-0.18090 0.84030-0.87632
  12   1  -2 287.535 157.809   8 0.66410 0.23295-0.21245 0.29576 0.82953-0.86548
 -11   1   2 -188.30 132.825   7-0.62738-0.19180 0.09970-0.01640-0.87706 0.92726
 -11  -1   2 -105.06 135.802   7-0.64430-0.17480 0.10309-0.18668-0.86602 0.91612
  11   1  -2 5.33039 90.5643   5 0.60734 0.21128 0.25299-0.16987 0.85443-0.90524
  11  -1  -2 26.8082 119.397   8 0.61642 0.20248-0.19174 0.10836 0.86654-0.91733
  11   1  -2 -80.443 108.521   8 0.64893 0.17004-0.20581 0.28913 0.84203-0.89276
 -10   1   2 969.010 244.797   7-0.61457-0.12636 0.09715-0.01385-0.88500 0.95005
 -10  -1   2 1148.81 255.022   7-0.63259-0.10825 0.10075-0.18432-0.87373 0.93868
  10  -1  -2 1377.54 244.718   5 0.63884 0.10165 0.27396-0.35750 0.82684-0.89249
 -10  -1   2 1514.79 249.094   3-0.57775-0.16379-0.33373 0.25072-0.84078 0.90596
  10   1  -2 1247.29 226.585   5 0.59397 0.14655 0.24422-0.16109 0.86510-0.93069
  10  -1  -2 1461.80 263.978   8 0.60318 0.13763-0.18605 0.10267 0.87571-0.94126
  10   1  -2 1299.04 241.078   8 0.63771 0.10317-0.20093 0.28424 0.85083-0.91634
  -9   1   2 284.840 138.795   7-0.60652-0.05614 0.09555-0.01226-0.88981 0.96968
  -9  -1   2 73.4216 72.8833   7-0.62602-0.03659 0.09943-0.18298-0.87792 0.95770
   9   1  -2 158.704 104.615   2 0.54498 0.11834 0.42185-0.33830 0.81469-0.89443
   9  -1  -2 113.790 75.5251   5 0.63306 0.02935 0.27007-0.35361 0.83218-0.91261
  -9  -1   2 9.92868 64.2495   3-0.56804-0.09528-0.32373 0.24071-0.85052 0.93051
   9   1  -2 -8.2349 74.3278   5 0.58485 0.07757 0.23826-0.15513 0.87206-0.95243
   9  -1  -2 -3.6855 80.4826   8 0.59443 0.06829-0.18230 0.09891 0.88152-0.96185
   9   1  -2 164.386 118.918   8 0.63166 0.03112-0.19832 0.28162 0.85542-0.93571
  -8   1   2 192.004 109.003   7-0.60477 0.02036 0.09520-0.01192-0.89084 0.98551
  -8  -1   2 73.9159 76.6342   7-0.62627 0.04190 0.09948-0.18301-0.87776 0.97234
   8   1  -2 373.246 112.362   2 0.53911 0.04615 0.41265-0.32910 0.82303-0.91751
  -8   1   2 117.842 56.1373   3-0.63131 0.04625-0.39066 0.47433-0.77734 0.87215
   8  -1  -2 99.5173 64.3263   5 0.63404-0.04974 0.27074-0.35426 0.83128-0.92648
  -8  -1   2 206.032 88.4107   3-0.56325-0.02186-0.31884 0.23581-0.85515 0.94994
   8   1  -2 250.444 109.340   5 0.58126 0.00305 0.23592-0.15278 0.87472-0.96987
   8  -1  -2 114.383 75.6625   8 0.59157-0.00694-0.18108 0.09768 0.88338-0.97849
   8   1  -2 198.967 88.2141   8 0.63249-0.04780-0.19867 0.28197 0.85480-0.94987
   7  -1  -2 1781.79 155.868   4-0.13002 0.63773-0.19172 0.10822-0.97988 0.86953
  -7   1   2 1631.29 224.991   7-0.61148 0.10530 0.09654-0.01325-0.88686 0.99631
  -7  -1   2 1625.29 215.261   7-0.63573 0.12958 0.10138-0.18488-0.87169 0.98105
   7   1  -2 2029.33 220.782   2 0.53854-0.03135 0.41176-0.32820 0.82383-0.93307
  -7  -1   2 1801.19 152.839   9 0.13168-0.63833-0.21757 0.13447 0.97450-0.86501
  -7  -1   2 1626.45 207.514   3-0.56486 0.05797-0.32048 0.23744-0.85361 0.96320
   7  -1  -2 1796.07 214.186   5 0.64408-0.13788 0.27749-0.36100 0.82188-0.93185
   7   1  -2 1656.78 201.960   5 0.58496-0.07875 0.23833-0.15519 0.87198-0.98190
   7  -1  -2 1767.08 223.348   8 0.59655-0.09002-0.18321 0.09980 0.88013-0.99003
   7   1  -2 1728.23 205.321   8 0.64255-0.13597-0.20304 0.28634 0.84708-0.95694
  -6   1   2 -19.161 48.4126   7-0.62972 0.20175 0.10017-0.01691-0.87557 0.99977
  -6  -1   2 50.6886 40.8702   7-0.65778 0.22982 0.10580-0.18928-0.85674 0.98084
   6   1  -2 -11.655 15.4628   4-0.20774 0.63733 0.01795 0.06527-0.99966 0.87457
   6  -1  -2 -13.654 36.9682   4-0.20352 0.63322 0.00584-0.08960-0.99988 0.87469
   6   1  -2 41.4874 43.7295   2 0.54465-0.11555 0.42134-0.33778 0.81516-0.93920
  -6  -1   2 15.8042 31.0914   9 0.20834-0.63683-0.02290-0.06020 0.99954-0.87528
  -6   1   2 -11.959 15.7190   9 0.19099-0.61956-0.06914 0.15274 0.99758-0.87326
   6  -1  -2 47.5459 71.2334   5 0.66616-0.23805 0.29247-0.37598 0.79975-0.92449
  -6  -1   2 3.85041 37.1819   3-0.57477 0.14610-0.33066 0.24761-0.84382 0.96820
  -6   1   2 13.9454 23.8643   1 0.20179-0.62996-0.01050 0.09410 0.99986-0.87618
   6  -1  -2 -76.569 53.3907   8 0.61209-0.18365-0.18988 0.10644 0.86959-0.99428
   6   1  -2 48.4132 78.6876   8 0.66510-0.23662-0.21289 0.29618 0.82868-0.95334
  -5   1   2 8.17257 53.8012   7-0.66377 0.31397 0.10701-0.02376-0.85247 0.99140
  -5  -1   2 0.22352 30.7497   7-0.69702 0.34722 0.11374-0.19719-0.82708 0.96591
   5   1  -2 43.0870 38.0740   2 0.55891-0.20793 0.44412-0.36055 0.79343-0.93229
   5  -1  -2 21.3774 36.7904   4-0.26735 0.61889 0.20113-0.28508-0.97589 0.83578
  -5  -1   2 41.2517 36.7408   9 0.27588-0.62622 0.17278-0.25591 0.98070-0.84167
  -5   1   2 -16.500 34.5375   1 0.23880-0.58885-0.28272 0.36620 0.95733-0.81890
   5   1  -2 -11.556 31.3739   5 0.62455-0.27454 0.26440-0.18125 0.83981-0.97928
   5  -1  -2 4.38238 40.6656   8 0.64188-0.29153-0.20275 0.11931 0.84760-0.98708
   5   1  -2 -1.9807 49.6773   8 0.70429-0.35391-0.23021 0.31352 0.79268-0.93215
  -4   1   2 698.879 125.361   7-0.71901 0.44735 0.11823-0.03498-0.80855 0.96217
  -4  -1   2 411.878 94.6098   7-0.75871 0.48702 0.12642-0.20984-0.77107 0.92461
  -4  -1   2 602.815 113.086   3-0.62873 0.35645-0.38783 0.30477-0.78084 0.93477
   4   1  -2 903.568 141.639   5 0.66717-0.39525 0.29316-0.21001 0.79869-0.95293
   4  -1  -2 794.481 142.952   8 0.69046-0.41822-0.22406 0.14061 0.80601-0.96029
 -11   2   2 83.6295 132.235   7-0.62943-0.18977 0.10011 0.06664-0.87576 0.92598
 -11  -2   2 26.2543 100.464   7-0.66379-0.15524 0.10701-0.27401-0.85245 0.90248
 -11  -2   2 59.5145 103.526   3-0.57650-0.24328-0.33244 0.16607-0.84206 0.89239
  11   2  -2 -16.530 89.0134   5 0.59797 0.22066 0.24683-0.08036 0.86197-0.91275
  11  -2  -2 -187.19 109.289   8 0.61128 0.20760-0.18953 0.02282 0.87016-0.92098
  11   2  -2 -52.855 124.695   8 0.67748 0.14153-0.21833 0.38498 0.81789-0.86860
 -10   2   2 34.8197 84.2630   7-0.61702-0.12391 0.09764 0.06911-0.88351 0.94858
 -10  -2   2 4.22032 88.2900   7-0.65369-0.08709 0.10499-0.27196-0.85960 0.92446
  10   2  -2 62.5676 104.592   2 0.53567 0.20557 0.40730-0.24043 0.82776-0.89270
 -10  -2   2 -181.66 135.704   3-0.56279-0.17878-0.31837 0.15198-0.85559 0.92074
  10   2  -2 57.1011 103.883   5 0.58452 0.15600 0.23805-0.07156 0.87230-0.93787
  10  -2  -2 2.01561 106.140   8 0.59807 0.14272-0.18386 0.01714 0.87913-0.94472
  10   2  -2 37.0707 96.3902   8 0.66852 0.07239-0.21439 0.38104 0.82575-0.89123
  -9   2   2 189.282 112.006   7-0.60937-0.05332 0.09612 0.07062-0.88812 0.96802
  -9  -2   2 160.436 101.371   7-0.64910-0.01345 0.10406-0.27100-0.86276 0.94246
   9   2  -2 173.049 85.1295   2 0.52516 0.13804 0.39110-0.22424 0.84159-0.92124
   9  -2  -2 438.324 163.117   5 0.67410-0.01171 0.29791-0.46477 0.79127-0.87173
   9   2  -2 219.319 115.394   5 0.57508 0.08734 0.23191-0.06543 0.87922-0.95956
  -9  -2   2 131.581 59.6510   3-0.55260-0.11074-0.30802 0.14162-0.86506 0.94503
   9  -2  -2 120.801 104.382   8 0.58920 0.07350-0.18007 0.01334 0.88491-0.96527
   9   2  -2 178.127 112.898   8 0.66532-0.00251-0.21298 0.37964 0.82849-0.90876
  -8   2   2 166.506 105.844   7-0.60794 0.02351 0.09583 0.07088-0.88897 0.98366
  -8  -2   2 96.1961 63.6660   7-0.65180 0.06747 0.10460-0.27150-0.86091 0.95540
   8   2  -2 100.341 63.4852   2 0.51837 0.06677 0.38080-0.21392 0.85001-0.94440
   8  -2  -2 225.458 122.404   5 0.67941-0.09512 0.30159-0.46843 0.78541-0.88064
   8   2  -2 25.5451 66.1661   5 0.57082 0.01350 0.22915-0.06267 0.88226-0.97738
  -8  -2   2 185.445 98.4279   3-0.54691-0.03820-0.30228 0.13588-0.87015 0.96492
   8  -2  -2 221.272 102.022   8 0.58596-0.00135-0.17869 0.01194 0.88698-0.98211
   8   2  -2 258.331 104.720   8 0.66974-0.08502-0.21492 0.38158 0.82470-0.91976
   7  -2  -2 1380.95 155.702   4-0.13645 0.64426-0.17534 0.00837-0.98326 0.87286
  -7   2   2 1578.99 210.364   7-0.61482 0.10864 0.09720 0.06948-0.88485 0.99431
  -7  -2   2 1434.97 205.845   7-0.66431 0.15820 0.10712-0.27398-0.85208 0.96135
   7   2  -2 1675.74 204.263   2 0.51631-0.00923 0.37769-0.21079 0.85249-0.96164
  -7  -2   2 1362.35 152.379   9 0.14100-0.64762-0.19515 0.02870 0.97967-0.87022
  -7  -2   2 1511.06 209.188   3-0.54699 0.04010-0.30236 0.13594-0.87008 0.97965
   7   2  -2 1249.26 186.147   5 0.57330-0.06709 0.23076-0.06427 0.88049-0.99040
   7  -2  -2 81.2098 60.8710   5 0.69489-0.18868 0.31235-0.47918 0.76755-0.87755
   7   2  -2 1793.02 223.986   8 0.68435-0.17774-0.22136 0.38803 0.81168-0.92153
   7  -2  -2 1296.74 194.733   8 0.59015-0.08363-0.18047 0.01371 0.88430-0.99422
  -6   2   2 602.478 126.844   7-0.63295 0.20498 0.10082 0.06584-0.87350 0.99771
  -6  -2   2 566.964 119.787   7-0.69014 0.26220 0.11235-0.27917-0.83258 0.95661
   6  -2  -2 628.479 107.407   4-0.19185 0.62156-0.02720-0.14005-0.99963 0.87442
  -6   2   2 647.954 94.1411   1 0.19392-0.62213 0.03597 0.13101 0.99935-0.87565
  -6  -2   2 623.380 105.327   9 0.19889-0.62735-0.04826-0.11820 0.99877-0.87454
   6   2  -2 657.562 123.375   2 0.52017-0.09116 0.38352-0.21659 0.84781-0.97175
   6   2  -2 645.841 121.199   5 0.58461-0.15651 0.23810-0.07162 0.87224-0.99692
  -6  -2   2 587.212 125.948   3-0.55446 0.12579-0.30991 0.14349-0.86337 0.98774
   6  -2  -2 557.179 121.943   8 0.60423-0.17580-0.18650 0.01972 0.87500-0.99971
   6   2  -2 691.309 143.362   8 0.71253-0.28403-0.23391 0.40058 0.78438-0.90904
  -5   2   2 116.512 50.8637   1 0.22321-0.57330-0.15354 0.32039 0.98741-0.84893
  -5   2   2 64.7896 45.1398   7-0.66635 0.31657 0.10753 0.05909-0.85061 0.98954
  -5  -2   2 120.730 62.8568   7-0.73378 0.38398 0.12127-0.28804-0.79526 0.93401
   5   2  -2 132.193 53.4644   2 0.53128-0.18036 0.40051-0.23355 0.83365-0.97240
   5  -2  -2 90.3948 52.3270   4-0.24144 0.59297 0.11852-0.28598-0.99141 0.85131
  -5  -2   2 122.345 55.4326   9 0.25114-0.60146 0.09785-0.26431 0.99314-0.85414
  -5  -2   2 37.4644 32.5375   3-0.57132 0.22087-0.32711 0.16068-0.84728 0.98643
   5   2  -2 94.4951 56.6924   5 0.60751-0.25751 0.25310-0.08662 0.85430-0.99375
   5  -2  -2 46.6366 52.8319   8 0.63154-0.28120-0.19826 0.03146 0.85552-0.99501
  -4   2   2 343.442 88.1832   7-0.72005 0.44840 0.11844 0.04815-0.80764 0.96127
   4  -2  -2 348.749 81.8781   4-0.28420 0.55745 0.25791-0.42551-0.96046 0.80544
   4   2  -2 346.341 96.3030   2 0.55091-0.27810 0.43125-0.26425 0.80590-0.95950
  -4  -2   2 362.664 83.2727   9 0.29657-0.56874 0.23914-0.40564 0.96406-0.81028
   4  -2  -2 360.668 100.007   8 0.67626-0.40403-0.21779 0.05098 0.81898-0.97327
   3  -2  -2 -17.654 79.8230   8 0.74215-0.54804-0.24728 0.08044 0.75214-0.92123
 -11   3   2 152.999 153.346   7-0.63802-0.18117 0.10184 0.14837-0.87019 0.92040
 -11  -3   2 323.118 170.896   7-0.69086-0.12809 0.11249-0.36289-0.83201 0.88193
 -11  -3   2 87.7876 140.898   3-0.56872-0.25109-0.32444 0.07466-0.84985 0.90015
  11   3  -2 -127.84 98.8224   5 0.59526 0.22338 0.24507 0.00477 0.86410-0.91484
  11  -3  -2 106.603 114.994   8 0.61268 0.20617-0.19013-0.05992 0.86918-0.92004
 -10   3   2 524.567 181.143   7-0.62658-0.11435 0.09954 0.15065-0.87757 0.94263
 -10  -3   2 675.666 197.204   7-0.68312-0.05760 0.11092-0.36127-0.83806 0.90284
  10   3  -2 679.656 159.462   2 0.52417 0.21695 0.38961-0.13944 0.84283-0.90772
  10   3  -2 706.952 192.937   5 0.58226 0.15827 0.23657 0.01326 0.87399-0.93951
 -10  -3   2 786.601 199.748   3-0.55536-0.18623-0.31081 0.06103-0.86255 0.92767
  10  -3  -2 785.914 224.864   8 0.60005 0.14072-0.18471-0.06535 0.87781-0.94344
  -9   3   2 125.887 80.2744   7-0.61995-0.04271 0.09822 0.15194-0.88171 0.96159
  -9  -3   2 94.2274 102.772   7-0.68134 0.01884 0.11056-0.36087-0.83943 0.91903
   9   3  -2 19.4342 67.8383   2 0.51378 0.14930 0.37389-0.12371 0.85549-0.93509
   9   3  -2 108.722 84.9029   5 0.57314 0.08929 0.23065 0.01918 0.88061-0.96093
  -9  -3   2 23.5448 64.1979   3-0.54534-0.11802-0.30069 0.05090-0.87153 0.95147
   9  -3  -2 -55.325 99.8216   8 0.59169 0.07099-0.18113-0.06894 0.88331-0.96370
   9   3  -2 -13.957 118.946   8 0.70977-0.04692-0.23267 0.48269 0.78719-0.86745
  -8   3   2 891.943 177.487   7-0.61959 0.03518 0.09815 0.15198-0.88193 0.97662
  -8  -3   2 1038.10 196.213   7-0.68744 0.10315 0.11180-0.36206-0.83470 0.92910
  -8  -3   2 1031.80 160.078   9 0.08948-0.67421-0.31519 0.06539 0.94457-0.84993
  -8   3   2 -137.66 60.5050   6-0.36816-0.21669 0.61738-0.36717-0.75219 0.84706
   8   3  -2 929.954 170.137   2 0.50685 0.07819 0.36351-0.11331 0.86349-0.95782
   8   3  -2 992.388 184.450   5 0.56895 0.01536 0.22794 0.02189 0.88357-0.97867
  -8  -3   2 808.655 173.706   3-0.53952-0.04560-0.29486 0.04506-0.87654 0.97130
   8  -3  -2 871.516 181.492   8 0.58882-0.00422-0.17991-0.07018 0.88515-0.98032
   8   3  -2 1589.93 277.294   8 0.71894-0.13419-0.23679 0.48682 0.77773-0.87279
  -7   3   2 322.801 127.725   7-0.62751 0.12134 0.09973 0.15036-0.87698 0.98644
  -7  -3   2 377.384 114.267   7-0.70405 0.19796 0.11517-0.36538-0.82132 0.93049
   7  -3  -2 303.083 116.882   4-0.13387 0.64174-0.18193-0.06854-0.98194 0.87149
  -7  -3   2 391.080 89.1875   9 0.13996-0.64654-0.19767-0.05214 0.97912-0.86970
  -7   3   2 313.156 110.693   6-0.36370-0.14309 0.59139-0.34126-0.77541 0.88502
   7   3  -2 626.854 144.660   2 0.50419 0.00280 0.35958-0.10934 0.86645-0.97555
   7   3  -2 439.639 124.149   5 0.57111-0.06490 0.22934 0.02050 0.88205-0.99193
  -7  -3   2 406.737 142.678   3-0.53900 0.03211-0.29434 0.04454-0.87698 0.98654
   7  -3  -2 407.441 143.132   8 0.59309-0.08658-0.18173-0.06838 0.88240-0.99234
   7   3  -2 -70.987 106.362   8 0.73922-0.23258-0.24595 0.49600 0.75550-0.86536
   6  -3  -2 1620.82 190.055   4-0.17851 0.60823-0.06415-0.18658-0.99790 0.87266
  -6   3   2 1618.11 206.202   7-0.64650 0.21856 0.10354 0.14651-0.86453 0.98873
  -6  -3   2 1548.39 187.289   7-0.73464 0.30671 0.12144-0.37159-0.79446 0.91839
   6   3  -2 1868.51 221.382   2 0.50683-0.07789 0.36348-0.11320 0.86351-0.98739
  -6   3   2 1706.16 202.476   6-0.36082-0.06790 0.57560-0.32554-0.78872 0.91308
  -6  -3   2 1683.53 188.863   9 0.18668-0.61511-0.08041-0.16940 0.99674-0.87253
  -6  -3   2 1533.19 206.176   3-0.54517 0.11650-0.30052 0.05072-0.87168 0.99603
   6   3  -2 1772.09 205.127   5 0.58145-0.15335 0.23605 0.01379 0.87458-0.99924
   6  -3  -2 1732.00 217.431   8 0.60677-0.17835-0.18759-0.06255 0.87327-0.99800
  -5   3   2 308.749 88.1621   7-0.68033 0.33056 0.11036 0.13964-0.84020 0.97912
   5   3  -2 415.197 64.4170   6-0.14190 0.49291-0.15985 0.41050-0.98614 0.84663
   5  -3  -2 434.319 100.773   4-0.21890 0.57040 0.05050-0.30144-0.99824 0.85815
  -5  -3   2 438.651 95.3310   9 0.22922-0.57950 0.03472-0.28454 0.99857-0.85958
  -5   3   2 431.717 102.417   6-0.35998 0.00935 0.57108-0.32106-0.79243 0.93156
   5   3  -2 307.629 82.3635   2 0.51587-0.16500 0.37701-0.12669 0.85302-0.99171
   5   3  -2 433.436 96.3409   5 0.60236-0.25238 0.24972 0.00011 0.85848-0.99790
  -5  -3   2 403.444 109.360   3-0.55969 0.20924-0.31521 0.06543-0.85852 0.99766
   5  -3  -2 267.423 83.2260   8 0.63283-0.28251-0.19882-0.05133 0.85454-0.99406
  -4   3   2 525.760 107.823   7-0.73350 0.46186 0.12121 0.12873-0.79552 0.94913
   4  -3  -2 331.705 89.8806   4-0.25463 0.52786 0.15994-0.41103-0.98463 0.82965
  -4  -3   2 328.525 84.2402   9 0.26707-0.53921 0.14558-0.39542 0.98598-0.83223
   4   3  -2 384.141 97.1470   2 0.53245-0.25969 0.40231-0.15193 0.83210-0.98562
  -4   3   2 332.388 83.2808   6-0.36143 0.08891 0.57889-0.32894-0.78600 0.93989
  -4  -3   2 -43.330 33.1294   3-0.58448 0.31225-0.34072 0.09093-0.83375 0.98766
   4   3  -2 383.942 103.903   5 0.63670-0.36481 0.27252-0.02269 0.82883-0.98303
   4  -3  -2 443.509 102.570   8 0.67499-0.40277-0.21723-0.03294 0.82010-0.97441
  -4   3   2 491.259 103.572   1 0.22780-0.49987-0.18861 0.43876 0.98106-0.82777
  -3   3   2 153.706 58.1681   1 0.24029-0.43427-0.29694 0.54704 0.95286-0.78481
   3  -3  -2 180.287 72.3302   4-0.28535 0.48026 0.26192-0.51312-0.95921 0.78933
  -3  -3   2 251.258 79.0839   9 0.29979-0.49380 0.24982-0.49967 0.96087-0.79234
  -3   3   2 33.1576 42.6305   6-0.36521 0.17080 0.59996-0.35007-0.76795 0.93660
   3  -3  -2 -51.924 66.2275   8 0.73669-0.54258-0.24480-0.00540 0.75838-0.92749
  11   4  -2 351.612 150.505   2 0.53138 0.28767 0.40067-0.06722 0.83352-0.88370
 -11  -4   2 150.420 123.384   3-0.56677-0.25306-0.32244-0.01073-0.85175 0.90202
 -10   4   2 -17.216 102.941   7-0.64279-0.09811 0.10279 0.23085-0.86703 0.93206
 -10  -4   2 182.223 136.991   7-0.72082-0.01983 0.11860-0.45230-0.80696 0.87162
  10   4  -2 121.954 104.147   2 0.51890 0.22212 0.38161-0.04816 0.84936-0.91422
  10   4  -2 29.4170 102.255   5 0.58621 0.15431 0.23915 0.09404 0.87103-0.93653
 -10  -4   2 37.2075 80.5669   3-0.55413-0.18747-0.30957-0.02361-0.86367 0.92876
  10  -4  -2 -129.46 140.167   8 0.60841 0.13235-0.18830-0.14511 0.87214-0.93782
  -9   4   2 2336.74 325.218   7-0.63773-0.02491 0.10178 0.23182-0.87038 0.95024
  -9  -4   2 2891.26 347.022   7-0.72263 0.06019 0.11897-0.45262-0.80536 0.88484
   9   4  -2 2380.11 302.416   2 0.50905 0.15394 0.36681-0.03333 0.86098-0.94056
  -9  -4   2 3082.82 366.588   3-0.54471-0.11865-0.30006-0.03313-0.87208 0.95199
   9   4  -2 2514.00 319.856   5 0.57787 0.08456 0.23372 0.09948 0.87720-0.95749
   9  -4  -2 2127.00 308.859   8 0.60105 0.06162-0.18514-0.14828 0.87715-0.95758
  -8   4   2 -84.164 87.8174   7-0.63905 0.05467 0.10204 0.23150-0.86952 0.96417
  -8  -4   2 -83.800 59.2113   7-0.73296 0.14872 0.12110-0.45469-0.79601 0.89029
   8  -4  -2 35.2920 71.1561   4-0.08593 0.67195-0.29954-0.03414-0.94939 0.85359
  -8  -4   2 117.613 92.9695   9 0.09113-0.67583-0.31148-0.02167 0.94593-0.85132
  -8   4   2 -61.026 66.3235   6-0.36057-0.22433 0.57424-0.24077-0.78984 0.88469
   8   4  -2 -34.516 71.1543   2 0.50243 0.08253 0.35697-0.02345 0.86840-0.96270
   8   4  -2 122.522 100.135   5 0.57429 0.01002 0.23140 0.10179 0.87979-0.97485
  -8  -4   2 -26.052 62.1990   3-0.53928-0.04586-0.29461-0.03859-0.87675 0.97148
   8  -4  -2 -20.175 90.2469   8 0.59911-0.01452-0.18430-0.14913 0.87844-0.97364
   7  -4  -2 2014.80 255.096   4-0.12667 0.63457-0.20014-0.13381-0.97802 0.86751
  -7   4   2 2395.39 274.237   7-0.64870 0.14256 0.10398 0.22951-0.86304 0.97246
  -7  -4   2 1762.01 226.516   7-0.75442 0.24836 0.12552-0.45904-0.77540 0.88446
   7   4  -2 2406.66 277.747   2 0.49975 0.00717 0.35300-0.01945 0.87131-0.98037
  -7   4   2 2911.57 296.156   6-0.35601-0.15083 0.55041-0.21700-0.80880 0.91840
  -7  -4   2 2358.69 257.652   9 0.13361-0.64016-0.21294-0.12021 0.97562-0.86622
  -7  -4   2 2550.66 289.851   3-0.53878 0.03188-0.29412-0.03907-0.87717 0.98670
   7   4  -2 2494.59 270.482   5 0.57677-0.07056 0.23301 0.10019 0.87800-0.98785
   7  -4  -2 2303.92 276.680   8 0.60414-0.09763-0.18646-0.14700 0.87506-0.98504
  -6   4   2 6.60641 58.7749   7-0.66933 0.24140 0.10813 0.22529-0.84843 0.97260
   6  -4  -2 -1.6331 54.0033   4-0.16411 0.59382-0.10309-0.23110-0.99440 0.86911
  -6  -4   2 6.19127 44.1962   9 0.17285-0.60125-0.11605-0.21710 0.99309-0.86891
  -6   4   2 -86.550 67.8125   6-0.35304-0.07572 0.53555-0.20219-0.82000 0.94437
   6   4  -2 2.74345 49.4080   2 0.50185-0.07297 0.35609-0.02249 0.86904-0.99288
   6   4  -2 113.991 69.4263   5 0.58691-0.15883 0.23961 0.09358 0.87050-0.99513
  -6  -4   2 104.393 69.7491   3-0.54441 0.11575-0.29975-0.03343-0.87234 0.99667
   6  -4  -2 89.9549 71.1368   8 0.61818-0.18977-0.19250-0.14098 0.86529-0.99005
  -6   4   2 25.9249 39.4778   1 0.17762-0.60591 0.12490 0.20882 0.99215-0.86840
  -5   4   2 444.017 104.464   7-0.70435 0.35460 0.11523 0.21812-0.82106 0.95994
   5   4  -2 480.987 81.4288   6-0.20892 0.55997 0.02299 0.31097-0.99953 0.86008
   5  -4  -2 426.933 115.093   4-0.19807 0.54955-0.00967-0.32474-0.99992 0.85981
  -5  -4   2 476.300 112.433   9 0.20863-0.55889-0.02209-0.31108 0.99955-0.86060
  -5   4   2 452.826 106.097   6-0.35201 0.00135 0.53052-0.19721-0.82369 0.96284
  -5   4   2 303.069 94.1391   1 0.19817-0.54837 0.01117 0.32245 0.99990-0.86135
   5   4  -2 526.047 122.400   2 0.50964-0.15883 0.36767-0.03400 0.86032-0.99896
   5   4  -2 528.491 125.188   5 0.60681-0.25684 0.25264 0.08054 0.85487-0.99427
  -5  -4   2 459.591 114.645   3-0.55757 0.20713-0.31305-0.02013-0.86051 0.99962
   5  -4  -2 444.987 128.240   8 0.64392-0.29360-0.20363-0.12987 0.84601-0.98555
  -4   4   2 145.436 66.2997   7-0.75765 0.48601 0.12619 0.20709-0.77215 0.92573
   4   4  -2 220.882 62.0715   6-0.14539 0.41816-0.15085 0.48499-0.98770 0.83341
   4  -4  -2 240.099 83.4034   4-0.22840 0.50160 0.07880-0.41337-0.99604 0.84108
  -4  -4   2 174.559 79.6895   9 0.24076-0.51286 0.06757-0.40075 0.99631-0.84258
  -4   4   2 276.780 89.1772   1 0.21427-0.48638-0.09034 0.42388 0.99554-0.84221
  -4   4   2 211.276 77.4419   6-0.35318 0.08062 0.53622-0.20296-0.81951 0.97342
   4   4  -2 163.994 77.2741   2 0.52408-0.25136 0.38947-0.05572 0.84294-0.99641
   4   4  -2 232.172 81.6534   5 0.63885-0.36699 0.27396 0.05921 0.82683-0.98100
  -4  -4   2 173.152 84.9801   3-0.57983 0.30762-0.33589 0.00272-0.83863 0.99253
   4  -4  -2 171.600 88.4773   8 0.68454-0.41232-0.22145-0.11209 0.81150-0.96583
   3   4  -2 -1.0181 38.6698   6-0.10465 0.29916-0.25320 0.58740-0.96424 0.79513
   3  -4  -2 -0.9590 44.7981   4-0.25493 0.44982 0.16092-0.49560-0.98445 0.81461
  -3  -4   2 57.5860 40.8265   9 0.26900-0.46297 0.15148-0.48468 0.98491-0.81640
   3   4  -2 83.4550 75.6559   2 0.54592-0.35131 0.42334-0.08951 0.81332-0.98163
  -3   4   2 33.2092 48.1911   6-0.35662 0.16219 0.55348-0.22027-0.80642 0.97511
  -3   4   2 58.0359 64.1553   1 0.22651-0.42055-0.17859 0.51207 0.98301-0.81491
   3   4  -2 67.8133 58.6642   5 0.68530-0.49153 0.30566 0.02751 0.77877-0.94771
  -3  -4   2 64.6553 48.6770   3-0.61261 0.41861-0.37040 0.03725-0.80157 0.97023
   2  -4  -2 58.6560 47.1338   4-0.27757 0.39413 0.23529-0.57003-0.96708 0.78237
  -2  -4   2 6.54080 24.6334   9 0.29323-0.40908 0.22817-0.56137 0.96719-0.78390
  -2   4   2 -1.6686 37.7657   6-0.36216 0.24589 0.58286-0.24970-0.78268 0.96613
 -10   5   2 238.165 141.834   7-0.66515-0.07570 0.10728 0.30979-0.85148 0.91645
  10   5  -2 125.978 131.832   2 0.51858 0.22237 0.38112 0.03562 0.84975-0.91461
  10   5  -2 33.8511 99.6843   5 0.59551 0.14503 0.24522 0.17133 0.86391-0.92936
 -10  -5   2 -206.97 104.194   3-0.55801-0.18360-0.31350-0.10309-0.86009 0.92513
  10  -5  -2 26.8932 113.028   8 0.62243 0.11833-0.19433-0.22241 0.86224-0.92795
  -9   5   2 45.7450 111.000   7-0.66210-0.00049 0.10667 0.31035-0.85367 0.93346
   9   5  -2 81.8603 100.789   2 0.50949 0.15342 0.36747 0.04931 0.86048-0.94004
   9   5  -2 22.0912 82.2475   5 0.58825 0.07417 0.24048 0.17608 0.86950-0.94974
  -9  -5   2 -63.085 115.849   3-0.54946-0.11391-0.30485-0.11175-0.86788 0.94775
   9  -5  -2 -88.043 94.3319   8 0.61645 0.04622-0.19175-0.22501 0.86653-0.94701
  -8   5   2 -36.574 67.4934   7-0.66559 0.08125 0.10737 0.30957-0.85116 0.94575
   8  -5  -2 89.3249 129.376   4-0.08151 0.66758-0.30997-0.10720-0.94565 0.84979
  -8  -5   2 -7.2988 62.5274   9 0.08731-0.67197-0.32005-0.09646 0.94275-0.84817
  -8   5   2 88.3107 102.339   6-0.35607-0.22890 0.55072-0.13396-0.80856 0.90340
   8   5  -2 59.0445 70.2441   2 0.50346 0.08143 0.35849 0.05833 0.86726-0.96156
   8   5  -2 -118.27 78.4713   5 0.58565-0.00135 0.23879 0.17777 0.87145-0.96649
  -8  -5   2 246.036 120.939   3-0.54473-0.04040-0.30008-0.11652-0.87206 0.96675
   8  -5  -2 80.5409 75.2285   8 0.61586-0.03128-0.19150-0.22528 0.86694-0.96219
  -7   5   2 68.7867 65.5644   7-0.67748 0.17137 0.10978 0.30710-0.84236 0.95172
   7  -5  -2 -0.7805 80.1298   4-0.11667 0.62457-0.22512-0.19231-0.97199 0.86142
  -7   5   2 -16.606 63.4924   6-0.35172-0.15517 0.52911-0.11238-0.82472 0.93433
  -7  -5   2 338.556 126.810   9 0.12404-0.63055-0.23571-0.18080 0.96986-0.86050
   7   5  -2 142.940 92.1087   2 0.50109 0.00579 0.35497 0.06190 0.86986-0.97892
   7   5  -2 125.156 87.8670   5 0.58888-0.08268 0.24089 0.17567 0.86902-0.97884
  -7  -5   2 71.4005 89.2157   3-0.54464 0.03776-0.29999-0.11661-0.87214 0.98163
   7  -5  -2 123.259 104.737   8 0.62211-0.11561-0.19419-0.22261 0.86247-0.97248
  -6   5   2 -7.6202 57.8062   7-0.70025 0.27234 0.11439 0.30241-0.82445 0.94855
   6  -5  -2 56.4452 94.5213   4-0.14890 0.57860-0.14322-0.27445-0.98897 0.86363
  -6  -5   2 32.6282 62.0533   9 0.15787-0.58623-0.15377-0.26275 0.98762-0.86347
  -6   5   2 133.515 79.8404   6-0.34889-0.07992 0.51548-0.09880-0.83443 0.95881
  -6   5   2 9.81419 55.0925   1 0.16898-0.59732 0.16868 0.24841 0.98556-0.86179
   6   5  -2 113.701 71.6727   2 0.50306-0.07423 0.35788 0.05905 0.86771-0.99153
   6   5  -2 -1.0333 60.0215   5 0.59935-0.17127 0.24774 0.16880 0.86088-0.98548
  -6  -5   2 -36.937 77.1853   3-0.55021 0.12157-0.30561-0.11098-0.86721 0.99151
   6  -5  -2 44.4934 82.7994   8 0.63707-0.20866-0.20066-0.21617 0.85132-0.97611
   5  -5  -2 1352.45 225.117   4-0.17813 0.52958-0.06519-0.35269-0.99783 0.85769
  -5   5   2 1742.07 226.953   1 0.18698-0.53723 0.07492 0.34208 0.99721-0.85864
  -5   5   2 1585.11 215.180   7-0.73692 0.38718 0.12191 0.29481-0.79233 0.93115
   5   5  -2 1780.23 225.521   2 0.51015-0.15937 0.36843 0.04858 0.85973-0.99835
  -5   5   2 1730.45 232.419   6-0.34785-0.00285 0.51056-0.09391-0.83785 0.97702
  -5  -5   2 2007.75 237.362   9 0.18868-0.53891-0.07518-0.34134 0.99715-0.85822
  -5  -5   2 1581.88 231.763   3-0.56263 0.21223-0.31821-0.09836-0.85574 0.99482
   5   5  -2 1773.40 217.128   5 0.61886-0.26890 0.26061 0.15593 0.84476-0.98413
   5  -5  -2 1993.78 253.495   8 0.66309-0.31276-0.21201-0.20486 0.83038-0.96995
   4   5  -2 1318.99 155.430   6-0.19601 0.46882-0.01391 0.43141-0.99988 0.84564
   4  -5  -2 981.372 175.229   4-0.20427 0.47744 0.00798-0.42602-0.99985 0.84488
  -4  -5   2 1313.08 201.176   9 0.21638-0.48847-0.00096-0.41557 0.99962-0.84591
  -4  -5   2 1332.29 195.970   3-0.58318 0.31101-0.33937-0.07718-0.83512 0.98899
  -4   5   2 1084.30 173.781   6-0.34880 0.07623 0.51503-0.09843-0.83474 0.98869
   4   5  -2 1070.54 170.094   2 0.52311-0.25042 0.38800 0.02910 0.84416-0.99760
   4   5  -2 1360.12 192.948   5 0.64940-0.37756 0.28106 0.13547 0.81675-0.97089
   4  -5  -2 1523.92 233.366   8 0.70285-0.43063-0.22957-0.18732 0.79410-0.94845
  -4   5   2 995.246 173.102   1 0.20153-0.47369-0.00894 0.42586 0.99988-0.84652
   3  -5  -2 2115.17 246.195   4-0.22723 0.42209 0.07529-0.49344-0.99636 0.82654
  -3   5   2 2183.90 250.397   1 0.21305-0.40712-0.08213 0.49900 0.99629-0.82815
   3   5  -2 2512.08 271.812   2 0.54258-0.34800 0.41809-0.00088 0.81813-0.98641
   3   5  -2 2254.32 212.851   6-0.16056 0.35510-0.11100 0.52860-0.99346 0.82441
  -3   5   2 2403.54 254.937   6-0.35183 0.15741 0.52962-0.11305-0.82435 0.99307
  -3  -5   2 2551.15 252.998   9 0.24085-0.43480 0.06785-0.48439 0.99629-0.82780
  -3  -5   2 2704.42 267.213   3-0.61300 0.41904-0.37082-0.04571-0.80109 0.96972
   3   5  -2 454.323 123.209   5 0.69275-0.49902 0.31085 0.10566 0.77009-0.93900
  -2   5   2 9.30378 41.1609   1 0.22192-0.33792-0.14405 0.56086 0.98890-0.80598
   2   5  -2 21.5070 46.4077   6-0.13634 0.25263-0.17413 0.59178-0.98347 0.79961
   2   5  -2 31.3882 50.7350   2 0.56867-0.45225 0.46005-0.04275 0.77723-0.96036
   2  -5  -2 9.22865 44.1405   4-0.24696 0.36349 0.13570-0.55394-0.98884 0.80416
  -2  -5   2 -89.920 69.9724   9 0.26200-0.37781 0.13019-0.54675 0.98858-0.80532
  -2   5   2 -38.001 64.0689   6-0.35688 0.24061 0.55484-0.13832-0.80537 0.98885
  -1   5   2 317.726 89.0589   1 0.22852-0.26644-0.19426 0.61105 0.97992-0.78221
   1  -5  -2 366.693 100.758   4-0.26340 0.30159 0.18821-0.60648-0.97885 0.77932
  -1  -5   2 386.077 93.3061   9 0.27978-0.31746 0.18499-0.60155 0.97804-0.78000
  -1   5   2 426.648 112.351   6-0.36361 0.32551 0.59089-0.17443-0.77585 0.97408
 -10   6   2 26.6174 137.575   7-0.69312-0.04768 0.11295 0.38755-0.83021 0.89510
  -9   6   2 368.079 169.989   7-0.69243 0.02989 0.11281 0.38762-0.83076 0.91047
   9   6  -2 466.186 167.008   2 0.51397 0.14890 0.37417 0.12589 0.85527-0.93486
   9   6  -2 481.848 174.137   5 0.60340 0.05902 0.25040 0.24952 0.85764-0.93785
  -9  -6   2 326.341 143.938   3-0.55855-0.10480-0.31406-0.18594-0.85958 0.93940
   9  -6  -2 407.944 166.073   8 0.63711 0.02556-0.20068-0.29943 0.85129-0.93181
  -8   6   2 57.9064 67.7926   7-0.69841 0.11412 0.11402 0.38633-0.82595 0.92045
   8  -6  -2 70.3450 98.8602   4-0.07380 0.65988-0.32799-0.17267-0.93885 0.84291
  -8   6   2 173.786 142.249   6-0.35413-0.23090 0.54094-0.04084-0.81599 0.91084
  -8  -6   2 169.150 105.738   9 0.07989-0.66452-0.33653-0.16333 0.93634-0.84179
   8   6  -2 325.369 139.161   2 0.50866 0.07619 0.36622 0.13390 0.86143-0.95574
   8   6  -2 194.844 130.553   5 0.60201-0.01771 0.24949 0.25042 0.85876-0.95375
  -8  -6   2 121.273 76.0718   3-0.55470-0.03042-0.31015-0.18986-0.86315 0.95779
   8  -6  -2 167.699 99.3731   8 0.63815-0.05357-0.20113-0.29899 0.85049-0.94577
  -7   6   2 1792.39 265.099   7-0.71286 0.20679 0.11697 0.38329-0.81388 0.92315
   7  -6  -2 1032.11 242.031   4-0.10474 0.61264-0.25441-0.24648-0.96393 0.85329
  -7   6   2 774.526 248.335   6-0.35013-0.15681 0.52141-0.02135-0.83025 0.93987
  -7  -6   2 1555.38 264.619   9 0.11226-0.61875-0.26325-0.23661 0.96203-0.85269
   7   6  -2 1965.76 278.069   5 0.60624-0.10006 0.25227 0.24764 0.85533-0.96512
   7   6  -2 1683.18 252.258   2 0.50676 0.00006 0.36338 0.13680 0.86359-0.97264
  -7  -6   2 1443.13 244.806   3-0.55525 0.04837-0.31070-0.18930-0.86265 0.97210
   7  -6  -2 1473.47 249.163   8 0.64594-0.13944-0.20451-0.29564 0.84441-0.95447
  -6   6   2 191.282 118.748   7-0.73801 0.31013 0.12214 0.37803-0.79131 0.91532
   6  -6  -2 -6.5916 64.2394   4-0.13302 0.56269-0.18408-0.31703-0.98150 0.85611
  -6   6   2 6.38940 58.4161   1 0.15998-0.58836 0.21229 0.28818 0.97694-0.85316
  -6  -6   2 -178.95 99.7234   9 0.14198-0.57032-0.19279-0.30708 0.98018-0.85606
  -6   6   2 -4.9565 94.9315   6-0.34754-0.08131 0.50911-0.00908-0.83885 0.96325
   6   6  -2 23.5217 77.4495   2 0.50885-0.08006 0.36651 0.13375 0.86121-0.98504
   6   6  -2 12.7669 72.6663   5 0.61735-0.18929 0.25961 0.24029 0.84605-0.97062
  -6  -6   2 97.3435 107.454   3-0.56106 0.13244-0.31660-0.18338-0.85723 0.98149
   6  -6  -2 17.2707 103.350   8 0.66213-0.23372-0.21159-0.28859 0.83119-0.95602
   5  -6  -2 -23.246 83.0187   4-0.15860 0.51001-0.11774-0.38358-0.99263 0.85245
  -5  -6   2 -96.212 82.6654   9 0.16898-0.51917-0.12589-0.37398 0.99182-0.85292
  -5   6   2 -124.87 82.2401   6-0.34657-0.00416 0.50459-0.00458-0.84193 0.98112
   5   6  -2 21.1840 83.5374   2 0.51557-0.16483 0.37657 0.12378 0.85338-0.99200
   5   6  -2 32.7928 61.4597   5 0.63685-0.28692 0.27262 0.22727 0.82869-0.96803
  -5  -6   2 -25.678 62.0793   3-0.57312 0.22274-0.32896-0.17100-0.84548 0.98453
  -5   6   2 137.147 112.590   1 0.17605-0.52634 0.13300 0.36739 0.99109-0.85250
   5  -6  -2 25.9845 72.9787   8 0.68878-0.33846-0.22332-0.27689 0.80758-0.94718
   3   6  -2 520.452 119.920   6-0.20095 0.39552 0.00012 0.50087-0.99993 0.83090
   3  -6  -2 424.835 129.371   4-0.20143 0.39624-0.00014-0.50146-0.99992 0.83010
   3   6  -2 780.439 160.483   2 0.54514-0.35059 0.42213 0.07845 0.81444-0.98270
  -3  -6   2 405.896 112.661   9 0.21452-0.40844-0.00607-0.49383 0.99965-0.83118
  -3   6   2 577.359 151.459   6-0.35007 0.15564 0.52115-0.02121-0.83044 0.99919
  -3  -6   2 559.640 140.963   3-0.61999 0.42607-0.37835-0.12156-0.79230 0.96089
  -3   6   2 535.127 131.585   1 0.19999-0.39412 0.00036 0.49989 0.99994-0.83177
   2  -6  -2 1646.27 234.930   4-0.21856 0.33504 0.04950-0.55118-0.99830 0.81364
  -2   6   2 1799.65 232.639   1 0.20841-0.32446-0.05185 0.55206 0.99844-0.81548
   2   6  -2 1912.67 222.267   6-0.17888 0.29518-0.06158 0.56263-0.99807 0.81425
  -2   6   2 2055.13 259.621   6-0.35459 0.23832 0.54324-0.04335-0.81426 0.99778
   2   6  -2 845.364 176.470   2 0.56860-0.45219 0.45995 0.04074 0.77734-0.96046
  -2  -6   2 1900.23 233.934   9 0.23292-0.34871 0.04519-0.54510 0.99798-0.81474
  -9   7   2 -17.686 82.4140   7-0.72801 0.06553 0.12008 0.46375-0.80053 0.88012
  -9   7   2 85.0501 138.026   6-0.35880-0.30436 0.56481 0.01865-0.79749 0.87758
  -9  -7   2 151.679 124.053   9 0.03849-0.70125-0.42525-0.15796 0.89507-0.81535
   9  -7  -2 137.315 156.804   8 0.66232 0.00035-0.21167-0.37178 0.83103-0.91160
   8  -7  -2 -257.03 142.369   4-0.06373 0.64981-0.35119-0.23293-0.92943 0.83340
  -8   7   2 2.35842 96.7734   7-0.73668 0.15243 0.12186 0.46186-0.79256 0.88694
  -8   7   2 -18.079 124.272   6-0.35414-0.23095 0.54102 0.04242-0.81593 0.91079
  -8  -7   2 -45.870 88.3003   9 0.06990-0.65450-0.35844-0.22477 0.92722-0.83271
   8   7  -2 -21.620 76.4220   2 0.51704 0.06777 0.37880 0.20462 0.85161-0.94595
   8   7  -2 221.760 100.051   5 0.62248-0.03820 0.26302 0.32026 0.84162-0.93658
  -8  -7   2 186.202 121.703   3-0.56826-0.01685-0.32397-0.25945-0.85030 0.94489
   8  -7  -2 -94.746 107.844   8 0.66517-0.08058-0.21292-0.37056 0.82862-0.92395
  -7   7   2 357.273 153.675   7-0.75378 0.24774 0.12539 0.45823-0.77604 0.88518
   7  -7  -2 265.662 177.107   4-0.09136 0.59924-0.28664-0.29772-0.95382 0.84309
  -7   7   2 258.269 169.080   6-0.35054-0.15645 0.52341 0.06002-0.82883 0.93846
  -7  -7   2 864.385 243.414   9 0.09884-0.60530-0.29405-0.28916 0.95210-0.84279
   7   7  -2 631.917 161.479   2 0.51571-0.00891 0.37678 0.20672 0.85321-0.96230
   7   7  -2 798.139 193.716   5 0.62784-0.12168 0.26659 0.31668 0.83689-0.94663
  -7  -7   2 776.539 215.737   3-0.56954 0.06269-0.32529-0.25812-0.84904 0.95844
   7  -7  -2 744.164 200.196   8 0.67462-0.16813-0.21707-0.36643 0.82042-0.93051
   6  -7  -2 952.104 250.070   4-0.11653 0.54616-0.22547-0.35911-0.97190 0.84643
  -6   7   2 373.223 199.128   6-0.34824-0.08065 0.51239 0.07102-0.83659 0.96101
  -6  -7   2 1128.78 228.068   9 0.12531-0.55362-0.23270-0.35052 0.97066-0.84657
   6   7  -2 1080.51 231.756   2 0.51804-0.08928 0.38031 0.20328 0.85040-0.97426
   6   7  -2 865.920 187.875   5 0.63974-0.21170 0.27456 0.30870 0.82599-0.95052
  -6  -7   2 994.762 213.097   3-0.57575 0.14714-0.33166-0.25173-0.84283 0.96703
   6  -7  -2 1399.56 288.929   8 0.69220-0.26378-0.22484-0.35869 0.80438-0.92924
   5  -7  -2 412.804 176.272   4-0.13920 0.49057-0.16830-0.41647-0.98462 0.84438
  -5   7   2 1012.09 213.526   1 0.16516-0.51551 0.18746 0.39632 0.98210-0.84349
  -5  -7   2 645.509 179.994   9 0.14926-0.49942-0.17502-0.40821 0.98380-0.84492
  -5   7   2 600.730 223.655   6-0.34739-0.00337 0.50839 0.07499-0.83934 0.97855
   5   7  -2 965.470 190.319   2 0.52456-0.17384 0.39020 0.19349 0.84234-0.98097
   5   7  -2 813.341 186.737   5 0.65944-0.30952 0.28788 0.29538 0.80672-0.94602
  -5  -7   2 810.233 174.894   3-0.58767 0.23732-0.34404-0.23933-0.83033 0.96932
   5  -7  -2 851.043 225.521   8 0.71959-0.36925-0.23708-0.34649 0.77705-0.91669
   4  -7  -2 236.190 107.387   4-0.15934 0.43242-0.11577-0.46914-0.99288 0.83785
   4   7  -2 367.111 111.361   6-0.25809 0.53095 0.17271 0.41155-0.98218 0.82790
  -4  -7   2 371.256 135.741   9 0.17064-0.44268-0.12167-0.46156 0.99238-0.83873
   4   7  -2 465.144 148.220   2 0.53574-0.26310 0.40741 0.17640 0.82767-0.98111
  -4   7   2 98.1006 147.344   6-0.34813 0.07552 0.51189 0.07148-0.83693 0.99092
   4   7  -2 255.557 109.912   5 0.68820-0.41639 0.30768 0.27557 0.77543-0.92950
  -4  -7   2 199.249 88.2369   3-0.60615 0.33402-0.36350-0.21984-0.80939 0.96317
  -4   7   2 152.170 97.3055   1 0.17730-0.44956 0.12656 0.45714 0.99194-0.83854
   3  -7  -2 2620.30 317.458   4-0.17689 0.37166-0.06857-0.51646-0.99759 0.82774
  -3   7   2 2732.81 324.445   1 0.18722-0.38140 0.07360 0.51004 0.99731-0.82911
   3   7  -2 3473.54 355.702   2 0.55194-0.35740 0.43290 0.15103 0.80433-0.97260
   3   7  -2 3389.85 314.820   6-0.23222 0.42681 0.09199 0.49238-0.99473 0.82569
  -3  -7   2 2696.18 302.254   9 0.18938-0.38328-0.07335-0.50989 0.99729-0.82885
  -3  -7   2 2890.09 311.079   3-0.63180 0.43791-0.39120-0.19210-0.77667 0.94522
   2   7  -2 44.1451 54.8700   6-0.21246 0.32879 0.03325 0.55120-0.99915 0.81534
   2  -7  -2 -132.38 106.368   4-0.19178 0.30823-0.02739-0.55772-0.99963 0.81496
  -2  -7   2 32.6515 67.7358   9 0.20542-0.32118-0.03077-0.55248 0.99938-0.81616
  -2   7   2 103.160 93.4657   1 0.19512-0.31122 0.02904 0.55456 0.99957-0.81658
  -2   7   2 -6.3094 62.9921   6-0.35456 0.23828 0.54307 0.04023-0.81439 0.99793
   1  -7  -2 3683.47 366.205   4-0.20393 0.24206 0.00702-0.59217-0.99986 0.80037
  -1   7   2 3980.84 359.685   1 0.20117-0.23917-0.00672 0.59029 0.99990-0.80213
   1   7  -2 4230.82 372.960   6-0.19822 0.23630-0.00767 0.59216-0.99993 0.80134
  -1   7   2 3716.13 364.484   6-0.36003 0.32195 0.57135 0.01190-0.79221 0.99050
  -1  -7   2 4123.67 360.823   9 0.21866-0.25629 0.00530-0.58858 0.99954-0.80153
   0   7   2 82.0502 76.1251   1 0.20548-0.16539-0.03329 0.61685 0.99930-0.78673
   0   7  -2 65.9383 60.7818   6-0.18890 0.14874-0.03386 0.61835-0.99944 0.78607
   0  -7  -2 49.5094 55.1863   4-0.21323 0.17304 0.03386-0.61903-0.99911 0.78480
   0  -7   2 176.200 94.6406   9 0.22898-0.18848 0.03405-0.61734 0.99860-0.78581
   0   7   2 10.4693 42.2020   6-0.36661 0.40673 0.60812-0.02494-0.76066 0.97367
   0  -7  -2 4.32120 55.6905   9-0.05728 0.01712-0.61005 0.02636 0.76495-0.97820
   8  -8  -2 46.1563 186.657   4-0.05187 0.63794-0.37811-0.28949-0.91754 0.82141
  -8   8   2 182.085 191.894   6-0.35561-0.22953 0.54837 0.11844-0.81036 0.90522
  -8  -8   2 36.7379 136.137   9 0.05794-0.64251-0.38426-0.28230 0.91560-0.82112
   8   8  -2 58.5886 107.577   5 0.64627-0.06200 0.27895 0.38769 0.81978-0.91469
   8  -8  -2 -250.57 199.113   8 0.69608-0.11150-0.22656-0.44025 0.80068-0.89606
   7  -8  -2 91.7091 166.836   4-0.07682 0.58466-0.32095-0.34687-0.94156 0.83073
  -7   8   2 8.64994 109.749   6-0.35242-0.15463 0.53248 0.13432-0.82226 0.93190
  -7  -8   2 194.224 160.365   9 0.08410-0.59053-0.32719-0.33937 0.94002-0.83075
   7   8  -2 139.906 113.490   2 0.52709-0.02032 0.39407 0.27275 0.83912-0.94824
   7   8  -2 352.018 195.072   5 0.65281-0.14667 0.28337 0.38326 0.81339-0.92309
  -7  -8   2 201.379 133.193   3-0.58669 0.07986-0.34301-0.32380-0.83139 0.94072
   7  -8  -2 274.196 199.756   8 0.70725-0.20075-0.23155-0.43530 0.78973-0.89987
   6  -8  -2 356.134 168.336   4-0.09946 0.52904-0.26722-0.40081-0.96007 0.83452
  -6   8   2 272.071 186.292   6-0.35039-0.07854 0.52265 0.14414-0.82937 0.95380
  -6  -8   2 430.807 172.591   9 0.10793-0.53621-0.27326-0.39332 0.95894-0.83488
   6   8  -2 254.703 142.264   2 0.52971-0.10098 0.39810 0.26882 0.83571-0.95960
  -6  -8   2 308.076 142.183   3-0.59333 0.16475-0.34996-0.31684-0.82413 0.94827
   6   8  -2 147.014 104.766   5 0.66552-0.23750 0.29203 0.37459 0.80043-0.92491
   6  -8  -2 116.832 119.652   8 0.72617-0.29776-0.24004-0.42683 0.77002-0.89492
   5  -8  -2 32.2636 112.499   4-0.11975 0.47107-0.21745-0.45075-0.97392 0.83361
   5   8  -2 173.597 130.196   2 0.53614-0.18544 0.40803 0.25901 0.82713-0.96580
  -5  -8   2 139.409 107.427   9 0.12939-0.47954-0.22302-0.44356 0.97315-0.83430
  -5   8   2 23.8840 89.9412   6-0.34968-0.00111 0.51922 0.14756-0.83180 0.97102
   5   8  -2 17.9716 74.3398   5 0.68545-0.33555 0.30576 0.36085 0.77860-0.91786
  -5  -8   2 42.6055 101.162   3-0.60522 0.25488-0.36251-0.30426-0.81049 0.94943
   4  -8  -2 2426.82 340.640   4-0.13768 0.41070-0.17219-0.49613-0.98388 0.82878
   4   8  -2 2828.39 358.264   2 0.54673-0.27410 0.42462 0.24255 0.81213-0.96561
  -4  -8   2 2893.22 349.950   9 0.14843-0.42044-0.17705-0.48954 0.98340-0.82978
  -4  -8   2 3022.97 358.613   3-0.62298 0.35089-0.38158-0.28516-0.78844 0.94216
  -4   8   2 2899.60 379.807   1 0.16537-0.43768 0.18643 0.48065 0.98230-0.82888
   3  -8  -2 -53.186 100.436   4-0.15317 0.34787-0.13206-0.53639-0.99067 0.82077
   3   8  -2 -59.312 75.4311   6-0.25773 0.45235 0.17156 0.49621-0.98241 0.81335
   3   8  -2 -69.259 68.5547   2 0.56172-0.36720 0.44867 0.21863 0.78889-0.95719
  -3  -8   2 -8.6545 71.7985   9 0.16500-0.35887-0.13593-0.53067 0.99041-0.82200
  -3   8   2 22.9488 80.1595   6-0.35254 0.15808 0.53307 0.13367-0.82183 0.99061
  -3   8   2 -65.024 106.127   1 0.17459-0.36883 0.14049 0.52655 0.99004-0.82182
  -2   8   2 1232.83 229.846   1 0.18196-0.29811 0.10205 0.56494 0.99479-0.81178
   2   8  -2 1345.26 228.512   6-0.24012 0.35647 0.11611 0.55174-0.99177 0.80795
   2  -8  -2 987.788 213.514   4-0.16615 0.28254-0.09763-0.57088-0.99500 0.81029
  -2  -8   2 1163.28 221.031   9 0.17900-0.29473-0.10030-0.56631 0.99488-0.81169
  -2   8   2 1260.61 233.341   6-0.35613 0.23986 0.55100 0.11571-0.80834 0.99189
  -1   8   2 384.011 137.496   1 0.18761-0.22566 0.07151 0.59546 0.99746-0.79966
   1   8  -2 562.749 170.853   6-0.22691 0.26502 0.07598 0.59191-0.99632 0.79773
   1  -8  -2 403.827 127.558   4-0.17652 0.21460-0.06959-0.59896-0.99752 0.79800
  -1  -8   2 556.242 168.605   9 0.19034-0.22794-0.07084-0.59579 0.99747-0.79949
  -1   8   2 581.519 180.659   6-0.36100 0.32293 0.57655 0.09011-0.78794 0.98623
   1  -8  -2 0.53405 58.1363   9-0.06119 0.09920-0.61699-0.05008 0.75862-0.95710
   0  -8  -2 2034.65 303.887   4-0.18414 0.14392-0.04866-0.61989-0.99882 0.78450
   0   8   2 2125.74 292.594   1 0.19159-0.15155 0.04922 0.61773 0.99880-0.78621
   0   8  -2 1665.47 283.099   6-0.21780 0.17766 0.04891 0.61900-0.99836 0.78500
   0   8   2 1895.36 229.896   2 0.27210-0.23260 0.05022 0.61603 0.99510-0.78286
   0  -8   2 2177.22 290.691   9 0.19888-0.15835-0.04829-0.61836 0.99877-0.78601
   0   8   2 -46.613 69.7737   6-0.36689 0.40702 0.60974 0.05686-0.75919 0.97221
  -1  -8  -2 -58.330 84.1715   4-0.18882 0.07030-0.03569-0.63284-0.99937 0.77026
   1   8   2 -52.494 79.3493   1 0.19398-0.07584 0.03557 0.63137 0.99936-0.77198
  -1  -8  -2 -44.161 31.3545   9-0.05914-0.05914-0.61336-0.05366 0.76195-0.99000
   7   9  -2 556.544 248.809   5 0.68035-0.17422 0.30224 0.44777 0.78436-0.89401
   6  -9  -2 470.998 224.157   4-0.08182 0.51135-0.30925-0.44221-0.94592 0.82026
   6   9  -2 597.854 201.681   2 0.54318-0.11446 0.41904 0.33122 0.81727-0.94122
  -6   9   2 70.2166 143.169   6-0.35356-0.07540 0.53811 0.21208-0.81811 0.94254
  -6  -9   2 551.701 201.114   9 0.08987-0.51813-0.31431-0.43562 0.94489-0.82086
   6   9  -2 -165.96 174.645   5 0.69382-0.26582 0.31159 0.43839 0.76882-0.89326
  -6  -9   2 497.212 184.777   3-0.61305 0.18449-0.37087-0.37934-0.80103 0.92510
   5  -9  -2 20.6145 132.136   4-0.10013 0.45138-0.26559-0.48603-0.96058 0.82016
   5   9  -2 187.326 170.364   2 0.54954-0.19887 0.42909 0.32129 0.80795-0.94668
  -5  -9   2 19.1910 103.107   9 0.10924-0.45936-0.27023-0.47971 0.95988-0.82107
  -5   9   2 -49.919 108.118   6-0.35298 0.00216 0.53524 0.21495-0.82023 0.95946
  -5  -9   2 84.1775 119.123   3-0.62491 0.27460-0.38368-0.36650-0.78591 0.92478
   4  -9  -2 1123.89 295.004   4-0.11618 0.38913-0.22631-0.52543-0.97168 0.81650
   4   9  -2 1737.39 298.874   2 0.55962-0.28702 0.44526 0.30525 0.79229-0.94582
  -4  -9   2 1734.09 295.237   9 0.12632-0.39829-0.23032-0.51963 0.97128-0.81769
  -4   9   2 1037.55 322.909   6-0.35365 0.08101 0.53855 0.21163-0.81778 0.97178
   3  -9  -2 -28.073 122.999   4-0.12993 0.32456-0.19194-0.55990-0.97984 0.80987
   3   9  -2 20.1642 85.6671   6-0.27933 0.47396 0.24293 0.50821-0.96497 0.79586
  -3   9   2 -97.409 107.920   1 0.16197-0.35624 0.20285 0.54757 0.97898-0.81076
  -3  -9   2 -98.814 97.4227   9 0.14102-0.33487-0.19510-0.55486 0.97968-0.81130
  -3   9   2 -13.040 95.6952   6-0.35560 0.16113 0.54833 0.20183-0.81039 0.97917
   2  -9  -2 166.167 149.862   4-0.14125 0.25759-0.16302-0.58888-0.98559 0.80083
   2   9  -2 261.271 107.252   6-0.26363 0.38001 0.19066 0.56057-0.97835 0.79449
  -2  -9   2 406.003 152.549   9 0.15328-0.26899-0.16514-0.58483 0.98564-0.80247
  -2   9   2 223.382 145.352   6-0.35881 0.24254 0.56483 0.18530-0.79748 0.98102
  -2   9   2 147.815 100.223   1 0.16883-0.28503 0.16941 0.58098 0.98543-0.80241
   1  -9  -2 259.051 124.730   4-0.15008 0.18810-0.14015-0.61178-0.98945 0.78989
   1   9  -2 392.975 143.304   6-0.25151 0.28963 0.15174 0.59955-0.98617 0.78756
  -1  -9   2 301.835 107.502   9 0.16296-0.20053-0.14106-0.60893 0.98965-0.79170
  -1   9   2 227.775 119.583   6-0.36313 0.32506 0.58819 0.16190-0.77816 0.97645
  -1   9   2 319.923 125.120   1 0.17407-0.21218 0.14314 0.60722 0.98965-0.79184
   0  -9  -2 139.128 107.847   4-0.15623 0.11595-0.12401-0.62792-0.99180 0.77744
   0   9   2 -89.741 92.7866   6-0.36833 0.40849 0.61842 0.13161-0.75122 0.96423
   0  -9  -2 -25.764 93.3121   9-0.06295 0.02284-0.62009-0.13030 0.75573-0.96902
   0   9   2 36.6260 83.6920   1 0.17772-0.13772 0.12439 0.62597 0.99222-0.77961
   1   9   2 -51.374 70.1044   1 0.17980-0.06169 0.11352 0.63683 0.99353-0.76612
  -1  -9  -2 -28.105 100.869   4-0.15949 0.04094-0.11537-0.63653-0.99294 0.76379
   1   9   2 70.8717 64.9444   2 0.31339-0.19584 0.10138 0.64813 0.98647-0.75951
  -1  -9  -2 -204.37 96.6549   9-0.06368-0.05458-0.62137-0.12900 0.75454-0.98262
   3 -10  -2 227.569 183.433   4-0.10690 0.30147-0.24914-0.58609-0.96546 0.79540
  -3 -10   2 65.2539 84.6529   9 0.11722-0.31104-0.25172-0.58160 0.96542-0.79707
  -3  10   2 109.659 180.384   6-0.35935 0.16487 0.56772 0.26586-0.79515 0.96392
   2 -10  -2 888.330 253.873   4-0.11680 0.23306-0.22479-0.61049-0.97207 0.78723
  -2  10   2 976.251 247.918   1 0.15564-0.27189 0.23262 0.60118 0.97221-0.78917
  -2 -10   2 1135.20 251.176   9 0.12794-0.24363-0.22647-0.60685 0.97227-0.78914
  -2  10   2 651.052 268.713   6-0.36220 0.24592 0.58305 0.25051-0.78252 0.96604
   1 -10  -2 237.991 155.888   4-0.12426 0.16222-0.20620-0.62910-0.97663 0.77700
  -1  10   2 215.729 125.471   1 0.16048-0.19864 0.20990 0.62386 0.97747-0.77964
  -1  10   2 37.1433 58.6755   6-0.36601 0.32795 0.60460 0.22892-0.76382 0.96209
   1  10   2 37.3966 89.3955   1 0.16554-0.04749 0.18556 0.64819 0.98247-0.75504
 -11   0   3 82.6018 135.575   7-0.72640-0.07214 0.11975-0.11995-0.80199 0.95857
  11   0  -3 80.4997 161.800   8 0.71860 0.08026-0.23663 0.23652 0.77809-0.93554
 -10   0   3 -101.37 92.6689   7-0.72397 0.00368 0.11925-0.11944-0.80416 0.97555
  10   0  -3 109.257 159.752   8 0.71571 0.00506-0.23534 0.23522 0.78110-0.95333
  -9   0   3 14.2943 75.3327   7-0.72733 0.08527 0.11994-0.12012-0.80115 0.98732
   9   0  -3 72.3564 135.142   8 0.71827-0.07560-0.23649 0.23637 0.77843-0.96545
  -7   0   3 15.5090 45.8562   7-0.75725 0.27157 0.12611-0.12627-0.77255 0.98822
 -11   1   3 189.184 117.966   7-0.72079-0.07777 0.11860-0.03537-0.80699 0.96361
 -11  -1   3 172.637 138.187   7-0.73823-0.06028 0.12218-0.20580-0.79110 0.94761
  11   1  -3 -61.229 102.847   5 0.69049 0.10788 0.30927-0.22623 0.77276-0.93026
  11  -1  -3 49.2312 133.298   8 0.70532 0.09352-0.23067 0.14722 0.79166-0.94913
  11   1  -3 -232.14 256.829   8 0.73841 0.06049-0.24558 0.32883 0.75643-0.91386
 -10   1   3 192.967 138.185   7-0.71799-0.00232 0.11802-0.03480-0.80945 0.98088
 -10  -1   3 128.860 114.025   7-0.73667 0.01641 0.12186-0.20545-0.79257 0.96389
  10   1  -3 -69.574 89.7935   5 0.68605 0.03422 0.30618-0.22314 0.77791-0.95019
  10  -1  -3 134.408 128.438   8 0.70156 0.01918-0.22901 0.14554 0.79537-0.96761
  10   1  -3 -221.05 187.671   8 0.73689-0.01610-0.24490 0.32814 0.75815-0.93036
  -9   1   3 190.416 122.613   7-0.72084 0.07877 0.11861-0.03539-0.80694 0.99316
  -9  -1   3 202.649 115.715   7-0.74105 0.09900 0.12277-0.20632-0.78844 0.97454
   9   1  -3 132.639 92.4340   5 0.68638-0.04422 0.30641-0.22336 0.77753-0.96458
   9  -1  -3 153.266 155.350   8 0.70304-0.06038-0.22967 0.14620 0.79392-0.98095
   9   1  -3 -101.15 197.788   8 0.74108-0.09837-0.24680 0.33004 0.75337-0.94038
  -8   1   3 703.759 187.300   7-0.73073 0.16687 0.12064-0.03743-0.79806 0.99903
  -8  -1   3 500.151 161.061   7-0.75277 0.18893 0.12518-0.20873-0.77705 0.97791
   8   1  -3 91.3334 92.1815   5 0.69254-0.12847 0.31070-0.22765 0.77035-0.97217
   8  -1  -3 789.617 233.335   8 0.71094-0.14638-0.23320 0.14971 0.78600-0.98782
  -7   1   3 41.7729 62.6140   7-0.74927 0.26359 0.12446-0.04125-0.78050 0.99621
  -7  -1   3 -132.22 67.7927   7-0.77346 0.28777 0.12949-0.21300-0.75564 0.97125
   7  -1  -3 31.5355 73.9867   4-0.24537 0.73346 0.13075-0.21484-0.98961 0.77203
  -7  -1   3 -5.6168 41.6790   9 0.25201-0.73849 0.10042-0.18343 0.99283-0.77687
   7  -1  -3 13.6222 69.5004   8 0.72668-0.24023-0.24027 0.15678 0.76947-0.98608
 -11   2   3 67.4330 85.9069   7-0.72124-0.07734 0.11869 0.04797-0.80659 0.96324
 -11  -2   3 -22.068 75.5682   7-0.75635-0.04212 0.12593-0.29294-0.77346 0.92987
  11   2  -3 69.6075 101.341   5 0.67901 0.11936 0.30131-0.13493 0.78586-0.94333
  11  -2  -3 -87.667 140.361   8 0.69826 0.10056-0.22753 0.06074 0.79859-0.95608
 -10   2   3 412.659 182.184   7-0.71851-0.00181 0.11813 0.04852-0.80899 0.98045
 -10  -2   3 205.139 109.419   7-0.75612 0.03589 0.12588-0.29286-0.77369 0.94491
  10   2  -3 405.524 166.098   5 0.67399 0.04629 0.29784-0.13146 0.79139-0.96363
  10  -2  -3 570.348 209.811   8 0.69412 0.02660-0.22569 0.05888 0.80255-0.97483
  -9   2   3 683.390 198.669   7-0.72136 0.07928 0.11871 0.04792-0.80649 0.99273
  -9  -2   3 277.619 128.517   7-0.76200 0.11998 0.12710-0.29404-0.76771 0.95372
   9   2  -3 624.423 188.609   5 0.67350-0.03134 0.29751-0.13113 0.79192-0.97894
   9  -2  -3 832.494 253.130   8 0.69502-0.05239-0.22609 0.05928 0.80169-0.98875
  -8   2   3 1639.19 289.561   7-0.73111 0.16724 0.12072 0.04590-0.79771 0.99871
   8   2  -3 2110.55 316.144   5 0.67854-0.11447 0.30098-0.13459 0.78639-0.98819
   8  -2  -3 2526.74 351.379   8 0.70210-0.13756-0.22925 0.06241 0.79484-0.99668
  -7   2   3 473.022 150.461   7-0.74931 0.26363 0.12446 0.04212-0.78046 0.99619
   7  -2  -3 251.602 123.857   4-0.22721 0.71530 0.07524-0.24284-0.99637 0.77878
  -7  -2   3 310.768 110.852   9 0.23527-0.72170 0.05186-0.21823 0.99755-0.78161
   7   2  -3 106.882 95.6714   5 0.69021-0.20424 0.30907-0.14269 0.77308-0.98966
   7  -2  -3 500.341 203.377   8 0.71670-0.23027-0.23578 0.06893 0.78007-0.99670
   6  -2  -3 -94.198 67.2157   8 0.74024-0.33191-0.24642 0.07956 0.75433-0.98576
 -11  -3   3 671.564 170.291   3-0.63638-0.16311-0.39624 0.14664-0.77032 0.92721
  11   3  -3 2008.63 375.587   5 0.67340 0.12498 0.29743-0.04770 0.79203-0.94947
 -10   3   3 -35.204 88.9126   7-0.72523 0.00492 0.11951 0.13057-0.80304 0.97449
 -10  -3   3 11.6472 60.4999   3-0.62992-0.09135-0.38912 0.13952-0.77924 0.95094
  10   3  -3 356.435 216.577   5 0.66821 0.05206 0.29388-0.04415 0.79759-0.96980
  10  -3  -3 203.399 156.736   8 0.69292 0.02779-0.22516-0.02499 0.80369-0.97600
  -9   3   3 376.517 163.864   7-0.72852 0.08645 0.12018 0.12987-0.80007 0.98631
  -9  -3   3 441.479 153.863   3-0.62701-0.01603-0.38596 0.13635-0.78314 0.96965
   9   3  -3 258.373 109.345   5 0.66738-0.02521 0.29330-0.04357 0.79847-0.98547
   9  -3  -3 319.339 147.529   8 0.69371-0.05110-0.22551-0.02466 0.80294-0.99003
  -8   3   3 87.6779 98.2610   7-0.73859 0.17474 0.12226 0.12776-0.79076 0.99175
  -8  -3   3 90.7200 68.5596   9 0.17152-0.73608-0.11943-0.13028 0.99267-0.79154
  -8  -3   3 151.507 107.692   3-0.62837 0.06355-0.38745 0.13782-0.78132 0.98263
   8   3  -3 297.099 125.117   5 0.67179-0.10773 0.29633-0.04660 0.79377-0.99554
   8  -3  -3 533.409 226.085   8 0.70045-0.13593-0.22851-0.02167 0.79645-0.99831
  -7   3   3 1452.87 204.580   1 0.20514-0.69126-0.03118 0.28150 0.99937-0.78430
  -7   3   3 992.605 186.190   7-0.75692 0.27124 0.12604 0.12392-0.77289 0.98861
   7  -3  -3 1413.05 261.251   4-0.20956 0.69765 0.02322-0.27431-0.99951 0.78190
  -7  -3   3 1337.96 212.559   9 0.21841-0.70482 0.00463-0.25435 0.99955-0.78364
  -7  -3   3 748.968 154.430   3-0.63474 0.14814-0.39443 0.14480-0.77261 0.98871
   7   3  -3 1410.05 257.013   5 0.68248-0.19651 0.30371-0.05397 0.78198-0.99853
   7  -3  -3 1694.44 308.528   8 0.71442-0.22798-0.23475-0.01545 0.78245-0.99910
 -10   4   3 154.879 123.765   7-0.73777 0.01746 0.12209 0.21142-0.79153 0.96296
 -10  -4   3 278.325 168.698   3-0.62473-0.09655-0.38348 0.05047-0.78615 0.95783
  10   4  -3 134.295 110.983   5 0.66806 0.05221 0.29377 0.03931 0.79775-0.96994
  10  -4  -3 156.387 163.118   8 0.69742 0.02327-0.22716-0.10633 0.79939-0.97173
  -9   4   3 288.593 149.250   7-0.74187 0.09980 0.12294 0.21053-0.78766 0.97386
  -9  -4   3 -41.966 63.8216   3-0.62170-0.02134-0.38019 0.04719-0.79010 0.97659
   9   4  -3 101.347 124.833   5 0.66726-0.02509 0.29322 0.03986 0.79860-0.98558
   9  -4  -3 0.91593 141.676   8 0.69849-0.05588-0.22763-0.10588 0.79836-0.98548
  -8   4   3 487.391 163.936   7-0.75265 0.18881 0.12516 0.20825-0.77717 0.97813
   8  -4  -3 300.651 133.399   4-0.15352 0.71979-0.13113-0.20320-0.99080 0.78799
   8   4  -3 187.037 114.406   2 0.57054-0.00530 0.46315-0.12937 0.77398-0.97471
  -8  -4   3 572.230 170.810   9 0.16091-0.72543-0.14619-0.18688 0.98885-0.78776
  -8  -4   3 232.670 119.916   3-0.62269 0.05787-0.38127 0.04826-0.78882 0.99011
   8   4  -3 112.471 68.8988   5 0.67145-0.10739 0.29609 0.03699 0.79413-0.99589
   8  -4  -3 686.671 216.253   8 0.70531-0.14079-0.23067-0.10286 0.79167-0.99356
  -7   4   3 -29.128 45.6084   7-0.77145 0.28579 0.12907 0.20429-0.75780 0.97348
   7  -4  -3 93.4076 115.386   4-0.19202 0.68010-0.02672-0.30786-0.99965 0.78201
  -7   4   3 -277.62 113.002   1 0.19457-0.68072 0.03223 0.30147 0.99947-0.78437
  -7  -4   3 2.95932 71.8800   9 0.20130-0.68768-0.04181-0.29126 0.99904-0.78316
  -7  -4   3 62.9924 76.0267   3-0.62838 0.14179-0.38746 0.05445-0.78130 0.99739
   7   4  -3 247.012 133.639   5 0.68158-0.19563 0.30308 0.03000 0.78299-0.99952
   7  -4  -3 221.525 90.9247   8 0.71904-0.23262-0.23683-0.09673 0.77763-0.99431
   6  -4  -3 0.99812 87.3928   4-0.22620 0.63601 0.07219-0.40696-0.99664 0.76413
  -6   4   3 46.4185 81.2372   1 0.21386-0.62192-0.08756 0.42115 0.99580-0.76591
   6  -4  -3 -239.38 226.447   8 0.74089-0.33256-0.24671-0.08686 0.75359-0.98506
 -10   5   3 18.6543 87.3417   7-0.75565 0.03535 0.12578 0.29115-0.77417 0.94554
 -10  -5   3 386.760 215.671   3-0.62429-0.09700-0.38300-0.03341-0.78673 0.95838
  10  -5  -3 130.522 155.860   8 0.70706 0.01363-0.23146-0.18538 0.78992-0.96230
  -9   5   3 297.300 141.957   7-0.76085 0.11880 0.12686 0.29001-0.76889 0.95503
   9   5  -3 56.7544 110.704   2 0.56813 0.07509 0.45916-0.04209 0.77816-0.96409
  -9  -5   3 285.030 154.857   3-0.62141-0.02164-0.37988-0.03652-0.79047 0.97694
   9   5  -3 446.068 210.715   5 0.67236-0.03020 0.29672 0.11972 0.79315-0.98009
   9  -5  -3 262.041 166.082   8 0.70870-0.06610-0.23219-0.18466 0.78827-0.97543
  -8   5   3 0.17668 86.9009   7-0.77261 0.20878 0.12931 0.28749-0.75655 0.95745
   8  -5  -3 3.96014 92.2934   4-0.14056 0.70683-0.16479-0.25301-0.98527 0.78240
   8   5  -3 229.064 133.419   2 0.56660-0.00143 0.45666-0.03955 0.78075-0.98145
  -8  -5   3 196.291 116.216   9 0.14834-0.71283-0.17727-0.23915 0.98336-0.78229
  -8  -5   3 88.2893 74.0930   3-0.62232 0.05752-0.38087-0.03553-0.78929 0.99056
   8   5  -3 153.348 135.899   5 0.67665-0.11260 0.29968 0.11677 0.78847-0.99020
   8  -5  -3 -99.283 140.678   8 0.71591-0.15140-0.23543-0.18146 0.78089-0.98282
  -7   5   3 -4.6632 70.7004   1 0.18421-0.67041 0.09001 0.32706 0.99596-0.78083
   7  -5  -3 103.611 114.154   4-0.17441 0.66247-0.07533-0.34271-0.99707 0.77940
   7   5  -3 305.015 161.796   2 0.56839-0.08126 0.45958-0.04242 0.77772-0.99319
  -7  -5   3 246.220 112.520   9 0.18385-0.67020-0.08776-0.32867 0.99611-0.78026
  -7  -5   3 457.565 154.922   3-0.62764 0.14106-0.38665-0.02975-0.78230 0.99836
   7   5  -3 341.070 170.214   5 0.68655-0.20061 0.30654 0.10991 0.77733-0.99383
   7  -5  -3 220.214 130.430   8 0.72974-0.24332-0.24165-0.17524 0.76613-0.98284
   9   6  -3 256.798 146.083   2 0.56811 0.07504 0.45913 0.04124 0.77819-0.96411
  -9  -6   3 479.870 211.634   3-0.62533-0.01772-0.38413-0.11568-0.78537 0.97179
   9   6  -3 429.755 211.303   5 0.68196-0.03980 0.30335 0.19645 0.78256-0.96947
   9  -6  -3 205.476 159.747   8 0.72368-0.08109-0.23892-0.26128 0.77270-0.95990
   8  -6  -3 65.0965 184.799   4-0.12641 0.69265-0.20082-0.30045-0.97787 0.77493
   8   6  -3 572.635 160.315   2 0.56670-0.00157 0.45680 0.04362 0.78060-0.98128
  -8  -6   3 765.862 197.867   9 0.13432-0.69878-0.21124-0.28852 0.97602-0.77499
  -8  -6   3 738.788 205.865   3-0.62638 0.06157-0.38527-0.11453-0.78398 0.98521
   8   6  -3 466.936 170.548   5 0.68657-0.12252 0.30654 0.19326 0.77732-0.97901
   8  -6  -3 95.8919 114.358   8 0.73150-0.16701-0.24245-0.25777 0.76418-0.96615
   7  -6  -3 419.576 248.690   4-0.15659 0.64462-0.12304-0.37847-0.99193 0.77421
   7   6  -3 302.569 130.089   2 0.56836-0.08128 0.45953 0.04096 0.77777-0.99322
  -7  -6   3 669.471 205.786   9 0.16602-0.65233-0.13337-0.36640 0.99079-0.77496
  -7  -6   3 564.759 156.842   3-0.63154 0.14497-0.39091-0.10888-0.77703 0.99306
  -7   6   3 740.913 221.182   1 0.17384-0.66009 0.14431 0.35614 0.98948-0.77434
  -6   6   3 331.343 191.525   1 0.19022-0.59839 0.05692 0.44343 0.99839-0.76845
   6  -6  -3 48.8899 116.374   4-0.18373 0.59349-0.04978-0.45192-0.99876 0.76622
   8  -7  -3 173.076 281.981   4-0.11125 0.67747-0.23849-0.34624-0.96844 0.76542
   8   7  -3 21.3786 58.0724   2 0.57003-0.00496 0.46231 0.12143 0.77486-0.97555
  -8  -7   3 128.730 70.0335   3-0.63404 0.06925-0.39366-0.18955-0.77359 0.97477
   7  -7  -3 -73.161 157.652   4-0.13849 0.62648-0.17014-0.41483-0.98427 0.76648
  -7   7   3 62.9053 115.696   1 0.16333-0.64963 0.19633 0.38750 0.98033-0.76518
  -5   7   3 263.381 142.804   1 0.19113-0.52127 0.05181 0.53185 0.99867-0.75391
   5  -7  -3 -229.46 139.030   4-0.18483 0.51625-0.04675-0.53857-0.99891 0.75151
   7  -8  -3 -5.9693 181.301   4-0.12002 0.60796-0.21678-0.45163-0.97409 0.75622
   0   0   0    0.00    0.00
  -1  -2  -1 11.7843 21.1573   9-0.05637-0.04189-0.60842 0.44165 0.76642-0.88780
  -5   6   3 -2.0048 75.6483   1 0.20350-0.53358-0.02094 0.52121 0.99967-0.75493
   5  -6  -3 -227.61 131.998   4-0.20787 0.53932 0.01832-0.52018-0.99965 0.75227
   5  -5  -3 31.8995 79.7381   4-0.23150 0.56299 0.08814-0.50654-0.99511 0.74773
  -5   5   3 -8.9080 60.5972   1 0.21587-0.54591-0.10129 0.51820 0.99443-0.74973
   0   6   2 -15.717 40.9523   6-0.36795 0.40804 0.61611-0.11633-0.75337 0.96635
   0  -6  -2 -14.581 28.0251   9-0.06188 0.02170-0.61821 0.11788 0.75748-0.97070
   0   5   2 -47.762 34.2114   1 0.23318-0.19300-0.23246 0.64924 0.97124-0.75875
   0  -5  -2 66.2219 63.2582   4-0.27655 0.23640 0.23181-0.65009-0.96805 0.75368
   2   7   2 31.2506 36.3252   1 0.20925-0.01295-0.05725 0.64079 0.99813-0.75597
  -2  -7  -2 -78.388 57.9085   4-0.22247 0.02570 0.06109-0.64619-0.99753 0.75362
  -2  -7  -2 -23.644 81.1409   9-0.06349-0.13295-0.62105 0.03740 0.75484-0.99767
   0  -4   1 194.380 87.0760   4-0.01303 0.03285-0.46290 0.12988-0.87292 0.97934
   0  -4  -1 171.734 53.9639   7-0.61994 0.59960 0.09822-0.43144-0.88172 0.77530
   0  -4  -1 313.326 110.205   4-0.24590 0.22583 0.13240-0.46677-0.98936 0.88222
   0   4   1 356.637 116.420   6-0.33695 0.35700 0.46142-0.12818-0.86954 0.97608
   0   4  -1 364.264 112.843   6-0.15241 0.13232-0.13251 0.46649-0.99058 0.88395
   0   4  -1 119.821 71.8152   2 0.55532-0.57531 0.43832-0.10445 0.79912-0.90547
   0  -4  -1 299.002 111.590   9 0.02010-0.04016-0.46293 0.12940 0.87381-0.98043
   0   4   1 298.423 108.596   1 0.22024-0.20022-0.13190 0.46536 0.99067-0.88436
   0  -4   1 331.420 107.136   9 0.26261-0.24234 0.13204-0.46536 0.98829-0.88190
  -6   7   3 239.524 176.254   1 0.17856-0.58678 0.11999 0.46376 0.99276-0.76280
   6  -7  -3 -161.17 191.661   4-0.16301 0.57272-0.10604-0.47912-0.99406 0.76148
  -6   3   3 -77.600 60.9273   1 0.22613-0.63415-0.17557 0.42579 0.98358-0.75373
   6  -3  -3 -90.012 106.594   4-0.24855 0.65839 0.14071-0.39199-0.98803 0.75551
   6  -3  -3 -95.344 119.011   8 0.73691-0.32858-0.24490-0.00531 0.75813-0.98958
  -2  -8  -2 26.9705 67.7621   4-0.19026-0.00652-0.03167-0.63682-0.99951 0.75560
   2   8   2 -37.469 56.3735   1 0.19477 0.00149 0.03103 0.63590 0.99951-0.75733
  -2  -8  -2 -33.152 76.2676   9-0.06370-0.13272-0.62141-0.04558 0.75450-0.99734
   0 -10  -2 143.053 143.640   4-0.12912 0.08878-0.19398-0.64130-0.97939 0.76497
   0  10   2 74.0662 84.8344   1 0.16379-0.12384 0.19410 0.63966 0.98079-0.76816
   1   7   2 241.138 90.2086   1 0.20817-0.08998-0.05029 0.63383 0.99853-0.77117
  -1  -7  -2 155.314 88.5158   4-0.21949 0.10100 0.05224-0.63739-0.99813 0.76901
  -1  -7  -2 -64.940 65.0035   9-0.05845-0.05984-0.61214 0.02848 0.76305-0.99109
  -4   6   2 90.4091 101.118   1 0.18929-0.46150 0.06214 0.43817 0.99808-0.84470
   4   6  -2 62.6891 70.2606   6-0.23119 0.50403 0.08888 0.41200-0.99506 0.84082
   4  -6  -2 127.111 109.989   4-0.18143 0.45455-0.05615-0.44532-0.99841 0.84341
  -4  -6   2 127.530 90.6495   9 0.19318-0.46524-0.06338-0.43650 0.99796-0.84428
  -4   6   2 101.246 85.0382   6-0.34739 0.07480 0.50842-0.00844-0.83932 0.99330
   4   6  -2 92.9528 89.3657   2 0.52750-0.25484 0.39471 0.10576 0.83858-0.99201
   4   6  -2 177.323 115.273   5 0.66638-0.39456 0.29262 0.20726 0.79952-0.95364
  -4  -6   2 31.5159 69.1941   3-0.59248 0.32033-0.34907-0.15087-0.82507 0.97890
   4  -6  -2 239.174 184.559   8 0.72804-0.45581-0.24089-0.25936 0.76799-0.92237
   6  -8  -3 -178.41 156.640   4-0.14233 0.55199-0.16025-0.50834-0.98609 0.75345
  -6   8   3 101.140 152.208   1 0.16682-0.57509 0.17933 0.48780 0.98364-0.75367
  -5   8   3 -102.89 148.280   1 0.17874-0.50893 0.11906 0.54799 0.99288-0.74810
   8  -8  -3 -49.981 293.739   4-0.09523 0.66142-0.27738-0.39080-0.95686 0.75374
  -8  -3  -1 121.183 123.902   7-0.23142-0.41493 0.02325-0.27352-0.99879 0.77344
   8   3   1 25.2441 58.0956   8 0.23557 0.40930-0.03551 0.28567 0.99823-0.77328
   1   6  -2 480.008 107.918   6-0.16381 0.20187-0.10235 0.60343-0.99447 0.79586
   1  -6  -2 422.262 122.841   4-0.23274 0.27090 0.09189-0.59361-0.99471 0.79522
  -1  -6   2 516.873 130.318   9 0.24831-0.28597 0.08953-0.58945 0.99412-0.79610
  -1   6   2 471.756 139.593   6-0.36070 0.32261 0.57495-0.07511-0.78927 0.98753
  -1   6   2 491.823 125.700   1 0.21482-0.25278-0.09405 0.59423 0.99518-0.79743
   1   6   2 -1.8929 32.4164   1 0.22232-0.10408-0.14694 0.64710 0.98845-0.76113
  -1  -6  -2 -43.295 46.0774   4-0.25192 0.13345 0.15133-0.65305-0.98620 0.75706
  -1  -6  -2 -8.3793 52.1156   9-0.06292-0.05540-0.62004 0.11973 0.75578-0.98379
  -7   4  -1 308.858 124.270   7-0.20072-0.36754 0.01749 0.31649-0.99977 0.78929
  -7  -4  -1 164.697 109.322   7-0.22499-0.34303 0.02204-0.35572-0.99908 0.78859
  -7   4  -1 292.396 122.510   6-0.20461-0.36252 0.01057 0.32328-0.99982 0.78986
   7  -4   1 493.457 165.207   8 0.19781 0.36885-0.02067-0.31250 0.99974-0.78990
   4   2   0 421.158 51.8555   1 0.19977 0.11266 0.00166 0.16497 0.99994-0.94076
  -4   2   0 294.083 65.8521   7-0.19233-0.12059 0.01592 0.15098-0.99986 0.94066
   4  -2   0 293.962 30.3390   9 0.24791 0.06469 0.08837-0.25515 0.99425-0.93515
  -4   2   0 506.474 95.2616   6-0.20089-0.11175-0.00006 0.16694-0.99993 0.94083
   4  -2   0 383.841 79.8046   8 0.19103 0.12130-0.01801-0.14861 0.99983-0.94080
  -4  -2   0 400.045 77.4597   7-0.21132-0.10152 0.01947-0.18629-0.99955 0.94030
  -4  -2   0 505.753 40.8545   4-0.20239-0.11049 0.00259-0.16958-0.99991 0.94064
  -4  -2   0 508.304 88.6373   9 0.03260-0.34513-0.43744 0.27079 0.88845-0.94766
   4   2   0 411.807 67.3839   8 0.21542 0.09699-0.02758 0.19432 0.99925-0.94007
   4  -2   0 414.507 83.0625   4-0.02855 0.34121-0.42961 0.26330-0.89180 0.95068
;
_shelx_hkl_checksum              80209
loop_
_space_group_symop_operation_xyz
'x, y, z'
'-x+1/2, y+1/2, -z'
'-x, -y, -z'
'x-1/2, -y-1/2, z'
loop_
_atom_site_label
_atom_site_type_symbol
_atom_site_fract_x
_atom_site_fract_y
_atom_site_fract_z
_atom_site_U_iso_or_equiv
_atom_site_adp_type
_atom_site_occupancy
_atom_site_site_symmetry_order
_atom_site_calc_flag
_atom_site_refinement_flags_posn
_atom_site_refinement_flags_adp
_atom_site_refinement_flags_occupancy
_atom_site_disorder_assembly
_atom_site_disorder_group
C1 C 0.6780(7) 0.2863(6) 0.788(3) 0.022(8) Uani 1 1 d . U . . .
H1D H 0.581909 0.236480 0.761549 0.026 Uiso 1 1 calc R U . . .
H1E H 0.699584 0.317409 0.928569 0.026 Uiso 1 1 calc R U . . .
C2 C 0.7922(8) 0.1732(6) 0.747(3) 0.019(7) Uani 1 1 d . U . . .
N1 N 0.6767(6) 0.4249(5) 0.660(2) 0.015(8) Uani 1 1 d . U . . .
H1A H 0.638343 0.399586 0.533098 0.018 Uiso 1 1 calc R U . . .
H1B H 0.768429 0.459312 0.666822 0.018 Uiso 1 1 calc R U . . .
H1C H 0.622658 0.500065 0.701324 0.018 Uiso 1 1 calc R U . . .
O1 O 0.5243(6) 0.8640(5) 0.972(3) 0.033(5) Uani 1 1 d . U . . .
H1 H 0.481560 0.948740 0.965559 0.040 Uiso 0.5 1 calc DR U P . .
O2 O 0.4628(5) 0.6450(4) 0.728(2) 0.028(6) Uani 1 1 d . U . . .
O3 O 0.4432(5) 0.9278(5) 0.6209(17) 0.036(6) Uani 1 1 d . U . . .
H3 H 0.489017 0.944071 0.530459 0.043 Uiso 0.5 1 calc DR U P . .
O4 O 0.8559(5) 0.1846(5) 0.6113(19) 0.021(6) Uani 1 1 d . U . . .
O5 O 0.8089(6) 0.0555(5) 0.8811(19) 0.022(6) Uani 1 1 d . U . . .
H5 H 0.874103 -0.003761 0.859709 0.026 Uiso 1 1 calc R U . . .
P1 P 0.5266(2) 0.80817(19) 0.7689(10) 0.027(3) Uani 1 1 d . U . . .
H1P H 0.629238 0.805823 0.750900 0.032 Uiso 1 1 calc R U . . .
loop_
_atom_site_aniso_label
_atom_site_aniso_U_11
_atom_site_aniso_U_22
_atom_site_aniso_U_33
_atom_site_aniso_U_23
_atom_site_aniso_U_13
_atom_site_aniso_U_12
C1 0.019(3) 0.019(3) 0.02(2) 0.001(5) -0.009(8) -0.002(2)
C2 0.019(4) 0.013(3) 0.02(2) 0.003(5) 0.000(8) -0.004(2)
N1 0.018(3) 0.018(2) 0.01(3) 0.004(5) -0.002(7) 0.0005(19)
O1 0.042(3) 0.016(2) 0.046(15) -0.003(5) 0.020(6) 0.006(2)
O2 0.022(2) 0.0181(19) 0.04(2) -0.004(4) -0.003(6) -0.0040(17)
O3 0.030(3) 0.023(2) 0.055(18) 0.021(5) 0.009(5) 0.0055(19)
O4 0.021(3) 0.024(2) 0.017(19) 0.009(4) 0.000(6) 0.0017(18)
O5 0.031(3) 0.023(2) 0.01(2) 0.006(4) 0.000(6) 0.0058(17)
P1 0.0163(10) 0.0126(9) 0.052(11) 0.0029(17) 0.007(3) 0.0003(7)
loop_
_atom_type_symbol
_atom_type_description
_atom_type_scat_dispersion_real
_atom_type_scat_dispersion_imag
_atom_type_scat_source
C C 0.0033 0.0016 'International Tables Vol C Tables 4.2.6.8 and 6.1.1.4'
H H 0.0000 0.0000 'International Tables Vol C Tables 4.2.6.8 and 6.1.1.4'
N N 0.0061 0.0033 'International Tables Vol C Tables 4.2.6.8 and 6.1.1.4'
O O 0.0106 0.0060 'International Tables Vol C Tables 4.2.6.8 and 6.1.1.4'
P P 0.1023 0.0942 'International Tables Vol C Tables 4.2.6.8 and 6.1.1.4'
loop_
_geom_angle_atom_site_label_1
_geom_angle_atom_site_label_2
_geom_angle_atom_site_label_3
_geom_angle
_geom_angle_site_symmetry_1
_geom_angle_site_symmetry_3
_geom_angle_publ_flag
N1 C1 C2 109.5(10) . . ?
N1 C1 H1D 109.8 . . ?
C2 C1 H1D 109.8 . . ?
N1 C1 H1E 109.8 . . ?
C2 C1 H1E 109.8 . . ?
H1D C1 H1E 108.2 . . ?
O4 C2 O5 125.2(7) . . ?
O4 C2 C1 124.5(11) . . ?
O5 C2 C1 110.4(12) . . ?
C1 N1 H1A 109.5 . . ?
C1 N1 H1B 109.5 . . ?
H1A N1 H1B 109.5 . . ?
C1 N1 H1C 109.5 . . ?
H1A N1 H1C 109.5 . . ?
H1B N1 H1C 109.5 . . ?
P1 O1 H1 109.5 . . ?
P1 O3 H3 109.5 . . ?
C2 O5 H5 109.5 . . ?
O1 P1 O2 113.3(7) . . ?
O1 P1 O3 107.7(5) . . ?
O2 P1 O3 111.1(6) . . ?
O1 P1 H1P 108.2 . . ?
O2 P1 H1P 108.2 . . ?
O3 P1 H1P 108.2 . . ?
loop_
_geom_bond_atom_site_label_1
_geom_bond_atom_site_label_2
_geom_bond_distance
_geom_bond_site_symmetry_2
_geom_bond_publ_flag
C1 N1 1.465(13) . ?
C1 C2 1.495(11) . ?
C1 H1D 0.9700 . ?
C1 H1E 0.9700 . ?
C2 O4 1.184(17) . ?
C2 O5 1.343(15) . ?
N1 H1A 0.8900 . ?
N1 H1B 0.8900 . ?
N1 H1C 0.8900 . ?
O1 P1 1.456(17) . ?
O1 H1 0.8200 . ?
O2 P1 1.514(5) . ?
O3 P1 1.531(9) . ?
O3 H3 0.8200 . ?
O5 H5 0.8200 . ?
P1 H1P 0.9800 . ?
loop_
_geom_hbond_atom_site_label_D
_geom_hbond_atom_site_label_H
_geom_hbond_atom_site_label_A
_geom_hbond_distance_DH
_geom_hbond_distance_HA
_geom_hbond_distance_DA
_geom_hbond_angle_DHA
_geom_hbond_site_symmetry_A
_geom_hbond_publ_flag
N1 H1A O2 0.89 1.88 2.76(2) 173.5 3_666 yes
N1 H1B O3 0.89 1.96 2.822(6) 164.0 4_675 yes
N1 H1C O2 0.89 1.96 2.827(6) 163.9 . yes
O1 H1 O1 0.82 1.65 2.404(10) 151.0 3_677 yes
O3 H3 O3 0.82 1.70 2.439(16) 149.6 3_676 yes
O5 H5 O2 0.82 1.79 2.564(9) 157.7 4_665 yes
loop_
_geom_torsion_atom_site_label_1
_geom_torsion_atom_site_label_2
_geom_torsion_atom_site_label_3
_geom_torsion_atom_site_label_4
_geom_torsion
_geom_torsion_site_symmetry_1
_geom_torsion_site_symmetry_2
_geom_torsion_site_symmetry_3
_geom_torsion_site_symmetry_4
_geom_torsion_publ_flag
N1 C1 C2 O4 -9.9(17) . . . . ?
N1 C1 C2 O5 171.7(9) . . . . ?

_cod_database_fobs_code 2109038
