#------------------------------------------------------------------------------
#$Date: 2022-09-02 04:49:51 +0300 (Fri, 02 Sep 2022) $
#$Revision: 277573 $
#$URL: file:///home/coder/svn-repositories/cod/cif/2/10/90/2109039.cif $
#------------------------------------------------------------------------------
#
# This file is available in the Crystallography Open Database (COD),
# http://www.crystallography.net/. The original data for this entry
# were provided by IUCr Journals, http://journals.iucr.org/.
#
# The file may be used within the scientific community so long as
# proper attribution is given to the journal article from which the
# data were obtained.
#
data_2109039
loop_
_publ_author_name
'Bogdanov, Nikita E.'
'Korabel'nikov, Dmitry V.'
'Fedorov, Igor A.'
'Zakharov, Boris A.'
'Boldyreva, Elena V.'
_publ_section_title
;
 The effect of hydrostatic compression on the crystal structure of
 glycinium phosphite
;
_journal_issue                   5
_journal_name_full               'Acta Crystallographica Section B'
_journal_page_first
;
;
_journal_paper_doi               10.1107/S2052520622008289
_journal_volume                  78
_journal_year                    2022
_chemical_formula_moiety         'C2 H6 N O2, H2 O3 P'
_chemical_formula_sum            'C2 H8 N O5 P'
_chemical_formula_weight         157.06
_space_group_crystal_system      monoclinic
_space_group_IT_number           14
_space_group_name_Hall           '-P 2yab'
_space_group_name_H-M_alt        'P 1 21/a 1'
_atom_sites_solution_hydrogens   geom
_atom_sites_solution_primary     direct
_atom_sites_solution_secondary   difmap
_audit_creation_method           SHELXL-2018/3
_cell_angle_alpha                90
_cell_angle_beta                 100.94(3)
_cell_angle_gamma                90
_cell_formula_units_Z            4
_cell_length_a                   9.2008(8)
_cell_length_b                   8.5014(5)
_cell_length_c                   6.745(5)
_cell_measurement_pressure       4540000
_cell_measurement_reflns_used    649
_cell_measurement_temperature    293(2)
_cell_measurement_theta_max      26.6980
_cell_measurement_theta_min      3.2790
_cell_volume                     518.0(4)
_computing_cell_refinement       'CrysAlisPro 1.171.40.53 (Rigaku OD, 2019)'
_computing_data_collection       'CrysAlisPro 1.171.40.53 (Rigaku OD, 2019)'
_computing_data_reduction        'CrysAlisPro 1.171.40.53 (Rigaku OD, 2019)'
_computing_structure_refinement  'SHELXL-2018/3 (Sheldrick, 2018)'
_diffrn_ambient_pressure         4540000
_diffrn_ambient_temperature      293(2)
_diffrn_detector                 'CCD plate'
_diffrn_detector_area_resol_mean 10.3457
_diffrn_detector_type            Ruby
_diffrn_measured_fraction_theta_full 0.366
_diffrn_measured_fraction_theta_max 0.331
_diffrn_measurement_device       'four-circle diffractometer'
_diffrn_measurement_device_type  'Xcalibur, Ruby, Gemini ultra'
_diffrn_radiation_monochromator  graphite
_diffrn_radiation_probe          x-ray
_diffrn_radiation_type           'Mo K\a'
_diffrn_radiation_wavelength     0.71073
_diffrn_reflns_av_R_equivalents  0.1064
_diffrn_reflns_av_unetI/netI     0.0810
_diffrn_reflns_Laue_measured_fraction_full 0.366
_diffrn_reflns_Laue_measured_fraction_max 0.331
_diffrn_reflns_limit_h_max       11
_diffrn_reflns_limit_h_min       -12
_diffrn_reflns_limit_k_max       11
_diffrn_reflns_limit_k_min       -11
_diffrn_reflns_limit_l_max       3
_diffrn_reflns_limit_l_min       -3
_diffrn_reflns_number            2667
_diffrn_reflns_point_group_measured_fraction_full 0.366
_diffrn_reflns_point_group_measured_fraction_max 0.331
_diffrn_reflns_theta_full        25.242
_diffrn_reflns_theta_max         27.993
_diffrn_reflns_theta_min         3.291
_diffrn_source                   'fine-focus sealed X-ray tube'
_diffrn_source_type              'Enhance (Mo) X-ray Source'
_exptl_absorpt_coefficient_mu    0.479
_exptl_absorpt_correction_T_max  1.00000
_exptl_absorpt_correction_T_min  0.12251
_exptl_absorpt_correction_type   multi-scan
_exptl_absorpt_process_details
;
CrysAlisPro 1.171.40.53 (Rigaku Oxford Diffraction, 2019)
Empirical absorption correction using spherical harmonics,
 implemented in SCALE3 ABSPACK scaling algorithm.
;
_exptl_crystal_colour            white
_exptl_crystal_density_diffrn    2.014
_exptl_crystal_description       plates
_exptl_crystal_F_000             328
_exptl_crystal_size_max          0.21
_exptl_crystal_size_mid          0.10
_exptl_crystal_size_min          0.05
_refine_diff_density_max         0.371
_refine_diff_density_min         -0.305
_refine_diff_density_rms         0.093
_refine_ls_extinction_method     none
_refine_ls_goodness_of_fit_ref   1.154
_refine_ls_hydrogen_treatment    constr
_refine_ls_matrix_type           full
_refine_ls_number_parameters     86
_refine_ls_number_reflns         414
_refine_ls_number_restraints     58
_refine_ls_restrained_S_all      1.074
_refine_ls_R_factor_all          0.1170
_refine_ls_R_factor_gt           0.0659
_refine_ls_shift/su_max          0.000
_refine_ls_shift/su_mean         0.000
_refine_ls_structure_factor_coef Fsqd
_refine_ls_weighting_details
'w=1/[\s^2^(Fo^2^)+(0.0961P)^2^+0.5319P] where P=(Fo^2^+2Fc^2^)/3'
_refine_ls_weighting_scheme      calc
_refine_ls_wR_factor_gt          0.1507
_refine_ls_wR_factor_ref         0.1865
_reflns_Friedel_coverage         0.000
_reflns_number_gt                277
_reflns_number_total             414
_reflns_threshold_expression     'I > 2\s(I)'
_cod_data_source_file            xk5096sup1.cif
_cod_data_source_block           4.54
_cod_original_sg_symbol_H-M      'P 21/a'
_cod_database_code               2109039
_shelx_shelxl_version_number     2018/3
_shelx_space_group_comment
;
The symmetry employed for this shelxl refinement is uniquely defined
by the following loop, which should always be used as a source of
symmetry information in preference to the above space-group names.
They are only intended as comments.
;
_oxdiff_exptl_absorpt_empirical_full_min 0.623
_oxdiff_exptl_absorpt_empirical_full_max 4.903
_oxdiff_exptl_absorpt_empirical_details
;
Empirical correction (ABSPACK) includes:
- Absorption correction using spherical harmonics
- Frame scaling
;
_shelx_res_file
;
TITL GPI_4 in P2(1)/c
    4.54.res
    created by SHELXL-2018/3 at 18:28:00 on 10-Aug-2022
REM  transformed to space group : P21/a:b3
REM P2(1)/c (#14 in standard setting)
CELL   0.71073  9.2008  8.5014  6.7445   90.000  100.941   90.000
ZERR   4        0.0008  0.0005  0.0054    0.000    0.027    0.000
LATT    1
SYMM   1/2-X,1/2+Y,-Z
SFAC C H N O P
UNIT 8 32 4 20 4
LIST 4 ! automatically inserted. Change 6 to 4 for CHECKCIF!!
PLAN 30
FMAP 2
L.S. 20
BOND
BOND $H
CONF
ACTA
EQIV $1 1-X, 1-Y,1-Z
EQIV $2 1/2+X, 3/2-Y,Z
EQIV $3 1-X, 2-Y, 2-Z
EQIV $4 1-X, 2-Y, 1-Z
EQIV $5 1/2+X, 1/2-Y, Z
HTAB N1 O2_$1
HTAB N1 O3_$2
HTAB N1 O2
HTAB O1 O1_$3
HTAB O3 O3_$4
HTAB O5 O2_$5
DFIX 1.66 0.04 H1 O1_$3
DFIX 1.70 0.04 H3 O3_$4
SIMU
DELU
WGHT    0.096100    0.531900
FVAR       1.81270
C1    1    0.677441    0.284561    0.789164    11.00000    0.01822    0.02372 =
         0.01984    0.00283   -0.00675   -0.00092
AFIX  23
H1D   2    0.580475    0.235638    0.760315    11.00000   -1.20000
H1E   2    0.698517    0.313812    0.930740    11.00000   -1.20000
AFIX   0
C2    1    0.791231    0.170947    0.747233    11.00000    0.01821    0.01489 =
         0.03401   -0.00272    0.00374   -0.00211
N1    3    0.677685    0.424334    0.664730    11.00000    0.01861    0.01744 =
         0.01006    0.00468   -0.01144   -0.00353
AFIX 137
H1A   2    0.638751    0.401184    0.536996    11.00000   -1.20000
H1B   2    0.770242    0.457859    0.672601    11.00000   -1.20000
H1C   2    0.624212    0.499457    0.708479    11.00000   -1.20000
AFIX   0
O1    4    0.527117    0.864221    0.979149    11.00000    0.05051    0.01771 =
         0.06369   -0.00560    0.03716    0.00717
AFIX 147
H1    2    0.536610    0.960129    0.983919    10.50000   -1.20000
AFIX   0
O2    4    0.462393    0.645137    0.731083    11.00000    0.02384    0.01704 =
         0.03652    0.00049    0.00074   -0.00380
O3    4    0.444681    0.927658    0.623824    11.00000    0.02863    0.02329 =
         0.07369    0.01656    0.00502    0.00443
AFIX 147
H3    2    0.490033    0.943848    0.532244    10.50000   -1.20000
AFIX   0
O4    4    0.854873    0.183056    0.609785    11.00000    0.02310    0.02115 =
         0.04507    0.00671    0.01001    0.00482
O5    4    0.808530    0.054338    0.884206    11.00000    0.03822    0.01759 =
         0.05764    0.01150    0.01405    0.00506
AFIX 147
H5    2    0.871969   -0.007029    0.860902    11.00000   -1.20000
AFIX   0
P1    5    0.527703    0.808345    0.768926    11.00000    0.01838    0.01376 =
         0.06329    0.00219    0.01047    0.00186
AFIX  13
H1P   2    0.630515    0.805092    0.749359    11.00000   -1.20000
AFIX   0
HKLF 4




REM  GPI_4 in P2(1)/c
REM wR2 = 0.1865, GooF = S = 1.154, Restrained GooF = 1.074 for all data
REM R1 = 0.0659 for 277 Fo > 4sig(Fo) and 0.1170 for all 414 data
REM 86 parameters refined using 58 restraints

END

WGHT      0.0961      0.5319

REM Highest difference peak  0.371,  deepest hole -0.305,  1-sigma level  0.093
Q1    1   0.8456  0.4263  0.5314  11.00000  0.05    0.37
Q2    1   0.5989  0.6575  0.8788  11.00000  0.05    0.36
Q3    1   0.8848  0.1701  1.0563  11.00000  0.05    0.34
Q4    1   0.9663  0.1508  0.6904  11.00000  0.05    0.33
Q5    1   0.6237  1.0835  1.0336  11.00000  0.05    0.29
Q6    1   0.7612  0.2456  0.6971  11.00000  0.05    0.28
Q7    1   0.6913  0.7537  0.7715  11.00000  0.05    0.28
Q8    1   0.7188  0.8521  0.7866  11.00000  0.05    0.28
Q9    1   0.6767  0.2342  1.1668  11.00000  0.05    0.27
Q10   1   0.5813  0.9930  1.1442  11.00000  0.05    0.25
Q11   1   0.6164  0.3165  0.9350  11.00000  0.05    0.25
Q12   1   0.4240  0.8184  0.4682  11.00000  0.05    0.25
Q13   1   0.4381  0.6977  0.6047  11.00000  0.05    0.25
Q14   1   0.3414  0.8604  0.7613  11.00000  0.05    0.24
Q15   1   0.7655  0.2962  0.4812  11.00000  0.05    0.23
Q16   1   0.5998  0.3009  0.4733  11.00000  0.05    0.23
Q17   1   0.6365  0.3063  0.9993  11.00000  0.05    0.23
Q18   1   0.6944 -0.0165  0.6772  11.00000  0.05    0.23
Q19   1   0.8733  0.1856  0.4477  11.00000  0.05    0.22
Q20   1   0.5603  0.2191  0.8561  11.00000  0.05    0.22
Q21   1   0.8824  0.3071  0.5278  11.00000  0.05    0.22
Q22   1   0.5152  0.4816  0.7446  11.00000  0.05    0.22
Q23   1   0.4052  0.6281  0.7851  11.00000  0.05    0.21
Q24   1   0.6136  0.9180  0.8418  11.00000  0.05    0.21
Q25   1   0.5761  0.2073  0.9284  11.00000  0.05    0.21
Q26   1   0.5165  0.1329  0.7421  11.00000  0.05    0.20
Q27   1   0.5138  0.2707  0.6376  11.00000  0.05    0.20
Q28   1   0.9358  0.1663  0.9100  11.00000  0.05    0.20
Q29   1   0.6349  0.8219  0.5551  11.00000  0.05    0.19
Q30   1   0.8773 -0.0791  0.9475  11.00000  0.05    0.19
;
_shelx_res_checksum              32037
_shelx_hkl_file
;
   1   0   0 14.1017 7.78430   7 0.03923 0.03923-0.01206 0.01205 0.98839-0.97347
  -1   0   0 3.37393 3.29044   8-0.03923-0.03923 0.04085-0.04086-0.98762 0.97271
  -2   0   0 6941.21 165.080   9-0.07848-0.07848-0.34343 0.34340-0.93398 0.90415
  -2   0   0 6876.26 229.960   8-0.07846-0.07846 0.02580-0.02582-0.99331 0.96348
   2   0   0 7131.35 159.983   6 0.07852 0.07852-0.32048 0.32050 0.94149-0.91163
   2   0   0 6864.97 240.223   7 0.07847 0.07848-0.00483 0.00480 0.99364-0.96380
   3   0   0 28.7817 20.6450   7 0.11770 0.11772 0.00244-0.00248 0.99731-0.95256
  -3   0   0 -21.312 24.3919   8-0.11768-0.11768 0.01065-0.01067-0.99725 0.95251
  -3   0   0 0.90450 12.1618   9-0.11772-0.11773-0.25478 0.25474-0.96485 0.92011
   3   0   0 31.5680 16.5429   4 0.11775 0.11778-0.22581 0.22548 0.97163-0.92693
   3   0   0 -8.4601 12.9639   6 0.11777 0.11777-0.22607 0.22611 0.97157-0.92678
   4   0   0 4004.24 264.451   7 0.15693 0.15695 0.00973-0.00979 0.99939-0.93972
   4   0   0 4413.48 176.630   4 0.15703 0.15707-0.12544 0.12496 0.99150-0.93184
  -4   0   0 4191.48 259.131   8-0.15691-0.15692-0.00460 0.00457-0.99942 0.93977
   4   0   0 4270.29 172.420   6 0.15700 0.15700-0.12579 0.12584 0.99145-0.93176
   5   0   0 32.2885 71.2167   7 0.19616 0.19619 0.01706-0.01714 0.99985-0.92526
  -5   0   0 43.3415 21.1913   1-0.19615-0.19602 0.03145-0.03165-0.99946 0.92493
   5   0   0 21.2002 20.0291   6 0.19623 0.19624-0.01884 0.01890 0.99979-0.92518
  -5   0   0 49.8870 53.0064   8-0.19614-0.19615-0.01995 0.01991-0.99979 0.92522
  -6   0   0 6615.29 412.056   8-0.23538-0.23539-0.03541 0.03536-0.99832 0.90883
   6   0   0 6828.16 436.103   7 0.23539 0.23544 0.02443-0.02452 0.99864-0.90913
   6   0   0 6721.70 258.554   6 0.23544 0.23545 0.09608-0.09601 0.99431-0.90481
  -7   0   0 -61.758 54.8355   8-0.27461-0.27463-0.05097 0.05092-0.99493 0.89052
   7   0   0 -4.4770 63.9072   7 0.27461 0.27468 0.03183-0.03194 0.99573-0.89129
  -7   0   0 -92.254 48.6914   2-0.27464-0.27454 0.05004-0.05009-0.99491 0.89054
  -8   0   0 1136.14 222.622   8-0.31385-0.31387-0.06664 0.06659-0.98957 0.87024
  -8   0   0 734.522 144.414   2-0.31388-0.31376 0.09863-0.09866-0.98671 0.86743
   8   0   0 790.846 164.386   3 0.31398 0.31421-0.08166 0.08165 0.98829-0.86880
   8   0   0 684.703 250.772   7 0.31384 0.31391 0.03926-0.03939 0.99105-0.87169
   9   0   0 -77.524 113.609   7 0.35306 0.35316 0.04673-0.04688 0.98454-0.85025
   9   0   0 -67.400 92.3412   3 0.35319 0.35348-0.11659 0.11661 0.97839-0.84395
  -9   0   0 27.4332 84.0799   8-0.35308-0.35311-0.08244 0.08237-0.98213 0.84789
  10   0   0 -91.350 178.456   7 0.39228 0.39240 0.05423-0.05440 0.97611-0.82688
 -10   0   0 388.892 198.034   8-0.39232-0.39234-0.09836 0.09829-0.97252 0.82336
  11   0   0 70.8603 276.983   7 0.43150 0.43164 0.06179-0.06197 0.96565-0.80149
 -11   0   0 -38.839 130.172   8-0.43155-0.43159-0.11440 0.11432-0.96060 0.79652
 -11   0   0 -8.9948 102.262   5-0.43167-0.43087 0.14005-0.13980-0.95681 0.79326
   0  -1   0 -3.7512 2.86436   1-0.20822 0.20820-0.04172-0.04172-0.99898 0.99893
   0   1   0 0.76523 4.19042   4 0.21718-0.21729 0.04172 0.04172 0.99877-0.99871
   0   1   0 4.56583 5.89976   6 0.21726-0.21727 0.04169 0.04169 0.99877-0.99871
   0  -1   0 5.66015 4.78273   9-0.20331 0.20328-0.04170-0.04170-0.99906 0.99901
   1   1   0 384.117 45.5365   1-0.15830 0.23684 0.22753-0.14403-0.97324 0.98822
   1   1   0 405.015 49.5378   6 0.17268-0.09418-0.08391 0.16732 0.99627-0.98129
  -1  -1   0 366.505 44.7643   8-0.10151 0.02304 0.01691-0.10028-0.99584 0.98087
   1   1   0 379.787 45.7613   8 0.01727 0.06119 0.06236 0.02103-0.97638 0.99135
   1   1   0 375.878 42.8718   7 0.08698-0.00853-0.00326 0.08663 0.99457-0.97960
  -1   1   0 396.440 35.1822   6 0.31811-0.39659 0.37805-0.29475 0.91428-0.92912
  -1  -1   0 433.473 48.2125   1-0.18477 0.10625 0.09507-0.17857-0.99540 0.98042
  -1  -1   0 374.894 42.9504   7-0.05281-0.02565-0.02891-0.05446 0.96993-0.98490
  -1   1   0 425.126 40.3735   1-0.22122 0.14278-0.12947 0.21279-0.99111 0.97627
  -1   1   0 424.067 37.9481   7-0.12896 0.05047-0.04272 0.12614 0.94812-0.96298
   1  -1   0 426.750 36.1817   6 0.25695-0.17847 0.16329-0.24661 0.98411-0.96926
  -1  -1   0 438.260 37.3107   9-0.28245 0.20395 0.18712-0.27054-0.97727 0.96229
   1  -1   0 450.966 36.6980   4 0.25672-0.17807 0.16279-0.24643 0.98422-0.96931
   1  -1   0 414.285 36.5454   7 0.07841 0.00007-0.00484-0.07856 0.99363-0.97877
   1  -1   0 418.625 49.1991   9-0.13753 0.21597-0.20800 0.12461-0.97704 0.99190
   1   1   0 391.394 48.5705   4 0.17259-0.09419-0.08389 0.16718 0.99627-0.98132
  -2   1   0 893.650 73.9791   8-0.08906-0.06785 0.02171 0.06166-0.99455 0.96478
  -2  -1   0 1028.61 83.5952   1-0.17593 0.01893 0.14146-0.22498-0.98977 0.95986
   2  -1   0 943.815 84.7858   7 0.10020 0.05674-0.00081-0.08260 0.99587-0.96609
  -2   1   0 1007.27 61.2502   1-0.23717 0.08032-0.25690 0.34010-0.96506 0.93536
  -2  -1   0 1010.13 91.1077   4 0.07453-0.23137-0.32947 0.24632 0.93800-0.96782
   2   1   0 957.303 94.8815   7 0.10096 0.05597-0.00067 0.08404 0.99594-0.96605
   2   1   0 912.877 85.1603   6 0.16135-0.00434-0.11428 0.19771 0.99298-0.96307
   2  -1   0 897.893 83.6443   9-0.08005 0.23696-0.33998 0.25660-0.93538 0.96515
  -2  -1   0 913.053 93.2027   8-0.10822-0.04869 0.01431-0.09770-0.99646 0.96658
   3  -1   0 21497.5 459.401   9-0.02741 0.26280-0.45130 0.36792-0.88120 0.92588
   3   1   0 20317.0 527.237   7 0.13073 0.10467 0.00486 0.07850 0.99818-0.95338
  -3  -1   0 21552.2 478.373   4 0.02418-0.25946-0.44200 0.35892 0.88464-0.92931
  -3   1   0 20046.9 445.188   8-0.13042-0.10495 0.00571 0.07765-0.99815 0.95346
   3   1   0 20167.1 442.470   6 0.16734 0.06818-0.09831 0.18175 0.99484-0.95001
   3  -1   0 19983.4 488.741   7 0.13445 0.10098 0.00555-0.08898 0.99840-0.95370
  -3  -1   0 19707.0 516.019   8-0.13399-0.10138 0.00432-0.08771-0.99837 0.95357
  -4  -1   0 65.3792 43.0969   8-0.16585-0.14798-0.00809-0.07531-0.99967 0.93996
   4  -1   0 58.8004 34.3600   9 0.02228 0.29158-0.54849 0.46511-0.81675 0.87635
   4   1   0 68.5866 43.2216   7 0.16500 0.14887 0.01124 0.07209 0.99962-0.93989
  -4  -1   0 16.9896 20.3756   4-0.02400-0.28972-0.54177 0.45874 0.81994-0.87947
   4  -1   0 32.0785 28.3466   7 0.17132 0.14257 0.01242-0.09587 0.99975-0.94013
  -4  -1   0 59.1731 17.8825   9-0.07451-0.23946-0.35212 0.26864-0.93037 0.87065
   4   1   0 66.3882 39.2957   6 0.18293 0.13108-0.05592 0.13937 0.99837-0.93862
  -4   1   0 76.5081 38.2368   8-0.17063-0.14321-0.00995 0.09331-0.99976 0.94016
  -5  -1   0 844.588 137.282   8-0.20041-0.19187-0.02163-0.06179-0.99972 0.92510
  -5   1   0 856.765 128.704   8-0.21044-0.18188-0.02557 0.10893-0.99947 0.92495
   5   1   0 785.696 101.427   6 0.20425 0.18823 0.00396 0.07948 0.99989-0.92522
   5  -1   0 738.436 130.939   7 0.20919 0.18317 0.01951-0.10297 0.99963-0.92510
   5   1   0 858.621 138.484   7 0.20118 0.19117 0.01800 0.06531 0.99979-0.92514
   6   1   0 353.637 93.2272   7 0.23833 0.23249 0.02498 0.05832 0.99848-0.90891
   6  -1   0 511.729 131.762   7 0.24752 0.22330 0.02671-0.11019 0.99792-0.90847
  -6  -1   0 356.373 97.4096   8-0.23643-0.23433-0.03582-0.04760-0.99825 0.90871
   6   1   0 554.258 93.4762   6 0.22919 0.24176 0.07713 0.00631 0.99625-0.90666
  -6   1   0 496.433 111.428   8-0.25006-0.22073-0.04122 0.12457-0.99728 0.90783
   7   1   0 93.0753 72.8646   7 0.27605 0.27324 0.03210 0.05119 0.99559-0.89109
  -7   1   0 -2.2723 48.5961   8-0.28958-0.25968-0.05694 0.14029-0.99312 0.88876
  -7  -1   0 104.450 64.5146   8-0.27330-0.27593-0.05044-0.03299-0.99508 0.89062
  -7  -1   0 15.3399 34.8010   2-0.29181-0.25741 0.07116-0.15462-0.99186 0.88742
  -7   1   0 137.297 74.5356   2-0.27357-0.27561 0.04873 0.03466-0.99507 0.89076
   7   1   0 -20.079 34.3067   6 0.25646 0.29292 0.16171-0.07828 0.98441-0.87993
   7  -1   0 -37.289 81.5970   7 0.28612 0.26316 0.03400-0.11750 0.99454-0.89016
  -8   1   0 765.550 187.530   8-0.32904-0.29869-0.07275 0.15610-0.98694 0.86766
   8  -1   0 541.058 154.650   3 0.30924 0.31904-0.07748-0.00594 0.98927-0.86980
  -8   1   0 727.894 157.054   2-0.30739-0.32024 0.09051-0.00711-0.98837 0.86915
   8   1   0 457.305 199.054   7 0.31413 0.31363 0.03932 0.04395 0.99101-0.87158
  -8  -1   0 695.057 178.442   8-0.31071-0.31698-0.06539-0.01805-0.99007 0.87070
   8  -1   0 417.984 212.925   7 0.32488 0.30286 0.04136-0.12487 0.98941-0.87010
   8   1   0 651.283 141.711   3 0.33250 0.29558-0.09809 0.18146 0.98403-0.86451
  -9   1   0 -85.718 103.319   8-0.36847-0.33774-0.08867 0.17201-0.97863 0.84443
   9  -1   0 108.617 114.763   3 0.34521 0.36157-0.10944 0.02604 0.98068-0.84624
  -9  -1   0 -80.528 86.1360   8-0.34850-0.35767-0.08059-0.00286-0.98311 0.84883
   9  -1   0 157.653 123.698   7 0.36375 0.34245 0.04877-0.13230 0.98244-0.84821
  -9   1   0 13.5124 66.0509   2-0.34217-0.36393 0.13443-0.05101-0.97797 0.84386
   9   1   0 14.6505 100.426   7 0.35247 0.35377 0.04662 0.03664 0.98465-0.85030
 -10   1   0 2423.86 386.923   8-0.40787-0.37683-0.10470 0.18804-0.96808 0.81895
  10  -1   0 1621.50 476.320   7 0.40270 0.38196 0.05624-0.13980 0.97353-0.82437
  10  -1   0 1743.36 322.791   3 0.38170 0.40353-0.14241 0.05905 0.96906-0.81966
  10   1   0 1872.06 420.445   7 0.39096 0.39374 0.05398 0.02925 0.97642-0.82714
 -10  -1   0 2258.71 363.148   8-0.38655-0.39808-0.09601 0.01255-0.97408 0.82487
  11  -1   0 -30.714 185.378   7 0.44171 0.42142 0.06376-0.14733 0.96258-0.79849
  11   1   0 29.3767 125.381   7 0.42958 0.43358 0.06141 0.02180 0.96621-0.80199
 -11   1   0 373.101 212.249   8-0.44726-0.41593-0.12086 0.20420-0.95514 0.79109
 -11  -1   0 349.162 197.571   8-0.42480-0.43831-0.11163 0.02816-0.96282 0.79870
   0   2   0 4755.23 119.302   8 0.07299-0.07300 0.08337 0.08339-0.96179 0.96190
   0  -2   0 4651.71 158.225   3 0.31589-0.31601-0.08335-0.08338 0.98789-0.98798
   0   2   0 4564.38 170.954   2-0.30174 0.30174 0.08347 0.08346-0.98972 0.98983
   0   2   0 4403.02 196.537   6 0.23126-0.23127 0.08337 0.08339 0.99566-0.99554
   0  -2   0 4674.30 196.502   9-0.18747 0.18742-0.08340-0.08340-0.99657 0.99646
   0  -2   0 4612.65 117.437   8-0.35542 0.35533-0.08339-0.08337-0.98162 0.98153
   1  -2   0 151.297 37.1186   9-0.15186 0.23027-0.17328 0.00650-0.98433 0.99914
  -1  -2   0 169.947 35.9483   9-0.21915 0.14063 0.00122-0.16804-0.99956 0.98453
  -1  -2   0 189.565 35.8327   8-0.18409 0.10560-0.01523-0.15151-0.99988 0.98485
   1   2   0 140.060 34.4913   6 0.20478-0.12629 0.00547 0.16132 0.99988-0.98484
   1   2   0 202.034 34.7748   7 0.18470-0.10629 0.01492 0.15185 0.99988-0.98486
   1   2   0 213.762 33.6384   2-0.48718 0.56569 0.33095-0.16398-0.88582 0.90084
  -1   2   0 182.295 36.0925   6 0.27802-0.35653 0.23267-0.06598 0.96798-0.98278
  -1   2   0 181.779 38.8199   1-0.20019 0.12178 0.00772 0.15905-0.99991 0.98512
  -1  -2   0 215.300 36.1063   7-0.12658 0.04812-0.04229-0.12447 0.94889-0.96392
   1  -2   0 198.992 39.7093   4 0.19999-0.12123-0.00793-0.15912 0.99991-0.98507
   2  -2   0 2369.16 126.363   7 0.18253-0.02556 0.01451-0.18130 0.99987-0.97015
   2  -2   0 2528.30 126.853   4 0.21971-0.06240 0.04917-0.21639 0.99836-0.96855
  -2  -2   0 2397.71 175.960   4 0.10537-0.26214-0.25621 0.08966 0.96320-0.99311
  -2   2   0 2403.72 104.807   8-0.18261 0.02572-0.01464 0.18142-0.99987 0.97015
   2   2   0 2355.32 156.064   7 0.15674 0.00016 0.00970 0.15707 0.99939-0.96944
  -2   2   0 2639.72 138.054   6 0.34239-0.49934 0.47948-0.31288 0.85867-0.88833
   2   2   0 2522.96 177.522   6 0.19395-0.03694-0.02528 0.19210 0.99966-0.96969
  -2   2   0 2468.10 140.764   1-0.20765 0.05081-0.03815 0.20482-0.99913 0.96945
   2  -2   0 2452.57 171.780   9-0.11368 0.27055-0.26416 0.09739-0.96208 0.99180
  -2  -2   0 2512.64 166.129   8-0.16064 0.00371-0.00606-0.16068-0.99954 0.96960
   2  -2   0 2674.44 129.996   6 0.22007-0.06310 0.04993-0.21661 0.99831-0.96859
  -2  -2   0 2301.56 120.902   9-0.24457 0.08758 0.07284-0.23969-0.99570 0.96575
   3  -2   0 1857.29 162.527   9-0.07381 0.30915-0.35364 0.18689-0.92973 0.97436
  -3  -2   0 2067.65 175.442   4 0.06782-0.30303-0.34497 0.17856 0.93175-0.97652
   3  -2   0 2063.84 103.763   6 0.22726 0.00817 0.07133-0.23800 0.99676-0.95213
   3   2   0 2104.20 174.895   7 0.16834 0.06705 0.01186 0.15490 0.99969-0.95483
   3   2   0 2126.42 174.446   6 0.19421 0.04131-0.02455 0.19138 0.99967-0.95478
  -3  -2   0 2021.44 175.469   8-0.16992-0.06546-0.00968-0.15707-0.99975 0.95490
   3  -2   0 1924.12 99.2822   4 0.22667 0.00921 0.06987-0.23724 0.99688-0.95210
  -3   2   0 1849.26 125.726   8-0.18885-0.04652-0.01709 0.18387-0.99986 0.95523
  -3   2   0 1964.03 122.269   1-0.20876-0.02649-0.04517 0.21177-0.99882 0.95425
   3  -2   0 1946.04 147.615   7 0.18778 0.04765 0.01550-0.18229 0.99989-0.95525
  -3  -2   0 1870.05 97.9673   9-0.25947 0.02402 0.11663-0.28350-0.99045 0.94557
   5  -2   0 2317.39 223.888   7 0.24259 0.14976 0.02578-0.19262 0.99824-0.92376
  -5  -2   0 2306.60 234.757   8-0.21926-0.17302-0.02904-0.13773-0.99915 0.92447
  -5   2   0 2259.63 197.144   8-0.24890-0.14341-0.04076 0.20753-0.99737 0.92289
   5   2   0 2157.41 228.403   7 0.22223 0.17010 0.02196 0.14477 0.99923-0.92453
   5   2   0 2173.22 198.030   6 0.21579 0.17671 0.03737 0.12946 0.99898-0.92424
   5  -2   0 2226.73 213.740   9 0.00909 0.38319-0.52343 0.35666-0.83511 0.90957
  -5  -2   0 2550.04 237.894   4-0.01167-0.38039-0.51696 0.35073 0.83776-0.91221
   6  -2   0 826.372 152.492   7 0.27633 0.19447 0.03215-0.19901 0.99556-0.90616
  -6  -2   0 758.536 95.0966   2-0.28903-0.18176 0.06773-0.23464-0.99241 0.90282
   6  -2   0 195.657 83.8795   9 0.05160 0.41916-0.60223 0.43546-0.77273 0.86211
  -6   2   0 811.181 135.679   8-0.28434-0.18647-0.05484 0.22162-0.99379 0.90439
   6   2   0 794.133 151.379   7 0.25493 0.21588 0.02811 0.13860 0.99741-0.90778
   6   2   0 891.543 134.300   6 0.23330 0.23768 0.08953 0.07730 0.99503-0.90538
  -6  -2   0 888.469 165.595   8-0.25030-0.22044-0.04131-0.12547-0.99726 0.90767
   7   2   0 2583.30 303.271   7 0.28938 0.25991 0.03462 0.13208 0.99418-0.88962
   7   2   0 2500.36 220.479   3 0.32873 0.22075-0.09473 0.26142 0.98495-0.88037
   7   2   0 2729.06 251.290   6 0.25365 0.29578 0.15272 0.01409 0.98607-0.88150
  -7  -2   0 2445.76 286.031   8-0.28341-0.26579-0.05447-0.11233-0.99390 0.88940
  -7   2   0 2863.10 278.851   8-0.32103-0.22824-0.06954 0.23630-0.98836 0.88405
  -7   2   0 2329.33 266.604   2-0.28203-0.26714 0.05910 0.10773-0.99370 0.88945
   8  -2   0 99.4211 106.680   7 0.34818 0.27954 0.04580-0.21269 0.98545-0.86621
   8   2   0 275.409 142.627   7 0.32496 0.30279 0.04138 0.12531 0.98939-0.86991
  -8  -2   0 314.017 139.872   8-0.31788-0.30978-0.06826-0.09855-0.98890 0.86949
   8  -2   0 355.923 146.590   3 0.31436 0.31399-0.08199-0.08487 0.98821-0.86875
  -8   2   0 231.651 113.573   8-0.35847-0.26929-0.08462 0.25138-0.98095 0.86170
  -8   2   0 224.501 104.004   2-0.31084-0.31678 0.09483 0.07201-0.98750 0.86835
   9  -2   0 920.729 298.686   7 0.38526 0.32092 0.05289-0.21980 0.97776-0.84360
  -9   2   0 1329.76 248.825   2-0.34132-0.36475 0.13335 0.03350-0.97827 0.84422
  -9  -2   0 1023.47 230.548   8-0.35330-0.35283-0.08253-0.08430-0.98209 0.84776
   9  -2   0 1160.04 261.348   3 0.34673 0.36011-0.11080-0.05602 0.98025-0.84583
   9   2   0 856.763 282.018   7 0.36131 0.34492 0.04830 0.11836 0.98293-0.84852
  -9   2   0 1452.32 253.915   8-0.39639-0.30986-0.10001 0.26678-0.97140 0.83723
 -10   2   0 172.216 140.926   8-0.43461-0.35011-0.11566 0.28243-0.95957 0.81047
  10   2   0 -44.729 149.660   7 0.39820 0.38650 0.05537 0.11127 0.97466-0.82531
 -10   2   0 -262.33 135.093   2-0.37304-0.41150 0.17431-0.00745-0.96547 0.81653
  10  -2   0 -80.247 111.604   7 0.42280 0.36184 0.06011-0.22704 0.96815-0.81906
 -10  -2   0 -108.50 84.2855   8-0.38941-0.39519-0.09717-0.06967-0.97331 0.82408
 -11  -2   0 345.946 199.825   8-0.42601-0.43705-0.11213-0.05472-0.96243 0.79828
  11  -2   0 527.351 250.055   3 0.41440 0.44941-0.17244 0.00571 0.95597-0.79159
  11  -2   0 381.234 277.834   7 0.46066 0.40244 0.06743-0.23438 0.95649-0.79246
  11   2   0 174.047 202.038   7 0.43549 0.42768 0.06256 0.10406 0.96447-0.80018
   0   3   0 0.62787 14.0246   6 0.24484-0.24488 0.12505 0.12509 0.99056-0.99039
   0  -3   0 -0.7985 27.5768   9-0.17120 0.17112-0.12510-0.12510-0.99207 0.99190
   0  -3   0 18.1808 19.5190   3 0.36252-0.36271-0.12501-0.12508 0.97554-0.97566
   0   3   0 22.6529 26.7743   2-0.33493 0.33494 0.12521 0.12520-0.98044 0.98061
   0  -3   0 0.41926 8.38210   8-0.45748 0.45733-0.12508-0.12505-0.95137 0.95126
   0  -3   0 8.10337 25.2621   4 0.15714-0.15681-0.12513-0.12519 0.99154-0.99169
  -1  -3   0 789.864 70.6668   3 0.55956-0.63825-0.31291 0.06306 0.85962-0.87454
  -1  -3   0 802.475 99.8146   9-0.18956 0.11101-0.07798-0.17224-0.99701 0.98192
   1   3   0 841.377 84.3615   2-0.45044 0.52894 0.27868-0.02825-0.91817 0.93325
   1   3   0 856.347 73.2046   7 0.31314-0.23478 0.03913 0.21103 0.99115-0.97605
  -1   3   0 829.398 100.177   6 0.27538-0.35391 0.22374 0.02632 0.97039-0.98512
   1  -3   0 737.711 103.669   9-0.14759 0.22598-0.18368-0.06650-0.98230 0.99705
  -1   3   0 822.875 102.846   2-0.27553 0.19706 0.05113 0.19922-0.99477 0.98003
   1  -3   0 807.172 99.4210   4 0.17277-0.09389-0.08339-0.16711 0.99632-0.98152
  -1  -3   0 761.900 82.3827   8-0.27501 0.19646-0.05112-0.19896-0.99489 0.97982
  -1   3   0 772.184 100.247   1-0.18780 0.10942 0.07856 0.17165-0.99686 0.98212
   1   3   0 807.061 110.842   6 0.22566-0.14718 0.06656 0.18361 0.99715-0.98205
  -2  -3   0 1222.30 123.583   8-0.22681 0.06984-0.03202-0.21807-0.99880 0.96881
   2   3   0 1235.62 145.222   6 0.21622-0.05924 0.03864 0.21156 0.99892-0.96890
   2  -3   0 1130.80 111.738   4 0.18092-0.02349-0.06115-0.18950 0.99805-0.96829
   2  -3   0 1102.15 134.684   9-0.11997 0.27682-0.24953-0.00063-0.96636 0.99602
  -2  -3   0 1115.02 108.934   9-0.20078 0.04376-0.04842-0.20182-0.99880 0.96879
  -2  -3   0 1128.23 143.558   4 0.11058-0.26726-0.24350-0.00648 0.96687-0.99684
  -2   3   0 1076.97 107.356   6 0.31683-0.47384 0.37308-0.12310 0.91660-0.94622
   2   3   0 1169.78 112.766   7 0.23804-0.08119 0.02493 0.22524 0.99850-0.96849
  -2   3   0 1057.92 116.813   1-0.19226 0.03545 0.05374 0.19637-0.99852 0.96889
   2  -3   0 1103.35 77.3992   7 0.35202-0.19504 0.04654-0.29664 0.98474-0.95509
  -3  -3   0 6382.80 339.297   8-0.21962-0.01579-0.02918-0.22091-0.99914 0.95423
  -3   3   0 6338.98 287.544   1-0.19201-0.04321 0.05516 0.19490-0.99844 0.95392
   3   3   0 6391.44 355.448   6 0.21460 0.02091 0.03390 0.21633 0.99913-0.95418
  -3  -3   0 6186.60 241.183   9-0.20161-0.03388-0.04623-0.20405-0.99889 0.95396
   3  -3   0 5746.31 253.155   7 0.28694-0.05150 0.03416-0.28430 0.99445-0.94987
  -3  -3   0 6184.80 354.867   4 0.08180-0.31694-0.31252 0.06271 0.94447-0.98932
  -3   3   0 7216.21 304.447   6 0.36216-0.59758 0.57666-0.32677 0.78820-0.83266
   3  -3   0 5823.84 239.962   4 0.17817 0.05783-0.06869-0.18208 0.99752-0.95281
   3   3   0 5957.66 309.127   7 0.22639 0.00895 0.02274 0.22743 0.99907-0.95414
   3  -3   0 6231.98 344.720   9-0.08920 0.32452-0.31972 0.06957-0.94327 0.98785
  -3   3   0 6508.85 213.731   8-0.32704 0.09172-0.07195 0.32218-0.98730 0.94270
  -4  -3   0 2303.52 230.261   4 0.05030-0.36389-0.38469 0.13503 0.91417-0.97388
   4  -3   0 2165.60 131.908   4 0.15688 0.15768-0.12584-0.12502 0.99144-0.93179
   4  -3   0 2286.64 189.911   7 0.28332 0.03057 0.03348-0.28364 0.99484-0.93535
  -4   3   0 2448.50 167.861   8-0.30776-0.00606-0.06421 0.31443-0.99053 0.93101
   4   3   0 2351.15 218.910   6 0.21911 0.09490 0.04712 0.20311 0.99847-0.93860
   4   3   0 2387.13 220.823   7 0.23687 0.07696 0.02471 0.22545 0.99856-0.93872
  -4  -3   0 2225.96 128.150   9-0.18486-0.12911-0.09017-0.16013-0.99598 0.93612
  -4   3   0 2233.97 161.634   1-0.18597-0.12765 0.08860 0.16142-0.99600 0.93660
  -4  -3   0 2214.54 221.226   8-0.23008-0.08376-0.03331-0.21680-0.99863 0.93881
   4  -3   0 2199.58 217.427   9-0.05593 0.36971-0.39209 0.14194-0.91238 0.97187
   5   3   0 476.645 59.3111   3 0.34601 0.04639-0.11016 0.36008 0.98045-0.90572
   5  -3   0 649.734 132.137   9-0.02062 0.41287-0.46501 0.21488-0.87316 0.94757
  -5   3   0 421.377 70.8322   1-0.17155-0.22045 0.16358 0.08648-0.98629 0.91199
   5   3   0 411.422 101.774   6 0.22837 0.16414 0.07466 0.17556 0.99647-0.92167
  -5  -3   0 625.706 133.790   8-0.24972-0.14256-0.04109-0.20904-0.99730 0.92258
   5   3   0 460.204 110.560   7 0.25761 0.13470 0.02862 0.22153 0.99720-0.92244
  -5  -3   0 461.462 49.2354   9-0.12613-0.26635-0.23510-0.01523-0.97031 0.89554
   5  -3   0 392.471 46.6728   4 0.09092 0.30219-0.29095 0.04013 0.95213-0.87757
   5  -3   0 490.099 104.775   7 0.29920 0.09315 0.03648-0.28668 0.99301-0.91859
  -5   3   0 542.218 94.5237   8-0.31993-0.07237-0.06909 0.31931-0.98855 0.91411
  -5  -3   0 427.324 106.942   4 0.01658-0.40859-0.45824 0.20869 0.87531-0.94987
  -6   3   0 322.283 102.355   2-0.27507-0.19566 0.05057 0.19970-0.99484 0.90556
  -6   3   0 364.999 100.029   8-0.34360-0.12720-0.07861 0.32883-0.98413 0.89476
   6   3   0 279.182 62.3265   3 0.37335 0.09751-0.13480 0.38472 0.97199-0.88233
   6   3   0 345.109 107.682   6 0.24131 0.22968 0.11407 0.13613 0.99209-0.90237
  -6  -3   0 395.077 125.042   4-0.01900-0.45142-0.53176 0.28230 0.82727-0.91667
  -6  -3   0 313.372 105.505   8-0.27476-0.19599-0.05103-0.19911-0.99491 0.90528
   6   3   0 219.318 86.3177   7 0.28394 0.18685 0.03359 0.21654 0.99478-0.90509
   6  -3   0 273.037 96.1258   9 0.01635 0.45436-0.53727 0.28713-0.82513 0.91446
   6  -3   0 282.025 98.6506   7 0.32373 0.14707 0.04114-0.29135 0.98958-0.90025
   7  -3   0 284.366 130.294   3 0.30008 0.24976-0.06942-0.18092 0.99103-0.88656
   7   3   0 207.533 109.755   7 0.31365 0.23561 0.03923 0.21089 0.99108-0.88646
  -7   3   0 395.502 117.454   8-0.37273-0.17655-0.09040 0.34061-0.97760 0.87331
  -7  -3   0 303.812 129.302   8-0.30319-0.24600-0.06238-0.18777-0.99122 0.88668
   7  -3   0 155.443 104.033   7 0.35287 0.19638 0.04670-0.29693 0.98458-0.88032
  -7   3   0 145.742 104.318   2-0.29657-0.25259 0.07705 0.17322-0.99087 0.88668
   7  -3   0 123.740 85.4625   9 0.05474 0.49444-0.60783 0.35768-0.76774 0.87198
   7   3   0 202.877 107.168   6 0.25709 0.29237 0.16373 0.08647 0.98403-0.87939
  -8   3   0 711.986 187.414   2-0.32093-0.30669 0.10748 0.14278-0.98476 0.86568
  -8  -3   0 664.555 166.480   8-0.33394-0.29371-0.07473-0.17545-0.98602 0.86657
  -8   3   0 709.438 155.063   8-0.40492-0.22284-0.10350 0.35371-0.96895 0.84974
   8   3   0 612.663 159.398   6 0.27504 0.35287 0.22262 0.02754 0.97068-0.85112
   8  -3   0 896.312 226.699   3 0.32676 0.30162-0.09297-0.15734 0.98543-0.86598
   8  -3   0 626.512 159.676   7 0.38474 0.24296 0.05279-0.30305 0.97788-0.85870
   8   3   0 658.072 186.985   7 0.34556 0.28218 0.04530 0.20479 0.98593-0.86638
  -9   3   0 -40.175 75.9797   2-0.34745-0.35863 0.14118 0.10910-0.97606 0.84208
   9   3   0 0.65909 72.2423   7 0.37900 0.32722 0.05169 0.19839 0.97918-0.84470
   9  -3   0 208.406 118.790   3 0.35546 0.35143-0.11864-0.13163 0.97772-0.84330
  -9   3   0 -102.64 110.341   8-0.43898-0.26727-0.11745 0.36767-0.95807 0.82393
  -9  -3   0 -107.12 77.0808   8-0.36631-0.33980-0.08780-0.16238-0.97914 0.84478
   9  -3   0 211.958 116.591   7 0.41838 0.28778 0.05926-0.30953 0.96938-0.83528
  10   3   0 104.199 199.853   7 0.41350 0.37119 0.05832 0.19174 0.97071-0.82129
  10  -3   0 602.781 303.603   3 0.38570 0.39969-0.14605-0.10417 0.96760-0.81820
  10  -3   0 186.859 185.257   7 0.45322 0.33140 0.06599-0.31627 0.95894-0.80991
 -10  -3   0 168.613 126.537   8-0.39988-0.38470-0.10144-0.14876-0.97041 0.82114
 -10   3   0 155.964 120.162   2-0.37561-0.40891 0.17767 0.07262-0.96429 0.81541
  11  -3   0 17.4060 144.083   3 0.41714 0.44675-0.17497-0.07519 0.95476-0.79036
 -11   3   0 -34.219 138.257   5-0.42800-0.43453 0.13781 0.11225-0.95819 0.79482
  11  -3   0 -191.06 167.515   7 0.48891 0.37416 0.07292-0.32323 0.94642-0.78246
   0  -4   0 3186.13 141.964   8-0.55717 0.55697-0.16677-0.16672-0.90467 0.90456
   0   4   0 2983.99 200.776   2-0.36739 0.36740 0.16694 0.16692-0.96801 0.96823
   0  -4   0 2895.17 185.734   3 0.40813-0.40843-0.16664-0.16677 0.95869-0.95881
   0   4   0 2836.52 219.071   1-0.17088 0.17098 0.16691 0.16682-0.98572 0.98596
   0   4   0 2976.19 226.175   6 0.25802-0.25807 0.16672 0.16678 0.98345-0.98322
   0   4   0 2994.24 155.597   5-0.47521 0.47520 0.16686 0.16686-0.93838 0.93860
   0  -4   0 2901.62 225.043   9-0.15449 0.15438-0.16681-0.16680-0.98553 0.98531
   0  -4   0 3078.82 235.029   4 0.14112-0.14067-0.16684-0.16693 0.98475-0.98494
   1  -4   0 -49.629 65.2895   4 0.15125-0.07223-0.14062-0.19331 0.98926-0.97449
  -1   4   0 -26.229 41.6371   2-0.31640 0.23792 0.10178 0.23204-0.98603 0.97134
  -1  -4   0 16.5244 32.4843   8-0.36949 0.29089-0.08909-0.24437-0.97838 0.96329
   1   4   0 40.1246 64.7641   6 0.24285-0.16438 0.11882 0.21473 0.99145-0.97629
   1  -4   0 55.4131 60.6689   9-0.13739 0.21574-0.20833-0.12525-0.97696 0.99165
   1  -4   0 -6.6606 40.2247   3 0.33211-0.25382-0.09774-0.23586 0.98412-0.96936
  -1   4   0 -25.342 44.7963   6 0.28076-0.35931 0.24200 0.09143 0.96536-0.98003
  -1  -4   0 88.8134 53.0669   3 0.55271-0.63149-0.30594-0.02724 0.86592-0.88083
  -1   4   0 -30.358 59.4042   1-0.17730 0.09895 0.13441 0.19923-0.99077 0.97611
   1   4   0 14.5894 35.4248   2-0.45335 0.53184 0.28274 0.05117-0.91588 0.93102
  -1  -4   0 13.6439 53.0762   9-0.16652 0.08795-0.13688-0.19674-0.99043 0.97528
   1   4   0 143.375 52.4849   7 0.46101-0.38272 0.06750 0.26603 0.95637-0.94118
   2  -4   0 2586.95 206.346   4 0.15485 0.00272-0.13118-0.20290 0.99068-0.96096
   2  -4   0 2823.36 112.249   7 0.65959-0.50257 0.10669-0.44011 0.85590-0.82638
   2   4   0 2528.87 232.296   6 0.23453-0.07755 0.09331 0.24028 0.99462-0.96454
   2   4   0 2522.49 171.667   7 0.33913-0.18233 0.04408 0.28948 0.98707-0.95699
  -2   4   0 2642.76 218.365   1-0.18027 0.02350 0.11895 0.21460-0.99278 0.96323
   2  -4   0 2461.20 214.435   3 0.29486-0.13796-0.06484-0.26887 0.99196-0.96227
  -2  -4   0 2634.01 190.587   8-0.30166 0.14465-0.06176-0.27167-0.99145 0.96142
  -2  -4   0 2507.93 193.821   9-0.17211 0.01506-0.12279-0.21085-0.99237 0.96230
  -2   4   0 2660.09 203.183   6 0.31080-0.46784 0.34988-0.01654 0.92693-0.95649
   2  -4   0 2546.55 232.093   9-0.11619 0.27301-0.25833-0.07522-0.96382 0.99343
  -3   4   0 2912.21 211.542   6 0.34551-0.58099 0.49366-0.16040 0.84953-0.89394
  -3  -4   0 2563.53 250.265   4 0.08351-0.31858-0.30848-0.02476 0.94595-0.99087
  -3   4   0 2730.26 219.296   1-0.17945-0.05572 0.12322 0.21026-0.99225 0.94781
  -3  -4   0 2690.18 193.389   9-0.16898-0.06653-0.13068-0.20299-0.99131 0.94632
  -3   4   0 2727.68 260.825   2-0.27785 0.04247 0.05397 0.27979-0.99440 0.94990
   3  -4   0 2786.50 159.435   7 0.44532-0.20987 0.06446-0.39792 0.96146-0.91697
   3   4   0 2824.98 212.548   7 0.30157-0.06628 0.03693 0.29663 0.99271-0.94772
   3  -4   0 2556.69 246.547   9-0.09157 0.32685-0.31442-0.01912-0.94525 0.98977
   3  -4   0 2768.85 204.342   4 0.14968 0.08646-0.14470-0.18950 0.98861-0.94393
  -3  -4   0 2763.19 226.747   8-0.27921 0.04378-0.05280-0.28064-0.99441 0.94946
   3   4   0 2451.85 240.164   6 0.23213 0.00337 0.08600 0.24761 0.99539-0.95038
  -3   4   0 2928.41 109.248   8-0.64178 0.40654-0.20311 0.53681-0.84815 0.80345
  -4   4   0 587.999 74.6669   8-0.47458 0.16081-0.13216 0.46585-0.94467 0.88514
   4   4   0 550.869 118.933   6 0.23464 0.07936 0.09365 0.23996 0.99458-0.93464
  -4  -4   0 655.110 123.756   8-0.27840-0.03546-0.05248-0.28097-0.99450 0.93464
   4  -4   0 578.254 129.422   9-0.06408 0.37783-0.37468 0.04116-0.92050 0.97994
  -4  -4   0 609.660 136.622   4 0.05760-0.37114-0.36825 0.03517 0.92172-0.98152
   4  -4   0 652.293 98.8008   7 0.39168-0.07778 0.05412-0.38762 0.97625-0.91683
  -4   4   0 606.249 104.313   1-0.17414-0.13943 0.15056 0.18288-0.98840 0.92907
  -4   4   0 631.368 131.997   2-0.27750-0.03633 0.05354 0.28019-0.99446 0.93505
   4   4   0 581.270 108.904   7 0.29595 0.01784 0.03587 0.29770 0.99341-0.93350
   4  -4   0 585.448 90.1026   4 0.13152 0.18318-0.19134-0.14294 0.97981-0.92017
  -4  -4   0 659.553 91.4668   9-0.15290-0.16111-0.17072-0.16300-0.98482 0.92490
   5  -4   0 6567.04 281.411   4 0.09058 0.30268-0.29175-0.04255 0.95186-0.87727
  -5  -4   0 6437.54 249.472   9-0.11383-0.27867-0.26380-0.06995-0.96219 0.88735
  -5  -4   0 6145.09 412.999   8-0.28956-0.10274-0.05693-0.27653-0.99312 0.91836
   5  -4   0 6229.68 426.474   9-0.03412 0.42634-0.43759 0.10406-0.88893 0.96329
  -5   4   0 6766.65 329.320   1-0.16290-0.22905 0.20585 0.12762-0.97816 0.90396
  -5   4   0 6990.24 314.157   8-0.43712 0.04484-0.11669 0.45038-0.95871 0.88428
  -5   4   0 5920.78 427.945   2-0.28489-0.10738 0.06262 0.27110-0.99318 0.91887
  -5  -4   0 6032.38 430.800   4 0.02914-0.42111-0.43128 0.09835 0.89056-0.96521
   5   4   0 6073.64 401.119   7 0.30578 0.08650 0.03773 0.29582 0.99216-0.91733
   5  -4   0 6209.11 340.223   7 0.38246 0.00988 0.05235-0.38589 0.97840-0.90405
   5   4   0 6213.77 420.083   6 0.24122 0.15129 0.11382 0.21980 0.99213-0.91726
  -5  -4   0 6654.95 237.752   5-0.48542 0.09288 0.17322-0.50654-0.93348 0.85889
  -6   4   0 1.05755 46.7160   2-0.29792-0.17280 0.07873 0.25499-0.99057 0.90135
  -6  -4   0 -31.534 65.5275   4-0.00155-0.46883-0.49623 0.16343 0.85173-0.94122
   6  -4   0 -11.177 43.9908   7 0.39194 0.07885 0.05417-0.38772 0.97619-0.88692
  -6   4   0 9.17021 45.8215   8-0.43581-0.03497-0.11615 0.44983-0.95916 0.86981
   6   4   0 -34.499 66.5098   6 0.25110 0.21990 0.14467 0.18893 0.98747-0.89767
   6  -4   0 -22.422 66.2286   9-0.00204 0.47273-0.50185 0.16833-0.84991 0.93918
  -6  -4   0 15.5300 54.4474   8-0.30801-0.16274-0.06430-0.26917-0.99049 0.90082
   6   4   0 42.7633 62.1867   7 0.32423 0.14653 0.04124 0.29231 0.98951-0.89975
   6  -4   0 1.69916 48.3938   3 0.30275 0.16852-0.07176-0.26206 0.99054-0.90104
   7  -4   0 3334.38 371.740   3 0.32204 0.22780-0.08879-0.24501 0.98653-0.88206
  -7   4   0 3153.16 354.735   2-0.31515-0.23401 0.10023 0.23348-0.98637 0.88225
   7  -4   0 3469.22 374.116   9 0.03190 0.51724-0.56642 0.23289-0.80280 0.90700
   7   4   0 2950.73 340.364   7 0.34801 0.20124 0.04577 0.28777 0.98548-0.88079
  -7  -4   0 3186.67 355.921   8-0.33121-0.21798-0.07362-0.25987-0.98654 0.88195
   7  -4   0 3471.74 331.348   7 0.41103 0.13822 0.05784-0.39141 0.97137-0.86718
   7   4   0 3317.03 333.900   6 0.26365 0.28582 0.18493 0.14865 0.97970-0.87499
  -8   4   0 71.1285 99.8903   2-0.33560-0.29202 0.12606 0.20766-0.98022 0.86120
   8   4   0 -254.70 149.993   7 0.37528 0.25244 0.05097 0.28254 0.98001-0.86039
  -8  -4   0 -66.306 110.968   8-0.35770-0.26994-0.08431-0.24921-0.98112 0.86163
   8  -4   0 220.257 116.244   3 0.34464 0.28372-0.10893-0.22484 0.98083-0.86139
   8   4   0 2.22161 72.1467   6 0.27834 0.34961 0.23373 0.09982 0.96769-0.84805
   8  -4   0 38.9016 91.7922   7 0.43574 0.19196 0.06260-0.39620 0.96439-0.84528
  -9   4   0 932.256 253.132   2-0.35853-0.34754 0.15545 0.17826-0.97175 0.83784
  -9  -4   0 443.329 179.073   8-0.38654-0.31956-0.09601-0.23752-0.97408 0.83968
   9  -4   0 753.646 237.889   3 0.36977 0.33714-0.13156-0.20218 0.97319-0.83877
   9  -4   0 510.321 165.863   7 0.46401 0.24214 0.06808-0.40169 0.95536-0.82132
   9   4   0 623.740 218.139   7 0.40497 0.30123 0.05667 0.27682 0.97295-0.83839
  10  -4   0 37.6597 107.216   7 0.49467 0.28993 0.07404-0.40767 0.94421-0.79525
 -10   4   0 47.0516 141.193   2-0.38343-0.40110 0.18792 0.14580-0.96053 0.81172
  10   4   0 133.060 160.901   7 0.43642 0.34826 0.06274 0.27075 0.96419-0.81469
  10  -4   0 164.333 148.187   3 0.39683 0.38860-0.15624-0.17745 0.96333-0.81392
 -10  -4   0 11.4017 116.623   8-0.41713-0.36743-0.10849-0.22506-0.96526 0.81596
 -11   4   0 593.576 270.775   2-0.40987-0.45310 0.22312 0.11062-0.94607 0.78238
   0   5   0 25.0216 38.6719   5-0.54155 0.54156 0.20860 0.20860-0.90234 0.90261
   0  -5   0 26.6897 28.8795   8-0.65406 0.65379-0.20847-0.20840-0.83836 0.83830
   0   5   0 -10.966 27.6963   2-0.39909 0.39909 0.20868 0.20865-0.95229 0.95258
   0   5   0 -22.519 30.3116   6 0.27078-0.27086 0.20839 0.20849 0.97429-0.97398
   0  -5   0 -3.8348 29.5552   3 0.45270-0.45309-0.20828-0.20848 0.93710-0.93721
   0   5   0 -26.372 35.9522   1-0.16231 0.16243 0.20865 0.20851-0.97756 0.97787
   0  -5   0 -22.476 40.7877   9-0.13732 0.13718-0.20851-0.20850-0.97692 0.97663
   1  -5   0 460.492 99.5713   3 0.38300-0.30481-0.14359-0.27337 0.96859-0.95383
   1   5   0 350.097 52.7843   7 0.62090-0.54267 0.09892 0.31797 0.88154-0.86621
  -1  -5   0 350.314 84.1897   9-0.14560 0.06700-0.18852-0.22851-0.98131 0.96611
  -1  -5   0 376.548 66.9637   3 0.56927-0.64816-0.32283-0.09368 0.85033-0.86521
  -1   5   0 322.504 85.9362   1-0.16732 0.08900 0.18452 0.23255-0.98251 0.96792
  -1  -5   0 418.742 105.658   4 0.11318-0.19113-0.23709-0.17995 0.96864-0.98379
  -1   5   0 391.526 93.9326   6 0.28889-0.36747 0.27015 0.14666 0.95681-0.97141
  -1  -5   0 296.836 62.4172   8-0.46526 0.38659-0.12829-0.28852-0.94838 0.93329
   1   5   0 367.909 105.204   6 0.25817-0.17972 0.16720 0.24974 0.98336-0.96814
   1   5   0 397.340 80.5734   2-0.46855 0.54703 0.30418 0.11320-0.90316 0.91836
   1  -5   0 311.889 99.1280   9-0.12436 0.20269-0.23927-0.17771-0.96920 0.98384
  -2   5   0 999.236 155.161   1-0.16938 0.01265 0.17436 0.24261-0.98440 0.95492
  -2  -5   0 1005.07 175.687   4 0.09775-0.25423-0.27461-0.14225 0.95753-0.98760
  -2   5   0 1027.30 155.902   2-0.32703 0.17010 0.11517 0.30208-0.98296 0.95342
   2   5   0 1056.42 140.185   2-0.56535 0.72235 0.45085-0.03342-0.78532 0.81542
   2   5   0 1078.64 126.216   7 0.45557-0.29885 0.06644 0.35050 0.95817-0.92800
   2   5   0 886.634 156.168   6 0.25075-0.09378 0.14357 0.27341 0.98765-0.95750
  -2   5   0 1052.74 152.704   6 0.31227-0.46933 0.35547 0.06126 0.92451-0.95401
   2  -5   0 1138.51 184.931   9-0.10747 0.26426-0.27845-0.13851-0.95763 0.98719
   2  -5   0 1016.77 152.998   3 0.34399-0.18719-0.10835-0.30874 0.98101-0.95133
  -2  -5   0 999.061 134.719   8-0.38208 0.22502-0.09420-0.32259-0.97525 0.94520
  -2  -5   0 971.338 147.645   9-0.14814-0.00893-0.18233-0.23473-0.98257 0.95244
  -3  -5   0 2744.95 245.020   8-0.34600 0.11052-0.07959-0.33720-0.98363 0.93866
   3  -5   0 3213.33 159.665   7 0.68484-0.44935 0.11178-0.52857 0.83719-0.79284
   3   5   0 2664.85 283.946   6 0.24799-0.01249 0.13487 0.28213 0.98907-0.94399
  -3  -5   0 2575.10 276.786   4 0.07895-0.31391-0.31919-0.09749 0.94197-0.98695
  -3   5   0 2939.01 247.575   6 0.33948-0.57501 0.46653-0.04990 0.86671-0.91107
   3   5   0 2793.15 224.007   7 0.39110-0.15587 0.05401 0.36295 0.97639-0.93132
  -3   5   0 2831.02 280.898   2-0.31352 0.07814 0.09818 0.31905-0.98680 0.94236
   3  -5   0 2553.43 281.959   9-0.08722 0.32247-0.32413-0.09281-0.94160 0.98608
   3  -5   0 2619.87 237.980   4 0.12650 0.10977-0.20398-0.21365 0.97698-0.93230
  -3   5   0 2815.29 258.451   1-0.16823-0.06690 0.18001 0.23690-0.98336 0.93900
  -3  -5   0 2780.39 230.131   9-0.14329-0.09227-0.19414-0.22294-0.98013 0.93507
   3  -5   0 2495.54 262.203   3 0.32490-0.08949-0.09132-0.32585 0.98586-0.94125
   4  -5   0 15.0274 51.8138   9-0.06404 0.37777-0.37476-0.04216-0.92047 0.97986
   4  -5   0 89.4432 47.7641   4 0.11028 0.20457-0.24421-0.17349 0.96666-0.90702
  -4  -5   0 84.5867 55.5823   9-0.12818-0.18586-0.23026-0.18685-0.97158 0.91160
  -4   5   0 13.0868 20.9347   6 0.36674-0.68070 0.60263-0.18609 0.76594-0.82513
  -4   5   0 112.861 80.8827   2-0.30987-0.00397 0.09361 0.32359-0.98775 0.92840
   4  -5   0 140.724 89.6101   3 0.31914-0.00513-0.08623-0.33100 0.98718-0.92761
   4   5   0 158.452 86.6177   7 0.36787-0.05415 0.04956 0.36741 0.98159-0.92160
  -4  -5   0 62.7298 57.6857   8-0.33438 0.02048-0.07490-0.34189-0.98594 0.92605
  -4   5   0 42.6436 35.2041   1-0.16335-0.15016 0.20367 0.21322-0.97863 0.91939
   4   5   0 110.105 64.8165   6 0.24928 0.06472 0.13893 0.27807 0.98842-0.92841
   4  -5   0 74.4717 39.8730   7 0.54536-0.23143 0.08396-0.50077 0.92250-0.86318
  -4  -5   0 99.8155 58.1062   4 0.05717-0.37063-0.36923-0.04728 0.92128-0.98115
   5  -5   0 850.670 178.490   9-0.03828 0.43047-0.42902 0.01211-0.89359 0.96790
  -5  -5   0 765.356 168.974   4 0.03278-0.42469-0.42337 0.00704 0.89480-0.96953
   5  -5   0 772.995 170.584   3 0.32266 0.06996-0.08935-0.32791 0.98638-0.91186
   5  -5   0 859.626 137.354   7 0.49682-0.10446 0.07446-0.49130 0.94338-0.86912
   5   5   0 684.992 157.554   6 0.25404 0.13846 0.15400 0.26300 0.98584-0.91090
  -5  -5   0 728.634 149.221   8-0.33701-0.05532-0.07596-0.34084-0.98544 0.91064
  -5   5   0 769.170 173.184   2-0.31358-0.07871 0.09825 0.31894-0.98679 0.91253
   5   5   0 610.114 123.494   7 0.36540 0.02682 0.04908 0.36789 0.98210-0.90719
  -6   5   0 47.2673 85.6554   2-0.32288-0.14785 0.10994 0.30723-0.98420 0.89504
   6  -5   0 117.491 47.3353   7 0.48367-0.01288 0.07190-0.48877 0.94838-0.85919
  -6  -5   0 116.003 63.5905   8-0.34863-0.12213-0.08064-0.33617-0.98308 0.89337
   6   5   0 108.794 81.3329   7 0.37481 0.09591 0.05088 0.36608 0.98011-0.89027
  -6  -5   0 39.7253 106.186   4 0.00604-0.47639-0.48046 0.06427 0.86183-0.95141
   6  -5   0 56.4061 77.6671   9-0.01023 0.48088-0.48576 0.06885-0.86037 0.94960
   6   5   0 10.4986 77.6847   6 0.26175 0.20926 0.17873 0.23826 0.98102-0.89116
   6  -5   0 25.9110 78.9197   3 0.33283 0.13838-0.09838-0.31888 0.98394-0.89445
  -7   5   0 18.8673 90.2517   2-0.33650-0.21268 0.12721 0.28996-0.97992 0.87586
   7   5   0 123.927 82.4872   6 0.27189 0.27760 0.21210 0.20487 0.97337-0.86858
   7  -5   0 61.2899 58.8722   9 0.01989 0.52923-0.54398 0.12708-0.82015 0.92430
  -7  -5   0 255.101 126.407   8-0.36627-0.18293-0.08778-0.32905-0.97915 0.87453
   7  -5   0 9.49160 79.7509   3 0.34792 0.20187-0.11187-0.30539 0.97992-0.87545
   7   5   0 74.1971 77.3681   7 0.39165 0.15755 0.05411 0.36283 0.97626-0.87150
  -7  -5   0 131.445 122.530   4-0.02284-0.52592-0.53945 0.12339 0.82166-0.92609
   8   5   0 232.336 137.495   7 0.41345 0.21423 0.05830 0.35864 0.97072-0.85103
   8  -5   0 118.575 103.639   9 0.05192 0.57567-0.60279 0.18588-0.77223 0.89131
  -8  -5   0 264.590 144.043   8-0.38816-0.23950-0.09666-0.32019-0.97365 0.85412
  -8   5   0 316.519 163.679   2-0.35353-0.27410 0.14899 0.26816-0.97375 0.85479
   8  -5   0 360.572 155.184   3 0.36675 0.26161-0.12882-0.28841 0.97419-0.85475
   8   5   0 277.131 130.623   6 0.28407 0.34390 0.25337 0.16357 0.96203-0.84231
  -9  -5   0 -56.792 86.7236   8-0.41312-0.29297-0.10685-0.31002-0.96650 0.83207
   9   5   0 -91.895 144.301   7 0.43871 0.26745 0.06318 0.35375 0.96350-0.82886
   9  -5   0 -111.79 144.215   3 0.38845 0.31846-0.14855-0.26864 0.96658-0.83215
  -9   5   0 -182.06 152.888   2-0.37325-0.33283 0.17458 0.24258-0.96538 0.83154
 -10   5   0 -235.23 169.032   2-0.39514-0.38938 0.20343 0.21374-0.95446 0.80572
 -10  -5   0 -277.16 179.217   8-0.44042-0.34413-0.11804-0.29884-0.95757 0.80824
  10   5   0 552.926 277.036   7 0.46650 0.31815 0.06856 0.34835 0.95450-0.80493
  10  -5   0 270.644 190.501   3 0.41242 0.37303-0.17061-0.24655 0.95685-0.80741
   0  -6   0 1494.23 211.461   4 0.10782-0.10710-0.25023-0.25044 0.96495-0.96517
   0   6   0 1683.75 156.817   5-0.60598 0.60599 0.25034 0.25034-0.85632 0.85665
   0  -6   0 1538.74 209.136   9-0.11968 0.11952-0.25021-0.25020-0.96616 0.96582
   0  -6   0 1524.20 170.003   3 0.49615-0.49664-0.24991-0.25018 0.91048-0.91054
   0   6   0 1337.86 202.319   6 0.28311-0.28320 0.25006 0.25020 0.96302-0.96264
  -1  -6   0 236.908 111.199   4 0.09894-0.17676-0.27177-0.22872 0.95843-0.97361
  -1   6   0 181.812 77.7445   1-0.15738 0.07910 0.23183 0.26866-0.97220 0.95769
   1  -6   0 191.030 82.9981   4 0.11246-0.03317-0.23888-0.26193 0.96815-0.95341
  -1  -6   0 183.288 75.3131   9-0.12544 0.04681-0.23671-0.26371-0.96988 0.95462
  -1  -6   0 145.023 50.1308   3 0.59483-0.67381-0.34937-0.15047 0.82361-0.83841
  -1   6   0 118.276 48.2447   2-0.38922 0.31074 0.19556 0.30520-0.95759 0.94302
   1   6   0 99.5515 74.3182   6 0.27232-0.19388 0.21351 0.28680 0.97302-0.95772
  -1  -6   0 105.880 50.5926   8-0.56090 0.48216-0.16836-0.33182-0.90254 0.88747
  -1   6   0 84.7682 63.9820   6 0.29812-0.37672 0.30297 0.19722 0.94554-0.96007
  -1   6   0 119.446 34.1992   5-0.49454 0.41598 0.17891 0.32164-0.92892 0.91437
   1   6   0 133.052 66.4463   2-0.48872 0.56720 0.33318 0.16770-0.88430 0.89955
   1  -6   0 204.050 72.0497   3 0.43154-0.35346-0.18838-0.31191 0.94803-0.93323
   1  -6   0 210.279 73.4927   9-0.10961 0.18791-0.27353-0.22685-0.95919 0.97377
   2  -6   0 1215.63 194.882   4 0.11201 0.04584-0.23998-0.26097 0.96784-0.93814
  -2   6   0 1155.43 182.023   6 0.31711-0.47420 0.37414 0.12597 0.91611-0.94553
   2   6   0 1187.16 164.520   2-0.56640 0.72339 0.45257 0.04834-0.78356 0.81373
  -2   6   0 1468.25 205.444   2-0.36300 0.20605 0.16122 0.33950-0.96990 0.94042
  -2  -6   0 1149.84 202.040   4 0.08639-0.24275-0.30168-0.19863 0.94839-0.97850
  -2   6   0 1311.61 203.273   1-0.15882 0.00214 0.22512 0.27528-0.97381 0.94442
  -2  -6   0 1322.49 170.145   8-0.46602 0.30888-0.12861-0.37153-0.94809 0.91804
   2   6   0 1148.30 197.824   6 0.26562-0.10867 0.19138 0.30898 0.97828-0.94806
   2  -6   0 1266.40 206.858   9-0.09584 0.25261-0.30484-0.19552-0.94871 0.97822
   2  -6   0 1080.20 170.734   3 0.39181-0.23512-0.15164-0.34882 0.96530-0.93560
  -2  -6   0 1322.60 181.370   9-0.12602-0.03108-0.23534-0.26511-0.97025 0.94006
   2   6   0 1222.22 137.073   7 0.58380-0.42715 0.09155 0.40876 0.90305-0.87273
   3   6   0 -29.064 54.8466   7 0.49263-0.25747 0.07364 0.42671 0.94500-0.89982
  -3  -6   0 74.8499 84.5135   4 0.07064-0.30551-0.33847-0.16167 0.93441-0.97944
   3  -6   0 -28.490 45.6497   3 0.36960-0.13431-0.13141-0.36916 0.97325-0.92862
   3   6   0 -19.113 61.6355   6 0.26270-0.02723 0.18186 0.31852 0.98036-0.93521
  -3  -6   0 -35.369 53.7984   9-0.12014-0.11544-0.24914-0.25135-0.96647 0.92135
  -3   6   0 -6.5857 52.2164   2-0.34814 0.11274 0.14206 0.35863-0.97581 0.93142
   3  -6   0 -0.3253 47.0798   4 0.10525 0.13118-0.25649-0.24456 0.96312-0.91843
   3  -6   0 54.5440 98.4025   9-0.07885 0.31408-0.34262-0.15772-0.93431 0.97873
  -3   6   0 -75.656 71.3869   1-0.15743-0.07765 0.23159 0.26875-0.97226 0.92799
  -3  -6   0 83.3708 62.0914   8-0.41805 0.18251-0.10886-0.39126-0.96497 0.91999
  -3   6   0 86.5056 43.9999   6 0.33913-0.57470 0.46500 0.03501 0.86765-0.91193
  -4  -6   0 708.134 164.937   4 0.05202-0.36539-0.38082-0.11912 0.91598-0.97590
   4   6   0 699.166 138.565   7 0.45099-0.13733 0.06555 0.43481 0.95966-0.89957
  -4   6   0 720.009 135.370   6 0.36196-0.67596 0.57557-0.07566 0.78910-0.84822
   4   6   0 639.600 154.247   6 0.26319 0.05081 0.18344 0.31694 0.98003-0.91994
  -4   6   0 856.221 184.311   2-0.34209 0.02825 0.13433 0.36634-0.97800 0.91871
   4  -6   0 787.085 187.284   9-0.05899 0.37269-0.38557-0.11474-0.91547 0.97481
   4  -6   0 561.714 157.878   3 0.35989-0.04597-0.12264-0.37800 0.97637-0.91679
  -4  -6   0 712.589 126.617   9-0.10572-0.20834-0.28245-0.21807-0.95634 0.89630
  -4  -6   0 571.035 126.830   8-0.39634 0.08239-0.10000-0.40013-0.97141 0.91150
   5  -6   0 -116.19 89.5600   9-0.03654 0.42872-0.43260-0.06772-0.89166 0.96592
  -5  -6   0 22.4326 82.6486   4 0.03082-0.42267-0.42762-0.07215 0.89253-0.96733
   5  -6   0 -10.464 93.4758   3 0.35927 0.03326-0.12208-0.37861 0.97656-0.90203
  -5  -6   0 -140.24 90.1966   8-0.39065-0.00171-0.09768-0.40245-0.97298 0.89815
   5   6   0 -35.699 89.7929   6 0.26668 0.12583 0.19484 0.30556 0.97750-0.90249
  -5   6   0 88.9375 81.6331   2-0.34293-0.04937 0.13540 0.36525-0.97770 0.90351
   5   6   0 -14.058 46.5135   7 0.43527-0.04311 0.06251 0.43786 0.96453-0.88953
  -6  -6   0 11.4538 71.7732   8-0.39542-0.07538-0.09962-0.40052-0.97167 0.88193
   6   6   0 196.133 110.122   7 0.43473 0.03592 0.06241 0.43797 0.96469-0.87477
  -6  -6   0 137.278 100.688   4 0.00728-0.47757-0.47787-0.02174 0.86345-0.95311
   6  -6   0 159.256 89.6766   3 0.36543 0.10570-0.12763-0.37306 0.97462-0.88512
  -6   6   0 51.1135 99.5246   2-0.34918-0.12157 0.14341 0.35722-0.97541 0.88632
   6   6   0 180.521 111.571   6 0.27276 0.19825 0.21498 0.28539 0.97265-0.88270
   6  -6   0 20.3064 69.9806   9-0.01178 0.48241-0.48270-0.01761-0.86230 0.95149
  -7  -6   0 177.855 135.433   8-0.40736-0.14187-0.10449-0.39567-0.96823 0.86359
   7   6   0 41.8769 73.8468   7 0.44385 0.10529 0.06417 0.43620 0.96192-0.85706
  -7  -6   0 47.8065 139.038   4-0.01845-0.53028-0.53065 0.03120 0.82807-0.93258
   7   6   0 106.642 105.557   6 0.28107 0.26843 0.24307 0.25727 0.96506-0.86018
  -7   6   0 213.024 147.476   2-0.35974-0.18945 0.15702 0.34358-0.97125 0.86726
   7  -6   0 169.345 106.515   9 0.01514 0.53396-0.53497 0.03468-0.82681 0.93092
   7  -6   0 189.440 122.585   3 0.37675 0.17298-0.13790-0.36281 0.97082-0.86634
   8   6   0 322.467 178.825   7 0.45950 0.16814 0.06720 0.43316 0.95688-0.83709
   8   6   0 379.610 174.370   6 0.29127 0.33671 0.27850 0.22183 0.95407-0.83426
  -8  -6   0 199.087 169.729   4-0.04619-0.58095-0.58514 0.08582 0.78568-0.90502
   8  -6   0 443.658 174.831   9 0.04404 0.58351-0.58864 0.08834-0.78451 0.90354
  -8   6   0 443.682 161.208   2-0.37379-0.25385 0.17528 0.32532-0.96513 0.84625
   8  -6   0 479.855 213.916   3 0.39208 0.23623-0.15188-0.34880 0.96519-0.84573
  -8  -6   0 557.675 186.096   8-0.42443-0.20322-0.11148-0.38870-0.96294 0.84339
   9   6   0 218.079 181.695   7 0.47973 0.22639 0.07113 0.42923 0.94982-0.81509
  -9  -6   0 94.4508 133.844   8-0.44532-0.26079-0.12006-0.38013-0.95584 0.82139
  -9   6   0 178.088 141.785   2-0.39065-0.31543 0.19745 0.30314-0.95685 0.82307
  -9   6   0 514.714 205.214   5-0.43140-0.27455 0.13989 0.36010-0.95691 0.82340
   9  -6   0 169.863 138.342   3 0.41057 0.29631-0.16889-0.33177 0.95765-0.82319
  10   6   0 219.929 250.657   7 0.50334 0.28127 0.07573 0.42461 0.94080-0.79113
   0  -7   0 23.6071 38.6920   3 0.53839-0.53898-0.29153-0.29189 0.87840-0.87837
   0  -7   0 17.6792 68.8415   9-0.10156 0.10137-0.29192-0.29189-0.95320 0.95280
   0  -7   0 101.668 93.3788   4 0.09051-0.08965-0.29192-0.29219 0.95180-0.95202
   0   7   0 -36.749 42.7694   2-0.46006 0.46005 0.29217 0.29212-0.91041 0.91082
   0   7   0 -61.667 76.1848   6 0.29499-0.29509 0.29172 0.29191 0.94956-0.94910
  -1  -7   0 685.922 175.819   4 0.08358-0.16128-0.30830-0.27564 0.94601-0.96120
   1   7   0 471.005 143.167   6 0.28558-0.20717 0.25861 0.32508 0.96043-0.94506
  -1   7   0 610.332 149.743   6 0.30774-0.38636 0.33836 0.24520 0.93178-0.94623
   1  -7   0 608.515 167.441   9-0.09366 0.17194-0.30975-0.27402-0.94695 0.96148
  -1  -7   0 640.502 140.810   9-0.10546 0.02680-0.28304-0.30080-0.95615 0.94082
  -1   7   0 655.998 136.067   2-0.42282 0.34433 0.24063 0.34361-0.93797 0.92346
   1  -7   0 559.971 119.270   3 0.47815-0.40018-0.23253-0.35111 0.92223-0.90738
   1  -7   0 836.090 187.208   4 0.09352-0.01409-0.28475-0.29951 0.95422-0.93947
   1   7   0 651.323 131.624   2-0.51105 0.58953 0.36610 0.21825-0.86041 0.87573
  -2   7   0 2141.83 275.053   6 0.32359-0.48072 0.39981 0.18366 0.90372-0.93305
  -2  -7   0 1767.00 273.946   4 0.07325-0.22948-0.33245-0.25133 0.93683-0.96695
   2  -7   0 1788.39 260.687   4 0.09192 0.06609-0.28856-0.29582 0.95294-0.92322
   2  -7   0 1437.94 252.694   9-0.08227 0.23902-0.33508-0.24867-0.93734 0.96679
  -2   7   0 1871.94 261.028   2-0.39742 0.24048 0.20646 0.37774-0.95322 0.92380
  -2  -7   0 1773.59 260.796   9-0.10463-0.05250-0.28493-0.29893-0.95553 0.92527
   2  -7   0 1762.29 226.774   3 0.43837-0.28180-0.19478-0.38904 0.94464-0.91490
  -2  -7   0 1796.84 213.828   8-0.55197 0.39476-0.16457-0.41893-0.90759 0.87757
   2   7   0 1899.64 276.811   6 0.27949-0.12256 0.23770 0.34604 0.96659-0.93629
  -2   7   0 1763.47 219.546   5-0.49597 0.33887 0.17980 0.40410-0.92819 0.89882
  -3  -7   0 2987.09 352.498   4 0.05986-0.29462-0.36315-0.22044 0.92399-0.96904
   3  -7   0 3117.55 331.209   4 0.08473 0.15186-0.30561-0.27887 0.94699-0.90228
  -3  -7   0 3362.45 327.646   9-0.09802-0.13759-0.29993-0.28396-0.95044 0.90526
   3  -7   0 2691.25 352.042   9-0.06781 0.30301-0.36666-0.21708-0.92410 0.96847
   3   7   0 3173.00 365.282   6 0.27655-0.04108 0.22769 0.35606 0.96933-0.92411
  -3   7   0 3426.76 354.052   6 0.34184-0.57744 0.47704 0.10634 0.86021-0.90441
  -3   7   0 3017.08 341.111   2-0.38176 0.14635 0.18573 0.39842-0.96135 0.91703
   3  -7   0 2956.73 332.998   3 0.41399-0.17881-0.17206-0.41188 0.95616-0.91149
  -3  -7   0 3252.05 306.706   8-0.49387 0.25826-0.14018-0.44329-0.93649 0.89151
  -3   7   0 2516.73 275.746   5-0.45661 0.22103 0.15536 0.42842-0.94672 0.90246
   4  -7   0 10.6122 95.4952   9-0.05056 0.36425-0.40341-0.18032-0.90685 0.96614
  -4   7   0 -19.040 57.5894   6 0.36096-0.67502 0.57018 0.01310 0.79351-0.85254
   4  -7   0 70.2893 100.220   4 0.07042 0.24474-0.33897-0.24559 0.93421-0.87451
  -4   7   0 3.70975 92.6963   2-0.37397 0.06011 0.17552 0.40860-0.96505 0.90582
   4  -7   0 43.8681 61.7982   3 0.40118-0.08738-0.16024-0.42380 0.96159-0.90199
   4   7   0 17.7906 72.6702   6 0.27649 0.03750 0.22748 0.35629 0.96939-0.90923
  -4  -7   0 -25.024 68.4061   4 0.04373-0.35700-0.39932-0.18409 0.90711-0.96707
  -4  -7   0 58.1051 59.1520   9-0.08402-0.23007-0.33123-0.25269-0.93886 0.87875
  -4   7   0 188.510 89.0548   5-0.43538 0.12136 0.14231 0.44135-0.95539 0.89624
  -4  -7   0 41.6115 75.6836   8-0.46294 0.14894-0.12733-0.45613-0.94929 0.88937
   5  -7   0 89.9264 122.462   3 0.39712-0.00470-0.15651-0.42759 0.96322-0.88866
  -5  -7   0 1.20242 89.9117   4 0.02510-0.41686-0.44002-0.14320 0.88574-0.96059
  -5   7   0 37.8357 99.2832   5-0.42675 0.03431 0.13705 0.44653-0.95866 0.88463
  -5   7   0 24.9947 70.1600   2-0.37255-0.01976 0.17367 0.41044-0.96570 0.89157
   5   7   0 46.2095 107.586   6 0.27902 0.11348 0.23609 0.34768 0.96704-0.89194
   5  -7   0 189.957 110.536   9-0.03081 0.42295-0.44438-0.13933-0.88514 0.95936
  -5  -7   0 114.326 98.1966   8-0.44934 0.05692-0.12172-0.46174-0.95439 0.87956
   6   7   0 629.241 164.918   6 0.28388 0.18714 0.25270 0.33106 0.96223-0.87220
   6  -7   0 665.287 195.481   3 0.39982 0.07123-0.15898-0.42515 0.96214-0.87261
  -6  -7   0 251.035 196.116   4 0.00415-0.47438-0.48440-0.09864 0.85935-0.94907
  -6   7   0 671.064 195.758   2-0.37630-0.09446 0.17857 0.40551-0.96396 0.87494
   6  -7   0 954.135 237.461   9-0.00873 0.47934-0.48871-0.09498-0.85848 0.94762
  -6   7   0 728.647 194.473   5-0.42723-0.04364 0.13734 0.44617-0.95848 0.86959
  -6  -7   0 827.838 204.794   8-0.44739-0.02345-0.12091-0.46255-0.95510 0.86535
   7  -7   0 68.5287 115.679   9 0.01549 0.53358-0.53564-0.04805-0.82632 0.93039
   7  -7   0 20.7161 93.3161   3 0.40778 0.14187-0.16631-0.41783 0.95884-0.85433
  -7  -7   0 13.3138 77.3051   4-0.01895-0.52973-0.53167-0.05120 0.82734-0.93191
  -7   7   0 93.4221 160.916   5-0.43442-0.11485 0.14172 0.44172-0.95576 0.85202
  -7   7   0 161.444 131.781   2-0.38427-0.16492 0.18904 0.39502-0.96010 0.85618
   7   7   0 15.7837 95.8954   6 0.29075 0.25877 0.27664 0.30710 0.95469-0.84972
  -7  -7   0 51.4202 86.5948   8-0.45361-0.09564-0.12348-0.45999-0.95282 0.84817
   7   7   0 21.1874 97.4246   7 0.50394 0.04514 0.07585 0.50794 0.94056-0.83560
  -8  -7   0 99.5093 180.310   4-0.04410-0.58302-0.58110-0.00162 0.78904-0.90847
  -8  -7   0 289.840 168.515   8-0.46580-0.16188-0.12852-0.45498-0.94817 0.82862
  -8   7   0 135.243 92.8490   2-0.39571-0.23193 0.20419 0.37986-0.95415 0.83534
  -8   7   0 529.792 185.927   5-0.44670-0.18096 0.14926 0.43414-0.95088 0.83229
   8   7   0 444.137 169.569   7 0.51286 0.11472 0.07759 0.50619 0.93691-0.81702
   8   7   0 337.118 162.855   6 0.29935 0.32866 0.30741 0.27629 0.94390-0.82400
   8  -7   0 565.931 225.121   9 0.04174 0.58579-0.58444 0.00076-0.78804 0.90704
   8  -7   0 436.099 196.554   3 0.41992 0.20833-0.17756-0.40658 0.95350-0.83400
  -9  -7   0 183.209 184.123   8-0.48245-0.22367-0.13543-0.44809-0.94141 0.80695
   9   7   0 -185.15 116.719   7 0.52757 0.17850 0.08048 0.50331 0.93061-0.79578
   9   7   0 -170.84 153.633   6 0.30941 0.39707 0.34466 0.23902 0.92916-0.79431
   0  -8   0 5290.72 486.118   4 0.07275-0.07173-0.33361-0.33396 0.93637-0.93658
   0   8   0 5532.30 425.999   2-0.48923 0.48921 0.33392 0.33386-0.88379 0.88426
   0  -8   0 4828.34 462.602   9-0.08294 0.08272-0.33362-0.33358-0.93792 0.93746
   0   8   0 5093.50 466.846   6 0.30641-0.30653 0.33339 0.33363 0.93382-0.93327
   1  -8   0 534.109 136.962   3 0.52302-0.44516-0.27625-0.39073 0.89085-0.87589
  -1  -8   0 578.025 174.656   9-0.08538 0.00669-0.32822-0.33902-0.94003 0.92465
   1  -8   0 310.788 111.866   4 0.07448 0.00511-0.32959-0.33811 0.93796-0.92319
  -1   8   0 675.703 153.886   6 0.31741-0.39605 0.37533 0.29161 0.91556-0.92991
   1   8   0 515.251 152.548   6 0.29812-0.21971 0.30295 0.36413 0.94555-0.93008
  -1  -8   0 559.317 176.002   4 0.06736-0.14491-0.34602-0.32139 0.93131-0.94649
   1  -8   0 592.456 190.594   9-0.07674 0.15499-0.34724-0.31995-0.93241 0.94688
   1   8   0 567.523 134.110   2-0.53421 0.61269 0.40132 0.26650-0.83174 0.84711
  -1   8   0 447.828 145.219   2-0.45499 0.37650 0.28504 0.38269-0.91457 0.90012
  -2   8   0 -42.728 72.7994   2-0.43052 0.27356 0.25114 0.41653-0.93280 0.90346
  -2  -8   0 31.8958 62.0594   4 0.05876-0.21487-0.36564-0.30160 0.92289-0.95301
  -2   8   0 28.2265 60.1226   6 0.33088-0.48803 0.42967 0.23719 0.88804-0.91728
  -2  -8   0 -147.52 110.548   9-0.08344-0.07371-0.33250-0.33476-0.93836 0.90805
   2   8   0 62.8727 97.6033   6 0.29256-0.13563 0.28304 0.38407 0.95255-0.92216
   2  -8   0 8.76912 74.0012   4 0.07197 0.08619-0.33540-0.33242 0.93565-0.90590
   2  -8   0 87.6166 108.114   9-0.06725 0.22397-0.36785-0.29931-0.92357 0.95296
   2  -8   0 -5.9508 79.3882   3 0.48366-0.32721-0.23783-0.42933 0.91875-0.88892
   3  -8   0 273.462 120.893   3 0.45783-0.22277-0.21314-0.45417 0.93426-0.88953
   3  -8   0 257.136 106.454   4 0.06439 0.17235-0.35281-0.31511 0.92846-0.88371
  -3  -8   0 212.519 104.297   9-0.07624-0.15939-0.34833-0.31897-0.93196 0.88671
   3   8   0 309.065 128.040   6 0.28964-0.05417 0.27275 0.39439 0.95596-0.91065
  -3  -8   0 329.822 137.636   4 0.04728-0.28193-0.39145-0.27561 0.91095-0.95602
   3  -8   0 518.213 159.735   9-0.05482 0.29000-0.39443-0.27271-0.91125 0.95557
  -3   8   0 444.780 160.255   6 0.34625-0.58188 0.49708 0.16968 0.84727-0.89138
  -3   8   0 310.137 120.607   2-0.41443 0.17901 0.22927 0.43838-0.94330 0.89904
  -3   8   0 323.172 102.632   5-0.51686 0.28124 0.19294 0.47433-0.91696 0.87278
  -4   8   0 83.9636 72.0487   2-0.40538 0.09151 0.21708 0.45051-0.94872 0.88957
  -4  -8   0 10.1026 78.3531   4 0.03316-0.34634-0.42254-0.24432 0.89524-0.95522
  -4   8   0 93.4065 103.203   5-0.49092 0.17684 0.17665 0.49050-0.93076 0.87170
   4  -8   0 -123.06 85.0018   9-0.03971 0.35337-0.42605-0.24107-0.89518 0.95442
   4  -8   0 87.3941 103.168   3 0.44262-0.12892-0.19877-0.46866 0.94247-0.88280
   4   8   0 103.296 127.466   6 0.28920 0.02479 0.27120 0.39595 0.95647-0.89622
  -5  -8   0 466.055 157.854   8-0.51209 0.11962-0.14779-0.51901-0.92813 0.85332
  -5   8   0 287.679 122.094   5-0.47754 0.08502 0.16831 0.49873-0.93728 0.86335
  -5   8   0 554.490 168.606   2-0.40219 0.00986 0.21281 0.45476-0.95056 0.87650
  -5  -8   0 105.862 143.796   4 0.01663-0.40830-0.45814-0.20855 0.87537-0.95025
   5  -8   0 210.492 83.8989   9-0.02216 0.41428-0.46192-0.20518-0.87500 0.94917
   5  -8   0 252.699 146.598   3 0.43572-0.04340-0.19230-0.47520 0.94597-0.87135
   5   8   0 321.615 187.727   6 0.29103 0.10147 0.27764 0.38951 0.95436-0.87917
  -6  -8   0 829.989 214.234   8-0.50367 0.03278-0.14427-0.52252-0.93207 0.84234
   6  -8   0 687.897 238.100   9-0.00233 0.47292-0.50129-0.16581-0.85028 0.93937
  -6   8   0 508.238 178.940   2-0.40388-0.06689 0.21507 0.45248-0.94959 0.86064
   6   8   0 712.261 219.912   6 0.29491 0.17610 0.29144 0.37570 0.94965-0.85953
   6  -8   0 576.424 218.063   3 0.43543 0.03551-0.19203-0.47553 0.94611-0.85653
  -6  -8   0 210.575 179.250   4-0.00216-0.46801-0.49748-0.16902 0.85091-0.94067
  -6   8   0 614.491 216.159   5-0.47348 0.00252 0.16579 0.50116-0.93919 0.85039
  -7  -8   0 142.818 151.148   4-0.02307-0.52557-0.53989-0.12643 0.82133-0.92596
  -7  -8   0 175.563 126.928   8-0.50428-0.04503-0.14452-0.52228-0.93179 0.82714
   7  -8   0 131.268 131.732   9 0.01962 0.52943-0.54346-0.12362-0.82054 0.92456
   7   8   0 247.298 188.626   6 0.30062 0.24889 0.31205 0.35508 0.94217-0.83711
   7  -8   0 241.092 153.698   3 0.44041 0.10914-0.19670-0.47088 0.94360-0.83903
  -7   8   0 276.686 96.6036   5-0.47647-0.07289 0.16765 0.49923-0.93779 0.83413
  -7   8   0 -124.12 145.722   2-0.40964-0.13957 0.22280 0.44472-0.94621 0.84237
   8  -8   0 249.025 206.775   9 0.04359 0.58392-0.58782-0.07926-0.78520 0.90415
  -8  -8   0 -101.96 102.567   8-0.51157-0.11615-0.14757-0.51925-0.92838 0.80883
  -8  -8   0 96.6016 154.597   4-0.04598-0.58110-0.58473-0.08141 0.78602-0.90550
   8   8   0 -51.516 120.347   6 0.30792 0.32009 0.33905 0.32805 0.93150-0.81150
   0  -9   0 -60.601 79.6028   4 0.05448-0.05332-0.37529-0.37572 0.91854-0.91872
   0  -9   0 -124.28 101.840   9-0.06378 0.06354-0.37532-0.37528-0.92021 0.91969
   0   9   0 -247.92 140.941   6 0.31734-0.31748 0.37505 0.37535 0.91569-0.91504
  -1  -9   0 32.7608 132.599   4 0.05037-0.12778-0.38453-0.36633 0.91424-0.92940
   1   9   0 -127.58 130.571   6 0.30997-0.23159 0.34675 0.40370 0.92827-0.91271
   1  -9   0 94.6245 114.756   4 0.05516 0.02458-0.37376-0.37739 0.91924-0.90443
   1  -9   0 -77.456 83.5006   9-0.05899 0.13722-0.38557-0.36502-0.91547 0.92988
  -1  -9   0 73.5656 81.1127   9-0.06502-0.01369-0.37265-0.37799-0.92142 0.90597
  -1   9   0 38.9614 66.5164   2-0.48583 0.40734 0.32899 0.42221-0.88714 0.87277
  -1   9   0 96.7433 107.278   6 0.32693-0.40559 0.41332 0.33700 0.89680-0.91105
   2  -9   0 -127.65 111.126   3 0.52766-0.37133-0.28084-0.46967 0.88719-0.85725
  -2   9   0 175.629 114.457   6 0.33850-0.49567 0.46222 0.28801 0.86932-0.89846
   2  -9   0 -85.229 136.957   4 0.05189 0.10643-0.38111-0.37015 0.91585-0.88605
  -2  -9   0 -155.28 119.816   4 0.04321-0.19918-0.40048-0.35022 0.90654-0.93665
   2   9   0 9.28532 79.1834   6 0.30489-0.14797 0.32772 0.42277 0.93610-0.90562
  -2  -9   0 30.2119 105.317   9-0.06217-0.09502-0.37879-0.37188-0.91863 0.88825
  -2   9   0 9.07451 79.1047   2-0.46237 0.30540 0.29543 0.45572-0.90848 0.87920
  -3   9   0 289.427 147.227   2-0.44614 0.21071 0.27269 0.47842-0.92149 0.87731
   3  -9   0 383.506 175.485   3 0.50094-0.26600-0.25457-0.49610 0.90717-0.86234
  -3  -9   0 489.362 202.185   4 0.03328-0.26781-0.42227-0.32825 0.89538-0.94044
   3  -9   0 505.205 184.809   4 0.04396 0.19295-0.39882-0.35254 0.90736-0.86255
  -3   9   0 510.757 176.615   6 0.35155-0.58721 0.52221 0.22793 0.82999-0.87399
  -3  -9   0 426.240 163.612   9-0.05442-0.18122-0.39525-0.35546-0.91085 0.86555
   3  -9   0 535.143 226.599   9-0.04031 0.27548-0.42483-0.32571-0.89584 0.94010
   3   9   0 441.530 161.808   6 0.30204-0.06660 0.31725 0.43327 0.94019-0.89478
  -4  -9   0 258.545 183.925   4 0.02085-0.33391-0.44914-0.30119 0.88059-0.94058
  -4   9   0 617.855 216.937   2-0.43619 0.12230 0.25893 0.49214-0.92883 0.86974
   4   9   0 298.450 142.439   6 0.30134 0.01263 0.31469 0.43584 0.94117-0.88083
   4  -9   0 771.585 235.650   9-0.02698 0.34062-0.45216-0.29836-0.88071 0.93990
   4  -9   0 470.289 199.368   3 0.48388-0.17032-0.23804-0.51276 0.91861-0.85885
  -5   9   0 155.297 128.260   2-0.43161 0.03927 0.25263 0.49840-0.93205 0.85807
  -5   9   0 74.5593 122.988   5-0.52982 0.13721 0.20113 0.54939-0.90948 0.83565
   5  -9   0 81.6165 100.405   3 0.47467-0.08247-0.22920-0.52170 0.92438-0.84968
   5   9   0 154.597 159.890   6 0.30264 0.08986 0.31943 0.43111 0.93935-0.86407
   5  -9   0 245.786 149.447   9-0.01128 0.40337-0.48368-0.26683-0.86168 0.93581
  -5  -9   0 3.03829 138.278   4 0.00607-0.39765-0.48040-0.26976 0.86187-0.93677
   6  -9   0 292.292 181.152   3 0.47184-0.00100-0.22647-0.52448 0.92611-0.83644
  -6   9   0 297.945 191.010   2-0.43161-0.03917 0.25263 0.49838-0.93205 0.84317
  -6  -9   0 55.6980 108.014   4-0.01090-0.45918-0.51539-0.23457 0.83884-0.92863
   6   9   0 283.426 185.362   6 0.30576 0.16525 0.33096 0.41957 0.93480-0.84458
   6  -9   0 46.2354 137.797   9 0.00664 0.46391-0.51872-0.23177-0.83842 0.92747
  -6   9   0 167.596 139.793   5-0.52167 0.05064 0.19597 0.55444-0.91423 0.82554
  -7   9   0 11.6286 102.939   5-0.52080-0.02866 0.19542 0.55490-0.91473 0.81119
   0 -10   0 132.080 117.089   4 0.03571-0.03439-0.41698-0.41748 0.89816-0.89830
   0 -10   0 68.7115 78.4546   9-0.04405 0.04380-0.41703-0.41698-0.89992 0.89935
   0  10   0 141.935 153.091   6 0.32775-0.32791 0.41670 0.41707 0.89502-0.89426
  -1 -10   0 162.431 93.4729   4 0.03267-0.10993-0.42362-0.41070 0.89467-0.90979
  -1  10   0 268.095 137.544   6 0.33615-0.41483 0.45202 0.38168 0.87538-0.88952
   1  10   0 76.4781 91.3360   6 0.32118-0.24281 0.39017 0.44365 0.90848-0.89281
   1 -10   0 296.373 166.848   9-0.04046 0.11867-0.42451-0.40948-0.89600 0.91036
   1 -10   0 241.826 155.211   4 0.03549 0.04441-0.41747-0.41713 0.89791-0.88305
  -1 -10   0 31.7906 92.9042   9-0.04427-0.03446-0.41658-0.41747-0.90016 0.88465
   2  10   0 434.843 156.693   6 0.31654-0.15964 0.37192 0.46195 0.91713-0.88655
  -2 -10   0 287.376 173.506   4 0.02672-0.18255-0.43652-0.39764 0.88768-0.91777
  -2 -10   0 281.527 148.791   9-0.04060-0.11660-0.42421-0.40987-0.89616 0.86572
  -2  10   0 167.306 147.001   6 0.34614-0.50334 0.49659 0.33702 0.84759-0.87661
   2 -10   0 335.736 147.371   9-0.03386 0.19053-0.43813-0.39584-0.88863 0.91791
   2 -10   0 337.806 158.459   4 0.03154 0.12695-0.42607-0.40863 0.89336-0.86349
  -2  10   0 333.180 119.338   2-0.49301 0.33603 0.33944 0.49520-0.87997 0.85076
   3  10   0 52.7317 99.7455   6 0.31381-0.07838 0.36137 0.47253 0.92191-0.87640
  -3 -10   0 -165.42 133.709   4 0.01813-0.25252-0.45495-0.37904 0.87724-0.92228
  -3  10   0 39.9855 117.365   2-0.47687 0.24143 0.31607 0.51852-0.89567 0.85156
   3 -10   0 -10.394 101.182   9-0.02454 0.25968-0.45712-0.37682-0.87783 0.92204
  -4  10   0 108.491 130.461   2-0.46632 0.15242 0.30101 0.53353-0.90511 0.84610
   4 -10   0 -186.48 164.861   3 0.52473-0.21130-0.27795-0.55621 0.88950-0.82961
   5 -10   0 -113.97 124.990   3 0.51366-0.12158-0.26702-0.56726 0.89799-0.82316
   0 -11   0 79.5137 157.120   4 0.01638-0.01490-0.45867-0.45925 0.87506-0.87513
   0  11   0 -70.017 100.245   6 0.33761-0.33780 0.45835 0.45878 0.87164-0.87076
   0 -11   0 26.0430 90.8193   9-0.02373 0.02345-0.45874-0.45868-0.87688 0.87625
   1 -11   0 184.470 170.802   4 0.01535 0.06471-0.46084-0.45720 0.87378-0.85884
  -1 -11   0 233.428 169.272   9-0.02304-0.05572-0.46015-0.45730-0.87605 0.86048
  -1  11   0 164.045 128.628   6 0.34497-0.42367 0.49121 0.42586 0.85113-0.86515
 -12   0   1 1000.50 308.887   8-0.55933-0.36194-0.16769 0.16755-0.90344 0.83161
  11   0  -1 120.052 194.921   7 0.53309 0.30953 0.08155-0.08190 0.92815-0.87130
 -11   0   1 201.096 152.599   5-0.53129-0.31148 0.20207-0.20163-0.90860 0.85234
 -11   0   1 -54.000 170.776   8-0.53185-0.31094-0.15608 0.15596-0.91836 0.86145
  10   0  -1 141.344 144.686   7 0.50757 0.25659 0.07656-0.07688 0.93909-0.89717
 -10   0   1 -95.437 86.5740   5-0.50596-0.25841 0.18606-0.18568-0.92295 0.88149
 -10   0   1 -75.924 89.1352   8-0.50638-0.25793-0.14540 0.14527-0.93082 0.88883
  -9   0   1 46.5591 76.0073   8-0.48362-0.20222-0.13591 0.13579-0.94092 0.91385
   9   0  -1 89.1958 78.5287   3 0.48066 0.20506-0.23494 0.23524 0.92066-0.89360
  -9   0   1 18.9472 89.2847   5-0.48330-0.20267 0.17189-0.17156-0.93452 0.90788
   9   0  -1 -135.14 121.598   7 0.48478 0.20091 0.07211-0.07242 0.94797-0.92097
   8   0  -1 851.166 221.819   7 0.46574 0.14148 0.06841-0.06871 0.95477-0.94270
   8   0  -1 1364.48 213.579   3 0.46190 0.14534-0.21700 0.21728 0.93196-0.91985
  -8   0   1 1444.26 193.850   2-0.45829-0.14923 0.28967-0.28953-0.91188 0.89966
  -8   0   1 1180.97 207.711   8-0.46456-0.14280-0.12800 0.12789-0.94866 0.93650
  -8   0   1 1448.26 225.522   5-0.46433-0.14324 0.16012-0.15983-0.94334 0.93155
  -7   0   1 1.88381 43.7237   2-0.44466-0.08440 0.27063-0.27050-0.92262 0.92530
   7   0  -1 49.1823 43.0472   3 0.44823 0.08051-0.20406 0.20433 0.93952-0.94236
  -7   0   1 79.4019 70.3274   8-0.45079-0.07810-0.12231 0.12221-0.95386 0.95662
  -7   0   1 97.4458 64.4704   5-0.45060-0.07857 0.15165-0.15140-0.94927 0.95234
   7   0  -1 -1.9474 67.3605   7 0.45202 0.07673 0.06575-0.06602 0.95933-0.96218
  -6   0   1 95.1219 54.9110   2-0.43820-0.01239 0.26171-0.26158-0.92738 0.94497
   6   0  -1 -11.752 36.6685   7 0.44620 0.00409 0.06463-0.06488 0.96118-0.97896
  -6   0   1 -44.149 60.3886   8-0.44480-0.00561-0.11985 0.11975-0.95602 0.97370
   6   0  -1 -30.866 17.2945   9 0.05090 0.39948-0.60098 0.60094-0.77383 0.75601
  -6   0   1 93.4588 68.4800   5-0.44458-0.00618 0.14796-0.14773-0.95174 0.96970
  -5   0   1 -13.673 16.5305   4 0.06294-0.43477-0.35613 0.35651 0.92704-0.89430
  -5   0   1 22.2369 35.1338   2-0.44268 0.07055 0.26789-0.26778-0.92410 0.95660
   5   0  -1 -1.5874 15.9004   9-0.06026 0.43215-0.38286 0.38286-0.91674 0.88401
  -5   0   1 43.4953 33.1294   8-0.45092 0.07897-0.12237 0.12228-0.95381 0.98640
   5   0  -1 -53.941 42.1819   3 0.44754-0.07579-0.20340 0.20364 0.93988-0.97258
  -5   0   1 18.1682 31.0892   5-0.45053 0.07818 0.15161-0.15141-0.94929 0.98217
   4   0  -1 2625.21 215.546   7 0.47952-0.18617 0.07109-0.07132 0.94990-0.99750
   4   0  -1 2850.91 202.153   3 0.47162-0.17837-0.22626 0.22649 0.92624-0.97384
  -4   0   1 2560.42 205.255   8-0.47701 0.18353-0.13316 0.13308-0.94367 0.99118
  -4   0   1 2614.38 129.279   4 0.18635-0.47987-0.04619 0.04657 0.99890-0.95132
  -4   0   1 2679.79 180.330   2-0.46426 0.17059 0.29810-0.29798-0.90687 0.95431
  -4   0   1 2896.42 205.720   5-0.47604 0.18212 0.16738-0.16721-0.93799 0.98579
   4   0  -1 2561.78 125.150   9-0.18566 0.47908-0.08809 0.08812-0.99616 0.94854
  -3   0   1 -16.708 26.1219   5-0.53536 0.31988 0.20465-0.20450-0.90615 0.96893
   3   0  -1 10.6877 20.4423   7 0.54273-0.32783 0.08344-0.08365 0.92374-0.98624
  -3   0   1 -15.000 26.4150   8-0.53823 0.32322-0.15877 0.15869-0.91503 0.97746
  -3   0   1 -2.1283 9.33480   4 0.30468-0.51987 0.32717-0.32689 0.93632-0.87387
  -3   0   1 4.54134 12.8810   6 0.30487-0.51987 0.32765-0.32750 0.93612-0.87363
   3   0  -1 -9.8260 7.78336   9-0.31125 0.52621 0.28192-0.28190-0.94998 0.88749
   3   0  -1 9.42950 11.7353   3 0.52666-0.31190-0.27985 0.28007 0.88798-0.95045
  -3   0   1 2.59164 14.4762   2-0.51239 0.29719 0.36811-0.36799-0.85887 0.92124
   2   0  -1 855.746 94.4489   7 0.67314-0.53669 0.10942-0.10960 0.84607-0.92347
   2   0  -1 935.314 103.854   3 0.62929-0.49294-0.38632 0.38650 0.78143-0.85874
  -2   0   1 974.946 99.5468   5-0.65244 0.51549 0.28137-0.28125-0.81468 0.89247
  -2   0   1 888.857 95.4208   8-0.66238 0.52584-0.21212 0.21206-0.83146 0.90880
   4   0   1 1569.87 231.920   7-0.12842 0.46284-0.04262 0.04272 0.94830-0.78126
  -5   0  -1 70.2292 51.7774   8 0.03441-0.44705 0.06884-0.06883-0.97227 0.79056
   5   0   1 34.9331 56.5138   7-0.03510 0.44799-0.02568 0.02577 0.97415-0.79220
   6   0   1 285.043 150.078   7 0.04271 0.44864-0.01142 0.01149 0.98892-0.79205
  -6   0  -1 231.840 108.051   8-0.04301-0.44811 0.03941-0.03940-0.98824 0.79162
  -7   0  -1 -51.740 59.7499   8-0.11098-0.45860 0.01325-0.01324-0.99670 0.78515
   7   0   1 98.4513 153.104   7 0.11084 0.45897 0.00116-0.00111 0.99679-0.78500
 -12   1   1 190.433 139.827   5-0.54468-0.37643 0.21060-0.12683-0.90037 0.82935
 -12   1   1 -62.351 103.299   8-0.57733-0.34397-0.17534 0.25863-0.89278 0.82099
  11  -1  -1 92.1851 167.725   7 0.54459 0.29803 0.08381-0.16754 0.92287-0.86606
 -11  -1   1 640.562 212.020   8-0.52184-0.32092-0.15188 0.06834-0.92340 0.86646
 -11   1   1 405.844 152.748   8-0.55047-0.29234-0.16393 0.24723-0.90842 0.85156
 -11   1   1 645.345 190.587   5-0.51761-0.32509 0.19341-0.10970-0.91654 0.86030
  11   1  -1 397.786 273.423   7 0.52947 0.31316 0.08085 0.00220 0.92977-0.87285
  10   1  -1 226.467 154.330   7 0.50409 0.26007 0.07588 0.00719 0.94050-0.89851
  10  -1  -1 74.9819 119.045   3 0.48392 0.28040-0.23807 0.15505 0.91858-0.87660
 -10  -1   1 -0.6404 84.2720   5-0.52993-0.23451 0.20121-0.28410-0.90941 0.86795
 -10  -1   1 376.900 183.261   8-0.49643-0.26786-0.14125 0.05772-0.93535 0.89331
  10  -1  -1 104.234 119.732   7 0.51972 0.24443 0.07894-0.16264 0.93402-0.89215
 -10   1   1 -15.228 90.4952   8-0.52584-0.23850-0.15355 0.23685-0.92142 0.87947
 -10   1   1 61.8097 85.2192   5-0.49246-0.27184 0.17761-0.09395-0.92998 0.88854
   9  -1  -1 324.731 139.285   3 0.46173 0.22411-0.21683 0.13378 0.93206-0.90504
   9   1  -1 180.043 170.864   7 0.48141 0.20428 0.07146 0.01162 0.94921-0.92216
  -9  -1   1 253.597 109.379   8-0.47362-0.21219-0.13176 0.04824-0.94506 0.91794
  -9   1   1 362.237 116.859   2-0.45180-0.23413 0.28057-0.19699-0.91711 0.89004
   9  -1  -1 195.464 173.458   7 0.49779 0.18790 0.07465-0.15833 0.94300-0.91606
  -9   1   1 140.260 92.1656   5-0.46987-0.21605 0.16355-0.07993-0.94085 0.91424
  -9  -1   1 346.553 133.718   5-0.50843-0.17761 0.18762-0.27058-0.92162 0.89497
  -9   1   1 188.545 88.1063   8-0.50420-0.18164-0.14449 0.22779-0.93183 0.90480
   8  -1  -1 448.969 137.851   3 0.44281 0.16453-0.19894 0.11587 0.94237-0.93033
   8   1  -1 295.589 152.253   7 0.46243 0.14479 0.06777 0.01533 0.95589-0.94377
   8  -1  -1 177.099 128.584   7 0.47990 0.12732 0.07117-0.15483 0.94976-0.93774
  -8   1   1 341.032 140.307   8-0.48677-0.12060-0.13722 0.22053-0.93958 0.92747
  -8   1   1 413.286 122.521   2-0.43320-0.17428 0.25482-0.17125-0.93094 0.91877
  -8  -1   1 501.283 147.320   8-0.45434-0.15301-0.12378 0.04027-0.95255 0.94034
   8   1  -1 562.675 129.510   3 0.49692 0.11021-0.25066 0.33424 0.90995-0.89778
  -8   1   1 259.790 101.064   5-0.45072-0.15681 0.15173-0.06813-0.94921 0.93746
  -8  -1   1 422.786 125.677   5-0.49119-0.11644 0.17682-0.25983-0.93062 0.91882
   7  -1  -1 55.7961 61.9940   3 0.42838 0.10044-0.18544 0.10235 0.94955-0.95246
   7   1  -1 16.2076 45.1925   7 0.44864 0.08010 0.06510 0.01801 0.96041-0.96321
   7  -1  -1 -11.545 48.5348   7 0.46781 0.06095 0.06881-0.15247 0.95405-0.95696
  -7   1   1 47.5710 46.2709   2-0.41877-0.11025 0.23514-0.15157-0.94058 0.94331
   7  -1  -1 105.981 54.8848   9 0.02822 0.50057-0.55959 0.47617-0.80820 0.80525
  -7  -1   1 37.4994 32.5579   2-0.49429-0.03481 0.34131-0.42463-0.87865 0.88130
  -7   1   1 11.0243 48.8543   8-0.47536-0.05353-0.13249 0.21579-0.94435 0.94716
  -7  -1   1 -3.1109 51.9706   5-0.48016-0.04908 0.16993-0.25299-0.93604 0.93910
  -7  -1   1 -29.493 35.7808   4-0.02857-0.49997-0.55083 0.46796 0.81312-0.81017
   7   1  -1 -88.467 42.1484   6 0.35249 0.17630 0.52678-0.44360 0.82672-0.82948
  -7  -1   1 -4.6888 52.7356   8-0.43999-0.08890-0.11787 0.03437-0.95772 0.96042
  -7   1   1 65.9382 62.1003   5-0.43635-0.09278 0.14291-0.05935-0.95501 0.95812
  -6  -1   1 1354.10 198.193   8-0.43280-0.01762-0.11491 0.03142-0.96018 0.97780
  -6  -1   1 1399.42 142.592   4 0.04294-0.49311-0.40107 0.31821 0.90625-0.88845
  -6  -1   1 1360.78 138.273   2-0.49505 0.04441 0.34242-0.42575-0.87786 0.89543
   6   1  -1 1715.78 160.682   6 0.34357 0.10677 0.48484-0.40167 0.85526-0.87293
   6  -1  -1 1499.96 203.567   7 0.46434-0.01404 0.06814-0.15177 0.95524-0.97307
  -6   1   1 1278.07 172.559   2-0.41019-0.04038 0.22354-0.13998-0.94588 0.96352
   6  -1  -1 1495.30 151.566   9-0.04431 0.49463-0.41650 0.33312-0.90020 0.88234
   6   1  -1 1218.08 149.107   3 0.48616-0.03598-0.24023 0.32377 0.91714-0.93483
   6   1  -1 1424.76 202.380   7 0.44249 0.00779 0.06391 0.01922 0.96234-0.98006
  -6   1   1 1318.83 180.997   8-0.47302 0.02262-0.13152 0.21483-0.94530 0.96303
   6  -1  -1 1427.06 193.690   3 0.42038 0.02993-0.17798 0.09488 0.95329-0.97114
  -6   1   1 1308.01 177.084   5-0.42887-0.02186 0.13834-0.05479-0.95787 0.97586
  -6  -1   1 1556.93 184.128   5-0.47850 0.02767 0.16891-0.25202-0.93682 0.95478
   5   1  -1 192.923 82.4203   7 0.44806-0.07627 0.06499 0.01815 0.96060-0.99323
   5  -1  -1 204.427 69.3462   7 0.47444-0.10261 0.07010-0.15372 0.95173-0.98446
  -5   1   1 161.030 57.3762   2-0.41003 0.03792 0.22333-0.13976-0.94598 0.97853
  -5   1   1 253.926 78.6187   5-0.43168 0.05936 0.14006-0.05651-0.95681 0.98971
  -5   1   1 290.731 87.7634   8-0.48508 0.11316-0.13653 0.21984-0.94030 0.97294
  -5  -1   1 275.737 69.8784   4 0.11522-0.48704-0.23208 0.14916 0.96998-0.93734
  -5  -1   1 311.031 61.7417   2-0.51207 0.13989 0.36763-0.45097-0.85924 0.89173
   5  -1  -1 332.284 71.6209   9-0.11849 0.49034-0.25298 0.16963-0.96537 0.93260
  -5  -1   1 299.336 84.8833   8-0.43646 0.06450-0.11641 0.03293-0.95894 0.99147
  -5  -1   1 420.146 95.2620   5-0.49187 0.11946 0.17724-0.26039-0.93028 0.96315
   5   1  -1 325.380 78.2762   3 0.50152-0.12981-0.25513 0.33864 0.90677-0.93937
   5   1  -1 299.271 68.5132   6 0.33858 0.03331 0.46259-0.37943 0.86910-0.90169
   4   1  -1 13705.1 499.651   7 0.47282-0.17949 0.06979 0.01337 0.95230-0.99984
   4  -1  -1 13857.4 486.148   7 0.50732-0.21394 0.07651-0.16010 0.93919-0.98684
   4  -1  -1 13364.6 384.563   9-0.19326 0.48665-0.06828-0.01508-0.99770 0.95004
  -4   1   1 13707.4 474.120   5-0.45067 0.15678 0.15170-0.06815-0.94923 0.99707
   4  -1  -1 13933.9 485.984   3 0.43757-0.14432-0.19403 0.11093 0.94504-0.99272
  -4  -1   1 15915.2 407.770   2-0.55497 0.26128 0.43403-0.51738-0.80194 0.84936
   4   1  -1 14620.1 425.970   6 0.33907-0.04564 0.46471-0.38155 0.86782-0.91532
  -4   1   1 14365.4 477.512   2-0.42230 0.12865 0.23992-0.15635-0.93831 0.98578
   4   1  -1 14676.3 417.014   3 0.54358-0.25035-0.29674 0.38022 0.87397-0.92147
  -4  -1   1 13514.7 390.560   4 0.18712-0.48058-0.04407-0.03897 0.99899-0.95149
  -4  -1   1 13613.4 421.558   5-0.53079 0.23680 0.20175-0.28495-0.90890 0.95672
  -4  -1   1 13401.7 483.289   8-0.45750 0.16400-0.12509 0.04161-0.95136 0.99881
  -4   1   1 13460.2 441.906   8-0.52152 0.22807-0.15174 0.23507-0.92357 0.97112
   3  -1  -1 161.385 47.6682   3 0.47601-0.26127-0.23048 0.14740 0.92356-0.98612
  -3   1   1 153.278 46.8802   2-0.45311 0.23792 0.28240-0.19882-0.91607 0.97848
   3   1  -1 97.1405 41.4192   7 0.53109-0.31623 0.08116 0.00201 0.92905-0.99149
   3  -1  -1 111.974 39.7261   7 0.58104-0.36612 0.09100-0.17457 0.90453-0.96709
   3   1  -1 94.9774 26.9481   1-0.23185 0.44718-0.21117 0.29454-0.97645 0.91436
   3   1  -1 131.731 32.8311   2-0.36124 0.57644 0.15896-0.07557-0.97063 0.90833
   3   1  -1 159.283 43.3341   6 0.34632-0.13135 0.49740-0.41425 0.84706-0.90946
   3  -1  -1 133.731 39.2531   9-0.26567 0.48060 0.13527-0.21864-0.98753 0.92498
   3   1  -1 134.555 42.3933   3 0.62953-0.41471-0.38658 0.46999 0.78111-0.84350
  -3  -1   1 159.395 41.8667   5-0.61483 0.39932 0.25619-0.33944-0.84899 0.91181
  -3  -1   1 132.021 45.1998   8-0.50809 0.29304-0.14612 0.06264-0.93002 0.99240
  -3   1   1 111.041 37.7368   8-0.60155 0.38659-0.18571 0.26905-0.87725 0.93971
  -3  -1   1 112.871 36.4891   4 0.25566-0.47073 0.15942-0.24263 0.98485-0.92243
   2  -1  -1 36683.6 613.118   7 0.72844-0.59196 0.12068-0.20423 0.80065-0.87811
  -2   1   1 35075.6 610.422   2-0.51034 0.37363 0.36504-0.28145-0.86123 0.93857
   2   1  -1 36667.4 621.741   6 0.36028-0.22377 0.56654-0.48340 0.79645-0.87374
   2   1  -1 34398.7 612.925   7 0.65052-0.51412 0.10486-0.02168 0.86223-0.93956
   2  -1  -1 35617.9 586.365   9-0.32984 0.46632 0.34809-0.43149-0.92399 0.84653
  -2  -1   1 34445.4 597.109   8-0.61076 0.47418-0.18968 0.10621-0.87097 0.94827
   4  -1   1 625.115 133.011   7-0.12868 0.46308-0.04267-0.04064 0.94821-0.78124
   4   1   1 914.759 158.503   7-0.10903 0.44344-0.03912 0.12263 0.95441-0.78731
  -4  -1  -1 1251.94 170.218   8 0.09507-0.42922 0.09164-0.17497-0.95503 0.78822
   5   1   1 444.872 134.219   7-0.02206 0.43496-0.02330 0.10679 0.97705-0.79504
  -5  -1  -1 437.555 120.036   8 0.01391-0.42652 0.06108-0.14442-0.97715 0.79542
  -5   1  -1 292.474 86.8037   8 0.04025-0.45293 0.07104 0.01235-0.97079 0.78912
   5  -1   1 530.111 153.621   7-0.03179 0.44467-0.02508-0.05823 0.97490-0.79302
   6   1   1 1159.97 246.820   7 0.05154 0.43982-0.00980 0.09327 0.99021-0.79327
  -6  -1  -1 1343.94 207.881   8-0.05603-0.43506 0.03442-0.11777-0.99027 0.79361
   6  -1   1 1629.73 286.683   7 0.04805 0.44328-0.01044-0.07289 0.98971-0.79291
  -6   1  -1 1411.59 212.730   8-0.04343-0.44772 0.03925 0.04414-0.98831 0.79172
   7  -1   1 823.367 274.054   7 0.11743 0.45237 0.00239-0.08574 0.99729-0.78558
   7   1   1 622.577 221.455   7 0.11675 0.45308 0.00226 0.08120 0.99724-0.78539
  -7   1  -1 933.496 196.969   8-0.11549-0.45413 0.01150 0.07189-0.99708 0.78556
  -7  -1  -1 1001.07 207.595   8-0.11874-0.45081 0.01024-0.09360-0.99733 0.78575
  -8   1  -1 177.156 108.978   8-0.18002-0.46807-0.01363 0.09702-0.99986 0.77342
   8  -1   1 386.190 236.021   7 0.17997 0.46829 0.01404-0.09740 0.99986-0.77323
  11   2  -1 144.529 198.077   7 0.53335 0.30928 0.08160 0.08485 0.92804-0.87106
  11  -2  -1 70.7473 155.189   7 0.56434 0.27825 0.08770-0.25479 0.91324-0.85649
  11  -2  -1 120.618 136.507   3 0.49816 0.34475-0.25186 0.08548 0.90910-0.85216
 -11  -2   1 -173.37 164.217   8-0.51959-0.32315-0.15093-0.01599-0.92452 0.86752
 -11   2   1 73.3464 111.521   8-0.57865-0.26418-0.17590 0.34264-0.89197 0.83514
 -11   2   1 -53.726 148.641   5-0.51207-0.33061 0.18992-0.02293-0.91963 0.86342
  10  -2  -1 190.611 101.500   3 0.47460 0.28982-0.22913 0.06271 0.92443-0.88248
  10   2  -1 142.657 161.855   7 0.50883 0.25534 0.07681 0.08966 0.93857-0.89653
  10  -2  -1 -10.167 123.716   7 0.54102 0.22312 0.08310-0.25018 0.92453-0.88272
 -10   2   1 20.2364 73.5328   8-0.55593-0.20840-0.16625 0.33299-0.90537 0.86346
 -10  -2   1 322.234 147.123   8-0.49495-0.26932-0.14063-0.02628-0.93601 0.89392
 -10   2   1 296.692 134.784   5-0.48783-0.27647 0.17472-0.00777-0.93230 0.89091
 -10   2   1 173.516 112.532   2-0.45949-0.30488 0.29136-0.12433-0.91089 0.86898
   9   2  -1 122.060 144.502   7 0.48712 0.19856 0.07257 0.09391 0.94709-0.91998
   9  -2  -1 33.0016 76.0148   7 0.52102 0.16466 0.07919-0.24625 0.93346-0.90657
  -9   2   1 286.659 109.002   2-0.43907-0.24683 0.26291-0.09589-0.92675 0.89973
   9  -2  -1 235.671 120.570   3 0.45345 0.23247-0.20898 0.04253 0.93670-0.90973
  -9  -2   1 65.3940 82.0813   5-0.54775-0.13840 0.21255-0.37882-0.89842 0.87181
  -9  -2   1 242.118 147.703   8-0.47295-0.21285-0.13148-0.03541-0.94533 0.91815
  -9   2   1 262.464 121.929   8-0.53682-0.14903-0.15817 0.32491-0.91578 0.88879
  -9   2   1 276.213 137.831   5-0.46614-0.21977 0.16124 0.00567-0.94253 0.91598
   8   2  -1 527.776 181.552   7 0.46924 0.13796 0.06909 0.09741 0.95355-0.94137
  -8   2   1 1057.94 189.248   2-0.42155-0.18591 0.23890-0.07189-0.93880 0.92668
   8  -2  -1 688.264 214.149   7 0.50564 0.10157 0.07618-0.24321 0.93987-0.92791
  -8  -2   1 1012.00 175.254   5-0.53448-0.07326 0.20410-0.37042-0.90668 0.89491
  -8   2   1 1074.83 200.533   5-0.44786-0.15966 0.14997 0.01693-0.95040 0.93869
  -8  -2   1 1034.55 197.561   8-0.45450-0.15285-0.12385-0.04304-0.95249 0.94023
   8  -2  -1 1163.74 213.956   3 0.43544 0.17195-0.19204 0.02557 0.94611-0.93411
  -8   2   1 1135.42 198.356   8-0.52275-0.08460-0.15226 0.31900-0.92295 0.91089
   7  -2  -1 236.667 114.366   3 0.42170 0.10717-0.17922 0.01272 0.95269-0.95565
   7   2  -1 202.215 84.4120   7 0.45672 0.07201 0.06666 0.09985 0.95780-0.96054
   7  -2  -1 162.193 103.569   7 0.49690 0.03186 0.07448-0.24149 0.94335-0.94630
  -7  -2   1 50.7034 82.2026   4 0.01916-0.54767-0.45276 0.28666 0.87851-0.87564
  -7   2   1 145.961 89.5002   2-0.40785-0.12115 0.22040-0.05340-0.94728 0.95006
   7  -2  -1 275.862 85.7324   9-0.02143 0.55019-0.46339 0.29662-0.87413 0.87113
   7   2  -1 165.767 77.1851   6 0.33165 0.19720 0.43287-0.26636 0.88628-0.88898
   7   2  -1 93.3330 77.1563   3 0.55180-0.02325-0.30503 0.47180 0.86673-0.86943
  -7  -2   1 229.257 104.227   8-0.44092-0.08796-0.11825-0.04863-0.95739 0.96004
  -7  -2   1 71.1746 63.7454   5-0.52921-0.00013 0.20075-0.36714-0.90984 0.91293
  -7   2   1 237.043 91.1777   8-0.51606-0.01282-0.14945 0.31620-0.92623 0.92909
  -7   2   1 331.079 111.042   5-0.43422-0.09490 0.14161 0.02527-0.95583 0.95900
   6  -2  -1 2784.76 275.362   7 0.49810-0.04780 0.07471-0.24170 0.94288-0.96075
  -6   2   1 2754.29 265.871   2-0.39934-0.05120 0.20902-0.04200-0.95215 0.96985
   6  -2  -1 2250.57 249.544   3 0.41380 0.03653-0.17188 0.00540 0.95624-0.97415
   6  -2  -1 2248.21 212.738   9-0.07802 0.52831-0.34443 0.17767-0.93357 0.91566
   6   2  -1 2589.37 200.308   3 0.56402-0.11392-0.31745 0.48419 0.85541-0.87303
  -6   2   1 2650.47 247.372   8-0.52063 0.07025-0.15137 0.31812-0.92400 0.94177
  -6  -2   1 2714.07 243.862   4 0.07407-0.52423-0.33054 0.16437 0.93758-0.91987
   6   2  -1 2453.79 267.594   7 0.45194-0.00169 0.06574 0.10079 0.95935-0.97702
  -6  -2   1 2610.28 222.105   5-0.53637 0.08544 0.20530-0.37175-0.90553 0.92353
  -6  -2   1 2510.28 273.702   8-0.43428-0.01614-0.11552-0.05135-0.95968 0.97724
  -6   2   1 2332.06 246.618   5-0.42709-0.02365 0.13725 0.02963-0.95853 0.97658
   6   2  -1 2719.05 230.635   6 0.32269 0.12770 0.39621-0.22970 0.90552-0.92314
  -5  -2   1 6654.67 357.428   4 0.12730-0.49909-0.20199 0.03568 0.97744-0.94488
   5  -2  -1 6248.00 366.637   7 0.51503-0.14319 0.07802-0.24498 0.93600-0.96879
   5   2  -1 7316.59 313.387   3 0.60024-0.22858-0.35508 0.52177 0.81748-0.85001
  -5   2   1 6085.31 323.958   8-0.54340 0.17150-0.16095 0.32771-0.91228 0.94496
   5   2  -1 6301.41 328.800   6 0.31716 0.05477 0.37436-0.20785 0.91601-0.94855
  -5   2   1 6193.07 373.662   2-0.39794 0.02585 0.20716-0.04015-0.95293 0.98553
   5  -2  -1 6304.68 381.875   3 0.41416-0.04237-0.17222 0.00574 0.95608-0.98892
   5  -2  -1 6412.56 340.729   9-0.13335 0.50517-0.21799 0.05124-0.97466 0.94185
   5   2  -1 6261.26 384.424   7 0.45892-0.08715 0.06709 0.09944 0.95707-0.98965
  -5  -2   1 6657.02 313.369   5-0.56396 0.19146 0.22297-0.38949-0.88769 0.92062
  -5   2   1 6250.51 373.962   5-0.42937 0.05705 0.13865 0.02825-0.95768 0.99064
  -5  -2   1 6639.45 393.860   8-0.43793 0.06595-0.11702-0.04984-0.95843 0.99091
   4  -2  -1 34.6325 58.2543   9-0.18675 0.48012-0.08526-0.08149-0.99641 0.94870
   4   2  -1 -54.185 56.2058   7 0.48474-0.19144 0.07211 0.09444 0.94798-0.99547
   4   2  -1 253.437 82.8042   1-0.18621 0.48013 0.08729 0.07955-0.99612 0.94897
  -4   2   1 103.231 66.8268   2-0.40649 0.11286 0.21858-0.05156-0.94807 0.99560
   4  -2  -1 151.410 69.4599   7 0.55839-0.26498 0.08652-0.25346 0.91621-0.96392
  -4  -2   1 79.8844 60.3143   4 0.17821-0.47161-0.06858-0.09790 0.99753-0.95009
   4   2  -1 123.692 65.2229   6 0.31611-0.02265 0.37026-0.20375 0.91790-0.96536
  -4  -2   1 89.8882 53.0560   5-0.62679 0.33275 0.26413-0.43073-0.83866 0.88657
  -4   2   1 130.616 69.1152   8-0.59727 0.30387-0.18387 0.35064-0.88010 0.92769
  -4  -2   1 257.254 107.650   8-0.45752 0.16399-0.12509-0.04176-0.95136 0.99875
   4  -2  -1 233.019 51.4227   1-0.22681 0.52074-0.17110 0.00419-0.98454 0.93713
  -3   2   1 -30.075 21.8404   2-0.42905 0.21388 0.24913-0.08209-0.93381 0.99626
  -3  -2   1 12.8553 12.1506   3 0.34273-0.55773-0.10722-0.05964 0.98136-0.91884
   3  -2  -1 -11.965 17.3924   7 0.64851-0.43354 0.10445-0.27137 0.86360-0.92623
   3  -2  -1 4.78653 22.8873   9-0.23720 0.45209 0.05168-0.21844-0.99745 0.93484
   3   2  -1 1.73692 26.0777   6 0.32057-0.10559 0.38777-0.22129 0.90965-0.97202
  -3   2   1 10.0437 11.1473   4 0.13319-0.34834-0.18711 0.35402 0.98072-0.91810
   3   2  -1 12.9003 20.9775   1-0.21420 0.42956-0.08075 0.24752-0.99647 0.93444
  -3  -2   1 -6.7869 28.6757   4 0.22581-0.44077 0.06730-0.23397 0.99709-0.93473
   3   2  -1 -37.911 38.9384   7 0.54258-0.32776 0.08341 0.08313 0.92381-0.98619
   3   2  -1 21.8650 13.5598   9-0.15905 0.37406-0.15551 0.32231-0.98751 0.92506
  -3   2   1 -5.0162 11.2270   6 0.13317-0.34831-0.18745 0.35445 0.98065-0.91793
  -3  -2   1 -20.619 30.8704   8-0.50316 0.28808-0.14406-0.02280-0.93231 0.99463
  -3   2   1 57.9599 47.2411   8-0.70511 0.49020-0.23106 0.39785-0.79235 0.85482
   2   2  -1 49.5592 33.6011   7 0.65681-0.52045 0.10613 0.06042 0.85786-0.93511
   2   2  -1 51.7689 25.6074   6 0.33128-0.19477 0.43133-0.26487 0.88713-0.96439
  -2   2   1 54.6092 29.1665   6 0.05889-0.19552-0.36563 0.53269 0.92291-0.84521
   2  -2  -1 59.4618 35.7965   9-0.28316 0.41960 0.18936-0.35615-0.97675 0.89923
  -2  -2   1 53.8224 24.5590   4 0.26879-0.40524 0.20203-0.36892 0.97583-0.89849
   2   2  -1 33.3425 24.7012   1-0.23409 0.37093-0.22996 0.39661-0.97206 0.89517
  -2   2   1 44.0577 27.1768   5-0.55939 0.42245 0.22002-0.05306-0.89079 0.96860
  -2  -2   1 64.8424 35.3860   8-0.59286 0.45623-0.18199 0.01513-0.88298 0.96025
   2  -2  -1 24.1272 10.7629   8-0.61300 0.74943-0.19064 0.02393-0.86941 0.79207
  -1   2   1 8543.15 396.746   5-0.68673 0.62838 0.30490-0.13792-0.77819 0.87098
   1  -2  -1 8657.87 345.074   3 0.60702-0.54925-0.36229 0.19597 0.80955-0.90182
   1   2  -1 8246.57 329.336   6 0.34787-0.28983 0.50470-0.33827 0.84215-0.93430
   1  -2  -1 8658.99 343.639   9-0.32283 0.38082 0.32260-0.48942-0.93471 0.84227
   0  -2   1 -5.8413 13.3275   9 0.05613-0.03575-0.61029 0.44352-0.76552 0.87272
   0   2  -1 6.33052 13.8277   6 0.36758-0.38798 0.60765-0.44122 0.76146-0.86848
   4  -2   1 2549.26 301.713   7-0.10706 0.44144-0.03876-0.12794 0.95500-0.78810
   4   2   1 2465.84 267.469   7-0.07247 0.40690-0.03248 0.19942 0.96487-0.79770
  -4  -2  -1 2189.34 236.204   8 0.05078-0.38491 0.07501-0.24169-0.96803 0.80117
   5  -2   1 654.778 179.213   7-0.01015 0.42300-0.02112-0.14558 0.97955-0.79774
   5   2   1 523.889 145.293   7 0.00578 0.40711-0.01821 0.18512 0.98267-0.80059
  -5  -2  -1 553.341 138.062   8-0.01856-0.39403 0.04874-0.21543-0.98392 0.80215
  -5   2  -1 511.213 129.107   8 0.02759-0.44030 0.06626 0.10053-0.97395 0.79231
   6  -2   1 1586.27 300.539   7 0.06907 0.42224-0.00656-0.16015 0.99253-0.79580
   6   2   1 1424.08 242.951   7 0.07337 0.41799-0.00577 0.17266 0.99305-0.79605
  -6  -2  -1 1159.35 198.219   8-0.08024-0.41081 0.02511-0.19182-0.99353 0.79683
   6   2   1 1113.59 219.106   6 0.13690 0.35463-0.17795 0.34506 0.98261-0.78551
  -6   2  -1 1476.46 226.293   8-0.06034-0.43085 0.03276 0.13403-0.99090 0.79433
   7   2   1 128.761 134.492   6 0.16693 0.40307-0.09941 0.26652 0.99472-0.78273
   7   2   1 307.075 172.118   7 0.13419 0.43564 0.00550 0.16138 0.99838-0.78647
  -7   2  -1 162.593 122.049   8-0.13474-0.43491 0.00403 0.16277-0.99842 0.78693
  -7  -2  -1 120.778 123.432   8-0.13691-0.43261 0.00319-0.16991-0.99854 0.78693
   7  -2   1 45.4712 106.950   7 0.13766 0.43212 0.00614-0.17288 0.99857-0.78693
   8  -2   1 -138.09 201.856   7 0.19942 0.44882 0.01767-0.18442 0.99981-0.77325
  -8   2  -1 221.173 146.247   8-0.20062-0.44751-0.02171 0.18851-0.99972 0.77331
  11   3  -1 685.131 317.693   7 0.54432 0.29831 0.08375 0.16611 0.92299-0.86594
  11  -3  -1 603.157 261.137   7 0.59273 0.24986 0.09332-0.34377 0.89813-0.84144
 -11  -3   1 1286.94 300.711   8-0.52430-0.31841-0.15291-0.09738-0.92219 0.86515
 -11   3   1 1308.47 311.444   5-0.51353-0.32917 0.19083 0.05943-0.91882 0.86268
  11  -3  -1 1241.30 299.470   3 0.49508 0.34793-0.24887-0.00093 0.91121-0.85429
 -10   3   1 143.428 93.1172   2-0.45385-0.31050 0.28344-0.03298-0.91548 0.87363
  10  -3  -1 271.851 155.453   3 0.47300 0.29149-0.22759-0.02224 0.92540-0.88348
  10  -3  -1 32.3728 99.6493   7 0.57189 0.19224 0.08919-0.33962 0.90937-0.86761
  10   3  -1 152.926 176.826   7 0.52128 0.24287 0.07924 0.17064 0.93335-0.89124
 -10   3   1 220.143 132.449   5-0.49067-0.27363 0.17650 0.07374-0.93088 0.88955
 -10  -3   1 548.775 215.419   8-0.50100-0.26325-0.14315-0.10712-0.93329 0.89116
   9   3  -1 1949.27 324.763   7 0.50131 0.18436 0.07534 0.17456 0.94161-0.91443
  -9   3   1 2367.87 320.541   2-0.43506-0.25082 0.25738-0.00693-0.92963 0.90267
   9  -3  -1 2061.33 334.046   3 0.45337 0.23260-0.20892-0.04095 0.93674-0.90980
   9  -3  -1 1845.95 290.924   7 0.55500 0.13066 0.08586-0.33627 0.91788-0.89104
  -9   3   1 2161.36 320.324   5-0.47049-0.21544 0.16393 0.08629-0.94056 0.91407
  -9   3   1 2361.58 292.351   8-0.58302-0.10282-0.17777 0.42797-0.88926 0.86230
  -9  -3   1 2127.58 324.027   8-0.48048-0.20531-0.13461-0.11566-0.94224 0.91501
   8  -3  -1 88.3506 66.2164   3 0.43691 0.17053-0.19341-0.05647 0.94537-0.93342
   8   3  -1 292.362 126.051   7 0.48546 0.12172 0.07225 0.17766 0.94771-0.93547
  -8   3   1 109.273 88.5542   2-0.41911-0.18833 0.23560 0.01485-0.94036 0.92830
   8  -3  -1 68.2660 63.5877   7 0.54362 0.06360 0.08361-0.33401 0.92332-0.91141
   8   3  -1 158.000 82.3425   6 0.33156 0.27580 0.43249-0.18263 0.88649-0.87419
  -8  -3   1 64.0452 71.6594   8-0.46365-0.14368-0.12763-0.12262-0.94901 0.93670
  -8   3   1 72.2425 97.7740   8-0.57453-0.03283-0.17414 0.42434-0.89449 0.88245
  -8   3   1 65.0569 84.2730   5-0.45379-0.15375 0.15361 0.09660-0.94793 0.93628
   8  -3  -1 47.0783 80.4047   9 0.00392 0.60327-0.51345 0.26329-0.84206 0.85394
   7  -3  -1 1346.97 228.653   3 0.42460 0.10430-0.18191-0.06799 0.95134-0.95435
   7   3  -1 1082.28 211.468   7 0.47530 0.05340 0.07027 0.17965 0.95142-0.95410
   7  -3  -1 1341.03 231.306   7 0.54014-0.01137 0.08293-0.33330 0.92494-0.92795
  -7  -3   1 866.890 190.021   4 0.04030-0.56881-0.40689 0.15747 0.90333-0.90056
  -7  -3   1 1076.32 205.014   8-0.45182-0.07706-0.12274-0.12749-0.95348 0.95608
   7   3  -1 1179.50 185.123   6 0.32123 0.20767 0.39038-0.14050 0.90839-0.91102
   7  -3  -1 904.489 160.722   9-0.04406 0.57279-0.41702 0.16687-0.89993 0.89690
  -7  -3   1 1171.85 159.595   5-0.60312 0.07365 0.24845-0.49821-0.85864 0.86183
   6   3  -1 -65.075 67.2818   7 0.47331-0.02310 0.06989 0.18005 0.95213-0.96972
   6  -3  -1 36.5225 84.8276   7 0.54854-0.09823 0.08459-0.33493 0.92099-0.93892
  -6  -3   1 113.270 52.3136   4 0.08470-0.53484-0.30567 0.05611 0.94697-0.92935
  -6  -3   1 6.75840 35.7941   5-0.62553 0.17449 0.26329-0.51314-0.83978 0.85788
   6  -3  -1 -12.135 47.5340   9-0.09020 0.54045-0.31749 0.06734-0.94411 0.92616
   6   3  -1 -19.186 37.9253   6 0.31319 0.13726 0.35897-0.10910 0.92298-0.94054
  -6  -3   1 -115.62 84.3246   8-0.44698-0.00346-0.12074-0.12948-0.95524 0.97275
  -5  -3   1 1459.79 189.787   4 0.12677-0.49852-0.20331-0.04642 0.97713-0.94465
   5   3  -1 1204.98 170.858   7 0.48351-0.11177 0.07187 0.17807 0.94844-0.98095
   5  -3  -1 1329.37 163.799   7 0.57573-0.20386 0.08995-0.34026 0.90736-0.94021
   5   3  -1 1344.25 170.148   6 0.30810 0.06385 0.33973-0.08985 0.93122-0.96371
  -5   3   1 1504.33 192.984   2-0.39811 0.02603 0.20738 0.04309-0.95284 0.98550
   5  -3  -1 1444.12 186.292   9-0.13421 0.50600-0.21594-0.03420-0.97516 0.94230
  -5  -3   1 1748.49 169.092   5-0.67665 0.30407 0.29792-0.54787-0.78950 0.82257
  -5  -3   1 1316.29 185.529   8-0.45223 0.08024-0.12291-0.12731-0.95333 0.98575
  -5   3   1 1601.48 198.365   5-0.43932 0.06699 0.14473 0.10552-0.95384 0.98687
   5  -3  -1 1415.66 200.595   3 0.41861-0.04684-0.17635-0.07353 0.95409-0.98698
  -5   3   1 1349.58 144.149   8-0.63049 0.25864-0.19820 0.44842-0.85676 0.88945
   4  -3  -1 377.306 75.7137   7 0.63407-0.34064 0.10156-0.35183 0.87320-0.92097
   4  -3  -1 478.613 106.692   9-0.17569 0.46903-0.11370-0.13645-0.99350 0.94574
  -4   3   1 333.778 90.7853   2-0.40534 0.11171 0.21703 0.03345-0.94875 0.99633
  -4  -3   1 316.473 82.8376   4 0.16613-0.45946-0.10124-0.14869 0.99452-0.94714
   4   3  -1 435.595 95.3040   7 0.51277-0.21951 0.07758 0.17237 0.93695-0.98437
  -4   3   1 344.941 50.5174   6 0.28978-0.58336 0.27324-0.02305 0.95580-0.90799
   4   3  -1 433.645 62.9640   9-0.32339 0.61687 0.32460-0.07438-0.93390 0.88647
   4   3  -1 379.911 91.8422   6 0.30675-0.01326 0.33463-0.08476 0.93331-0.98072
  -4  -3   1 354.707 93.5557   8-0.47268 0.17911-0.13137-0.11885-0.94544 0.99278
   4   3  -1 288.075 89.9617   1-0.17983 0.47376 0.12128 0.12901-0.99250 0.94541
  -4   3   1 602.241 114.170   8-0.70921 0.41586-0.23290 0.48312-0.78825 0.83582
   3  -3  -1 3015.56 231.334   7 0.74461-0.52959 0.12401-0.37427 0.78555-0.84826
  -3  -3   1 2502.84 235.080   4 0.20234-0.41718-0.00125-0.24890 0.99992-0.93761
  -3   3   1 2280.78 223.562   5-0.49144 0.27600 0.17698 0.07337-0.93049 0.99339
  -3   3   1 2595.16 182.393   6 0.20385-0.41899 0.00281 0.24754 0.99990-0.93715
   3   3  -1 2836.36 259.485   6 0.30981-0.09482 0.34615-0.09630 0.92853-0.99085
   3   3  -1 2582.29 232.635   7 0.57339-0.35861 0.08949 0.16045 0.90859-0.97089
   3  -3  -1 2858.46 253.258   9-0.21416 0.42904-0.01244-0.23772-0.99963 0.93696
  -3  -3   1 2951.02 259.723   8-0.51693 0.30181-0.14982-0.10041-0.92581 0.98808
   2   3  -1 8819.23 345.579   7 0.68649-0.55018 0.11211 0.13781 0.83591-0.91307
  -2  -3   1 8303.37 384.675   4 0.23484-0.37118 0.09451-0.34486 0.99449-0.91721
   2  -3  -1 8316.81 385.990   9-0.24900 0.38542 0.08572-0.33591-0.99439 0.91680
  -2   3   1 8124.96 327.179   6 0.14948-0.28611-0.14551 0.39596 0.98848-0.91077
   2   3  -1 7883.76 350.924   1-0.21757 0.35442-0.10366 0.35372-0.99426 0.91743
   2   3  -1 8335.43 378.040   6 0.31789-0.18138 0.37719-0.12737 0.91469-0.99191
  -2  -3   1 8297.04 341.027   8-0.59948 0.46280-0.18482-0.06540-0.87863 0.95586
  -2   3   1 8657.86 360.078   5-0.55697 0.42002 0.21846 0.03193-0.89241 0.97028
   2  -3  -1 7987.75 378.233   3 0.50346-0.36732-0.25703 0.00732 0.90540-0.98293
  -2  -3   1 8955.82 343.554   9 0.02243-0.15905-0.54877 0.29856-0.81654 0.89385
   2  -3  -1 9191.09 237.104   8-0.60092 0.73730-0.18544-0.06463-0.87767 0.80032
   2  -3  -1 9174.18 360.501   4-0.02872 0.16571-0.55112 0.30094 0.81289-0.89031
  -1  -3   1 539.598 92.9208   9 0.00523-0.06336-0.51599 0.26579-0.84032 0.93254
  -1   3   1 685.589 104.066   5-0.66495 0.60659 0.28988-0.03945-0.80200 0.89484
  -1   3   1 569.875 94.2990   6 0.11795-0.17605-0.22562 0.47612 0.97169-0.87902
  -1   3   1 489.055 89.3625   2-0.50921 0.45100 0.36335-0.11281-0.86252 0.95488
   1  -3  -1 632.525 108.292   9-0.27962 0.33757 0.17821-0.42842-0.97926 0.88676
   1  -3  -1 562.912 93.5231   4-0.01159 0.07005-0.51680 0.26672 0.83786-0.93020
   1   3  -1 471.595 89.2768   6 0.33111-0.27307 0.43059-0.18081 0.88753-0.97965
   1  -3  -1 531.840 91.9234   3 0.57907-0.52140-0.33294 0.08330 0.84049-0.93281
  -1  -3   1 12.1226 38.2995   8-0.73880 0.68057-0.24629-0.00394-0.75646 0.84868
   0  -3  -1 90.3519 47.7100   4-0.00794-0.01213-0.50935 0.25936 0.84298-0.95023
   0  -3   1 62.7469 35.1327   4 0.28673-0.26594 0.26284-0.51357 0.95913-0.85181
   0   3   1 17.0943 28.2043   6 0.10232-0.08189-0.26390 0.51442 0.96089-0.85328
   0   3  -1 69.8381 43.5989   6 0.34860-0.36903 0.50810-0.25835 0.83984-0.94683
   0  -3   1 41.6583 36.9668   9 0.00221 0.01814-0.51014 0.25996-0.84433 0.95147
   0  -3  -1 49.2796 42.7849   9-0.30543 0.28492 0.26209-0.51233-0.95663 0.84920
   1  -3   1 12361.1 444.057   4 0.30532-0.20592 0.32954-0.58043 0.93538-0.81301
   1   3   1 12532.8 505.206   6 0.09793 0.00103-0.27448 0.52501 0.95758-0.83503
  -1  -3  -1 12377.8 435.765   9-0.32604 0.22707 0.33417-0.58444-0.92995 0.80759
   1  -3   1 12021.9 494.865   9 0.00860 0.09024-0.52248 0.27232-0.83578 0.95783
   2   3   1 1087.92 163.629   7-0.20443 0.38188-0.05628 0.30668 0.92054-0.78314
   2   3   1 1839.56 206.513   6 0.10169 0.07580-0.26541 0.51596 0.96043-0.82294
   2  -3   1 1751.22 196.710   9 0.02159 0.15571-0.54720 0.29704-0.81773 0.95470
  -2  -3  -1 1607.31 190.487   4-0.02538-0.15167-0.54450 0.29473 0.81790-0.95490
   3  -3   1 839.498 148.613   7-0.18373 0.43961-0.05257-0.19750 0.92871-0.77680
   3   3   1 3851.73 314.523   7-0.10057 0.35650-0.03759 0.28797 0.95695-0.80464
   3   3   1 3312.21 294.783   6 0.11149 0.14452-0.24155 0.49209 0.96742-0.81501
   3  -3   1 3256.39 284.320   9 0.03946 0.21632-0.58029 0.33015-0.79151 0.94339
  -3  -3  -1 3397.78 276.042   8 0.06052-0.31618 0.07868-0.32867-0.96536 0.81339
  -3  -3  -1 3467.19 310.483   4-0.04221-0.21330-0.57746 0.32778 0.79205-0.94391
   4  -3   1 103.382 64.5156   7-0.05966 0.39402-0.03015-0.21991 0.96821-0.80139
   4   3   1 84.3615 80.5553   7-0.02031 0.35471-0.02298 0.27334 0.97743-0.81021
   4   3   1 43.4645 42.8046   6 0.12587 0.20866-0.20586 0.45640 0.97655-0.80922
   4  -3   1 -133.01 60.8838   9 0.06100 0.27324-0.61891 0.36877-0.75764 0.92444
  -4   3  -1 -6.2137 37.4655   8 0.10585-0.44013 0.09566 0.15452-0.95154 0.78485
  -4  -3  -1 146.226 77.4833   8-0.00369-0.33043 0.05441-0.30441-0.98097 0.81408
  -5   3  -1 5712.35 366.732   8-0.00934-0.40340 0.05226 0.19795-0.98212 0.80052
   5  -3   1 5857.29 441.172   7 0.03250 0.38033-0.01330-0.23678 0.98733-0.80559
  -5  -3  -1 6966.47 511.025   8-0.06096-0.35163 0.03253-0.28256-0.99099 0.80917
   6  -3   1 2810.09 343.000   7 0.10770 0.38360 0.00058-0.25067 0.99653-0.79988
   6   3   1 2336.42 336.497   7 0.10721 0.38414 0.00049 0.24982 0.99649-0.79943
   6   3   1 2609.76 336.468   6 0.16449 0.32704-0.10593 0.35645 0.99399-0.79684
  -6  -3  -1 2547.44 326.344   8-0.11392-0.37712 0.01211-0.26216-0.99695 0.80022
  -6   3  -1 2779.86 279.511   8-0.09815-0.39307 0.01821 0.23200-0.99551 0.79898
   7   3   1 2738.45 404.749   7 0.16239 0.40744 0.01075 0.23955 0.99955-0.78757
   7  -3   1 2911.97 375.709   7 0.17299 0.39676 0.01273-0.26283 0.99978-0.78821
   7   3   1 2975.54 392.415   6 0.18740 0.38261-0.04356 0.29406 0.99902-0.78696
  -7  -3  -1 3108.01 396.699   8-0.16402-0.40548-0.00737-0.24270-0.99963 0.78798
  -7   3  -1 3181.96 327.968   8-0.17215-0.39753-0.01055 0.26078-0.99979 0.78832
   8  -3   1 2.68148 89.5736   7 0.23205 0.41616 0.02380-0.27391 0.99881-0.77232
  -8   3  -1 82.2559 100.065   8-0.23721-0.41095-0.03613 0.28637-0.99820 0.77181
 -11   4   1 -98.248 95.3747   2-0.47361-0.36917 0.31140 0.02251-0.89865 0.84199
  11  -4  -1 -9.6964 110.163   3 0.49789 0.34518-0.25160-0.08164 0.90929-0.85237
  10  -4  -1 252.954 176.088   3 0.47755 0.28700-0.23194-0.10133 0.92261-0.88070
  10   4  -1 48.6022 121.638   7 0.54099 0.22314 0.08310 0.25020 0.92455-0.88236
  10  -4  -1 -30.720 98.3329   7 0.61272 0.15140 0.09729-0.43106 0.88652-0.84482
 -10  -4   1 8.50855 146.602   8-0.51374-0.25050-0.14848-0.18514-0.92735 0.88518
 -10   4   1 -111.21 152.723   5-0.49987-0.26446 0.18226 0.15129-0.92617 0.88492
 -10   4   1 110.397 85.8162   2-0.45440-0.30994 0.28421 0.04969-0.91504 0.87326
   9  -4  -1 68.5918 87.6250   3 0.45972 0.22628-0.21494-0.11836 0.93320-0.90628
  -9   4   1 207.734 100.207   2-0.43740-0.24847 0.26060 0.07329-0.92796 0.90107
   9   4  -1 310.389 156.793   7 0.52341 0.16225 0.07966 0.25366 0.93243-0.90519
   9  -4  -1 251.729 127.592   7 0.60020 0.08547 0.09480-0.42855 0.89388-0.86711
  -9  -4   1 526.202 176.026   8-0.49521-0.19058-0.14074-0.19288-0.93589 0.90863
  -9   4   1 476.339 190.753   5-0.48159-0.20437 0.17082 0.16271-0.93535 0.90893
   8  -4  -1 106.442 102.776   3 0.44511 0.16234-0.20112-0.13221 0.94117-0.92924
  -8   4   1 328.241 135.739   2-0.42322-0.18421 0.24118 0.09271-0.93770 0.92571
  -8  -4   1 384.363 147.461   4 0.00903-0.61590-0.47419 0.14152 0.86572-0.87786
   8   4  -1 486.427 165.007   7 0.51034 0.09682 0.07710 0.25622 0.93795-0.92564
   8  -4  -1 288.501 120.590   9-0.01225 0.61941-0.48176 0.14822-0.86289 0.87474
   8   4  -1 592.438 170.439   6 0.32633 0.28108 0.41086-0.07763 0.89808-0.88572
   8  -4  -1 428.357 158.129   7 0.59437 0.01285 0.09364-0.42736 0.89721-0.88535
  -8  -4   1 272.869 164.735   8-0.48060-0.12674-0.13466-0.19895-0.94219 0.92983
  -8   4   1 519.790 171.955   5-0.46690-0.14067 0.16171 0.17183-0.94219 0.93063
   7   4  -1 1681.53 259.106   7 0.50347 0.02520 0.07576 0.25758 0.94075-0.94335
   7  -4  -1 2159.09 268.952   7 0.59818-0.06940 0.09440-0.42809 0.89505-0.89812
   7   4  -1 1860.65 246.447   6 0.31724 0.21170 0.37467-0.04142 0.91586-0.91844
  -7   4   1 1937.64 274.240   2-0.41257-0.11640 0.22676 0.10714-0.94444 0.94735
   7  -4  -1 1785.01 249.164   9-0.05326 0.58196-0.39773 0.06419-0.90965 0.90657
   7  -4  -1 1842.12 282.189   3 0.43460 0.09430-0.19125-0.14208 0.94652-0.94956
  -7  -4   1 1388.54 241.210   4 0.04854-0.57703-0.38863 0.05582 0.91230-0.90961
  -7   4   1 1866.95 261.738   5-0.45696-0.07222 0.15558 0.17798-0.94657 0.94988
  -7  -4   1 1793.60 281.521   8-0.47120-0.05770-0.13075-0.20283-0.94603 0.94858
   6  -4  -1 477.382 127.005   3 0.42944 0.02089-0.18643-0.14689 0.94904-0.96703
   6   4  -1 379.018 118.619   7 0.50538-0.05519 0.07613 0.25721 0.93998-0.95751
   6  -4  -1 494.514 117.423   7 0.61640-0.16607 0.09803-0.43169 0.88430-0.90229
  -6   4   1 492.063 145.380   2-0.40642-0.04412 0.21847 0.11543-0.94812 0.96593
  -6  -4   1 406.513 153.712   4 0.08573-0.53584-0.30324-0.02974 0.94784-0.93029
   6   4  -1 370.964 113.177   6 0.31025 0.14021 0.34782-0.01457 0.92782-0.94532
   6  -4  -1 586.938 143.638   9-0.09210 0.54233-0.31324-0.02029-0.94568 0.92769
  -6  -4   1 245.769 102.014   8-0.46897 0.01852-0.12983-0.20374-0.94692 0.96438
  -6   4   1 294.106 89.5172   5-0.45337 0.00260 0.15336 0.18023-0.94810 0.96630
  -6   4   1 741.876 134.642   8-0.68765 0.23735-0.22328 0.55695-0.80912 0.82689
  -5   4   1 22.2377 38.5826   6 0.35735-0.72938 0.55122-0.21781 0.80851-0.77547
   5   4  -1 -1.4310 55.1563   7 0.52013-0.14843 0.07902 0.25432 0.93384-0.96628
   5  -4  -1 -111.89 72.4360   3 0.43135-0.05959-0.18820-0.14509 0.94812-0.98104
   5  -4  -1 19.9350 32.7827   7 0.65710-0.28520 0.10618-0.43981 0.85766-0.89058
  -5   4   1 89.6561 72.8870   2-0.40599 0.03391 0.21790 0.11600-0.94837 0.98109
   5  -4  -1 46.6241 62.3026   9-0.12856 0.50033-0.22935-0.10418-0.97182 0.93891
  -5  -4   1 72.2643 68.6728   4 0.12045-0.49214-0.21911-0.11405 0.97333-0.94090
   5   4  -1 134.800 74.6519   6 0.30588 0.06611 0.33141 0.00184 0.93462-0.96705
  -5  -4   1 -24.960 51.4437   8-0.47688 0.10486-0.13311-0.20046-0.94373 0.97611
  -5   4   1 82.6626 68.9267   5-0.45847 0.08611 0.15651 0.17713-0.94592 0.97902
   4   4  -1 1295.27 171.569   7 0.55448-0.26127 0.08575 0.24758 0.91813-0.96546
  -4  -4   1 1238.33 190.081   4 0.15245-0.44568-0.13747-0.19591 0.98975-0.94241
   4  -4  -1 1388.56 162.817   7 0.73364-0.44017 0.12175-0.45536 0.79589-0.84375
   4  -4  -1 1133.73 166.159   9-0.16239 0.45570-0.14722-0.18633-0.98886 0.94104
  -4   4   1 1273.66 128.605   6 0.29189-0.58551 0.28068 0.05289 0.95334-0.90545
   4   4  -1 1090.55 159.163   6 0.30465-0.01115 0.32684 0.00640 0.93645-0.98380
  -4   4   1 1162.81 173.992   2-0.41293 0.11931 0.22725 0.10669-0.94422 0.99186
   4  -4  -1 1131.79 191.440   3 0.44273-0.14955-0.19888-0.13436 0.94241-0.99024
  -4  -4   1 -22.393 24.0121   9 0.05710-0.35073-0.61202 0.27836-0.76395 0.81136
  -4   4   1 1041.22 160.732   5-0.47578 0.18186 0.16722 0.16647-0.93811 0.98614
  -4  -4   1 1269.59 178.469   8-0.49954 0.20595-0.14255-0.19103-0.93395 0.98126
   3  -4  -1 59.1647 53.3168   3 0.46698-0.25235-0.22183-0.11134 0.92901-0.99173
  -3  -4   1 49.5364 46.7058   8-0.54445 0.32929-0.16139-0.17218-0.91171 0.97395
   3  -4  -1 31.1679 33.3403   4-0.01933 0.23501-0.53242 0.19871 0.82680-0.88931
   3   4  -1 67.3279 45.0429   7 0.61986-0.40513 0.09872 0.23461 0.88218-0.94439
  -3   4   1 77.2802 46.5889   6 0.23683-0.45199 0.10032 0.23340 0.99382-0.93102
  -3  -4   1 22.9529 39.8653   4 0.18145-0.39620-0.05969-0.27391 0.99814-0.93587
   3   4  -1 46.1649 42.0792   6 0.30707-0.09206 0.33583-0.00260 0.93282-0.99510
   3  -4  -1 141.687 53.2551   9-0.19329 0.40814-0.06820-0.26536-0.99771 0.93498
   3  -4  -1 38.5830 16.1103   8-0.02499 0.23985 0.04629-0.37956-0.98513 0.92258
  -3  -4   1 50.1472 39.1242   9 0.01172-0.22684-0.52846 0.19481-0.83153 0.89386
   3   4  -1 22.7881 14.9789   2-0.44419 0.65938 0.26998 0.06385-0.92297 0.86082
  -2   4   1 3004.42 135.899   7 0.31050-0.44712 0.03863 0.29511 0.99152-0.91379
   2   4  -1 3563.34 247.472   7 0.73383-0.59755 0.12178 0.21152 0.79572-0.87278
  -2   4   1 2825.59 227.601   6 0.19667-0.33333-0.01758 0.35139 0.99981-0.92206
   2   4  -1 2558.25 236.692   6 0.31353-0.17703 0.36031-0.02711 0.92239-0.99956
  -2  -4   1 3050.96 228.692   9-0.01152-0.12511-0.48319 0.14957-0.86199 0.93924
   2  -4  -1 3127.29 259.750   9-0.22094 0.35733 0.00615-0.33974-0.99948 0.92183
  -2   4   1 2703.70 219.647   5-0.57076 0.43381 0.22735 0.10647-0.88298 0.96091
   2  -4  -1 2772.58 238.627   3 0.50857-0.37249-0.26203-0.07106 0.90173-0.97929
   2  -4  -1 2930.95 105.156   8-0.48046 0.61678-0.13459-0.19881-0.94224 0.86484
  -2  -4   1 2844.98 214.826   8-0.62329 0.48655-0.19508-0.13851-0.86207 0.93927
   2  -4  -1 2709.41 216.291   4 0.00346 0.13367-0.48584 0.15224 0.85843-0.93589
   1  -4  -1 8857.84 405.462   4 0.01319 0.04540-0.46542 0.13191 0.87105-0.96345
   1  -4  -1 8316.89 385.833   3 0.57255-0.51496-0.32620-0.00677 0.84710-0.93945
  -1   4   1 7192.45 388.256   6 0.16980-0.22791-0.09169 0.42557 0.99553-0.90283
  -1   4   1 8089.72 400.066   2-0.50063 0.44242 0.35063-0.01662-0.87197 0.96439
   1   4  -1 7569.73 400.147   6 0.32420-0.26619 0.40227-0.06910 0.90248-0.99456
   1  -4  -1 8199.23 416.077   9-0.24499 0.30292 0.07408-0.40769-0.99559 0.90302
  -1   4   1 9847.23 419.067   5-0.66540 0.60705 0.29019 0.04369-0.80153 0.89442
  -1  -4   1 8239.89 403.034   9-0.02089-0.03726-0.46448 0.13088-0.87348 0.96564
   1   4   1 461.747 78.9052   7-0.19247 0.29142-0.05414 0.38798 0.92532-0.80278
  -1   4  -1 228.008 51.6898   1-0.22679 0.12834-0.17090 0.50401-0.98457 0.86327
   1   4   1 258.687 85.4742   6 0.14632-0.04736-0.15374 0.48768 0.98711-0.86452
   1  -4   1 259.857 67.3908   4 0.26159-0.16210 0.17850-0.51287 0.98108-0.85881
  -1   4  -1 437.216 93.4100   6 0.35584-0.45477 0.54351-0.21046 0.81438-0.93619
  -1  -4  -1 301.457 77.1863   9-0.28101 0.18201 0.18259-0.51624-0.97829 0.85587
   1  -4   1 240.589 76.6778   9-0.01351 0.11231-0.47925 0.14569-0.86446 0.98646
  -1  -4  -1 302.953 60.7847   8 0.08786-0.18665 0.08894-0.42222-0.95730 0.83513
  -2   4  -1 -23.648 47.3293   1-0.22947 0.05262-0.19186 0.52485-0.98057 0.84443
   2   4   1 56.2819 60.3444   7-0.09012 0.26754-0.03570 0.36951 0.95999-0.82254
   2   4   1 -3.9577 42.4686   6 0.14572 0.03176-0.15528 0.48923 0.98684-0.84932
  -2  -4  -1 -5.0747 45.8237   9-0.29230 0.11482 0.21864-0.55232-0.96944 0.83209
   2  -4   1 16.7697 34.7145   4 0.27106-0.09297 0.20955-0.54406 0.97401-0.83671
   2  -4   1 7.26950 35.2173   9-0.00100 0.17827-0.50389 0.17034-0.84855 0.98546
  -2  -4  -1 -5.9011 31.1157   8 0.03108-0.20831 0.06758-0.40088-0.97309 0.83600
   3  -4   1 1376.37 152.414   7-0.08923 0.34511-0.03554-0.29788 0.96024-0.80841
   3   4   1 1488.80 184.825   7-0.01555 0.27145-0.02211 0.35591 0.97844-0.82608
   3  -4   1 1113.11 150.276   4 0.27539-0.01870 0.22403-0.55867 0.97032-0.81799
  -3   4  -1 1335.37 175.909   1-0.22988-0.02536-0.19509 0.52799-0.97991 0.82893
   3   4   1 1416.91 194.838   6 0.15057 0.10543-0.14267 0.47663 0.98894-0.83648
  -3  -4  -1 1338.66 168.195   9-0.29851 0.04258 0.23897-0.57268-0.96374 0.81145
   3  -4   1 1227.42 189.622   9 0.01569 0.24005-0.53604 0.20250-0.82603 0.97786
  -3  -4  -1 1242.44 169.079   8-0.01935-0.23633 0.04844-0.38175-0.98407 0.83206
  -3  -4  -1 1419.65 208.668   4-0.01959-0.23582-0.53295 0.19992 0.82641-0.97836
  -4  -4  -1 81.9285 81.1704   4-0.03862-0.29525-0.57052 0.23759 0.79769-0.96450
   4  -4   1 30.0072 35.0252   7 0.01939 0.31495-0.01571-0.31771 0.98514-0.81839
   4   4   1 15.4790 50.4057   7 0.04626 0.28811-0.01077 0.34455 0.98944-0.82217
   4   4   1 -27.546 67.2379   6 0.15978 0.17473-0.11844 0.45239 0.99245-0.82507
  -4   4  -1 9.33448 28.1252   8 0.03131-0.36561 0.06767 0.26595-0.97304 0.80638
  -4  -4  -1 -78.304 60.8785   9-0.29880-0.03560 0.23994-0.57368-0.96346 0.79623
   4  -4   1 82.5009 78.4587   9 0.03576 0.29844-0.57354 0.24002-0.79706 0.96380
  -4   4  -1 -43.071 49.4195   1-0.22784-0.10577-0.17900 0.51183-0.98308 0.81725
   4  -4   1 -56.809 33.9261   4 0.27359 0.06169 0.21801-0.55275 0.97189-0.80455
  -4  -4  -1 -32.779 70.1976   8-0.06648-0.26765 0.03040-0.36375-0.99176 0.82482
   5  -4   1 3363.50 287.980   7 0.09992 0.31290-0.00086-0.33256 0.99585-0.81419
   5   4   1 3551.95 359.158   7 0.10127 0.31158-0.00061 0.33437 0.99597-0.81377
   5  -4   1 3181.42 254.761   4 0.26361 0.15024 0.18504-0.51989 0.97969-0.79738
  -5   4  -1 3333.80 272.725   1-0.22281-0.18917-0.14101 0.47378-0.98947 0.80877
   5   4   1 3338.91 356.929   6 0.17253 0.24050-0.08433 0.41826 0.99623-0.81393
  -5  -4  -1 3292.29 256.864   9-0.29143-0.12144 0.21583-0.54960-0.97019 0.78803
  -5   4  -1 3284.50 239.909   8-0.08022-0.33253 0.02512 0.30853-0.99352 0.81194
  -5  -4  -1 3732.86 362.420   8-0.11169-0.30089 0.01297-0.34633-0.99676 0.81491
   6   4   1 525.710 177.922   7 0.15225 0.33907 0.00886 0.32488 0.99923-0.80211
   6  -4   1 556.208 143.458   7 0.16650 0.32477 0.01152-0.34495 0.99965-0.80308
   6   4   1 729.626 197.002   6 0.18814 0.30339-0.04150 0.37543 0.99911-0.80189
  -6   4  -1 568.442 124.791   8-0.16372-0.32750-0.00726 0.34093-0.99962 0.80311
  -6  -4  -1 610.790 193.698   8-0.15569-0.33533-0.00412-0.32926-0.99938 0.80262
   7   4   1 348.776 175.819   7 0.20067 0.36914 0.01791 0.31581 0.99979-0.78775
   7  -4   1 13.1849 80.7047   7 0.22528 0.34444 0.02253-0.35598 0.99911-0.78763
   7   4   1 86.4059 93.9360   6 0.20610 0.36391 0.00925 0.32465 0.99983-0.78771
  -7  -4  -1 282.185 179.826   8-0.19889-0.37060-0.02103-0.31238-0.99975 0.78807
   8  -4   1 66.3187 102.281   7 0.27930 0.36888 0.03271-0.36618 0.99526-0.76886
  10   5  -1 -113.65 118.475   7 0.56746 0.19665 0.08831 0.32841 0.91165-0.86939
 -10  -5   1 -82.605 92.5337   8-0.53242-0.23181-0.15632-0.26065-0.91807 0.87586
 -10   5   1 129.824 92.8660   5-0.51448-0.24992 0.19143 0.22544-0.91830 0.87713
  10  -5  -1 -98.820 128.852   3 0.48703 0.27755-0.24107-0.17565 0.91657-0.87466
   9  -5  -1 903.163 270.922   3 0.47114 0.21487-0.22581-0.19094 0.92653-0.89961
  -9   5   1 864.300 237.880   2-0.44446-0.24142 0.27035 0.14698-0.92277 0.89594
   9   5  -1 662.486 211.034   7 0.55279 0.13282 0.08542 0.33131 0.91895-0.89162
  -9  -5   1 842.462 223.825   8-0.51624-0.16954-0.14953-0.26742-0.92614 0.89884
  -9   5   1 871.975 224.987   5-0.49832-0.18768 0.18127 0.23560-0.92698 0.90065
   8   5  -1 11.4495 58.1261   6 0.32515 0.28230 0.40608 0.01053 0.90054-0.88811
   8  -5  -1 18.2005 112.929   3 0.45849 0.14896-0.21377-0.20299 0.93389-0.92196
  -8   5   1 144.971 122.247   2-0.43206-0.17536 0.25325 0.16408-0.93174 0.91981
  -8  -5   1 26.6633 111.351   4 0.01510-0.62195-0.46138 0.04532 0.87346-0.88569
   8   5  -1 -20.993 98.2307   7 0.54316 0.06397 0.08352 0.33321 0.92354-0.91114
   8  -5  -1 146.607 114.844   9-0.01894 0.62607-0.46840 0.05148-0.87112 0.88292
  -8   5   1 194.352 108.140   5-0.48593-0.12168 0.17354 0.24336-0.93323 0.92176
  -8  -5   1 191.061 116.520   8-0.50425-0.10310-0.14451-0.27243-0.93181 0.91941
   7  -5  -1 841.008 211.183   3 0.44993 0.07894-0.20567-0.21110 0.93860-0.94164
  -7   5   1 912.221 209.351   2-0.42309-0.10589 0.24100 0.17634-0.93779 0.94076
   7   5  -1 751.751 172.753   7 0.54031-0.01167 0.08296 0.33378 0.92486-0.92739
  -7  -5   1 422.001 191.534   4 0.04940-0.57786-0.38671-0.02951 0.91322-0.91059
   7  -5  -1 973.702 199.370   9-0.05469 0.58335-0.39472-0.02220-0.91111 0.90799
  -7  -5   1 854.029 210.391   8-0.49776-0.03116-0.14180-0.27513-0.93476 0.93727
  -7   5   1 908.126 200.941   5-0.47840-0.05082 0.16885 0.24807-0.93687 0.94027
   7   5  -1 839.204 167.365   6 0.31725 0.21172 0.37470 0.04192 0.91585-0.91835
  -6  -5   1 700.339 254.446   4 0.08136-0.53141-0.31355-0.10287 0.94409-0.92660
   6  -5  -1 590.447 151.967   3 0.44657 0.00372-0.20249-0.21426 0.94040-0.95840
  -6   5   1 602.784 164.602   2-0.41835-0.03217 0.23458 0.18278-0.94084 0.95872
   6   5  -1 425.738 171.012   7 0.54693-0.09679 0.08427 0.33248 0.92176-0.93920
   6  -5  -1 580.211 121.427   7 0.70166-0.25129 0.11520-0.53219 0.82377-0.84185
   6   5  -1 433.588 136.786   6 0.31127 0.13922 0.35166 0.06496 0.92617-0.94360
   6  -5  -1 452.105 143.697   9-0.08816 0.53837-0.32204-0.09488-0.94240 0.92436
  -6  -5   1 449.287 149.764   8-0.49867 0.04818-0.14218-0.27474-0.93435 0.95177
  -6   5   1 587.631 150.252   5-0.47723 0.02641 0.16812 0.24885-0.93743 0.95572
   5   5  -1 1608.44 231.367   7 0.56716-0.19551 0.08825 0.32849 0.91181-0.94415
   5  -5  -1 1475.10 211.274   7 0.75801-0.38607 0.12678-0.54375 0.77231-0.80534
  -5  -5   1 789.749 210.327   4 0.11085-0.48246-0.24283-0.17380 0.96705-0.93467
   5   5  -1 1322.17 212.385   6 0.30759 0.06441 0.33781 0.07881 0.93201-0.96437
  -5   5   1 1546.52 241.286   2-0.41889 0.04681 0.23531 0.18205-0.94050 0.97329
   5  -5  -1 1426.42 234.506   3 0.44987-0.07816-0.20560-0.21110 0.93864-0.97157
   5  -5  -1 1644.46 247.492   9-0.11922 0.49097-0.25128-0.16566-0.96586 0.93291
  -5   5   1 1634.59 231.366   5-0.48456 0.11216 0.17269 0.24435-0.93390 0.96710
  -5  -5   1 1488.30 215.754   8-0.50981 0.13776-0.14683-0.27009-0.92921 0.96156
  -4  -5   1 1850.73 252.187   4 0.13771-0.43085-0.17558-0.24126 0.98307-0.93578
   4   5  -1 2112.98 233.879   7 0.60758-0.31441 0.09627 0.32046 0.88958-0.93682
  -4  -5   1 2471.73 242.071   9 0.02469-0.31833-0.55300 0.13592-0.81331 0.86066
  -4   5   1 2329.92 210.736   6 0.29943-0.59308 0.30772 0.10922 0.94379-0.89582
   4   5  -1 1729.49 235.851   6 0.30663-0.01312 0.33419 0.08242 0.93349-0.98078
  -4   5   1 1896.36 251.465   2-0.42600 0.13237 0.24496 0.17243-0.93587 0.98357
   4  -5  -1 1890.34 245.621   3 0.46185-0.16872-0.21695-0.19970 0.93199-0.97983
  -4   5   1 1875.56 227.014   5-0.50346 0.20950 0.18450 0.23260-0.92428 0.97240
   4  -5  -1 2145.87 257.511   9-0.14769 0.44098-0.18344-0.23350-0.98235 0.93448
  -4  -5   1 1896.78 224.584   8-0.53544 0.24181-0.15759-0.25932-0.91650 0.96377
   4  -5  -1 2356.19 229.470   4-0.03185 0.32626-0.55730 0.14006 0.80814-0.85568
   3   5  -1 953.016 139.335   7 0.67853-0.46384 0.11050 0.30620 0.84203-0.90413
  -3   5   1 800.303 150.797   2-0.44124 0.22608 0.26590 0.15152-0.92516 0.98778
  -3   5   1 1050.37 147.061   6 0.25932-0.47449 0.17088 0.24620 0.98263-0.91975
   3  -5  -1 1047.81 182.968   9-0.17336 0.38818-0.11963-0.29733-0.99278 0.92999
  -3  -5   1 825.271 158.932   4 0.16175-0.37639-0.11293-0.30413 0.99315-0.93091
  -3  -5   1 995.518 143.806   9-0.00613-0.20901-0.49384 0.07679-0.85517 0.91744
   3   5  -1 872.302 159.224   6 0.30872-0.09372 0.34204 0.07457 0.93025-0.99246
  -3   5   1 899.564 151.747   5-0.53831 0.32284 0.20654 0.21064-0.90434 0.96740
  -3  -5   1 867.587 140.949   8-0.58204 0.36682-0.17735-0.23957-0.88987 0.95210
   3   5  -1 891.418 159.913   1-0.17925 0.39465 0.12430 0.29275-0.99212 0.93028
   3  -5  -1 973.460 162.921   3 0.48513-0.27058-0.23924-0.17731 0.91780-0.98053
   3  -5  -1 1018.19 142.000   4-0.00220 0.21803-0.49756 0.08040 0.85086-0.91339
  -2   5   1 55.8690 17.9909   7-0.08228-0.05432-0.03427 0.45153 0.96219-0.88438
  -2  -5   1 43.0773 26.9366   3 0.37220-0.50898-0.13377-0.28331 0.97238-0.89494
   2   5  -1 56.4021 42.2163   1-0.19109 0.32799 0.06033 0.35659-0.99814 0.92143
  -2   5   1 56.5010 49.5510   6 0.22802-0.36468 0.07362 0.34355 0.99656-0.91875
  -2  -5   1 25.7594 46.3525   4 0.18276-0.31886-0.05610-0.36117 0.99836-0.92117
   2   5  -1 67.1736 67.3514   6 0.31416-0.17765 0.36271 0.05386 0.92132-0.99844
   2  -5  -1 22.8110 53.6126   9-0.19600 0.33236-0.06109-0.35589-0.99815 0.92045
  -2  -5   1 32.1154 30.6432   9-0.02265-0.11400-0.46093 0.04389-0.87559 0.95277
   2  -5  -1 22.7222 59.4561   3 0.52305-0.38706-0.27628-0.14017 0.89083-0.96839
  -2   5   1 63.2106 29.3910   2-0.46642 0.32973 0.30116 0.11629-0.90502 0.98256
  -2  -5   1 24.0583 33.6286   8-0.65891 0.52212-0.21060-0.20634-0.83436 0.91156
   2   5  -1 35.4381 33.4687   2-0.32683 0.46351 0.11492 0.30232-0.98302 0.90605
   1  -5  -1 285.841 92.1990   9-0.21535 0.27326-0.00919-0.40782-0.99963 0.90700
  -1   5   1 346.642 86.6695   6 0.20542-0.26355 0.00729 0.40996 0.99986-0.90710
  -1  -5   1 320.595 102.034   4 0.20050-0.25805-0.00647-0.41099 0.99992-0.90774
  -1  -5   1 373.822 99.9291   9-0.02922-0.02895-0.44761 0.03060-0.88331 0.97541
   1  -5  -1 407.992 45.2772   8-0.12775 0.18570 0.00675-0.42336-0.99798 0.90557
  -1   5   1 440.088 111.550   5-0.68021 0.62186 0.30038 0.11695-0.78556 0.87852
   1   5  -1 310.169 91.4723   6 0.32304-0.26504 0.39760 0.01893 0.90482-0.99684
   1  -5  -1 410.003 103.512   3 0.57908-0.52158-0.33295-0.08338 0.84048-0.93284
   1   5  -1 378.847 112.215   1-0.20027 0.25870 0.00725 0.40952-0.99991 0.90835
   0  -5  -1 2283.31 240.012   4 0.02104-0.04085-0.44872 0.03189 0.88083-0.98819
   0   5   1 2306.27 118.762   7-0.04569 0.06607-0.02761 0.44487 0.97166-0.86401
   0  -5   1 2343.82 109.722   7 0.28545-0.26485 0.03388-0.45048 0.99461-0.88770
   0  -5   1 2291.69 253.429   4 0.21470-0.19368 0.03446-0.45211 0.99911-0.89192
   0   5  -1 2025.79 228.758   1-0.20699 0.18698-0.03390 0.45054-0.99930 0.89288
   0   5   1 2641.49 257.538   2-0.55208 0.57238 0.42941-0.01189-0.80635 0.91375
   0   5   1 2284.41 250.758   6 0.19055-0.17016-0.03478 0.45208 0.99937-0.89168
   0   5  -1 2380.01 250.645   6 0.33519-0.35567 0.44789-0.03142 0.87778-0.98468
   0  -5  -1 2445.42 252.295   9-0.23115 0.21058 0.03456-0.45159-0.99849 0.89094
   0  -5   1 2327.52 244.120   9-0.02839 0.04869-0.44930 0.03231-0.88235 0.98937
   0  -5  -1 2271.39 146.638   8-0.06093 0.04049 0.03254-0.44914-0.99098 0.88366
  -1  -5  -1 1719.76 211.037   4 0.01533-0.11366-0.46090 0.04420 0.87374-0.99601
   1   5   1 1680.42 135.920   7 0.00075 0.09812-0.01913 0.43637 0.98172-0.85914
  -1   5  -1 1478.34 199.759   1-0.21140 0.11297-0.06219 0.47870-0.99786 0.87660
   1   5   1 1520.51 212.974   6 0.18233-0.08340-0.05757 0.47491 0.99827-0.87564
  -1   5  -1 1904.70 226.086   6 0.34987-0.44883 0.51414-0.09771 0.83567-0.95745
  -1  -5  -1 1702.01 205.502   9-0.24305 0.14401 0.06844-0.48549-0.99611 0.87363
   1  -5   1 1664.03 219.540   9-0.02182 0.12059-0.46261 0.04565-0.87459 0.99652
  -1  -5  -1 1812.30 159.834   8-0.06053-0.03832 0.03269-0.44930-0.99092 0.86870
   2  -5   1 1481.99 101.099   7-0.04989 0.22730-0.02838-0.38835 0.97065-0.83381
   2   5   1 1312.50 146.680   7 0.04352 0.13384-0.01127 0.42850 0.98904-0.85155
  -2   5  -1 1342.43 194.186   1-0.21358 0.03676-0.07662 0.49304-0.99681 0.86070
   2  -5   1 1386.00 204.942   9-0.01063 0.18788-0.48496 0.06801-0.86087 0.99773
   2   5   1 1369.85 207.771   6 0.17970-0.00225-0.06477 0.48212 0.99780-0.86023
  -2   5  -1 655.467 128.165   6 0.36551-0.54293 0.59554-0.17915 0.77219-0.90881
  -2  -5  -1 1423.06 182.790   9-0.25061 0.07312 0.09043-0.50751-0.99386 0.85644
  -2  -5  -1 1322.09 156.403   8-0.07890-0.09838 0.02563-0.44226-0.99336 0.85622
  -2  -5  -1 1401.93 207.120   4 0.00510-0.18193-0.48243 0.06587 0.86059-0.99775
   3  -5   1 896.687 101.427   7 0.06706 0.18883-0.00694-0.40980 0.99228-0.84053
   3   5   1 860.009 130.789   7 0.08514 0.17070-0.00360 0.42081 0.99438-0.84196
  -3  -5  -1 851.892 177.793   4-0.00889-0.24644-0.51129 0.09486 0.84166-0.99370
  -3   5  -1 869.562 160.845   1-0.21351-0.04170-0.07613 0.49246-0.99685 0.84589
   3   5   1 768.905 170.569   6 0.18178 0.07421-0.05907 0.47642 0.99818-0.84568
   3  -5   1 611.628 152.369   9 0.00434 0.25138-0.51426 0.09734-0.84150 0.99327
  -3   5  -1 849.492 72.6737   8 0.03086-0.28670 0.06750 0.34957-0.97315 0.82144
  -3  -5  -1 791.015 147.747   8-0.10539-0.15032 0.01541-0.43206-0.99620 0.84415
  -3  -5  -1 885.381 144.059   9-0.25320-0.00276 0.09803-0.51514-0.99295 0.84060
   4  -5   1 34.6918 41.8984   7 0.13978 0.19457 0.00654-0.42328 0.99868-0.83202
   4   5   1 20.1543 54.7212   7 0.12626 0.20806 0.00403 0.41317 0.99791-0.83057
  -4  -5  -1 30.6576 78.8616   4-0.02602-0.30778-0.54577 0.12948 0.81694-0.98384
  -4   5  -1 102.191 66.3407   1-0.21095-0.12263-0.05929 0.47554-0.99805 0.83223
   4  -5   1 -104.67 83.9939   9 0.02248 0.31169-0.54886 0.13195-0.81647 0.98316
   4   5   1 -10.136 51.0614   6 0.18779 0.14672-0.04248 0.45983 0.99907-0.83163
   4  -5   1 -14.612 51.6429   4 0.22688 0.10849 0.07050-0.48868 0.99683-0.82962
  -4  -5  -1 55.4055 35.6901   9-0.24972-0.08471 0.08782-0.50496-0.99416 0.82687
  -4  -5  -1 6.07287 64.8218   8-0.13617-0.19798 0.00348-0.42014-0.99850 0.83153
   5   5   1 415.431 120.093   7 0.16713 0.24568 0.01164 0.40555 0.99967-0.81741
  -5  -5  -1 391.522 176.334   4-0.04586-0.36638-0.58450 0.16832 0.78621-0.96796
   5  -5   1 572.427 132.029   7 0.19772 0.21509 0.01736-0.43411 0.99983-0.81826
   5   5   1 581.807 176.724   6 0.19708 0.21594-0.01644 0.43378 0.99983-0.81747
   5  -5   1 318.224 125.986   9 0.04334 0.36931-0.58735 0.17044-0.78559 0.96720
  -5  -5  -1 625.592 151.270   8-0.16949-0.24311-0.00951-0.40718-0.99974 0.81786
  -5   5  -1 306.630 99.4104   1-0.20540-0.20655-0.02397 0.44019-0.99961 0.81892
   6   5   1 360.468 146.955   7 0.20784 0.28345 0.01925 0.39791 0.99966-0.80248
   6  -5   1 512.583 133.695   7 0.24910 0.24216 0.02701-0.44378 0.99782-0.80134
   6   5   1 392.779 150.725   6 0.20914 0.28239 0.01800 0.39932 0.99966-0.80238
  -6  -5  -1 646.361 175.492   8-0.20446-0.28658-0.02322-0.39350-0.99964 0.80284
   7   5   1 1281.46 315.556   7 0.24846 0.32131 0.02689 0.39026 0.99786-0.78574
   7   5   1 1080.58 284.527   6 0.22349 0.34652 0.06010 0.35720 0.99764-0.78544
  -7  -5  -1 1962.39 364.768   8-0.24055-0.32895-0.03745-0.37928-0.99798 0.78627
  -8   5  -1 47.9468 89.6783   2-0.27705-0.37079 0.05299 0.36400-0.99453 0.76860
  10   6  -1 53.2189 97.4543   7 0.60020 0.16387 0.09480 0.40535 0.89389-0.85153
   9   6  -1 -108.79 120.280   7 0.58891 0.09666 0.09256 0.40760 0.90025-0.87282
  -9   6   1 149.456 122.089   5-0.51980-0.16628 0.19478 0.30544-0.91530 0.88908
  -9  -6   1 -36.184 92.1819   8-0.54280-0.14300-0.16069-0.33959-0.91260 0.88528
   9  -6  -1 219.738 150.653   3 0.48657 0.19944-0.24063-0.25958 0.91687-0.88994
  -9   6   1 -88.583 104.237   2-0.45505-0.23082 0.28513 0.21565-0.91452 0.88777
   8  -6  -1 123.352 133.679   3 0.47591 0.13151-0.23039-0.26983 0.92362-0.91168
  -8   6   1 663.976 207.676   2-0.44437-0.16306 0.27024 0.23054-0.92283 0.91097
  -8  -6   1 -25.114 70.9882   4 0.01529-0.62213-0.46097-0.03850 0.87370-0.88600
   8   6  -1 430.437 174.463   7 0.58318 0.02390 0.09142 0.40874 0.90338-0.89088
   8  -6  -1 237.487 125.804   9-0.01948 0.62660-0.46731-0.03300-0.87178 0.88354
   8   6  -1 317.023 148.487   6 0.32666 0.28082 0.41221 0.08778 0.89738-0.88487
  -8   6   1 416.670 157.052   5-0.50983-0.09785 0.18850 0.31176-0.92085 0.90949
  -8  -6   1 312.238 157.010   8-0.53370-0.07367-0.15686-0.34342-0.91740 0.90498
   7  -6  -1 -53.837 71.5559   3 0.46931 0.05953-0.22406-0.27614 0.92762-0.93065
  -7   6   1 -56.715 79.2952   2-0.43701-0.09197 0.26006 0.24073-0.92824 0.93129
   7   6  -1 152.538 111.467   7 0.58488-0.05630 0.09176 0.40840 0.90246-0.90488
  -7  -6   1 -34.616 82.4361   4 0.04557-0.57399-0.39525-0.10442 0.90911-0.90655
   7  -6  -1 -4.4087 82.9691   9-0.05112 0.57977-0.40225-0.09806-0.90742 0.90426
   7   6  -1 -143.43 99.3780   6 0.31983 0.20918 0.38478 0.11523 0.91109-0.91352
  -7  -6   1 82.9369 76.1499   8-0.53038 0.00144-0.15546-0.34480-0.91911 0.92160
  -7   6   1 74.5120 76.9584   5-0.50483-0.02445 0.18536 0.31495-0.92355 0.92706
   6  -6  -1 43.5341 87.9925   3 0.46774-0.01751-0.22257-0.27761 0.92855-0.94653
  -6   6   1 154.254 96.9462   2-0.43365-0.01688 0.25545 0.24536-0.93062 0.94857
   6   6  -1 414.811 129.388   7 0.59679-0.14669 0.09412 0.40603 0.89584-0.91317
  -6  -6   1 68.6781 140.337   4 0.07354-0.52353-0.33176-0.16810 0.93710-0.91966
   6   6  -1 242.789 102.667   6 0.31473 0.13578 0.36491 0.13509 0.92032-0.93769
   6  -6  -1 271.168 131.711   9-0.08049 0.53067-0.33902-0.16131-0.93577 0.91769
  -6  -6   1 94.8909 74.9635   8-0.53471 0.08420-0.15728-0.34297-0.91688 0.93428
  -6   6   1 131.577 125.314   5-0.50621 0.05533 0.18622 0.31415-0.92282 0.94121
   5  -6  -1 1154.96 227.651   3 0.47250-0.10086-0.22712-0.27301 0.92570-0.95862
  -5   6   1 1234.30 230.053   2-0.43517 0.06309 0.25753 0.24330-0.92955 0.96241
   5   6  -1 1235.50 208.660   7 0.62302-0.25142 0.09935 0.40080 0.88022-0.91245
  -5  -6   1 1367.08 242.870   4 0.09912-0.47064-0.27134-0.22875 0.95857-0.92623
   5   6  -1 1362.08 245.047   6 0.31169 0.06032 0.35327 0.14674 0.92547-0.95777
   5  -6  -1 1221.00 221.877   9-0.10749 0.47921-0.27841-0.22192-0.95765 0.92465
  -5   6   1 1441.03 234.988   5-0.51590 0.14346 0.19233 0.30811-0.91750 0.95080
  -5  -6   1 1159.94 195.432   8-0.54937 0.17727-0.16347-0.33678-0.90903 0.94136
  -4   6   1 666.187 167.630   2-0.44259 0.14897 0.26777 0.23308-0.92416 0.97193
   4   6  -1 543.858 124.465   7 0.66982-0.37671 0.10875 0.39138 0.84852-0.89563
  -4  -6   1 630.924 162.420   4 0.12218-0.41521-0.21481-0.28548 0.97440-0.92714
  -4   6   1 646.875 132.838   6 0.30856-0.60224 0.34143 0.15888 0.93051-0.88245
   4  -6  -1 636.994 142.300   9-0.13197 0.42523-0.22127-0.27907-0.97386 0.92594
   4   6  -1 599.927 153.177   6 0.31100-0.01749 0.35065 0.14936 0.92661-0.97383
  -4  -6   1 610.383 134.595   9 0.01464-0.30830-0.53403 0.03354-0.82750 0.87478
  -4   6   1 595.635 140.497   5-0.53658 0.24261 0.20543 0.29509-0.90540 0.95362
  -4  -6   1 240.424 60.9049   8-0.57825 0.28456-0.17573-0.32452-0.89222 0.93949
   4  -6  -1 446.514 122.315   3 0.48525-0.19219-0.23935-0.26070 0.91773-0.96555
   3  -6  -1 588.452 136.944   4 0.00122 0.21477-0.49050-0.01012 0.85545-0.91798
   3   6  -1 482.231 132.792   7 0.74602-0.53137 0.12430 0.37579 0.78418-0.84615
  -3  -6   1 415.092 132.107   4 0.14257-0.35708-0.16313-0.33738 0.98544-0.92324
   3   6  -1 385.712 136.899   1-0.16885 0.38427 0.17695 0.32354-0.98393 0.92217
   3  -6  -1 382.590 129.370   9-0.15378 0.36857-0.16856-0.33181-0.98521 0.92237
  -3   6   1 561.110 139.952   6 0.27732-0.49251 0.23029 0.27014 0.96863-0.90568
   3   6  -1 323.138 110.881   6 0.31292-0.09792 0.35796 0.14202 0.92342-0.98557
  -3  -6   1 465.491 118.904   9-0.00943-0.20573-0.48734-0.01312-0.85936 0.92156
  -3   6   1 391.399 115.369   5-0.57188 0.35639 0.22808 0.27254-0.88218 0.94534
  -3  -6   1 341.658 107.526   8-0.62688 0.41160-0.19664-0.30364-0.85944 0.92167
   3  -6  -1 350.762 123.385   3 0.50806-0.29359-0.26152-0.23843 0.90210-0.96481
  -3   6   1 519.234 130.845   2-0.45712 0.24194 0.28803 0.21286-0.91284 0.97553
   2  -6  -1 1238.22 192.355   4 0.01456 0.12286-0.46252-0.03800 0.87278-0.95028
  -2  -6   1 1322.98 225.534   4 0.16010-0.29608-0.11731-0.38340 0.99259-0.91542
  -2   6   1 1265.84 200.010   6 0.25195-0.38863 0.14733 0.35320 0.98701-0.90913
   2   6  -1 1153.45 202.681   6 0.31764-0.18115 0.37621 0.12375 0.91515-0.99220
  -2   6   1 1121.60 184.265   2-0.48003 0.34334 0.32061 0.18030-0.89272 0.97032
   2   6  -1 1228.72 151.825   2-0.39111 0.52780 0.19808 0.30265-0.95660 0.87968
   2  -6  -1 1124.80 195.726   9-0.17271 0.30905-0.12126-0.37912-0.99257 0.91481
   2  -6  -1 1251.14 187.831   3 0.54341-0.40749-0.29656-0.20326 0.87412-0.95166
  -2  -6   1 948.731 163.460   9-0.02284-0.11384-0.46055-0.03988-0.87581 0.95293
  -2  -6   1 1238.43 128.107   3 0.47680-0.61370-0.23122-0.26906 0.92308-0.84558
  -2  -6   1 1462.18 224.878   8-0.70244 0.56559-0.22987-0.27043-0.79500 0.87222
   2   6  -1 1118.40 188.926   1-0.17924 0.31617 0.12433 0.37601-0.99211 0.91548
   1  -6  -1 4779.04 362.289   4 0.02041 0.03846-0.45007-0.05034 0.88006-0.97252
   1   6  -1 3413.07 321.141   1-0.18732 0.24578 0.08119 0.41901-0.99664 0.90514
  -1  -6   1 4344.98 375.387   4 0.17459-0.23201-0.07846-0.42245 0.99675-0.90460
   1  -6  -1 4844.33 354.303   3 0.59364-0.53623-0.34813-0.15155 0.82492-0.91725
  -1   6   1 4132.09 338.110   2-0.51247 0.45426 0.36824 0.13272-0.85877 0.95130
  -1   6   1 3562.41 336.516   6 0.23272-0.29088 0.08779 0.41283 0.99521-0.90239
   1   6  -1 4917.14 391.458   6 0.32523-0.26724 0.40640 0.09351 0.90038-0.99233
  -1  -6   1 4391.22 361.221   9-0.02835-0.02984-0.44938-0.05103-0.88230 0.97434
  -1  -6   1 4821.22 274.402   3 0.34343-0.40174-0.10784-0.39281 0.98117-0.88877
   1  -6  -1 4660.15 390.572   9-0.18858 0.24646-0.08052-0.41988-0.99681 0.90412
   0   6   1 325.531 124.423   2-0.55467 0.57495 0.43354 0.06745-0.80241 0.90987
   0  -6  -1 184.055 88.2743   4 0.02036-0.04004-0.45018-0.05010 0.87999-0.98739
   0   6  -1 159.203 80.7709   1-0.19322 0.17325 0.04832 0.45175-0.99879 0.89244
   0   6   1 304.800 116.739   6 0.21929-0.19891 0.04766 0.45301 0.99844-0.89069
   0   6  -1 158.757 64.5138   6 0.33554-0.35605 0.44942 0.05044 0.87690-0.98374
   0  -6   1 125.262 78.1883   4 0.18575-0.16460-0.04783-0.45326 0.99881-0.89167
   0  -6  -1 92.2352 66.8553   9-0.20110 0.18050-0.04759-0.45284-0.99883 0.89122
   0  -6   1 180.358 74.1712   9-0.02771 0.04798-0.45069-0.04969-0.88155 0.98851
   0  -6  -1 131.348 41.4594   8-0.26796 0.24740-0.04832-0.45167-0.99564 0.88830
  -1  -6  -1 5604.16 425.212   4 0.01549-0.11370-0.46055-0.03958 0.87395-0.99627
   1   6   1 6544.95 263.180   7 0.22234-0.12358 0.02198 0.47863 0.99923-0.87660
   1  -6   1 5732.29 419.996   4 0.19329-0.09355-0.02684-0.47441 0.99962-0.87746
  -1   6  -1 5868.75 433.565   1-0.19700 0.09861 0.02653 0.47343-0.99960 0.87840
   1   6   1 5411.70 430.958   6 0.21109-0.11219 0.02369 0.47703 0.99950-0.87681
  -1   6  -1 6205.50 455.668   6 0.34811-0.44709 0.50576-0.00596 0.84144-0.96315
   1  -6   1 5600.35 432.093   9-0.02209 0.12083-0.46207-0.03829-0.87492 0.99679
  -1  -6  -1 6209.05 306.787   8-0.20729 0.10833-0.02433-0.47564-0.99957 0.87730
  -1  -6  -1 6471.05 428.083   9-0.20993 0.11087-0.02390-0.47656-0.99952 0.87698
   2   6   1 48.5475 43.4697   7 0.19571-0.01845 0.01698 0.48364 0.99985-0.86230
  -2  -6  -1 124.155 84.6547   4 0.00660-0.18332-0.47930-0.02070 0.86256-0.99978
   2  -6   1 152.840 94.5642   9-0.01234 0.18956-0.48157-0.01878-0.86301 0.99981
   2   6   1 7.30722 47.9360   6 0.20751-0.03007 0.01332 0.48741 0.99976-0.86213
   2  -6   1 150.871 90.1137   4 0.19670-0.01837-0.01723-0.48416 0.99982-0.86266
  -2  -6  -1 91.9649 62.3741   9-0.21463 0.03710-0.01117-0.48931-0.99963 0.86215
  -2   6  -1 25.6168 38.6059   6 0.36188-0.53933 0.57518-0.07544 0.78942-0.92599
  -2   6  -1 60.7450 68.5963   1-0.19869 0.02190 0.01663 0.48322-0.99981 0.86375
  -2  -6  -1 -12.204 37.1436   8-0.19184 0.01449-0.01826-0.48171-0.99984 0.86266
   3   6   1 81.9317 71.5634   7 0.20069 0.05507 0.01791 0.48270 0.99979-0.84732
  -3  -6  -1 -27.888 61.6783   4-0.00574-0.24950-0.50484 0.00500 0.84602-0.99813
   3  -6   1 -44.036 61.5869   9 0.00089 0.25478-0.50758 0.00726-0.84606 0.99778
   3   6   1 40.0006 57.8258   6 0.20795 0.04802 0.01457 0.48617 0.99974-0.84717
   3  -6   1 30.5393 56.5040   4 0.19530 0.06162-0.02118-0.48032 0.99975-0.84758
  -3  -6  -1 -55.016 73.3738   9-0.21448-0.04152-0.01157-0.48894-0.99963 0.84722
  -3   6  -1 30.5024 47.0379   1-0.19819-0.05698 0.01959 0.48017-0.99976 0.84886
  -3  -6  -1 96.0217 72.3386   8-0.19634-0.05942-0.02003-0.47995-0.99979 0.84770
   4   6   1 2579.10 278.941   7 0.21894 0.11531 0.02134 0.47927 0.99935-0.83195
   4  -6   1 2595.44 277.164   4 0.18796 0.14754-0.04173-0.45987 0.99910-0.83194
  -4   6  -1 2468.91 281.620   1-0.19526-0.13828 0.03662 0.46308-0.99929 0.83353
   4   6   1 2535.10 332.753   6 0.21184 0.12265 0.02587 0.47487 0.99943-0.83194
  -4  -6  -1 2727.16 269.302   9-0.20838-0.12609-0.02810-0.47244-0.99945 0.83210
   4  -6   1 2574.48 320.024   9 0.01714 0.31701-0.53879 0.03848-0.82402 0.99065
  -4  -6  -1 2450.30 286.068   8-0.21159-0.12261-0.02602-0.47397-0.99944 0.83244
  -4  -6  -1 2494.64 342.164   4-0.02104-0.31267-0.53585 0.03615 0.82430-0.99128
   5   6   1 2576.13 299.186   7 0.24413 0.16862 0.02607 0.47453 0.99814-0.81581
   5   6   1 2135.99 327.198   6 0.21874 0.19427 0.04603 0.45470 0.99854-0.81611
  -5  -6  -1 2333.80 297.503   8-0.23332-0.17931-0.03459-0.46542-0.99844 0.81653
  -5  -6  -1 2207.07 382.849   4-0.03896-0.37323-0.57117 0.07160 0.79717-0.97901
   6   6   1 148.234 118.983   7 0.27339 0.21784 0.03160 0.46899 0.99584-0.79858
   6   6   1 65.2850 127.246   6 0.22820 0.26331 0.07416 0.42654 0.99651-0.79917
   6  -6   1 -54.024 82.9959   9 0.05722 0.43386-0.61222 0.11194-0.76377 0.96025
  -6  -6  -1 -81.230 74.6074   8-0.25928-0.23179-0.04488-0.45516-0.99648 0.79966
  -6   6  -1 -32.916 103.687   2-0.26578-0.22518 0.03923 0.46122-0.99617 0.80009
  -7   6  -1 549.227 209.026   2-0.28390-0.28550 0.06140 0.43905-0.99336 0.78239
  -9  -7   1 -22.498 134.421   8-0.57415-0.11167-0.17398-0.40963-0.89472 0.86738
   9   7  -1 43.2654 98.3097   7 0.63115 0.05438 0.10097 0.48260 0.87508-0.84755
   9   7  -1 5.06093 107.581   6 0.33717 0.34882 0.45644 0.12691 0.87278-0.84523
   9  -7  -1 172.038 154.235   9 0.01476 0.67080-0.53425-0.04944-0.82734 0.85398
  -8  -7   1 5.06795 93.0094   4 0.01142-0.61822-0.46917-0.11375 0.86879-0.88114
   8   7  -1 -89.404 105.806   7 0.62969-0.02266 0.10068 0.48289 0.87602-0.86341
   8   7  -1 124.235 144.493   6 0.32996 0.27755 0.42581 0.15757 0.89015-0.87755
   8  -7  -1 38.5485 114.409   9-0.01574 0.62283-0.47480-0.10890-0.86722 0.87894
  -8   7   1 366.856 166.190   5-0.53771-0.07004 0.20615 0.37750-0.90471 0.89346
  -8  -7   1 235.941 140.784   8-0.56810-0.03930-0.17141-0.41218-0.89834 0.88591
   8  -7  -1 165.142 125.287   3 0.49645 0.11093-0.25021-0.33346 0.91027-0.89828
  -8   7   1 50.3457 133.157   2-0.45925-0.14818 0.29102 0.29320-0.91109 0.89931
  -7   7   1 395.662 170.977   2-0.45337-0.07561 0.28277 0.30146-0.91586 0.91897
  -7  -7   1 71.1786 142.980   4 0.03849-0.56686-0.41088-0.17223 0.90131-0.89879
   7   7  -1 312.139 126.481   7 0.63629-0.10776 0.10200 0.48157 0.87175-0.87406
   7   7  -1 51.9733 112.620   6 0.32406 0.20496 0.40167 0.18173 0.90278-0.90513
   7  -7  -1 161.396 105.003   9-0.04408 0.57272-0.41698-0.16672-0.89995 0.89675
  -7   7   1 108.286 122.756   5-0.53525 0.00591 0.20458 0.37913-0.90621 0.90983
  -7  -7   1 151.302 70.9185   8-0.56808 0.03911-0.17140-0.41218-0.89835 0.90082
   7  -7  -1 143.659 150.499   3 0.49174 0.03704-0.24563-0.33802 0.91346-0.91645
  -6   7   1 318.498 144.591   2-0.45129 0.00075 0.27986 0.30440-0.91751 0.93552
  -6  -7   1 181.594 151.767   4 0.06333-0.51324-0.35525-0.22807 0.92742-0.91001
   6   7  -1 139.281 96.0243   6 0.31974 0.13079 0.38444 0.19896 0.91125-0.92853
   6  -7  -1 455.669 169.421   9-0.07021 0.52037-0.36146-0.22226-0.92638 0.90825
  -6   7   1 482.077 164.222   5-0.53915 0.08823 0.20707 0.37672-0.90383 0.92233
  -6  -7   1 276.541 119.926   8-0.57594 0.12538-0.17474-0.40883-0.89363 0.91103
   6  -7  -1 479.118 189.740   3 0.49190-0.04172-0.24578-0.33783 0.91336-0.93130
  -5   7   1 39.7744 87.6479   2-0.45372 0.08163 0.28326 0.30103-0.91559 0.94851
  -5  -7   1 26.2980 109.497   4 0.08585-0.45729-0.30296-0.28057 0.94794-0.91563
   5   7  -1 249.925 121.024   6 0.31724 0.05477 0.37467 0.20873 0.91586-0.94808
   5  -7  -1 237.279 147.406   9-0.09402 0.46572-0.30893-0.27480-0.94725 0.91419
  -5   7   1 194.497 109.000   5-0.55117 0.17869 0.21475 0.36913-0.89622 0.92962
  -5  -7   1 101.318 96.9165   8-0.59415 0.22201-0.18253-0.40105-0.88215 0.91448
   5  -7  -1 273.630 153.051   3 0.49804-0.12648-0.25175-0.33179 0.90918-0.94205
   4  -7  -1 613.562 160.328   4-0.02245 0.31717-0.53866-0.04551 0.82223-0.86974
  -4  -7   1 557.358 184.005   4 0.10596-0.39889-0.25477-0.32899 0.96363-0.91639
   4  -7  -1 507.490 163.417   9-0.11541 0.40864-0.26015-0.32360-0.96328 0.91531
  -4   7   1 732.800 163.256   6 0.31815-0.61186 0.37820 0.20547 0.91421-0.86606
   4   7  -1 454.238 155.953   6 0.31681-0.02330 0.37297 0.21042 0.91665-0.96380
  -4  -7   1 569.195 144.990   9 0.01536-0.30903-0.53540-0.04851-0.82650 0.87372
  -4   7   1 415.433 114.381   5-0.57361 0.27959 0.22920 0.35477-0.88096 0.92928
  -4  -7   1 532.440 139.327   8-0.62622 0.33248-0.19635-0.38725-0.85993 0.90720
   4  -7  -1 427.061 152.205   3 0.51156-0.21860-0.26495-0.31850 0.89954-0.94732
  -4   7   1 681.654 174.232   2-0.46148 0.16785 0.29416 0.29015-0.90923 0.95707
   3  -7  -1 273.490 103.793   4-0.00266 0.21880-0.49850-0.08558 0.85024-0.91275
   3   7  -1 198.437 85.9612   1-0.15844 0.37387 0.22689 0.35702-0.97339 0.91171
  -3  -7   1 199.988 110.136   4 0.12353-0.33793-0.21143-0.37253 0.97522-0.91303
  -3   7   1 218.372 100.017   6 0.29284-0.50807 0.28409 0.29971 0.95219-0.88915
   3   7  -1 -78.622 67.5578   6 0.31862-0.10362 0.38003 0.20334 0.91335-0.97542
   3  -7  -1 185.624 126.312   9-0.13423 0.34901-0.21589-0.36788-0.97517 0.91228
  -3  -7   1 285.840 126.019   9-0.00508-0.21010-0.49591-0.08796-0.85382 0.91596
  -3   7   1 241.079 82.4792   5-0.60942 0.39392 0.25260 0.33148-0.85351 0.91676
  -3   7   1 95.2727 59.4795   2-0.47549 0.26032 0.31409 0.27025-0.89694 0.95969
   3  -7  -1 129.215 77.7462   3 0.53410-0.31971-0.28725-0.29609 0.88197-0.94462
  -3  -7   1 183.017 90.7613   8-0.67676 0.46143-0.21845-0.36516-0.81902 0.88127
  -2  -7   1 1734.47 277.976   4 0.13840-0.27425-0.17382-0.41034 0.98342-0.90626
  -2   7   1 1835.41 256.868   6 0.27171-0.40842 0.21150 0.37241 0.97352-0.89556
  -2   7   1 1466.78 227.855   2-0.49669 0.36000 0.34483 0.23955-0.87615 0.95382
   2   7  -1 1750.63 278.812   6 0.32280-0.18631 0.39662 0.18671 0.90531-0.98229
   2  -7  -1 2023.85 294.025   9-0.15032 0.28663-0.17702-0.40677-0.98362 0.90580
  -2  -7   1 1777.18 258.222   9-0.01690-0.11980-0.47248-0.11136-0.86864 0.94570
   2  -7  -1 1801.98 244.629   3 0.56747-0.43164-0.32098-0.26222 0.85209-0.92958
  -2   7   1 2274.42 278.822   5-0.66195 0.52500 0.28784 0.29634-0.80511 0.88329
   2   7  -1 1914.21 282.606   1-0.16769 0.30464 0.18266 0.40112-0.98286 0.90631
   2  -7  -1 1999.66 261.551   4 0.00908 0.12851-0.47409-0.10989 0.86578-0.94328
   1  -7  -1 49.1000 65.5995   4 0.01450 0.04452-0.46265-0.12122 0.87270-0.96516
   1   7  -1 -6.5536 86.3061   6 0.32940-0.27142 0.42349 0.15980 0.89140-0.98329
   1   7  -1 63.7290 48.0281   2-0.37606 0.43427 0.17826 0.40590-0.96408 0.87231
  -1  -7   1 8.76461 59.1805   4 0.15038-0.20766-0.14288-0.44147 0.98890-0.89677
  -1   7   1 36.6945 79.1774   6 0.25515-0.31334 0.15752 0.42646 0.98520-0.89231
   1  -7  -1 147.741 79.9212   9-0.16348 0.22134-0.14448-0.43933-0.98929 0.89654
  -1  -7   1 94.2726 68.0522   9-0.02207-0.03615-0.46211-0.12171-0.87489 0.96687
  -1   7   1 -13.380 52.4415   2-0.52582 0.46760 0.38842 0.19600-0.84264 0.93523
   1  -7  -1 -50.855 74.9009   3 0.61319-0.55586-0.36887-0.21417 0.80211-0.89437
   1   7  -1 161.906 91.0536   1-0.17488 0.23337 0.14680 0.43683-0.98898 0.89756
   0   7  -1 155.663 73.5936   1-0.18007 0.16013 0.12002 0.46348-0.99265 0.88637
   0  -7  -1 67.5540 112.399   4 0.01480-0.03434-0.46202-0.12172 0.87308-0.98049
   0  -7   1 92.5243 53.1064   3 0.35915-0.33899-0.12197-0.46220 0.97660-0.86923
   0  -7  -1 168.679 78.9082   9-0.17347 0.15285-0.11935-0.46448-0.99281 0.88513
   0  -7   1 58.0487 83.1648   4 0.15922-0.13792-0.11965-0.46487 0.99228-0.88515
   0   7   1 156.396 81.0188   6 0.24309-0.22274 0.11957 0.46447 0.99134-0.88352
   0   7   1 242.852 99.3903   2-0.56285 0.58314 0.44676 0.13769-0.78944 0.89696
   0  -7   1 132.601 78.0652   9-0.02188 0.04213-0.46248-0.12130-0.87467 0.98157
   0   7  -1 267.601 140.931   6 0.33828-0.35881 0.46128 0.12196 0.86989-0.97666
   0   7  -1 123.772 61.1482   2-0.33244 0.31217 0.12203 0.46206-0.98126 0.87460
  -1   7  -1 1581.80 256.218   1-0.18329 0.08494 0.10297 0.48042-0.99460 0.87347
  -1  -7  -1 1611.69 258.498   4 0.01081-0.10890-0.47044-0.11315 0.86801-0.99036
  -1   7  -1 1913.26 287.131   6 0.34908-0.44810 0.51041 0.07276 0.83825-0.95990
   1  -7   1 1339.69 239.435   4 0.16459-0.06472-0.10536-0.47931 0.99405-0.87192
   1   7   1 1778.08 282.737   6 0.23522-0.13634 0.09542 0.48867 0.99439-0.87163
  -1  -7  -1 1422.39 245.552   9-0.17993 0.08085-0.10286-0.48100-0.99472 0.87211
   1  -7   1 1700.57 294.945   9-0.01726 0.11598-0.47178-0.11199-0.86907 0.99089
   1  -7   1 1632.41 223.294   3 0.31807-0.21927-0.08528-0.49907 0.98741-0.86509
  -1   7  -1 1417.06 211.175   2-0.30509 0.20635 0.08763 0.49642-0.98893 0.86738
  -2   7  -1 3299.57 358.020   1-0.18453 0.00778 0.09635 0.48693-0.99527 0.85929
   2  -7   1 3289.41 348.786   4 0.16605 0.01242-0.10147-0.48332 0.99449-0.85736
   2   7   1 3476.67 386.433   6 0.23121-0.05379 0.08322 0.50089 0.99567-0.85797
  -2   7  -1 3271.08 359.253   6 0.36108-0.53856 0.57080 0.01231 0.79300-0.92950
  -2   7  -1 3411.96 357.223   2-0.28981 0.11261 0.06868 0.51535-0.99226 0.85581
  -2  -7  -1 3586.47 342.745   9-0.18242 0.00486-0.09647-0.48741-0.99538 0.85784
   2  -7   1 3072.52 373.299   9-0.00886 0.18605-0.48847-0.09528-0.85864 0.99538
   2  -7   1 2981.29 320.363   3 0.29637-0.11894-0.06617-0.51830 0.99170-0.85440
  -2  -7  -1 3458.15 283.219   8-0.30686 0.12942-0.06384-0.51947-0.99067 0.85348
  -2  -7  -1 3366.68 369.790   4 0.00316-0.17977-0.48645-0.09699 0.85804-0.99530
  -3   7  -1 233.863 138.689   1-0.18366-0.07147 0.10103 0.48218-0.99480 0.84397
  -3  -7  -1 225.083 87.0053   4-0.00768-0.24745-0.50881-0.07448 0.84334-0.99551
  -3  -7  -1 199.136 100.775   9-0.18024-0.07579-0.10208-0.48183-0.99480 0.84233
   3  -7   1 275.711 107.373   4 0.16290 0.09415-0.10986-0.47505 0.99352-0.84138
   3   7   1 63.1756 83.3363   6 0.23063 0.02532 0.08147 0.50265 0.99584-0.84321
   3  -7   1 146.133 100.163   9 0.00280 0.25286-0.51127-0.07244-0.84355 0.99521
  -3   7  -1 60.8065 75.4122   2-0.28364 0.02800 0.06108 0.52290-0.99341 0.84207
  -3  -7  -1 223.632 92.7623   8-0.29124 0.03539-0.05760-0.52572-0.99290 0.84080
  -4   7  -1 526.224 129.599   1-0.18046-0.15304 0.11798 0.46517-0.99290 0.82722
  -4  -7  -1 490.989 164.949   4-0.02132-0.31230-0.53642-0.04672 0.82389-0.99093
   4  -7   1 606.041 163.572   4 0.15413 0.18151-0.13306-0.45192 0.99041-0.82327
   4   7   1 760.385 213.139   6 0.23311 0.10138 0.08896 0.49517 0.99509-0.82752
  -4  -7  -1 628.987 152.978   9-0.17233-0.16216-0.12222-0.46172-0.99245 0.82504
   4  -7   1 693.358 203.638   9 0.01731 0.31681-0.53911-0.04460-0.82377 0.99036
  -4  -7  -1 500.883 122.893   8-0.29180-0.04246-0.05782-0.52550-0.99283 0.82581
  -4   7  -1 510.548 170.284   2-0.28451-0.04958 0.06215 0.52181-0.99325 0.82702
  -5  -7  -1 -29.450 115.241   4-0.03748-0.37462-0.56831-0.01468 0.79947-0.98138
   5  -7   1 85.5070 84.2656   3 0.29611 0.11721-0.06593-0.51868 0.99175-0.80952
   5   7   1 -81.072 97.2344   6 0.23827 0.17473 0.10471 0.47940 0.99330-0.81080
  -5   7  -1 88.4120 67.8747   1-0.17453-0.23733 0.14860 0.43452-0.98870 0.80817
  -5   7  -1 97.4114 106.426   2-0.29089-0.12164 0.07003 0.51391-0.99204 0.81092
  -5  -7  -1 -101.54 120.033   8-0.30230-0.11038-0.06202-0.52132-0.99136 0.80943
   6  -7   1 -256.40 180.587   3 0.30883 0.18311-0.07711-0.50750 0.98936-0.79215
   6   7   1 -18.716 137.647   6 0.24578 0.24572 0.12798 0.45612 0.99013-0.79270
   6  -7   1 68.8464 75.5740   9 0.05373 0.43733-0.60603 0.02235-0.76935 0.96578
  -6   7  -1 -32.773 123.269   2-0.30167-0.18931 0.08338 0.50054-0.98973 0.79371
  -6  -7  -1 -78.945 114.134   8-0.31938-0.17173-0.06886-0.51450-0.98865 0.79181
   7  -7   1 1.08833 130.841   3 0.32553 0.24499-0.09188-0.49271 0.98572-0.77353
  -7   7  -1 245.970 159.994   2-0.31600-0.25342 0.10128 0.48263-0.98614 0.77523
  -8  -8   1 385.133 274.038   4 0.00456-0.61131-0.48355-0.18281 0.85988-0.87227
   8   8  -1 1037.83 279.673   6 0.33445 0.27308 0.44475 0.22201 0.87959-0.86689
   8  -8  -1 1320.64 356.952   9-0.00883 0.61591-0.48852-0.17858-0.85861 0.87028
  -8   8   1 895.290 268.535   5-0.56882-0.03900 0.22610 0.44097-0.88434 0.87321
  -8  -8   1 910.073 258.784   8-0.60669-0.00074-0.18792-0.47900-0.87377 0.86134
   7   8  -1 -22.398 142.714   6 0.32937 0.19967 0.42337 0.24341 0.89147-0.89372
  -7  -8   1 -3.5140 107.450   4 0.02901-0.55732-0.43155-0.23502 0.89041-0.88792
  -7  -8   1 217.809 170.731   8-0.61001 0.08100-0.18935-0.47756-0.87149 0.87398
   7  -8  -1 -109.27 153.268   9-0.03448 0.56309-0.43685-0.23026-0.88933 0.88609
  -7   8   1 35.4962 129.111   5-0.56883 0.03942 0.22611 0.44103-0.88433 0.88807
  -7   8   1 -28.372 131.787   2-0.47147-0.05752 0.30836 0.35934-0.90057 0.90376
   7  -8  -1 17.2841 92.6111   3 0.51646 0.01225-0.26977-0.39731 0.89589-0.89881
  -6  -8   1 320.483 200.132   4 0.05132-0.50114-0.38242-0.28437 0.91524-0.89785
   6   8  -1 568.720 204.392   6 0.32571 0.12482 0.40836 0.25843 0.89937-0.91656
   6  -8  -1 662.686 200.647   9-0.05797 0.50811-0.38775-0.27938-0.91445 0.89627
  -6   8   1 467.028 188.520   5-0.57515 0.12417 0.23020 0.43703-0.87986 0.89849
  -6   8   1 885.509 242.204   2-0.47054 0.01999 0.30701 0.36071-0.90141 0.91950
   6  -8  -1 331.092 191.234   3 0.51821-0.06811-0.27149-0.39553 0.89456-0.91243
  -6  -8   1 475.125 142.380   8-0.62132 0.17071-0.19423-0.47268-0.86350 0.88091
   5  -8  -1 -37.835 95.8827   9-0.07921 0.45089-0.34183-0.32531-0.93463 0.90153
  -5   8   1 14.1530 104.963   5-0.58932 0.21680 0.23942 0.42791-0.86941 0.90293
  -5   8   1 44.3263 75.4106   2-0.47376 0.10167 0.31161 0.35613-0.89852 0.93152
   5  -8  -1 205.410 142.260   3 0.52562-0.15414-0.27882-0.38814 0.88881-0.92161
  -4  -8   1 743.706 218.287   4 0.08913-0.38194-0.29521-0.37201 0.95067-0.90343
   4  -8  -1 193.178 89.1204   9-0.09811 0.39132-0.29973-0.36741-0.95051 0.90249
   4   8  -1 631.535 202.501   6 0.32346-0.02995 0.39928 0.26750 0.90398-0.95104
  -4   8   1 535.158 158.462   5-0.61332 0.31929 0.25519 0.41225-0.85026 0.89870
  -4   8   1 294.807 101.468   2-0.48182 0.18819 0.32318 0.34459-0.89102 0.93893
   4  -8  -1 674.908 166.955   3 0.53983-0.24695-0.29298-0.37388 0.87718-0.92489
   3  -8  -1 218.050 102.534   4-0.01094 0.22725-0.51548-0.15207 0.83878-0.90125
  -3  -8   1 60.3330 83.9298   4 0.10444-0.31872-0.25846-0.40897 0.96253-0.90035
  -3   8   1 253.099 118.292   6 0.30675-0.52200 0.33466 0.33250 0.93330-0.87016
   3   8  -1 156.361 115.153   6 0.32519-0.11019 0.40624 0.26052 0.90046-0.96244
   3  -8  -1 292.920 147.355   9-0.11454 0.32929-0.26215-0.40501-0.96268 0.89973
  -3  -8   1 173.454 94.7049   9 0.00389-0.21910-0.51340-0.15388-0.84210 0.90417
  -3   8   1 141.935 131.854   5-0.64948 0.43397 0.27937 0.38818-0.81758 0.88094
   3  -8  -1 34.3583 103.654   3 0.56212-0.34782-0.31550-0.35122 0.85722-0.91979
  -3   8   1 48.1228 105.467   2-0.49542 0.28024 0.34296 0.32485-0.87748 0.94031
   2  -8  -1 399.945 142.869   4-0.00011 0.13784-0.49324-0.17421 0.85368-0.93115
   2   8  -1 370.189 171.421   6 0.32895-0.19247 0.42163 0.24510 0.89240-0.96930
  -2  -8   1 237.458 136.184   4 0.11718-0.25290-0.22722-0.44039 0.97126-0.89411
  -2   8   1 319.009 110.166   6 0.28883-0.42556 0.26991 0.39736 0.95688-0.87883
   2  -8  -1 103.290 86.2560   9-0.12836 0.26465-0.22983-0.43736-0.97169 0.89381
  -2  -8   1 124.493 102.927   9-0.00709-0.12964-0.49196-0.17529-0.85639 0.93339
  -2   8   1 142.735 75.9126   2-0.51521 0.37852 0.37235 0.29550-0.85557 0.93331
   2  -8  -1 284.361 142.645   3 0.59380-0.45806-0.34829-0.31829 0.82475-0.90213
   1  -8  -1 788.332 192.845   4 0.00522 0.05394-0.48217-0.18516 0.86075-0.95321
  -1  -8   1 680.433 189.834   4 0.12716-0.18431-0.20232-0.46547 0.97736-0.88522
   1   8  -1 720.347 197.756   1-0.16265 0.22118 0.20703 0.46004-0.97791 0.88658
  -1   8   1 609.444 168.704   6 0.27441-0.33261 0.22049 0.44685 0.97124-0.87827
   1   8  -1 685.738 210.660   6 0.33475-0.27679 0.44601 0.22067 0.87886-0.97067
  -1   8   1 728.826 166.034   2-0.54165 0.48343 0.41290 0.25500-0.82156 0.91421
   1  -8  -1 733.265 175.319   9-0.13937 0.19718-0.20359-0.46362-0.97804 0.88524
  -1  -8   1 774.669 210.731   9-0.01224-0.04600-0.48177-0.18546-0.86289 0.95481
   0  -8  -1 181.233 110.277   4 0.00597-0.02537-0.48061-0.18660 0.86174-0.96915
   0   8  -1 586.401 163.696   2-0.38377 0.36350 0.18839 0.47920-0.96035 0.85375
   0  -8   1 152.633 106.647   4 0.13415-0.11271-0.18467-0.48329 0.98123-0.87409
   0   8   1 387.080 123.746   6 0.26356-0.24323 0.18464 0.48277 0.97977-0.87187
   0   8  -1 223.060 107.090   6 0.34247-0.36302 0.47988 0.18675 0.85842-0.96511
   0   8  -1 425.032 163.498   1-0.16723 0.14733 0.18489 0.48205-0.98243 0.87625
   0  -8   1 233.585 91.9907   9-0.01261 0.03283-0.48104-0.18615-0.86335 0.97018
   0  -8  -1 328.265 138.500   9-0.14732 0.12667-0.18435-0.48289-0.98217 0.87443
   1  -8   1 574.884 144.755   3 0.38764-0.28900-0.14782-0.51982 0.96688-0.84453
  -1  -8  -1 502.951 160.512   4 0.00282-0.10078-0.48716-0.17990 0.85759-0.97995
   1  -8   1 776.097 200.236   4 0.13782-0.03780-0.17530-0.49279 0.98313-0.86099
   1   8   1 454.537 158.216   6 0.25616-0.15730 0.16076 0.50670 0.98459-0.86176
  -1   8  -1 482.927 133.864   2-0.35552 0.25677 0.15156 0.51598-0.97296 0.85146
  -1  -8  -1 540.140 151.231   9-0.15190 0.05278-0.17317-0.49409-0.98436 0.86168
  -1   8  -1 336.136 137.189   1-0.16997 0.07166 0.17144 0.49539-0.98492 0.86388
   1  -8   1 406.259 172.213   9-0.00892 0.10762-0.48834-0.17882-0.85872 0.98048
  -1   8  -1 557.368 191.961   6 0.35182-0.45087 0.52354 0.14301 0.82904-0.95061
  -2  -8  -1 116.839 85.8214   4-0.00371-0.17278-0.50067-0.16623 0.84880-0.98609
   2  -8   1 25.1827 74.4916   3 0.36070-0.18341-0.12336-0.54444 0.97612-0.83881
  -2   8  -1 226.331 123.278   1-0.17080-0.00589 0.16730 0.49942-0.98565 0.84976
   2  -8   1 62.2477 87.4441   4 0.13774 0.04087-0.17550-0.49271 0.98309-0.84595
   2   8   1 2.07739 97.9335   6 0.25200-0.07459 0.14748 0.52000 0.98699-0.84922
  -2   8  -1 157.096 113.960   2-0.33797 0.16077 0.12908 0.53842-0.97942 0.84304
  -2  -8  -1 15.7760 82.1908   9-0.15263-0.02494-0.17134-0.49594-0.98470 0.84709
  -2   8  -1 120.155 114.427   6 0.36221-0.53973 0.57700 0.08949 0.78792-0.92434
   2  -8   1 65.0520 115.117   9-0.00174 0.17891-0.50245-0.16470-0.84951 0.98620
  -3  -8  -1 164.468 114.119   4-0.01322-0.24180-0.52012-0.14663 0.83556-0.98775
   3  -8   1 152.958 114.757   3 0.34665-0.09073-0.11073-0.55718 0.98027-0.82799
  -3  -8  -1 165.014 100.600   9-0.14890-0.10716-0.18050-0.48682-0.98294 0.83040
   3  -8   1 115.334 105.089   4 0.13328 0.12392-0.18687-0.48145 0.98077-0.82862
   3   8   1 48.9187 94.5465   6 0.25078 0.00515 0.14366 0.52385 0.98764-0.83493
  -3   8  -1 64.4827 96.0832   2-0.32887 0.07322 0.11751 0.54994-0.98239 0.83110
   3  -8   1 71.8245 74.8503   9 0.00851 0.24712-0.52231-0.14482-0.83590 0.98751
  -3   8  -1 176.728 61.5921   1-0.16961-0.08546 0.17319 0.49345-0.98461 0.83387
  -4   8  -1 852.786 233.194   2-0.32650-0.00760 0.11451 0.55291-0.98312 0.81694
  -4  -8  -1 984.512 267.879   4-0.02542-0.30813-0.54457-0.12202 0.81785-0.98494
   4  -8   1 822.600 224.711   3 0.34209-0.00752-0.10664-0.56134 0.98153-0.81427
   4   8   1 635.385 199.338   6 0.25226 0.08221 0.14831 0.51920 0.98684-0.81920
  -4   8  -1 1016.04 230.388   1-0.16619-0.16726 0.19000 0.47659-0.98144 0.81586
   4  -8   1 881.827 233.029   9 0.02149 0.31260-0.54698-0.12011-0.81789 0.98442
  -5  -8  -1 162.448 151.337   4-0.04002-0.37201-0.57323-0.09321 0.79550-0.97748
   5  -8   1 -20.177 122.801   3 0.34467 0.06851-0.10896-0.55906 0.98082-0.79858
   5   8   1 -155.93 181.333   6 0.25613 0.15685 0.16067 0.50684 0.98461-0.80204
  -5   8  -1 14.2775 126.125   2-0.32956-0.08299 0.11838 0.54902-0.98217 0.80111
   5  -8   1 149.119 107.700   9 0.03693 0.37564-0.57567-0.09141-0.79532 0.97678
  -5  -8  -1 163.460 129.337   8-0.37571-0.03703-0.09161-0.57507-0.97686 0.79494
   6  -8   1 372.195 221.372   3 0.35280 0.13901-0.11625-0.55179 0.97851-0.78128
  -6   8  -1 463.127 266.856   2-0.33703-0.15397 0.12787 0.53951-0.97974 0.78379
   6  -8   1 208.925 138.512   9 0.05461 0.43642-0.60760-0.05948-0.76794 0.96433
   7  -8   1 307.020 210.295   3 0.36529 0.20512-0.12750-0.54052 0.97466-0.76244
  -7   8  -1 159.775 236.270   2-0.34815-0.22130 0.14208 0.52529-0.97580 0.76495
  -7   9   1 51.2968 175.475   5-0.60485 0.07539 0.24959 0.50098-0.85724 0.86111
  -6  -9   1 -82.816 115.568   4 0.03786-0.48759-0.41226-0.33800 0.90060-0.88322
   6   9  -1 103.998 95.6193   6 0.33227 0.11827 0.43548 0.31470 0.88483-0.90192
   6  -9  -1 202.507 137.556   9-0.04415 0.49428-0.41682-0.33369-0.90003 0.88181
  -6   9   1 97.0265 154.971   5-0.61338 0.16237 0.25523 0.49545-0.85021 0.86896
  -6   9   1 180.009 158.653   2-0.49085 0.04029 0.33628 0.41491-0.88216 0.90033
   6  -9  -1 8.66274 94.5809   3 0.54604-0.09604-0.29922-0.45123 0.87183-0.88961
  -5  -9   1 25.3162 185.607   4 0.05590-0.42712-0.37210-0.37837 0.91999-0.88769
   5   9  -1 173.459 133.905   6 0.33063 0.04140 0.42862 0.32156 0.88861-0.92065
   5  -9  -1 -88.901 90.2101   9-0.06327 0.43493-0.37641-0.37411-0.91971 0.88657
  -5   9   1 35.6232 79.4611   5-0.62948 0.25693 0.26592 0.48486-0.83627 0.86992
  -5   9   1 43.1498 109.945   2-0.49475 0.12264 0.34198 0.40923-0.87818 0.91125
   5  -9  -1 -8.3526 83.0414   3 0.55454-0.18315-0.30782-0.44256 0.86425-0.89694
  -4  -9   1 301.124 221.614   4 0.07171-0.36439-0.33601-0.41467 0.93541-0.88817
   4   9  -1 789.657 253.636   6 0.33059-0.03708 0.42844 0.32173 0.88872-0.93569
   4  -9  -1 526.463 216.544   9-0.08012 0.37331-0.33984-0.41071-0.93544 0.88736
   4  -9  -1 551.651 191.821   3 0.56930-0.27651-0.32286-0.42739 0.85030-0.89789
  -4   9   1 677.449 188.132   2-0.50304 0.20939 0.35418 0.39707-0.86938 0.91736
   3  -9  -1 -95.973 76.9624   4-0.02223 0.23869-0.53821-0.21280 0.82256-0.88499
  -3  -9   1 -51.004 77.7537   4 0.08516-0.29930-0.30458-0.44630 0.94736-0.88516
  -3   9   1 -100.80 85.8595   6 0.31944-0.53471 0.38325 0.36728 0.91182-0.84858
   3   9  -1 -277.25 168.398   6 0.33224-0.11725 0.43535 0.31479 0.88490-0.94679
   3  -9  -1 69.0557 133.874   9-0.09458 0.30930-0.30768-0.44289-0.94770 0.88469
  -3  -9   1 -54.201 98.4170   9 0.01598-0.23121-0.53657-0.21411-0.82564 0.88765
  -3   9   1 -84.113 82.3401   2-0.51623 0.30105 0.37388 0.37739-0.85437 0.91726
   3  -9  -1 -64.477 70.9535   3 0.59129-0.37708-0.34567-0.40445 0.82751-0.88996
   2  -9  -1 995.683 238.615   4-0.01186 0.14976-0.51735-0.23356 0.83748-0.91491
  -2  -9   1 907.255 230.252   4 0.09615-0.23172-0.27845-0.47261 0.95629-0.87912
  -2   9   1 1021.92 226.466   6 0.30405-0.44080 0.32462 0.42601 0.93732-0.85918
   2   9  -1 917.208 226.864   6 0.33563-0.19918 0.44981 0.30030 0.87667-0.95347
  -2   9   1 881.314 205.785   2-0.53479 0.39809 0.40224 0.34909-0.83095 0.90876
   2  -9  -1 1049.07 261.046   9-0.10652 0.24278-0.28062-0.46997-0.95693 0.87900
  -2  -9   1 792.446 192.821   9 0.00542-0.14217-0.51636-0.23430-0.84006 0.91699
   2  -9  -1 1390.04 295.152   3 0.62140-0.48573-0.37773-0.37223 0.79179-0.86905
   1  -9  -1 729.452 210.183   4-0.00646 0.06577-0.50633-0.24447 0.84502-0.93745
  -1  -9   1 458.917 169.747   4 0.10449-0.16149-0.25833-0.49289 0.96257-0.87041
  -1   9   1 489.393 165.611   6 0.29141-0.34963 0.27897 0.47174 0.95391-0.86085
  -1   9   1 584.105 195.982   2-0.55892 0.50071 0.44040 0.31097-0.79575 0.88848
   1   9  -1 786.442 219.725   6 0.34077-0.28283 0.47226 0.27781 0.86319-0.95490
   1  -9  -1 646.467 196.451   9-0.11575 0.17354-0.25935-0.49126-0.96351 0.87065
  -1  -9   1 446.473 181.041   9 0.00010-0.05837-0.50604-0.24458-0.84710 0.93896
   0  -9  -1 33.4400 109.553   4-0.00523-0.01403-0.50380-0.24686 0.84672-0.95411
   0  -9   1 72.1145 76.1153   4 0.10995-0.08836-0.24502-0.50636 0.96643-0.85928
   0   9   1 390.132 179.111   6 0.28165-0.26134 0.24504 0.50574 0.96449-0.85650
   0   9  -1 223.717 176.132   6 0.34752-0.36810 0.50307 0.24694 0.84326-0.94986
   0  -9  -1 313.150 180.852   9-0.12203 0.10136-0.24471-0.50593-0.96771 0.85991
   0  -9   1 94.2775 76.0561   9-0.00084 0.02103-0.50422-0.24637-0.84833 0.95511
  -1  -9  -1 166.487 91.4886   4-0.00760-0.09022-0.50866-0.24187 0.84345-0.96580
  -1   9  -1 432.983 161.139   2-0.40150 0.30275 0.21189 0.53912-0.95095 0.82951
   1  -9   1 251.690 134.964   4 0.11223-0.01205-0.23945-0.51207 0.96799-0.84583
   1   9   1 338.501 126.427   6 0.27475-0.17590 0.22163 0.52919 0.97094-0.84802
  -1  -9  -1 220.287 72.5839   9-0.12506 0.02591-0.23762-0.51304-0.96964 0.84691
  -1   9  -1 387.384 152.538   6 0.35564-0.45471 0.54246 0.20748 0.81517-0.93664
   1  -9   1 471.892 231.279   9 0.00198 0.09669-0.50970-0.24087-0.84463 0.96634
   2  -9   1 1154.98 253.758   3 0.42141-0.24427-0.17894-0.57218 0.95282-0.81544
  -2  -9  -1 1632.32 316.013   4-0.01313-0.16324-0.51992-0.23046 0.83569-0.97299
  -2   9  -1 1385.43 296.844   1-0.15728-0.01937 0.23229 0.51788-0.97209 0.83631
   2  -9   1 1099.59 261.164   4 0.11090 0.06786-0.24269-0.50894 0.96709-0.82992
  -2   9  -1 1335.55 264.724   2-0.38262 0.20541 0.18687 0.56410-0.96092 0.82459
   2   9   1 1442.25 315.738   6 0.27058-0.09320 0.20773 0.54313 0.97445-0.83659
  -2  -9  -1 1163.16 249.640   9-0.12438-0.05324-0.23922-0.51147-0.96921 0.83154
  -2   9  -1 978.107 245.006   6 0.36462-0.54218 0.59045 0.15942 0.77659-0.91292
   2  -9   1 1252.59 302.872   9 0.00807 0.16907-0.52147-0.22908-0.83649 0.97312
  -3  -9  -1 60.9517 106.886   4-0.02148-0.23342-0.53674-0.21349 0.82365-0.97587
   3  -9   1 69.9732 77.6146   3 0.40323-0.14746-0.16212-0.58913 0.96075-0.80841
   3  -9   1 213.261 170.709   4 0.10539 0.15197-0.25617-0.49556 0.96321-0.81103
  -3   9  -1 136.264 100.633   2-0.37147 0.11580 0.17225 0.57869-0.96619 0.81497
   3   9   1 37.0131 123.802   6 0.26898-0.01306 0.20241 0.54847 0.97573-0.82294
  -3  -9  -1 -133.00 72.8571   9-0.11938-0.13671-0.25092-0.49980-0.96596 0.81336
   3  -9   1 193.243 125.505   9 0.01708 0.23853-0.53866-0.21186-0.82411 0.97566
  -4  -9  -1 566.125 276.063   4-0.03238-0.30106-0.55834-0.19172 0.80734-0.97446
   4  -9   1 471.167 143.995   3 0.39441-0.06000-0.15402-0.59732 0.96429-0.79698
  -4   9  -1 595.711 223.571   2-0.36664 0.03251 0.16596 0.58494-0.96834 0.80222
   4   9   1 955.871 306.739   6 0.26974 0.06471 0.20492 0.54596 0.97513-0.80740
   4  -9   1 451.873 214.600   9 0.02870 0.30537-0.56048-0.19003-0.80750 0.97399
  -5  -9  -1 77.0458 79.8183   4-0.04561-0.36634-0.58402-0.16587 0.78661-0.96863
   5  -9   1 231.510 182.691   3 0.39285 0.02020-0.15259-0.59881 0.96490-0.78260
  -5   9  -1 241.199 190.031   2-0.36704-0.04553 0.16648 0.58440-0.96816 0.78716
   5   9   1 -104.34 176.821   6 0.27265 0.14032 0.21461 0.53628 0.97274-0.79008
   5  -9   1 -2.5444 98.2330   9 0.04270 0.36984-0.58620-0.16428-0.78657 0.96798
   6  -9   1 216.945 249.073   3 0.39702 0.09465-0.15641-0.59502 0.96326-0.76597
  -6   9  -1 18.4329 96.0398   5-0.42803-0.06297 0.13783 0.61232-0.95818 0.76217
   5 -10  -1 215.148 184.288   3 0.58429-0.21298-0.33835-0.49542 0.83505-0.86760
  -4  10   1 29.2320 108.220   2-0.52469 0.23103 0.38669 0.44802-0.84406 0.89213
   4 -10  -1 174.714 127.734   3 0.59941-0.30670-0.35421-0.47943 0.81843-0.86587
  -3 -10   1 169.344 184.514   4 0.06560-0.27959-0.35007-0.48427 0.92962-0.86739
   3  10  -1 125.502 118.601   6 0.33949-0.12451 0.46656 0.36697 0.86669-0.92848
  -3  10   1 114.996 116.447   2-0.53746 0.32228 0.40637 0.42839-0.82735 0.89032
   3 -10  -1 512.304 243.847   9-0.07425 0.28895-0.35267-0.48130-0.93014 0.86708
   2 -10  -1 12.4605 128.847   4-0.02557 0.16361-0.54487-0.28951 0.81762-0.89499
  -2 -10   1 122.832 131.850   4 0.07511-0.21053-0.32814-0.50638 0.93853-0.86132
  -2  10   1 118.970 104.155   6 0.31779-0.45457 0.37682 0.45718 0.91486-0.83660
  -2  10   1 315.016 166.238   2-0.55486 0.41816 0.43386 0.40094-0.80211 0.87999
  -2 -10   1 350.944 191.640   9 0.01997-0.15674-0.54412-0.28994-0.82004 0.89692
   2  10  -1 146.632 161.022   6 0.34256-0.20611 0.48029 0.35321 0.85816-0.93486
   2 -10  -1 230.250 135.311   9-0.08460 0.22084-0.32994-0.50406-0.93936 0.86137
   1 -10  -1 806.844 275.733   4-0.01998 0.07945-0.53372-0.30054 0.82585-0.91822
  -1 -10   1 888.250 250.715   4 0.08206-0.13889-0.31190-0.52277 0.94469-0.85250
  -1  10   1 969.981 307.245   6 0.30667-0.36491 0.33433 0.49975 0.93344-0.84026
   1 -10  -1 630.399 228.432   9-0.09233 0.15010-0.31273-0.52128-0.94587 0.85295
   1  10  -1 617.728 255.470   6 0.34712-0.28919 0.50118 0.33227 0.84453-0.93614
  -1 -10   1 781.185 230.787   9 0.01438-0.07268-0.53354-0.30048-0.82786 0.91965
   0 -10  -1 3.41495 143.724   4-0.01826-0.00085-0.53027-0.30387 0.82835-0.93571
   0 -10   1 30.5920 110.820   4 0.08622-0.06448-0.30209-0.53273 0.94825-0.84106
   0 -10  -1 180.247 163.470   9-0.09720 0.07650-0.30179-0.53226-0.94979 0.84193
   0  10   1 191.603 153.114   6 0.29789-0.27761 0.30212 0.53203 0.94585-0.83776
   0  10  -1 123.940 170.143   6 0.35305-0.37362 0.52951 0.30388 0.82474-0.93123
   0 -10   1 208.964 127.339   9 0.01287 0.00730-0.53066-0.30333-0.82994 0.93667
  -1 -10  -1 915.444 251.673   4-0.01991-0.07777-0.53358-0.30043 0.82595-0.94828
   1 -10   1 669.189 217.570   4 0.08732 0.01302-0.29950-0.53544 0.94917-0.82696
   1  10   1 1071.09 281.114   6 0.29149-0.19266 0.27928 0.55491 0.95381-0.83079
  -1 -10  -1 860.179 213.409   9-0.09890-0.00027-0.29795-0.53612-0.95113 0.82834
  -1  10  -1 793.189 271.443   6 0.36008-0.45917 0.56548 0.26785 0.79730-0.91867
   1 -10   1 714.484 229.240   9 0.01488 0.08376-0.53450-0.29948-0.82716 0.94881
  -2 -10  -1 503.630 207.825   4-0.02454-0.15170-0.54283-0.29102 0.81915-0.95642
  -2  10  -1 366.302 148.072   2-0.42435 0.24712 0.24272 0.59174-0.93696 0.80069
   2 -10   1 505.755 194.448   4 0.08493 0.09399-0.30512-0.52992 0.94716-0.80994
   2  10   1 538.334 179.742   6 0.28743-0.11007 0.26503 0.56920 0.95844-0.82049
  -2 -10  -1 366.295 216.630   9-0.09701-0.08063-0.30222-0.53188-0.94964 0.81191
  -2  10  -1 -64.496 125.113   6 0.36782-0.54540 0.60904 0.22423 0.76020-0.89643
   2 -10   1 290.972 145.565   9 0.02000 0.15712-0.54419-0.28975-0.81999 0.95658
  -3 -10  -1 151.797 190.184   4-0.03186-0.22293-0.55731-0.27639 0.80813-0.96035
  -3  10  -1 -107.02 90.2621   2-0.41178 0.15609 0.22568 0.60873-0.94492 0.79376
   3  10   1 77.7938 161.990   6 0.28560-0.02970 0.25863 0.57561 0.96043-0.80754
   4 -10   1 18.7314 107.377   3 0.44550-0.11125-0.20149-0.63320 0.94096-0.77356
  -4  10  -1 144.449 152.112   2-0.40509 0.07096 0.21670 0.61768-0.94889 0.78284
   5 -10   1 -76.551 91.1086   3 0.44048-0.02758-0.19676-0.63800 0.94357-0.76118
   1 -11  -1 30.1698 91.0823   4-0.03499 0.09462-0.56345-0.35428 0.80333-0.89563
  -1 -11   1 207.333 91.1995   9 0.03025-0.08858-0.56337-0.35406-0.80522 0.89696
  -1  11   1 -37.074 164.476   6 0.32049-0.37876 0.38744 0.53000 0.90981-0.81652
   0 -11  -1 317.202 154.500   9-0.07251 0.05179-0.35647-0.56098-0.92853 0.82061
   0 -11   1 380.978 209.384   9 0.02817-0.00803-0.55951-0.35790-0.80826 0.91493
   1 -11   1 -37.661 111.534   4 0.06274 0.03776-0.35659-0.56176 0.92684-0.80457
  -1  11  -1 -101.77 84.7844   6 0.36480-0.46391 0.59147 0.32526 0.77571-0.89696
  -1 -11  -1 -65.150 139.319   9-0.07305-0.02614-0.35529-0.56219-0.92903 0.80618
 -12   0   2 750.408 257.125   8-0.64661-0.25428-0.20522 0.20504-0.84435 0.87971
  11   0  -2 -28.152 128.537   7 0.63431 0.18780 0.10161-0.10211 0.87304-0.92344
 -11   0   2 96.1256 103.989   5-0.62682-0.19611 0.26415-0.26356-0.83864 0.88982
 -11   0   2 111.274 139.189   8-0.63020-0.19221-0.19808 0.19790-0.85698 0.90726
  10   0  -2 86.0592 145.664   7 0.62165 0.12199 0.09908-0.09956 0.88107-0.94640
 -10   0   2 586.787 200.653   5-0.61411-0.13044 0.25571-0.25516-0.84961 0.91562
 -10   0   2 656.291 200.092   8-0.61744-0.12649-0.19255 0.19238-0.86628 0.93147
   9   0  -2 -2.6092 107.984   7 0.61391 0.05127 0.09753-0.09800 0.88581-0.96606
   9   0  -2 19.7071 59.5187   3 0.59496 0.06996-0.34951 0.35002 0.82346-0.90356
  -9   0   2 79.2717 70.5469   5-0.60599-0.06017 0.25034-0.24985-0.85631 0.93719
  -9   0   2 28.4654 105.830   8-0.60944-0.05601-0.18911 0.18894-0.87188 0.95199
   8   0  -2 93.3177 119.187   7 0.61266-0.02595 0.09728-0.09773 0.88656-0.98173
   8   0  -2 270.533 104.316   3 0.59217-0.00574-0.34660 0.34708 0.82654-0.92157
  -8   0   2 179.310 99.2052   5-0.60393 0.01617 0.24899-0.24854-0.85798 0.95373
  -8   0   2 242.581 132.949   8-0.60775 0.02077-0.18838 0.18822-0.87305 0.96808
   7   0  -2 -44.541 48.9474   7 0.62018-0.11194 0.09878-0.09922 0.88198-0.99207
   7   0  -2 44.8684 69.6225   3 0.59665-0.08867-0.35129 0.35176 0.82156-0.93151
  -7   0   2 40.1969 70.0046   5-0.60994 0.10060 0.25294-0.25255-0.85308 0.96375
  -7   0   2 -6.8189 55.4305   8-0.61450 0.10599-0.19128 0.19113-0.86836 0.97831
   6   0  -2 1244.69 191.941   7 0.63969-0.20990 0.10268-0.10310 0.86952-0.99451
  -6   0   2 1165.43 112.887   4 0.21173-0.64180 0.02578-0.02525 0.99944-0.87450
  -6   0   2 1173.55 181.254   8-0.63267 0.20264-0.19915 0.19901-0.85513 0.97999
   6   0  -2 1116.48 111.470   9-0.21213 0.64202-0.01795 0.01797-0.99960 0.87455
  -6   0   2 1277.68 184.749   5-0.62672 0.19584 0.26408-0.26372-0.83873 0.96434
   5   0  -2 10.5326 31.9641   7 0.67566-0.32432 0.10993-0.11032 0.84419-0.98409
   5   0  -2 -15.539 22.9280   9-0.30778 0.65924 0.27006-0.27005-0.95402 0.81411
  -5   0   2 21.5360 31.3533   4 0.30073-0.65254 0.31268-0.31226 0.94194-0.80208
   5   0  -2 -6.5271 63.0611   3 0.63627-0.28519-0.39400 0.39439 0.77187-0.91159
  -5   0   2 14.9551 33.0026   5-0.65773 0.30532 0.28496-0.28465-0.80940 0.94999
  -5   0   2 -17.359 38.1899   8-0.66630 0.31474-0.21384 0.21371-0.82814 0.96791
   4   0  -2 16248.5 619.872   7 0.73356-0.46066 0.12173-0.12211 0.79597-0.95076
  -4   0   2 16244.4 742.308   8-0.71997 0.44689-0.23774 0.23761-0.77714 0.93184
 -12   1   2 225.827 178.691   5-0.62679-0.27447 0.26413-0.18020-0.83866 0.87504
 -12   1   2 264.906 203.082   8-0.66563-0.23527-0.21355 0.29681-0.82870 0.86410
  11   1  -2 -22.247 108.473   7 0.62936 0.19275 0.10062-0.01773 0.87622-0.92657
  11  -1  -2 52.9904 99.1612   7 0.64644 0.17567 0.10404-0.18792 0.86501-0.91546
 -11   1   2 118.045 128.685   5-0.61000-0.21288 0.25298-0.16910-0.85303 0.90420
 -11  -1   2 31.3437 111.835   8-0.61786-0.20455-0.19274 0.10915-0.86598 0.91621
 -11   1   2 -289.30 155.016   8-0.65032-0.17211-0.20684 0.29009-0.84139 0.89171
  10   1  -2 887.573 273.523   7 0.61649 0.12716 0.09804-0.01514 0.88424-0.94952
  10  -1  -2 658.356 266.755   7 0.63468 0.10897 0.10168-0.18554 0.87280-0.93818
  10  -1  -2 1340.51 258.042   3 0.57943 0.16405-0.33331 0.25056 0.84012-0.90535
 -10  -1   2 1306.59 233.826   5-0.64107-0.10355 0.27369-0.35646-0.82564 0.89170
 -10   1   2 1056.85 242.581   5-0.59651-0.14799 0.24411-0.16027-0.86387 0.92988
 -10  -1   2 1589.12 294.495   8-0.60448-0.13945-0.18697 0.10339-0.87528 0.94042
 -10   1   2 1377.74 281.518   8-0.63895-0.10498-0.20188 0.28513-0.85034 0.91559
   9   1  -2 83.5168 128.877   7 0.60839 0.05678 0.09643-0.01351 0.88911-0.96931
   9  -1  -2 -20.256 65.7780   7 0.62806 0.03712 0.10036-0.18419 0.87705-0.95735
  -9   1   2 174.747 80.1473   2-0.54700-0.11875 0.42132-0.33758-0.81390 0.89395
  -9  -1   2 -79.063 92.5410   5-0.63512-0.03111 0.26969-0.35252-0.83117 0.91208
   9  -1  -2 -18.933 89.9954   3 0.56973 0.09525-0.32330 0.24054 0.84988-0.93007
  -9   1   2 103.476 70.3686   5-0.58726-0.07885 0.23808-0.15426-0.87096 0.95183
  -9  -1   2 -14.287 68.8988   8-0.59559-0.06986-0.18316 0.09957-0.88120 0.96126
  -9   1   2 -67.572 82.6857   8-0.63276-0.03269-0.19919 0.28245-0.85506 0.93522
   8   1  -2 85.0214 114.933   7 0.60661-0.01991 0.09608-0.01314 0.89016-0.98528
   8  -1  -2 180.402 120.351   7 0.62829-0.04157 0.10040-0.18421 0.87691-0.97213
  -8   1   2 255.261 109.106   2-0.54114-0.04616 0.41210-0.32837-0.82227 0.91722
   8   1  -2 168.788 85.7321   3 0.63254-0.04614-0.38989 0.47359 0.77702-0.87195
  -8  -1   2 161.081 74.4686   5-0.63594 0.04813 0.27025-0.35314-0.83041 0.92620
   8  -1  -2 190.604 84.5622   3 0.56497 0.02152-0.31842 0.23564 0.85450-0.94964
  -8   1   2 188.269 90.8378   5-0.58356-0.00415 0.23566-0.15188-0.87373 0.96948
  -8  -1   2 273.384 124.077   8-0.59260 0.00561-0.18187 0.09830-0.88315 0.97813
  -8   1   2 187.889 102.043   8-0.63345 0.04648-0.19949 0.28275-0.85454 0.94962
  -7  -1   2 1642.15 179.627   4 0.12991-0.63824-0.19540 0.11261 0.97892-0.86892
   7   1  -2 1316.70 254.545   7 0.61330-0.10507 0.09741-0.01446 0.88617-0.99621
   7  -1  -2 1070.76 230.617   7 0.63773-0.12946 0.10229-0.18609 0.87081-0.98094
  -7   1   2 1826.81 231.273   2-0.54058 0.03175 0.41123-0.32752-0.82305 0.93291
   7  -1  -2 1634.19 167.957   9-0.13200 0.64032-0.22120 0.13782-0.97388 0.86367
   7  -1  -2 1764.86 237.591   3 0.56662-0.05862-0.32012 0.23732 0.85291-0.96297
  -7  -1   2 1753.63 237.474   5-0.64582 0.13644 0.27688-0.35985-0.82113 0.93185
  -7   1   2 1878.47 253.059   5-0.58716 0.07787 0.23801-0.15426-0.87104 0.98170
  -7  -1   2 1569.94 233.795   8-0.59745 0.08893-0.18395 0.10038-0.87998 0.98987
  -7   1   2 1806.96 240.088   8-0.64337 0.13489-0.20380 0.28708-0.84691 0.95690
   6   1  -2 23.8182 45.8258   7 0.63153-0.20177 0.10105-0.01809 0.87484-0.99978
   6  -1  -2 34.3845 41.7154   7 0.65977-0.22996 0.10672-0.19050 0.85577-0.98081
  -6   1   2 -14.245 15.6864   4 0.20613-0.63622 0.00962 0.07431 0.99983-0.87481
  -6  -1   2 -4.8487 39.1374   4 0.20402-0.63405 0.00356-0.08646 0.99990-0.87501
   6  -1  -2 61.7257 55.9561   9-0.20926 0.63913-0.02572-0.05764-0.99949 0.87441
  -6   1   2 53.7417 62.3904   2-0.54672 0.11637 0.42089-0.33718-0.81430 0.93908
   6   1  -2 12.7833 26.8495   1-0.20217 0.63302-0.00418 0.08743-0.99992 0.87554
  -6  -1   2 82.0147 83.0439   5-0.66772 0.23679 0.29178-0.37480-0.79910 0.92477
   6  -1  -2 -40.005 46.1022   3 0.57659-0.14708-0.33037 0.24756 0.84302-0.96798
  -6   1   2 284.399 89.3731   5-0.60047 0.16960 0.24672-0.16298-0.86075 0.98635
  -6  -1   2 56.8363 73.0055   8-0.61287 0.18281-0.19058 0.10702-0.86950 0.99431
  -6   1   2 71.3337 71.3335   8-0.66578 0.23578-0.21361 0.29690-0.82858 0.95349
   6   1  -2 -4.4858 15.3387   9-0.18997 0.61989-0.07688 0.16029-0.99709 0.87208
   5   1  -2 14.2600 45.1897   7 0.66556-0.31427 0.10789-0.02491 0.85162-0.99146
   5  -1  -2 7.15464 30.3058   7 0.69899-0.34762 0.11465-0.19841 0.82595-0.96591
  -5   1   2 21.4068 32.6224   2-0.56103 0.20914 0.44379-0.36009-0.79240 0.93211
  -5  -1   2 -22.984 29.5635   4 0.26822-0.61991 0.20015-0.28324 0.97627-0.83645
   5  -1  -2 32.4037 31.4622   9-0.27727 0.62869 0.17086-0.25425-0.98083 0.84086
   5   1  -2 5.99443 26.6363   1-0.23967 0.59184-0.28001 0.36328-0.95839 0.81917
  -5   1   2 1.26695 49.5060   5-0.62660 0.27421 0.26401-0.18030-0.83883 0.97940
  -5  -1   2 60.3742 43.2066   8-0.64255 0.29096-0.20345 0.11990-0.84755 0.98727
  -5   1   2 108.827 58.0071   8-0.70482 0.35331-0.23094 0.31423-0.79264 0.93246
   4   1  -2 649.694 134.373   7 0.72078-0.44792 0.11910-0.03612 0.80750-0.96222
   4  -1  -2 432.895 118.271   7 0.76059-0.48765 0.12732-0.21105 0.76968-0.92454
   4  -1  -2 665.363 150.245   3 0.63066-0.35804-0.38782 0.30497 0.77959-0.93426
  -4   1   2 666.199 132.368   5-0.66916 0.39528 0.29276-0.20909-0.79758 0.95314
  -4  -1   2 715.812 145.116   8-0.69104 0.41792-0.22478 0.14125-0.80596 0.96061
  11   2  -2 38.7199 99.8254   7 0.63130 0.19081 0.10100 0.06528 0.87498-0.92528
  11  -2  -2 123.439 148.402   7 0.66597 0.15614 0.10797-0.27521 0.85133-0.90183
  11  -2  -2 -54.588 75.5688   3 0.57828 0.24379-0.33212 0.16605 0.84130-0.89163
 -11   2   2 243.439 176.155   5-0.60071-0.22214 0.24688-0.07970-0.86056 0.91175
 -11  -2   2 -87.779 95.4976   8-0.61269-0.20970-0.19050 0.02351-0.86963 0.91981
 -11   2   2 267.238 147.541   8-0.67878-0.14364-0.21935 0.38605-0.81721 0.86757
  10   2  -2 -16.935 112.162   7 0.61882 0.12481 0.09851 0.06778 0.88282-0.94804
  10  -2  -2 -25.576 95.5916   7 0.65583 0.08782 0.10593-0.27314 0.85855-0.92398
 -10   2   2 -198.59 106.713   2-0.53788-0.20629 0.40702-0.23982-0.82678 0.89197
  10  -2  -2 -13.960 77.5087   3 0.56457 0.17899-0.31802 0.15192 0.85488-0.92020
 -10   2   2 64.4027 85.8780   5-0.58713-0.15733 0.23800-0.07085-0.87106 0.93709
 -10  -2   2 15.4309 84.8664   8-0.59934-0.14459-0.18476 0.01778-0.87873 0.94382
 -10   2   2 -140.87 117.406   8-0.66968-0.07424-0.21533 0.38204-0.82523 0.89051
   9   2  -2 -48.504 105.528   7 0.61110 0.05405 0.09697 0.06934 0.88749-0.96764
   9  -2  -2 107.269 93.4566   7 0.65119 0.01401 0.10499-0.27219 0.86177-0.94212
  -9   2   2 175.782 102.846   2-0.52736-0.13836 0.39078-0.22360-0.84068 0.92077
  -9  -2   2 322.599 133.747   5-0.67587 0.00958 0.29738-0.46357-0.79035 0.87136
  -9   2   2 24.7386 66.7161   5-0.57759-0.08849 0.23179-0.06466-0.87810 0.95899
   9  -2  -2 164.775 107.075   3 0.55440 0.11065-0.30767 0.14155 0.86438-0.94466
  -9  -2   2 197.398 130.200   8-0.59033-0.07513-0.18089 0.01393-0.88462 0.96462
  -9   2   2 330.992 150.578   8-0.66632 0.00088-0.21385 0.38056-0.82812 0.90832
   8   2  -2 -6.4011 98.6146   7 0.60963-0.02295 0.09668 0.06965 0.88837-0.98344
   8  -2  -2 17.6496 82.0980   7 0.65385-0.06711 0.10553-0.27270 0.85993-0.95520
  -8   2   2 96.7789 56.9902   2-0.52058-0.06668 0.38045-0.21329-0.84913 0.94412
  -8  -2   2 -73.330 91.9744   5-0.68098 0.09312 0.30091-0.46718-0.78470 0.88060
  -8   2   2 -23.149 74.9444   5-0.57324-0.01445 0.22896-0.06185-0.88122 0.97699
   8  -2  -2 56.4689 75.3287   3 0.54874 0.03780-0.30194 0.13582 0.86946-0.96468
  -8  -2   2 -23.271 77.1541   8-0.58696-0.00004-0.17945 0.01250-0.88678 0.98169
  -8   2   2 156.503 92.1941   8-0.67058 0.08364-0.21573 0.38244-0.82445 0.91956
   7   2  -2 1687.89 251.085   7 0.61648-0.10828 0.09804 0.06830 0.88425-0.99423
   7  -2  -2 1116.88 229.424   7 0.66634-0.15805 0.10805-0.27519 0.85106-0.96124
  -7   2   2 1594.22 220.768   2-0.51855 0.00975 0.37738-0.21022-0.85159 0.96149
  -7  -2   2 477.941 105.231   4 0.13680-0.64513-0.17791 0.01173 0.98261-0.87268
   7  -2  -2 1581.71 188.447   9-0.14168 0.64997-0.19803 0.03127-0.97928 0.86905
   7  -2  -2 1370.65 219.174   3 0.54888-0.04084-0.30207 0.13595 0.86934-0.97950
  -7   2   2 1746.63 240.779   5-0.57564 0.06636 0.23052-0.06342-0.87951 0.99019
  -7  -2   2 39.6753 58.4578   5-0.69623 0.18682 0.31153-0.47789-0.76705 0.87787
  -7   2   2 1689.49 241.291   8-0.68504 0.17659-0.22212 0.38884-0.81153 0.92156
  -7  -2   2 1210.42 213.233   8-0.59102 0.08248-0.18119 0.01424-0.88418 0.99401
   6   2  -2 688.014 150.120   7 0.63459-0.20486 0.10166 0.06468 0.87286-0.99774
   6  -2  -2 535.735 143.313   7 0.69213-0.26229 0.11326-0.28039 0.83147-0.95656
   6   2  -2 424.116 96.4943   1-0.19464 0.62548 0.04017 0.12654-0.99915 0.87485
  -6  -2   2 570.687 109.982   4 0.19261-0.62260-0.02873-0.13763 0.99956-0.87474
   6  -2  -2 647.582 126.436   9-0.20004 0.62989-0.05039-0.11637-0.99871 0.87358
  -6   2   2 582.111 125.038   2-0.52246 0.09211 0.38330-0.21613-0.84684 0.97165
  -6   2   2 701.889 139.550   5-0.58689 0.15605 0.23783-0.07073-0.87124 0.99687
   6  -2  -2 488.475 131.421   3 0.55641-0.12689-0.30969 0.14358 0.86255-0.98760
  -6  -2   2 755.242 150.348   8-0.60498 0.17490-0.18719 0.02024-0.87494 0.99969
  -6   2   2 757.257 170.076   8-0.71304 0.28309-0.23462 0.40135-0.78434 0.90928
   5   2  -2 60.6200 53.4704   1-0.22423 0.57644-0.15150 0.31816-0.98786 0.84872
   5   2  -2 121.330 73.6445   7 0.66797-0.31671 0.10837 0.05798 0.84988-0.98965
   5  -2  -2 130.482 74.5568   7 0.73571-0.38431 0.12217-0.28927 0.79397-0.93398
  -5  -2   2 26.4865 37.2383   4 0.24248-0.59408 0.11798-0.28454 0.99157-0.85180
   5  -2  -2 41.1589 38.2995   9-0.25269 0.60409 0.09652-0.26330-0.99314 0.85311
  -5   2   2 70.3497 55.8872   2-0.53363 0.18175 0.40042-0.23325-0.83251 0.97225
   5  -2  -2 100.854 63.6141   3 0.57335-0.22233-0.32702 0.16091 0.84630-0.98622
  -5   2   2 47.8192 52.9614   5-0.60976 0.25736 0.25282-0.08573-0.85323 0.99382
  -5  -2   2 85.1876 60.2729   8-0.63219 0.28056-0.19894 0.03200-0.85549 0.99516
   4   2  -2 239.239 78.3509   7 0.72164-0.44882 0.11928 0.04708 0.80673-0.96139
  -4  -2   2 313.811 89.2885   4 0.28541-0.55853 0.25823-0.42501 0.96056-0.80579
   4  -2  -2 308.806 85.9101   9-0.29840 0.57134 0.23860-0.40540-0.96385 0.80893
  -4   2   2 352.629 104.849   2-0.55332 0.27992 0.43137-0.26419-0.80448 0.95916
  -4  -2   2 382.599 96.2122   8-0.67682 0.40365-0.21848 0.05155-0.81897 0.97357
  -3  -2   2 -80.056 166.603   8-0.74262 0.54791-0.24803 0.08111-0.75207 0.92162
  11   3  -2 -42.495 126.390   7 0.63977 0.18234 0.10270 0.14699 0.86947-0.91970
  11  -3  -2 -3.8154 88.1830   7 0.69305 0.12906 0.11345-0.36404 0.83074-0.88129
  11  -3  -2 -166.08 145.863   3 0.57054 0.25162-0.32414 0.07469 0.84908-0.89947
 -11   3   2 -201.79 148.829   5-0.59806-0.22478 0.24513 0.00533-0.86266 0.91390
 -11  -3   2 80.4639 149.995   8-0.61404-0.20834-0.19108-0.05928-0.86868 0.91881
  10   3  -2 272.073 213.239   7 0.62825 0.11538 0.10039 0.14931 0.87693-0.94210
  10  -3  -2 777.040 233.997   7 0.68524 0.05841 0.11186-0.36243 0.83688-0.90236
 -10   3   2 496.814 170.609   2-0.52649-0.21765 0.38945-0.13883-0.84178 0.90702
  10  -3  -2 595.392 181.100   3 0.55718 0.18646-0.31049 0.06102 0.86183-0.92720
 -10   3   2 667.142 189.792   5-0.58494-0.15953 0.23655 0.01389-0.87271 0.93878
 -10  -3   2 902.680 223.184   8-0.60126-0.14265-0.18558-0.06477-0.87745 0.94248
   9   3  -2 -135.51 79.0114   7 0.62154 0.04360 0.09905 0.15066 0.88114-0.96123
   9  -3  -2 -19.834 61.6678   7 0.68341-0.01821 0.11149-0.36203 0.83830-0.91870
  -9   3   2 5.26179 57.7403   2-0.51610-0.14959 0.37369-0.12307-0.85452 0.93465
  -9   3   2 298.545 143.066   5-0.57572-0.09037 0.23057 0.01988-0.87945 0.96039
   9  -3  -2 132.085 115.674   3 0.54718 0.11792-0.30037 0.05088 0.87084-0.95119
  -9  -3   2 -220.65 169.940   8-0.59276-0.07270-0.18194-0.06841-0.88305 0.96300
  -9   3   2 78.3732 113.295   8-0.71061 0.04519-0.23353 0.48370-0.78683 0.86704
   8   3  -2 774.085 192.547   7 0.62112-0.03447 0.09897 0.15076 0.88140-0.97641
   8  -3  -2 840.951 185.316   7 0.68946-0.10271 0.11272-0.36324 0.83358-0.92890
   8  -3  -2 1055.10 186.260   9-0.08989 0.67662-0.31818 0.06803-0.94385 0.84848
  -8   3   2 799.318 184.513   2-0.50918-0.07807 0.36331-0.11269-0.86255 0.95758
  -8   3   2 885.623 189.240   5-0.57145-0.01624 0.22780 0.02264-0.88249 0.97831
   8  -3  -2 940.057 198.886   3 0.54139 0.04518-0.29455 0.04506 0.87585-0.97115
  -8  -3   2 593.296 169.154   8-0.58975 0.00275-0.18065-0.06969-0.88499 0.97985
  -8   3   2 1336.32 293.561   8-0.71960 0.13269-0.23757 0.48775-0.77753 0.87265
   7   3  -2 582.759 185.512   7 0.62899-0.12082 0.10054 0.14919 0.87646-0.98637
   7  -3  -2 491.467 155.609   7 0.70603-0.19772 0.11609-0.36658 0.82015-0.93039
  -7  -3   2 376.941 132.405   4 0.13447-0.64278-0.18383-0.06577 0.98140-0.87154
   7  -3  -2 357.143 118.279   9-0.14084 0.64911-0.20005-0.05010-0.97884 0.86856
   7   3  -2 333.541 112.599   6 0.36505 0.14336 0.59288-0.34326 0.77449-0.88429
  -7   3   2 429.024 138.464   2-0.50656-0.00223 0.35941-0.10879-0.86549 0.97544
  -7   3   2 674.874 173.506   5-0.57354 0.06426 0.22915 0.02129-0.88101 0.99174
   7  -3  -2 431.652 159.000   3 0.54092-0.03288-0.29408 0.04459 0.87625-0.98648
  -7  -3   2 438.456 167.370   8-0.59390 0.08534-0.18242-0.06790-0.88231 0.99209
  -7   3   2 195.451 170.464   8-0.73968 0.23128-0.24669 0.49687-0.75546 0.86548
   6   3  -2 1614.15 237.280   7 0.64796-0.21825 0.10434 0.14539 0.86398-0.98880
  -6  -3   2 1609.81 204.835   4 0.17944-0.60937-0.06522-0.18460 0.99777-0.87300
   6  -3  -2 1859.38 246.049   7 0.73655-0.30667 0.12235-0.37281 0.79319-0.91834
  -6   3   2 1765.92 240.854   2-0.50924 0.07891 0.36339-0.11277-0.86248 0.98735
   6   3  -2 1897.61 236.621   6 0.36222 0.06774 0.57704-0.32743 0.78789-0.91261
   6  -3  -2 1897.90 236.526   9-0.18797 0.61779-0.08211-0.16804-0.99668 0.87150
   6  -3  -2 1655.48 236.616   3 0.54715-0.11765-0.30034 0.05086 0.87086-0.99600
  -6   3   2 1672.32 224.195   5-0.58384 0.15300 0.23584 0.01462-0.87352 0.99919
  -6  -3   2 1838.54 241.025   8-0.60745 0.17734-0.18825-0.06208-0.87325 0.99795
   5   3  -2 384.927 101.537   7 0.68174-0.33051 0.11115 0.13858 0.83958-0.97928
  -5   3   2 330.144 66.8653   6 0.14472-0.49648-0.15787 0.40847 0.98639-0.84608
  -5  -3   2 498.833 120.381   4 0.22007-0.57157 0.05022-0.30026 0.99829-0.85857
   5  -3  -2 378.205 105.131   9-0.23085 0.58222 0.03373-0.28390-0.99853 0.85845
   5   3  -2 372.237 109.660   6 0.36140-0.00991 0.57255-0.32296 0.79158-0.93121
  -5   3   2 378.095 93.3097   2-0.51834 0.16647 0.37706-0.12643-0.85185 0.99164
  -5   3   2 472.174 117.658   5-0.60474 0.25236 0.24952 0.00096-0.85733 0.99796
   5  -3  -2 490.684 122.682   3 0.56177-0.21078-0.31515 0.06570 0.85755-0.99756
  -5  -3   2 471.242 117.983   8-0.63341 0.28174-0.19947-0.05085-0.85457 0.99419
   4   3  -2 318.048 103.087   7 0.73486-0.46209 0.12200 0.12775 0.79476-0.94934
  -4  -3   2 336.499 105.315   4 0.25597-0.52897 0.16037-0.41063 0.98467-0.82996
   4  -3  -2 423.992 101.390   9-0.26897 0.54189 0.14530-0.39549-0.98580 0.83081
  -4   3   2 394.465 103.960   2-0.53500 0.26161 0.40255-0.15191-0.83067 0.98539
   4   3  -2 347.291 99.2971   6 0.36285-0.08983 0.58051-0.33092 0.78500-0.93954
   4  -3  -2 -42.387 35.9712   3 0.58665-0.31416-0.34082 0.09140 0.83253-0.98739
  -4   3   2 384.963 112.695   5-0.63908 0.36520 0.27235-0.02185-0.82750 0.98311
  -4  -3   2 334.959 100.582   8-0.67548 0.40226-0.21789-0.03242-0.82015 0.97471
   4   3  -2 316.979 102.479   1-0.22903 0.50270-0.18832 0.43827-0.98128 0.82738
   3   3  -2 149.884 62.3840   1-0.24149 0.43667-0.29767 0.54751-0.95288 0.78418
  -3  -3   2 168.189 66.9416   4 0.28677-0.48126 0.26296-0.51343 0.95909-0.78935
   3  -3  -2 167.951 49.9473   9-0.30188 0.49635 0.25019-0.50041-0.96038 0.79047
   3   3  -2 53.8592 50.0821   6 0.36659-0.17202 0.60177-0.35219 0.76671-0.93614
  -3  -3   2 -11.181 105.033   8-0.73710 0.54233-0.24551-0.00479-0.75840 0.92792
 -11   4   2 -66.821 115.446   2-0.53378-0.28879 0.40066-0.06659-0.83231 0.88272
  11  -4  -2 268.398 203.506   3 0.56861 0.25362-0.32214-0.01072 0.85098-0.90140
  10   4  -2 93.8965 132.297   7 0.64430 0.09930 0.10361 0.22951 0.86645-0.93154
  10  -4  -2 140.270 160.254   7 0.72289 0.02076 0.11954-0.45344 0.80562-0.87115
 -10   4   2 -60.483 92.8630   2-0.52129-0.22283 0.38153-0.04747-0.84826 0.91355
 -10   4   2 7.22004 83.9781   5-0.58893-0.15555 0.23916 0.09460-0.86971 0.93585
  10  -4  -2 30.7378 81.2188   3 0.55597 0.18772-0.30925-0.02363 0.86295-0.92837
 -10  -4   2 26.1064 125.941   8-0.60953-0.13438-0.18914-0.14457-0.87182 0.93681
   9   4  -2 2485.74 374.259   7 0.63915 0.02596 0.10258 0.23055 0.86987-0.94989
   9  -4  -2 2738.23 374.370   7 0.72464-0.05942 0.11990-0.45377 0.80407-0.88452
  -9   4   2 2036.63 306.969   2-0.51144-0.15424 0.36669-0.03263-0.85996 0.94015
   9  -4  -2 2369.80 352.332   3 0.54656 0.11859-0.29974-0.03316 0.87138-0.95177
  -9   4   2 2609.36 364.538   5-0.58048-0.08561 0.23366 0.10011-0.87600 0.95700
  -9  -4   2 2450.45 372.216   8-0.60203-0.06343-0.18592-0.14779-0.87693 0.95683
   8   4  -2 34.2385 80.2242   7 0.64040-0.05377 0.10283 0.23031 0.86905-0.96398
   8  -4  -2 89.2447 111.544   7 0.73490-0.14812 0.12201-0.45586 0.79472-0.89010
  -8  -4   2 90.8584 79.6148   4 0.08638-0.67301-0.30172-0.03112 0.94838-0.85346
   8  -4  -2 94.3034 105.367   9-0.09173 0.67845-0.31407-0.01947-0.94537 0.84996
   8   4  -2 -200.92 93.4794   6 0.36196 0.22495 0.57564-0.24269 0.78904-0.88386
  -8   4   2 -83.804 105.357   2-0.50484-0.08240 0.35685-0.02279-0.86740 0.96249
  -8   4   2 6.17041 77.9490   5-0.57684-0.01086 0.23129 0.10249-0.87865 0.97454
   8  -4  -2 -59.731 83.0961   3 0.54115 0.04544-0.29431-0.03859 0.87606-0.97141
  -8  -4   2 79.3145 100.584   8-0.59995 0.01293-0.18503-0.14866-0.87832 0.97313
   7   4  -2 2271.68 300.751   7 0.64999-0.14185 0.10475 0.22838 0.86259-0.97243
   7  -4  -2 1926.44 290.164   7 0.75628-0.24793 0.12642-0.46025 0.77406-0.88436
  -7   4   2 2344.55 303.121   2-0.50219-0.00660 0.35292-0.01885-0.87030 0.98030
   7   4  -2 2776.20 337.584   6 0.35744 0.15101 0.55169-0.21874 0.80814-0.91789
   7  -4  -2 2766.10 335.204   9-0.13462 0.64287-0.21497-0.11857-0.97539 0.86507
   7  -4  -2 2347.73 315.838   3 0.54070-0.03266-0.29385-0.03903 0.87644-0.98673
  -7   4   2 2576.49 333.817   5-0.57925 0.06997 0.23286 0.10095-0.87690 0.98770
  -7  -4   2 2085.43 292.974   8-0.60484 0.09626-0.18713-0.14655-0.87503 0.98476
   6   4  -2 -145.72 95.8484   7 0.67056-0.24089 0.10890 0.22424 0.84798-0.97272
  -6  -4   2 -13.211 48.3889   4 0.16515-0.59500-0.10386-0.22941 0.99423-0.86950
   6  -4  -2 -59.930 53.9718   9-0.17421 0.60401-0.11747-0.21607-0.99304 0.86782
   6   4  -2 215.520 104.239   6 0.35451 0.07547 0.53679-0.20385 0.81941-0.94408
  -6   4   2 160.476 85.8328   2-0.50432 0.07399 0.35608-0.02201-0.86797 0.99289
  -6   4   2 111.295 84.3487   5-0.58938 0.15852 0.23945 0.09439-0.86937 0.99511
   6   4  -2 55.3648 62.2376   1-0.17866 0.60948 0.12740 0.20620-0.99171 0.86755
   6  -4  -2 23.7982 57.0960   3 0.54638-0.11689-0.29957-0.03330 0.87153-0.99673
  -6  -4   2 -7.6447 64.9650   8-0.61877 0.18863-0.19313-0.14056-0.86533 0.98998
   5   4  -2 428.799 118.995   7 0.70554-0.35434 0.11599 0.21715 0.82056-0.96018
  -5   4   2 477.001 87.3862   6 0.21142-0.56318 0.02464 0.30930 0.99947-0.85915
  -5  -4   2 461.816 133.260   4 0.19934-0.55073-0.00978-0.32372 0.99990-0.86022
   5  -4  -2 693.655 147.023   9-0.21031 0.56165-0.02288-0.31068-0.99954 0.85941
   5   4  -2 604.161 146.145   6 0.35351-0.00200 0.53180-0.19887 0.82307-0.96267
   5   4  -2 351.531 130.412   1-0.19940 0.55163 0.01246 0.32102-0.99987 0.86087
  -5   4   2 572.637 140.258   2-0.51217 0.16032 0.36779-0.03370-0.85912 0.99895
  -5   4   2 627.320 143.965   5-0.60926 0.25687 0.25250 0.08137-0.85364 0.99434
   5  -4  -2 532.439 134.169   3 0.55963-0.20867-0.31297-0.01985 0.85956-0.99964
  -5  -4   2 577.378 146.789   8-0.64439 0.29268-0.20425-0.12943-0.84611 0.98569
   4   4  -2 147.591 93.0799   7 0.75876-0.48602 0.12694 0.20619 0.77155-0.92604
  -4   4   2 137.177 64.3912   6 0.14727-0.42053-0.15127 0.48532 0.98753-0.83220
  -4  -4   2 178.024 88.7825   4 0.22982-0.50272 0.07929-0.41303 0.99605-0.84138
   4   4  -2 190.557 103.159   1-0.21559 0.48928-0.09011 0.42347-0.99563 0.84180
   4  -4  -2 258.249 109.403   9-0.24269 0.51558 0.06742-0.40100-0.99620 0.84116
   4   4  -2 229.712 93.1405   6 0.35467-0.08164 0.53764-0.20471 0.81878-0.97328
  -4   4   2 205.866 80.0937   2-0.52670 0.25330 0.38977-0.05566-0.84152 0.99629
   4  -4  -2 193.165 90.6228   3 0.58199-0.30955-0.33596 0.00319 0.83746-0.99238
  -4   4   2 164.414 70.2358   5-0.64132 0.36744 0.27386 0.06006-0.82540 0.98107
  -4  -4   2 237.211 107.888   8-0.68492 0.41165-0.22207-0.11160-0.81164 0.96617
  -3   4   2 20.6257 41.4238   6 0.10614-0.30088-0.25463 0.58874 0.96368-0.79336
  -3  -4   2 -16.778 55.1477   4 0.25644-0.45082 0.16193-0.49588 0.98438-0.81469
   3  -4  -2 44.2857 46.7429   9-0.27114 0.46557 0.15192-0.48554-0.98458 0.81462
  -3   4   2 57.2332 60.1326   2-0.54860 0.35369 0.42387-0.08975-0.81154 0.98124
   3   4  -2 53.4626 31.9320   6 0.35811-0.16354 0.55511-0.22220 0.80549-0.97490
   3   4  -2 -10.622 46.1631   1-0.22787 0.42307-0.17923 0.51246-0.98304 0.81439
   3  -4  -2 -5.6237 59.5810   3 0.61486-0.42090-0.37068 0.03795 0.80004-0.96977
  -3   4   2 15.0014 51.4195   5-0.68778 0.49246 0.30562 0.02832-0.77699 0.94764
  -2  -4   2 30.7346 47.2920   4 0.27914-0.39494 0.23673-0.57088 0.96686-0.78213
   2  -4  -2 -55.010 35.4629   9-0.29552 0.41149 0.22915-0.56280-0.96656 0.78167
   2   4  -2 1.61898 42.7938   6 0.36361-0.24752 0.58474-0.25186 0.78145-0.96574
  10   5  -2 -95.263 111.845   7 0.66649 0.07709 0.10808 0.30847 0.85095-0.91596
 -10   5   2 123.431 115.249   2-0.52101-0.22310 0.38110 0.03640-0.84862 0.91397
 -10   5   2 99.3499 157.940   5-0.59824-0.14627 0.24524 0.17185-0.86252 0.92875
  10  -5  -2 -21.426 100.467   3 0.55983 0.18389-0.31318-0.10313 0.85937-0.92481
 -10  -5   2 125.954 153.050   8-0.62344-0.12047-0.19515-0.22191-0.86196 0.92690
   9   5  -2 70.0575 105.350   7 0.66335 0.00173 0.10744 0.30910 0.85322-0.93315
  -9   5   2 60.4473 81.9482   2-0.51192-0.15374 0.36741 0.05009-0.85941 0.93965
  -9   5   2 -6.7385 100.815   5-0.59089-0.07523 0.24044 0.17667-0.86822 0.94931
   9  -5  -2 -28.627 119.711   3 0.55129 0.11387-0.30451-0.11181 0.86719-0.94761
  -9  -5   2 68.5225 86.1048   8-0.61732-0.04816-0.19250-0.22454-0.86636 0.94622
   8   5  -2 64.7529 88.3629   7 0.66674-0.08015 0.10813 0.30842 0.85077-0.94561
  -8  -5   2 170.851 129.205   4 0.08212-0.66873-0.31174-0.10455 0.94475-0.84988
   8  -5  -2 -58.445 88.5911   9-0.08803 0.67472-0.32232-0.09461-0.94229 0.84683
   8   5  -2 108.065 130.877   6 0.35749 0.22946 0.55193-0.13562 0.80796-0.90272
  -8   5   2 18.7124 72.5168   2-0.50590-0.08132 0.35843 0.05908-0.86623 0.96137
  -8   5   2 -38.439 88.6990   5-0.58823 0.00050 0.23870 0.17844-0.87024 0.96622
   8  -5  -2 -11.291 81.6575   3 0.54657 0.04002-0.29975-0.11656 0.87137-0.96675
  -8  -5   2 -3.6440 102.706   8-0.61659 0.02955-0.19219-0.22485-0.86688 0.96165
   7   5  -2 140.258 98.7197   7 0.67856-0.17045 0.11050 0.30603 0.84201-0.95176
  -7  -5   2 135.029 110.749   4 0.11756-0.62577-0.22627-0.19022 0.97151-0.86174
   7  -5  -2 264.553 150.747   9-0.12512 0.63336-0.23746-0.17947-0.96968 0.85931
   7   5  -2 54.6935 79.7479   6 0.35318 0.15530 0.53020-0.11390 0.82424-0.93394
  -7   5   2 92.8176 111.236   2-0.50354-0.00522 0.35493 0.06258-0.86882 0.97888
  -7   5   2 -52.449 78.6277   5-0.59139 0.08209 0.24077 0.17642-0.86783 0.97872
   7  -5  -2 139.482 109.801   3 0.54652-0.03849-0.29970-0.11660 0.87142-0.98173
  -7  -5   2 89.4937 93.2737   8-0.62270 0.11409-0.19483-0.22220-0.86250 0.97219
   6   5  -2 -31.971 55.5762   7 0.70125-0.27163 0.11511 0.30142 0.82411-0.94875
  -6  -5   2 -5.1969 88.7290   4 0.15004-0.57981-0.14378-0.27295 0.98876-0.86407
   6  -5  -2 72.0706 71.8428   9-0.15927 0.58905-0.15497-0.26197-0.98760 0.86232
   6   5  -2 -22.094 81.8364   6 0.35037 0.07963 0.51656-0.10025 0.83399-0.95862
   6   5  -2 22.2480 55.3781   1-0.17010 0.60092 0.17078 0.24626-0.98504 0.86095
  -6   5   2 87.0083 56.0432   2-0.50556 0.07524 0.35792 0.05960-0.86661 0.99158
  -6   5   2 -94.495 62.0830   5-0.60185 0.17098 0.24762 0.16961-0.85965 0.98548
   6  -5  -2 100.328 84.6988   3 0.55215-0.12269-0.30539-0.11088 0.86642-0.99164
  -6  -5   2 9.57205 86.8661   8-0.63753 0.20736-0.20126-0.21576-0.85144 0.97605
   5   5  -2 969.232 240.320   1-0.18826 0.54051 0.07602 0.34090-0.99705 0.85812
   5   5  -2 2147.13 288.019   7 0.73785-0.38669 0.12261 0.29391 0.79197-0.93149
  -5  -5   2 1341.94 255.568   4 0.17945-0.53076-0.06519-0.35178 0.99777-0.85813
  -5   5   2 1290.73 219.165   2-0.51270 0.16085 0.36858 0.04896-0.85851 0.99840
   5   5  -2 1978.56 282.435   6 0.34935 0.00218 0.51167-0.09537 0.83739-0.97694
   5  -5  -2 1330.73 212.996   9-0.19038 0.54170-0.07583-0.34113-0.99717 0.85698
   5  -5  -2 1621.99 246.869   3 0.56465-0.21373-0.31809-0.09812 0.85481-0.99492
  -5   5   2 1864.31 244.431   5-0.62134 0.26895 0.26050 0.15677-0.84343 0.98421
  -5  -5   2 1687.71 255.006   8-0.66343 0.31168-0.21258-0.20444-0.83057 0.97012
  -4   5   2 1069.19 159.997   6 0.19788-0.47116-0.01417 0.43159 0.99986-0.84450
  -4  -5   2 1212.67 219.815   4 0.20574-0.47853 0.00850-0.42570 0.99984-0.84522
   4  -5  -2 1072.57 185.961   9-0.21832 0.49118-0.00105-0.41593-0.99958 0.84448
   4   5  -2 1146.79 218.461   6 0.35031-0.07727 0.51626-0.09998 0.83419-0.98865
  -4   5   2 1045.68 186.970   2-0.52575 0.25236 0.38831 0.02925-0.84273 0.99755
   4  -5  -2 1029.73 196.058   3 0.58529-0.31289-0.33939-0.07676 0.83399-0.98895
  -4  -5   2 1653.91 276.946   8-0.70310 0.42979-0.23016-0.18686-0.79435 0.94885
  -4   5   2 1285.74 205.382   5-0.65191 0.37803 0.28101 0.13633-0.81521 0.97095
   4   5  -2 531.440 183.894   1-0.20292 0.47663-0.00873 0.42551-0.99988 0.84612
  -3  -5   2 2083.91 283.304   4 0.22881-0.42306 0.07626-0.49367 0.99633-0.82670
   3   5  -2 2124.23 272.658   1-0.21449 0.40971-0.08268 0.49933-0.99630 0.82771
  -3   5   2 2310.85 253.705   6 0.16213-0.35689-0.11221 0.52971 0.99324-0.82290
  -3   5   2 2226.16 276.927   2-0.54528 0.35038 0.41862-0.00104-0.81638 0.98613
   3   5  -2 2586.40 313.318   6 0.35335-0.15879 0.53104-0.11477 0.82363-0.99300
   3  -5  -2 2235.92 272.617   9-0.24299 0.43740 0.06830-0.48531-0.99612 0.82609
   3  -5  -2 2641.02 314.771   3 0.61519-0.42129-0.37103-0.04506 0.79963-0.96940
  -3   5   2 121.537 102.215   5-0.69528 0.49997 0.31087 0.10651-0.76818 0.93891
   2   5  -2 -88.432 85.5658   1-0.22338 0.34014-0.14523 0.56174-0.98884 0.80544
  -2   5   2 -3.7073 51.1277   6 0.13770-0.25392-0.17591 0.59346 0.98301-0.79771
  -2   5   2 -50.415 36.7431   2-0.57141 0.45500 0.46084-0.04324-0.77499 0.95969
  -2  -5   2 -36.167 42.2160   4 0.24860-0.36429 0.13705-0.55468 0.98873-0.80406
   2  -5  -2 -16.722 53.3617   9-0.26431 0.38025 0.13114-0.54818-0.98821 0.80326
   2   5  -2 -16.608 41.1461   6 0.35838-0.24229 0.55652-0.14028 0.80439-0.98866
   1   5  -2 274.313 96.3831   1-0.22999 0.26830-0.19596 0.61234-0.97973 0.78152
  -1  -5   2 395.407 119.504   4 0.26509-0.30218 0.18987-0.60766 0.97863-0.77891
   1   5  -2 271.588 96.8519   6 0.36505-0.32743 0.59286-0.17664 0.77451-0.97365
  10   6  -2 -126.74 172.792   7 0.69429 0.04925 0.11370 0.38626 0.82975-0.89466
   9   6  -2 361.717 169.910   7 0.69349-0.02844 0.11353 0.38642 0.83040-0.91022
  -9   6   2 325.117 152.505   2-0.51641-0.14925 0.37415 0.12679-0.85415 0.93447
  -9   6   2 612.111 195.135   5-0.60604-0.06011 0.25038 0.25009-0.85627 0.93748
   9  -6  -2 141.104 82.4607   3 0.56033 0.10483-0.31370-0.18607 0.85890-0.93931
  -9  -6   2 570.570 219.990   8-0.63785-0.02764-0.20140-0.29898-0.85119 0.93101
   8   6  -2 104.192 112.789   7 0.69937-0.11282 0.11473 0.38522 0.82565-0.92039
  -8  -6   2 157.187 120.429   4 0.07454-0.66110-0.32946-0.17027 0.93801-0.84318
   8  -6  -2 51.2727 99.6327   9-0.08069 0.66737-0.33857-0.16176-0.93595 0.84045
   8   6  -2 60.9413 80.0292   6 0.35554 0.23146 0.54199-0.04231 0.81553-0.91023
  -8   6   2 -86.363 98.9701   2-0.51111-0.07611 0.36619 0.13475-0.86035 0.95556
  -8   6   2 129.679 114.302   5-0.60459 0.01684 0.24942 0.25109-0.85745 0.95354
   8  -6  -2 -16.346 97.3907   3 0.55650 0.03009-0.30979-0.18996 0.86246-0.95784
  -8  -6   2 57.7925 129.125   8-0.63875 0.05169-0.20179-0.29858-0.85050 0.94523
   7   6  -2 1756.20 296.292   7 0.71372-0.20565 0.11766 0.38229 0.81364-0.92328
  -7  -6   2 1900.42 313.516   4 0.10572-0.61387-0.25535-0.24461 0.96345-0.85372
   7  -6  -2 1516.28 283.302   9-0.11339 0.62161-0.26480-0.23553-0.96188 0.85147
   7   6  -2 1456.47 284.084   6 0.35158 0.15694 0.52236-0.02268 0.82988-0.93953
  -7   6   2 1800.16 302.434   2-0.50923 0.00047 0.36339 0.13758-0.86249 0.97261
  -7   6   2 1786.64 307.222   5-0.60877 0.09944 0.25217 0.24839-0.85405 0.96504
   7  -6  -2 1467.29 295.418   3 0.55707-0.04906-0.31037-0.18935 0.86194-0.97225
  -7  -6   2 1684.18 281.649   8-0.64638 0.13775-0.20512-0.29525-0.84453 0.95419
   6   6  -2 -36.521 126.349   7 0.73878-0.30919 0.12280 0.37714 0.79110-0.91563
   6   6  -2 51.2661 115.301   1-0.16116 0.59196 0.21411 0.28639-0.97635 0.85234
  -6  -6   2 0.90970 85.3980   4 0.13421-0.56390-0.18450-0.31569 0.98126-0.85661
   6  -6  -2 -8.2029 111.292   9-0.14341 0.57316-0.19385-0.30650-0.98019 0.85486
   6   6  -2 -53.611 105.141   6 0.34900 0.08103 0.51003-0.01035 0.83852-0.96309
  -6   6   2 8.74553 70.0937   2-0.51136 0.08105 0.36657 0.13441-0.86006 0.98510
  -6   6   2 -10.552 94.5117   5-0.61986 0.18897 0.25951 0.24111-0.84472 0.97065
   6  -6  -2 78.0174 123.271   3 0.56293-0.13350-0.31634-0.18334 0.85645-0.98168
  -6  -6   2 230.509 159.999   8-0.66244 0.23223-0.21215-0.28821-0.83141 0.95599
  -5  -6   2 7.79746 64.5419   4 0.15997-0.51117-0.11767-0.38277 0.99254-0.85293
   5  -6  -2 45.0429 78.5335   9-0.17066 0.52196-0.12645-0.37391-0.99189 0.85164
   5   6  -2 104.514 110.432   6 0.34805 0.00349 0.50554-0.00587 0.84158-0.98108
  -5   6   2 -49.781 78.0565   2-0.51811 0.16627 0.37673 0.12426-0.85212 0.99207
  -5   6   2 -39.887 88.8762   5-0.63936 0.28696 0.27254 0.22815-0.82724 0.96811
   5  -6  -2 2.40955 58.5972   3 0.57506-0.22420-0.32878-0.17083 0.84458-0.98469
   5   6  -2 -9.8062 73.0507   1-0.17739 0.52964 0.13396 0.36639-0.99083 0.85198
  -5  -6   2 92.5095 116.883   8-0.68898 0.33718-0.22387-0.27649-0.80789 0.94742
   4   6  -2 24.5702 124.454   1-0.19073 0.46446 0.06235 0.43786-0.99801 0.84432
  -4   6   2 229.473 113.053   6 0.23302-0.50632 0.08872 0.41204 0.99511-0.83970
  -4  -6   2 60.5106 120.526   4 0.18293-0.45561-0.05563-0.44502 0.99839-0.84380
   4  -6  -2 161.508 111.999   9-0.19510 0.46794-0.06344-0.43694-0.99801 0.84285
   4   6  -2 -0.6457 81.8258   6 0.34889-0.07584 0.50947-0.00982 0.83890-0.99331
  -4   6   2 119.799 106.323   2-0.53012 0.25673 0.39501 0.10601-0.83713 0.99201
   4  -6  -2 86.2020 91.6909   3 0.59449-0.32217-0.34902-0.15052 0.82398-0.97894
  -4   6   2 123.670 121.790   5-0.66890 0.39503 0.29259 0.20818-0.79785 0.95368
  -4  -6   2 242.301 186.236   8-0.72813 0.45478-0.24143-0.25894-0.76838 0.92287
  -3   6   2 606.573 136.176   6 0.20256-0.39733-0.00089 0.50175 0.99992-0.82955
  -3  -6   2 505.736 163.957   4 0.20304-0.39717 0.00078-0.50166 0.99991-0.83032
   3  -6  -2 355.763 124.510   9-0.21665 0.41102-0.00565-0.49476-0.99962 0.82953
  -3   6   2 663.682 170.568   2-0.54782 0.35292 0.42263 0.07842-0.81269 0.98250
   3   6  -2 577.443 169.888   6 0.35158-0.15702 0.52238-0.02274 0.82987-0.99919
   3  -6  -2 686.765 174.952   3 0.62208-0.42826-0.37847-0.12099 0.79091-0.96068
   3   6  -2 538.978 160.177   1-0.20149 0.39674-0.00011 0.50017-0.99993 0.83141
  -2  -6   2 1919.34 292.778   4 0.22025-0.33580 0.05074-0.55182 0.99826-0.81364
   2   6  -2 1732.96 267.988   1-0.20996 0.32673-0.05289 0.55280-0.99842 0.81508
  -2   6   2 2337.69 280.299   6 0.18030-0.29654-0.06314 0.56408 0.99792-0.81258
   2   6  -2 1967.11 286.886   6 0.35608-0.24001 0.54470-0.04510 0.81348-0.99769
  -2   6   2 722.521 193.456   2-0.57132 0.45491 0.46069 0.04039-0.77515 0.95990
   2  -6  -2 2032.05 261.254   9-0.23522 0.35113 0.04607-0.54650-0.99783 0.81282
  -1   6   2 357.510 111.992   6 0.16511-0.20282-0.10426 0.60523 0.99418-0.79389
  -1  -6   2 441.870 139.736   4 0.23447-0.27145 0.09339-0.59466 0.99462-0.79496
   1  -6  -2 385.454 117.537   9-0.25075 0.28820 0.09083-0.59128-0.99381 0.79387
   1   6  -2 397.859 124.181   1-0.21639 0.25472-0.09556 0.59535-0.99510 0.79694
   1   6  -2 502.901 151.326   6 0.36216-0.32456 0.57669-0.07711 0.78818-0.98727
  -1   6  -2 12.0886 39.1106   1-0.22391 0.10543-0.14913 0.64868-0.98823 0.76046
   1  -6   2 70.9908 52.6171   4 0.25369-0.13346 0.15314-0.65470 0.98600-0.75626
   9   7  -2 18.9620 130.055   7 0.72887-0.06386 0.12077 0.46261 0.80026-0.87996
   9   7  -2 50.5652 127.157   6 0.36016 0.30536 0.56588 0.01717 0.79698-0.87666
   9  -7  -2 192.086 199.990   9-0.03901 0.70413-0.42751-0.15621-0.89441 0.81379
  -9  -7   2 206.913 178.268   8-0.66291-0.00260-0.21236-0.37134-0.83101 0.91082
  -8  -7   2 -59.169 101.081   4 0.06456-0.65107-0.35244-0.23075 0.92862-0.83382
   8   7  -2 63.6251 134.648   7 0.73742-0.15091 0.12253 0.46084 0.79237-0.88699
   8  -7  -2 -70.786 140.716   9-0.07075 0.65741-0.36028-0.22344-0.92689 0.83135
   8   7  -2 251.658 177.579   6 0.35553 0.23150 0.54192 0.04113 0.81558-0.91021
  -8   7   2 281.025 145.852   2-0.51948-0.06773 0.37880 0.20560-0.85047 0.94575
  -8   7   2 215.243 149.000   5-0.62505 0.03727 0.26297 0.32093-0.84020 0.93641
   8  -7  -2 48.0984 91.8556   3 0.56998 0.01657-0.32356-0.25963 0.84963-0.94498
  -8  -7   2 186.068 170.705   8-0.66562 0.07853-0.21354-0.37016-0.82872 0.92345
   7   7  -2 1114.11 326.578   7 0.75442-0.24640 0.12604 0.45732 0.77592-0.88544
  -7  -7   2 80.3412 186.573   4 0.09241-0.60048-0.28741-0.29602 0.95333-0.84363
   7  -7  -2 499.801 190.668   9-0.10000 0.60819-0.29546-0.28827-0.95199 0.84153
   7   7  -2 495.778 208.532   6 0.35196 0.15658 0.52422 0.05883 0.82856-0.93813
  -7   7   2 347.033 163.485   2-0.51816 0.00940 0.37679 0.20762-0.85206 0.96226
  -7   7   2 524.771 184.089   5-0.63037 0.12101 0.26652 0.31745-0.83547 0.94659
   7  -7  -2 621.097 207.498   3 0.57129-0.06333-0.32491-0.25825 0.84834-0.95864
  -7  -7   2 645.273 209.228   8-0.67493 0.16626-0.21765-0.36605-0.82064 0.93029
  -6  -7   2 637.029 270.137   4 0.11777-0.54736-0.22577-0.35789 0.97164-0.84700
   6  -7  -2 1053.96 240.673   9-0.12674 0.55648-0.23365-0.35010-0.97070 0.84531
   6   7  -2 1120.51 267.295   6 0.34967 0.08039 0.51317 0.06989 0.83635-0.96085
  -6   7   2 1086.16 259.037   2-0.52053 0.09022 0.38038 0.20406-0.84920 0.97431
  -6   7   2 873.632 212.308   5-0.64225 0.21135 0.27448 0.30956-0.82453 0.95057
   6  -7  -2 784.153 216.477   3 0.57753-0.14815-0.33134-0.25176 0.84207-0.96727
  -6  -7   2 1218.63 300.462   8-0.69236 0.26211-0.22537-0.35832-0.80471 0.92930
  -5  -7   2 134.861 229.730   4 0.14060-0.49169-0.16817-0.41572 0.98450-0.84491
   5   7  -2 111.828 229.784   1-0.16653 0.51880 0.18833 0.39546-0.98177 0.84299
   5  -7  -2 1065.38 237.993   9-0.15093 0.50221-0.17551-0.40825-0.98391 0.84361
   5   7  -2 834.979 233.205   6 0.34883 0.00272 0.50921 0.07384 0.83908-0.97852
  -5   7   2 852.021 199.330   2-0.52709 0.17524 0.39036 0.19409-0.84103 0.98105
   5  -7  -2 848.473 221.220   3 0.58952-0.23871-0.34380-0.23923 0.82945-0.96954
  -5   7   2 968.055 236.007   5-0.66193 0.30952 0.28783 0.29630-0.80513 0.94611
  -5  -7   2 1152.52 299.083   8-0.71962 0.36779-0.23759-0.34611-0.77751 0.91705
  -4  -7   2 409.109 170.622   4 0.16087-0.43343-0.11526-0.46886 0.99285-0.83828
  -4   7   2 422.361 115.415   6 0.25986-0.53317 0.17262 0.41149 0.98228-0.82680
   4  -7  -2 234.871 125.988   9-0.17253 0.44535-0.12172-0.46206-0.99251 0.83729
  -4   7   2 429.680 141.730   2-0.53832 0.26494 0.40771 0.17678-0.82617 0.98112
   4   7  -2 174.602 139.255   6 0.34959-0.07654 0.51280 0.07024 0.83660-0.99096
   4  -7  -2 235.140 82.1021   3 0.60805-0.33579-0.36338-0.21956 0.80833-0.96327
  -4   7   2 296.650 169.567   5-0.69070 0.41683 0.30767 0.27653-0.77359 0.92953
   4   7  -2 51.1363 106.903   1-0.17877 0.45253 0.12676 0.45688-0.99180 0.83818
  -3  -7   2 2835.65 396.775   4 0.17853-0.37253-0.06772-0.51662 0.99759-0.82803
   3   7  -2 2967.80 371.111   1-0.18877 0.38404 0.07322 0.51027-0.99727 0.82881
  -3   7   2 3200.07 390.978   2-0.55456 0.35966 0.43338 0.15114-0.80257 0.97244
  -3   7   2 3334.91 356.296   6 0.23383-0.42862 0.09115 0.49307 0.99486-0.82443
   3   7  -2 3165.44 409.652   6 0.35200-0.15744 0.52439 0.05862 0.82844-0.99770
   3  -7  -2 2936.33 360.207   9-0.19147 0.38582-0.07297-0.51084-0.99738 0.82723
   3  -7  -2 3402.62 415.826   3 0.63377-0.44002-0.39123-0.19162 0.77534-0.94508
  -2   7   2 -59.710 63.8853   6 0.21391-0.33017 0.03188 0.55242 0.99921-0.81383
  -2  -7   2 -150.56 130.540   4 0.19350-0.30892-0.02626-0.55828 0.99963-0.81505
   2   7  -2 79.0156 64.7918   1-0.19672 0.31353 0.02815 0.55519-0.99956 0.81629
   2  -7  -2 -13.751 119.287   9-0.20768 0.32356-0.02999-0.55384-0.99941 0.81433
   2   7  -2 -44.801 61.6604   6 0.35601-0.23995 0.54434 0.03864 0.81376-0.99792
  -1  -7   2 3819.21 420.900   4 0.20570-0.24253 0.00838-0.59309 0.99984-0.80024
   1   7  -2 4048.48 411.198   1-0.20280 0.24117-0.00805 0.59124-0.99989 0.80179
  -1   7   2 4175.29 415.685   6 0.19957-0.23729-0.00939 0.59374 0.99990-0.79957
   1   7  -2 3813.35 424.956   6 0.36146-0.32388 0.57287 0.01007 0.79131-0.99035
   1  -7  -2 3993.61 376.707   9-0.22106 0.25848 0.00646-0.59032-0.99947 0.79947
   0   7  -2 87.3735 62.0620   1-0.20716 0.16710-0.03498 0.61805-0.99926 0.78635
   0   7   2 -23.645 108.991   6 0.19019-0.14938-0.03578 0.62018 0.99934-0.78405
   0  -7   2 112.578 73.5806   4 0.21502-0.17326 0.03539-0.62025 0.99907-0.78443
   0  -7  -2 16.2631 67.2921   9-0.23150 0.19045 0.03556-0.61943-0.99844 0.78350
   0   7  -2 18.2517 38.9080   6 0.36797-0.40887 0.60995-0.02703 0.75938-0.97330
   0  -7   2 -37.816 70.4620   9 0.05713-0.01644-0.61206 0.02830-0.76392 0.97813
  -8  -8   2 -18.147 158.945   4 0.05276-0.63921-0.37917-0.28748 0.91675-0.82197
   8   8  -2 -22.811 125.130   6 0.35695 0.23010 0.54916 0.11728 0.81009-0.90464
   8  -8  -2 213.749 257.362   9-0.05882 0.64546-0.38593-0.28119-0.91530 0.81971
  -8   8   2 309.431 193.376   5-0.64882 0.06100 0.27892 0.38838-0.81822 0.91457
  -8  -8   2 191.304 169.439   8-0.69637 0.10925-0.22716-0.43986-0.80089 0.89562
  -7  -8   2 -74.593 134.375   4 0.07793-0.58590-0.32158-0.34530 0.94106-0.83137
   7   8  -2 22.6932 140.540   6 0.35379 0.15478 0.53318 0.13326 0.82206-0.93156
   7  -8  -2 -179.97 133.161   9-0.08527 0.59344-0.32846-0.33867-0.93994 0.82943
  -7   8   2 179.778 188.051   2-0.52952 0.02076 0.39409 0.27378-0.83790 0.94817
   7  -8  -2 126.383 150.010   3 0.58835-0.08043-0.34259-0.32401 0.83071-0.94095
  -7   8   2 -16.375 121.324   5-0.65532 0.14594 0.28332 0.38406-0.81183 0.92308
  -7  -8   2 452.785 253.605   8-0.70739 0.19869-0.23209-0.43493-0.79008 0.89974
  -6  -8   2 -20.200 129.736   4 0.10073-0.53022-0.26744-0.39968 0.95979-0.83516
   6  -8  -2 571.743 194.324   9-0.10935 0.53906-0.27413-0.39303-0.95900 0.83358
   6   8  -2 88.7014 87.2415   6 0.35178 0.07829 0.52332 0.14313 0.82920-0.95363
  -6   8   2 192.545 125.777   2-0.53217 0.10186 0.39817 0.26972-0.83444 0.95962
   6  -8  -2 371.957 179.403   3 0.59502-0.16569-0.34958-0.31695 0.82339-0.94854
  -6   8   2 108.407 148.867   5-0.66800 0.23709 0.29197 0.37549-0.79880 0.92497
  -6  -8   2 279.370 203.879   8-0.72617 0.29588-0.24055-0.42647-0.77051 0.89512
  -5  -8   2 26.4362 121.065   4 0.12118-0.47216-0.21730-0.45006 0.97378-0.83420
  -5   8   2 151.759 84.1968   2-0.53862 0.18678 0.40818 0.25973-0.82576 0.96585
   5  -8  -2 -129.36 109.281   9-0.13104 0.48229-0.22348-0.44369-0.97331 0.83295
   5   8  -2 -34.573 130.956   6 0.35107 0.00049 0.51992 0.14652 0.83162-0.97098
  -5   8   2 85.1440 124.541   5-0.68791 0.33550 0.30573 0.36184-0.77683 0.91793
   5  -8  -2 148.986 149.221   3 0.60695-0.25620-0.36221-0.30425 0.80964-0.94967
  -4  -8   2 2127.73 443.585   4 0.13922-0.41165-0.17172-0.49587 0.98383-0.82926
  -4   8   2 2890.44 401.838   2-0.54925 0.27587 0.42489 0.24305-0.81059 0.96560
   4   8  -2 2825.53 415.215   6 0.35178-0.07872 0.52336 0.14306 0.82917-0.98346
   4  -8  -2 3009.05 415.456   9-0.15029 0.42307-0.17710-0.49009-0.98360 0.82832
   4  -8  -2 3358.81 451.179   3 0.62477-0.35257-0.38139-0.28497 0.78742-0.94230
   4   8  -2 2988.86 405.113   1-0.16687 0.44064 0.18666 0.48041-0.98209 0.82856
  -3  -8   2 -130.04 135.957   4 0.15481-0.34868-0.13127-0.53651 0.99067-0.82112
  -3   8   2 -25.205 66.3431   6 0.25931-0.45413 0.17085 0.49673 0.98264-0.81213
  -3   8   2 32.4174 99.2947   2-0.56429 0.36938 0.44909 0.21888-0.78709 0.95703
   3  -8  -2 -81.667 93.7319   9-0.16703 0.36136-0.13560-0.53161-0.99062 0.82041
   3   8  -2 136.757 103.839   6 0.35395-0.15940 0.53399 0.13241 0.82147-0.99067
   3   8  -2 13.4217 101.292   1-0.17618 0.37146 0.14018 0.52673-0.98996 0.82159
   2   8  -2 1173.91 249.341   1-0.18361 0.30044 0.10129 0.56548-0.99477 0.81157
  -2  -8   2 1525.17 312.795   4 0.16786-0.28315-0.09660-0.57137 0.99502-0.81046
  -2   8   2 1460.20 279.705   6 0.24158-0.35786 0.11490 0.55275 0.99198-0.80653
   2  -8  -2 1203.07 239.838   9-0.18120 0.29706-0.09961-0.56762-0.99506 0.80992
   2   8  -2 1238.81 270.222   6 0.35753-0.24147 0.55211 0.11426 0.80782-0.99191
   1   8  -2 307.588 141.487   1-0.18929 0.22769 0.07035 0.59628-0.99748 0.79945
  -1   8   2 512.289 166.705   6 0.22829-0.26605 0.07444 0.59328 0.99649-0.79609
  -1  -8   2 463.709 176.532   4 0.17829-0.21499-0.06837-0.59978 0.99755-0.79796
   1  -8  -2 490.776 139.991   9-0.19268 0.23008-0.06981-0.59744-0.99760 0.79753
   1   8  -2 744.817 212.605   6 0.36237-0.32482 0.57790 0.08843 0.78718-0.98615
  -1  -8   2 -320.90 129.074   9 0.06092-0.09874-0.61877-0.04843-0.75777 0.95701
   0  -8   2 1551.12 267.141   4 0.18595-0.14405-0.04733-0.62098 0.99884-0.78423
   0   8  -2 1663.27 263.284   1-0.19332 0.15331 0.04773 0.61877-0.99882 0.78598
   0   8   2 1344.94 254.247   6 0.21912-0.17832 0.04715 0.62062 0.99847-0.78313
   0   8  -2 1928.14 269.759   2-0.27370 0.23316 0.04889 0.61852-0.99505 0.78143
   0  -8  -2 1653.71 299.688   9-0.20133 0.16026-0.04696-0.62032-0.99886 0.78386
   0   8  -2 28.7915 35.5487   6 0.36820-0.40913 0.61135 0.05493 0.75810-0.97195
   0  -8   2 -69.646 161.361   9 0.05786-0.01720-0.61336-0.05380-0.76273 0.97689
   1  -8   2 4.62960 57.0090   4 0.19063-0.07013-0.03429-0.63414 0.99939-0.76975
  -1   8  -2 15.6739 71.4868   1-0.19574 0.07732 0.03383 0.63255-0.99939 0.77172
   1  -8   2 22.8064 49.7016   9 0.05894 0.06020-0.61526-0.05188-0.76099 0.99007
  -7   9   2 395.952 186.496   5-0.68283 0.17343 0.30219 0.44861-0.78262 0.89402
  -6  -9   2 118.984 239.464   4 0.08311-0.51249-0.30942-0.44118 0.94561-0.82097
  -6   9   2 431.103 182.052   2-0.54559 0.11529 0.41910 0.33224-0.81594 0.94119
   6  -9  -2 828.858 246.910   9-0.09127 0.52096-0.31510-0.43545-0.94499 0.81951
   6   9  -2 506.926 238.252   6 0.35489 0.07519 0.53868 0.21116 0.81800-0.94235
  -6   9   2 -10.882 126.619   5-0.69626 0.26534 0.31155 0.43935-0.76701 0.89332
   6  -9  -2 568.955 223.244   3 0.61463-0.18537-0.37043-0.37954 0.80033-0.92538
  -5  -9   2 16.3321 159.665   4 0.10157-0.45242-0.26542-0.48539 0.96042-0.82082
  -5   9   2 139.320 153.565   2-0.55197 0.20013 0.42923 0.32215-0.80652 0.94668
   5  -9  -2 54.9324 165.094   9-0.11086 0.46209-0.27065-0.47992-0.96009 0.81968
   5   9  -2 -87.964 133.126   6 0.35431-0.00275 0.53583 0.21400 0.82012-0.95940
   5  -9  -2 199.297 188.123   3 0.62653-0.27584-0.38330-0.36657 0.78511-0.92504
  -4  -9   2 1200.52 408.259   4 0.11774-0.39003-0.22585-0.52517 0.97162-0.81705
  -4   9   2 1854.02 358.295   2-0.56209 0.28871 0.44551 0.30590-0.79069 0.94578
   4  -9  -2 2103.92 365.259   9-0.12813 0.40088-0.23038-0.52021-0.97155 0.81622
   4   9  -2 2059.42 404.456   6 0.35499-0.08193 0.53922 0.21060 0.81760-0.97180
  -3  -9   2 -33.122 128.133   4 0.13156-0.32529-0.19123-0.56001 0.97983-0.81027
   3   9  -2 83.4812 186.554   1-0.16357 0.35889 0.20263 0.54773-0.97885 0.81058
  -3   9   2 150.206 152.476   6 0.28085-0.47570 0.24233 0.50859 0.96527-0.79467
   3  -9  -2 111.084 154.015   9-0.14301 0.33730-0.19482-0.55580-0.97998 0.80971
   3   9  -2 117.039 105.918   6 0.35695-0.16240 0.54913 0.20067 0.81011-0.97923
  -2  -9   2 539.238 199.861   4 0.14296-0.25811-0.16210-0.58932 0.98563-0.80106
  -2   9   2 485.795 156.470   6 0.26508-0.38140 0.18960 0.56141 0.97868-0.79315
   2  -9  -2 370.521 131.013   9-0.15541 0.27123-0.16454-0.58610-0.98594 0.80074
   2   9  -2 507.138 224.340   6 0.36014-0.24410 0.56580 0.18396 0.79704-0.98106
   2   9  -2 272.414 149.048   1-0.17051 0.28738 0.16877 0.58144-0.98539 0.80228
  -1  -9   2 198.160 111.708   4 0.15184-0.18839-0.13908-0.61250 0.98950-0.78991
  -1   9   2 187.781 145.368   6 0.25290-0.29067 0.15035 0.60073 0.98649-0.78601
   1  -9  -2 259.674 131.963   9-0.16521 0.20259-0.14015-0.61050-0.98995 0.78981
   1   9  -2 163.234 107.973   6 0.36443-0.32690 0.58937 0.16035 0.77751-0.97641
   1   9  -2 280.284 145.843   1-0.17580 0.21423 0.14214 0.60793-0.98967 0.79173
   0   9  -2 184.900 120.193   1-0.17948 0.13951 0.12308 0.62685-0.99227 0.77951
   0  -9   2 167.478 102.388   4 0.15801-0.11597-0.12284-0.62888 0.99186-0.77725
   0   9  -2 -37.383 76.8897   6 0.36959-0.41055 0.61985 0.12983 0.75028-0.96405
  -1   9  -2 112.071 105.643   1-0.18159 0.06321 0.11199 0.63784-0.99361 0.76602
   1  -9   2 57.0143 87.8787   4 0.16129-0.04064-0.11417-0.63769 0.99299-0.76335
  -1   9  -2 6.43465 57.4063   2-0.31511 0.19610 0.10016 0.65069-0.98638 0.75792
  -3 -10   2 49.1291 136.064   4 0.10853-0.30212-0.24850-0.58617 0.96545-0.79586
   3 -10  -2 121.013 121.802   9-0.11913 0.31340-0.25148-0.58253-0.96580 0.79548
   3  10  -2 113.052 104.654   6 0.36063-0.16608 0.56840 0.26479 0.79495-0.96397
   2  10  -2 117.707 228.775   1-0.15732 0.27423 0.23209 0.60156-0.97214 0.78913
  -2 -10   2 870.669 255.920   4 0.11849-0.23349-0.22398-0.61087 0.97210-0.78751
   2 -10  -2 1036.75 261.375   9-0.13000 0.24580-0.22596-0.60808-0.97268 0.78743
   2  10  -2 1119.82 282.629   6 0.36346-0.24743 0.58389 0.24927 0.78217-0.96609
  -1 -10   2 84.3205 140.288   4 0.12599-0.16239-0.20526-0.62975 0.97668-0.77707
   1  10  -2 -41.648 85.9598   1-0.16222 0.20070 0.20905 0.62446-0.97747 0.77963
   1  10  -2 64.6739 58.5001   6 0.36724-0.32972 0.60563 0.22749 0.76327-0.96208
   0 -10   2 84.9997 77.8024   4 0.13087-0.08868-0.19298-0.64216 0.97945-0.76483
   0  10  -2 194.405 135.199   1-0.16558 0.12564 0.19297 0.64041-0.98084 0.76818
  -1  10  -2 -113.99 100.430   1-0.16737 0.04905 0.18422 0.64905-0.98256 0.75508
  11   0  -3 -46.474 112.886   7 0.72866 0.07297 0.12072-0.12138 0.80045-0.95808
 -11   0   3 458.792 282.313   8-0.71980-0.08223-0.23766 0.23745-0.77732 0.93480
  10   0  -3 -94.801 114.664   7 0.72620-0.00304 0.12022-0.12086 0.80267-0.97522
 -10   0   3 390.504 262.148   8-0.71679-0.00675-0.23631 0.23610-0.78047 0.95286
   9   0  -3 -54.814 98.9728   7 0.72952-0.08483 0.12090-0.12152 0.79967-0.98713
  -9   0   3 -39.503 160.046   8-0.71923 0.07417-0.23741 0.23720-0.77791 0.96522
   7   0  -3 21.1202 69.0091   7 0.75935-0.27156 0.12706-0.12764 0.77095-0.98823
  11   1  -3 -44.493 140.075   7 0.72298 0.07865 0.11956-0.03683 0.80554-0.96313
  11  -1  -3 192.838 239.187   7 0.74054 0.06110 0.12317-0.20720 0.78943-0.94711
 -11   1   3 171.546 100.198   5-0.69319-0.10977 0.30941-0.22538-0.77067 0.92939
 -11  -1   3 151.349 179.006   8-0.70654-0.09549-0.23170 0.14806-0.79093 0.94836
  10   1  -3 174.589 149.829   7 0.72013 0.00302 0.11897-0.03624 0.80806-0.98057
  10  -1  -3 189.920 186.609   7 0.73894-0.01576 0.12284-0.20685 0.79095-0.96354
 -10   1   3 191.098 135.989   5-0.68864-0.03593 0.30623-0.22225-0.77599 0.94958
 -10  -1   3 409.985 220.552   8-0.70267-0.02088-0.22997 0.14634-0.79477 0.96711
 -10   1   3 -379.09 426.305   8-0.73790 0.01438-0.24588 0.32910-0.75749 0.92992
   9   1  -3 75.2774 141.250   7 0.72295-0.07827 0.11955-0.03680 0.80557-0.99299
   9  -1  -3 208.552 126.606   7 0.74328-0.09856 0.12373-0.20772 0.78682-0.97434
  -9   1   3 294.100 174.376   5-0.68887 0.04270 0.30639-0.22245-0.77573 0.96422
  -9  -1   3 229.357 149.217   8-0.70403 0.05894-0.23058 0.14696-0.79343 0.98068
   8   1  -3 118.643 169.504   7 0.73280-0.16659 0.12157-0.03881 0.79667-0.99899
   8  -1  -3 364.316 184.958   7 0.75496-0.18868 0.12615-0.21012 0.77538-0.97781
  -8   1   3 115.892 112.975   5-0.69491 0.12718 0.31061-0.22671-0.76862 0.97204
   7   1  -3 -29.540 82.4836   7 0.75129-0.26352 0.12539-0.04261 0.77903-0.99626
  -7  -1   3 -21.575 63.2501   4 0.24612-0.73434 0.12929-0.21221 0.98993-0.77273
   7  -1  -3 -31.099 50.8585   9-0.25307 0.74098 0.09764-0.18103-0.99300 0.77561
  -7  -1   3 109.833 75.2729   8-0.72745 0.23931-0.24113 0.15752-0.76912 0.98621
  11   2  -3 32.9319 166.024   7 0.72332 0.07829 0.11963 0.04649 0.80524-0.96277
  11  -2  -3 6.14985 144.608   7 0.75868 0.04297 0.12692-0.29431 0.77163-0.92936
 -11   2   3 92.5696 159.341   5-0.68182-0.12112 0.30149-0.13416-0.78376 0.94248
 -11  -2   3 65.3685 170.768   8-0.69947-0.10256-0.22854 0.06150-0.79790 0.95527
  10   2  -3 130.477 168.397   7 0.72055 0.00259 0.11906 0.04707 0.80770-0.98015
  10  -2  -3 514.036 260.830   7 0.75840-0.03520 0.12686-0.29423 0.77192-0.94456
 -10   2   3 652.079 229.713   5-0.67670-0.04785 0.29796-0.13065-0.78945 0.96303
 -10  -2   3 699.617 244.823   8-0.69522-0.02834-0.22664 0.05962-0.80200 0.97428
   9   2  -3 259.783 188.441   7 0.72335-0.07869 0.11963 0.04650 0.80522-0.99258
   9  -2  -3 313.837 198.557   7 0.76422-0.11948 0.12808-0.29541 0.76593-0.95350
  -9   2   3 1034.45 268.937   5-0.67612 0.02997 0.29756-0.13027-0.79008 0.97856
  -9  -2   3 688.248 222.650   8-0.69600 0.05090-0.22699 0.05996-0.80125 0.98844
   8   2  -3 1269.82 326.326   7 0.73305-0.16686 0.12163 0.04452 0.79643-0.99870
  -8   2   3 2231.85 367.536   5-0.68106 0.11334 0.30097-0.13371-0.78461 0.98802
  -8  -2   3 2538.51 401.777   8-0.70297 0.13634-0.23011 0.06309-0.79447 0.99658
   7   2  -3 320.859 151.384   7 0.75120-0.26347 0.12537 0.04079 0.77912-0.99629
  -7  -2   3 59.6544 84.4432   4 0.22814-0.71630 0.07428-0.24068 0.99651-0.77935
   7  -2  -3 235.551 141.420   9-0.23650 0.72439 0.04970-0.21648-0.99759 0.78015
  -7   2   3 340.198 180.689   5-0.69264 0.20338 0.30902-0.14179-0.77131 0.98968
  -7  -2   3 349.355 206.593   8-0.71747 0.22930-0.23662 0.06961-0.77976 0.99680
  -6  -2   3 -182.38 169.689   8-0.74090 0.33120-0.24725 0.08025-0.75405 0.98601
 -11   3   3 3039.54 516.241   5-0.67628-0.12665 0.29766-0.04701-0.78991 0.94866
  10   3  -3 68.3956 144.711   7 0.72714-0.00402 0.12041 0.12911 0.80183-0.97422
  10  -3  -3 19.5871 114.434   3 0.63178 0.09111-0.38905 0.13988 0.77806-0.95058
 -10   3   3 129.231 101.533   5-0.67101-0.05354 0.29403-0.04340-0.79561 0.96922
 -10  -3   3 222.288 164.709   8-0.69397-0.02959-0.22609-0.02432-0.80319 0.97540
   9   3  -3 122.652 148.588   7 0.73037-0.08573 0.12107 0.12846 0.79889-0.98620
   9  -3  -3 355.538 177.256   3 0.62891 0.01546-0.38591 0.13673 0.78194-0.96940
  -9   3   3 296.443 164.049   5-0.67008 0.02395 0.29340-0.04278-0.79660 0.98511
  -9  -3   3 166.373 154.247   8-0.69465 0.04954-0.22639-0.02402-0.80254 0.98968
   8   3  -3 179.923 145.031   7 0.74039-0.17422 0.12314 0.12640 0.78958-0.99179
   8  -3  -3 183.332 109.145   9-0.17248 0.73880-0.12186-0.12831-0.99249 0.78989
   8  -3  -3 265.923 149.084   3 0.63031-0.06446-0.38744 0.13825 0.78005-0.98244
  -8   3   3 234.838 158.753   5-0.67441 0.10670 0.29638-0.04576-0.79194 0.99538
  -8  -3   3 154.294 158.881   8-0.70128 0.13463-0.22935-0.02105-0.79613 0.99819
   7   3  -3 1135.73 285.081   1-0.20603 0.69515-0.02788 0.27783-0.99950 0.78324
   7   3  -3 1002.63 248.918   7 0.75865-0.27095 0.12692 0.12264 0.77166-0.98876
  -7  -3   3 936.834 304.791   4 0.21063-0.69871 0.02260-0.27247 0.99954-0.78242
   7  -3  -3 1743.93 305.535   9-0.21976 0.70763 0.00288-0.25306-0.99953 0.78204
   7  -3  -3 900.305 231.287   3 0.63673-0.14936-0.39450 0.14531 0.77124-0.98851
  -7   3   3 1168.45 265.791   5-0.68503 0.19576 0.30371-0.05310-0.78014 0.99854
  -7  -3   3 1677.87 338.117   8-0.71513 0.22694-0.23556-0.01483-0.78219 0.99917
   6   3  -3 94.5312 72.3945   1-0.22718 0.63772-0.17394 0.42380-0.98402 0.75297
  10   4  -3 144.966 188.289   7 0.73951-0.01641 0.12296 0.20998 0.79041-0.96272
  10  -4  -3 15.3279 89.0850   3 0.62661 0.09631-0.38340 0.05086 0.78499-0.95758
 -10   4   3 409.751 201.043   5-0.67090-0.05364 0.29396 0.04000-0.79572 0.96940
 -10  -4   3 290.876 202.577   8-0.69841-0.02517-0.22807-0.10571-0.79893 0.97110
   9   4  -3 237.553 160.287   7 0.74355-0.09894 0.12379 0.20915 0.78656-0.97379
   9  -4  -3 19.0638 164.351   3 0.62362 0.02077-0.38014 0.04760 0.78892-0.97646
  -9   4   3 221.742 155.030   5-0.67001 0.02387 0.29335 0.04061-0.79667 0.98524
  -9  -4   3 351.945 209.700   8-0.69935 0.05423-0.22849-0.10528-0.79801 0.98510
   8   4  -3 508.227 201.773   7 0.75426-0.18813 0.12601 0.20694 0.77608-0.97821
  -8  -4   3 262.553 186.570   4 0.15445-0.72085-0.13223-0.20087 0.99053-0.78840
  -8   4   3 57.8365 109.311   2-0.57292 0.00593 0.46335-0.12914-0.77235 0.97457
   8  -4  -3 410.816 197.919   9-0.16197 0.72827-0.14826-0.18530-0.98869 0.78605
   8  -4  -3 385.434 161.015   3 0.62465-0.05879-0.38126 0.04872 0.78758-0.99004
  -8   4   3 304.784 142.909   5-0.67413 0.10642 0.29619 0.03779-0.79224 0.99574
  -8  -4   3 520.184 211.219   8-0.70606 0.13938-0.23149-0.10228-0.79141 0.99341
   7   4  -3 -139.42 136.580   7 0.77299-0.28533 0.12990 0.20304 0.75668-0.97370
   7   4  -3 -246.74 144.406   1-0.19555 0.68468 0.03495 0.29842-0.99935 0.78317
  -7  -4   3 -12.027 159.355   4 0.19320-0.68120-0.02710-0.30625 0.99961-0.78253
   7  -4  -3 15.4159 91.5901   9-0.20272 0.69056-0.04328-0.29030-0.99901 0.78146
   7  -4  -3 16.6702 90.7027   3 0.63038-0.14304-0.38751 0.05499 0.77996-0.99732
  -7   4   3 -154.76 133.546   5-0.68419 0.19493 0.30314 0.03085-0.78108 0.99953
  -7  -4   3 -221.75 164.952   8-0.71968 0.23145-0.23761-0.09614-0.77744 0.99437
  -6  -4   3 -266.89 361.151   8-0.74143 0.33164-0.24749-0.08626-0.75344 0.98531
   6   4  -3 60.4667 103.999   1-0.21501 0.62557-0.08619 0.41945-0.99599 0.76501
  -6  -4   3 -89.224 145.717   4 0.22754-0.63709 0.07246-0.40605 0.99666-0.76459
  10   5  -3 507.532 247.714   7 0.75721-0.03414 0.12662 0.28973 0.77312-0.94535
  10  -5  -3 152.410 152.436   3 0.62615 0.09680-0.38290-0.03304 0.78560-0.95824
 -10  -5   3 555.236 284.636   8-0.70795-0.01563-0.23234-0.18479-0.78952 0.96164
   9   5  -3 259.578 139.878   7 0.76234-0.11776 0.12768 0.28867 0.76788-0.95503
  -9   5   3 233.566 160.396   2-0.57053-0.07491 0.45938-0.04172-0.77652 0.96388
   9  -5  -3 448.032 232.980   3 0.62331 0.02110-0.37981-0.03614 0.78932-0.97692
  -9   5   3 302.350 174.288   5-0.67514 0.02900 0.29688 0.12043-0.79115 0.97980
  -9  -5   3 596.607 284.852   8-0.70947 0.06434-0.23302-0.18410-0.78798 0.97502
   8   5  -3 -8.7802 102.679   7 0.77403-0.20792 0.13012 0.28624 0.75556-0.95761
  -8  -5   3 28.7854 113.710   4 0.14159-0.70794-0.16564-0.25093 0.98498-0.78289
  -8   5   3 99.8688 147.783   2-0.56903 0.00205 0.45690-0.03925-0.77911 0.98137
   8  -5  -3 280.771 196.542   9-0.14948 0.71575-0.17909-0.23788-0.98321 0.78053
   8  -5  -3 122.077 123.925   3 0.62426-0.05841-0.38084-0.03509 0.78809-0.99061
  -8   5   3 -24.055 114.050   5-0.67936 0.11165 0.29979 0.11755-0.78651 0.99008
  -8  -5   3 253.131 214.590   8-0.71657 0.14987-0.23621-0.18090-0.78070 0.98266
   7   5  -3 223.270 212.815   1-0.18528 0.67441 0.09232 0.32448-0.99566 0.77955
  -7  -5   3 132.428 259.488   4 0.17566-0.66358-0.07553-0.34128 0.99699-0.77995
  -7   5   3 340.621 198.904   2-0.57084 0.08232 0.45989-0.04223-0.77599 0.99317
   7  -5  -3 381.500 169.742   9-0.18530 0.67313-0.08902-0.32796-0.99608 0.77848
   7  -5  -3 455.027 206.321   3 0.62961-0.14229-0.38667-0.02923 0.78100-0.99842
  -7   5   3 315.750 204.006   5-0.68920 0.19995 0.30663 0.11075-0.77534 0.99386
  -7  -5   3 -164.63 203.353   8-0.73029 0.24202-0.24241-0.17469-0.76601 0.98290
  -9   6   3 448.074 237.978   2-0.57053-0.07490 0.45938 0.04172-0.77652 0.96394
   9  -6  -3 376.849 207.116   3 0.62718 0.01723-0.38401-0.11535 0.78425-0.97187
  -8  -6   3 228.208 259.973   4 0.12751-0.69379-0.20145-0.29857 0.97756-0.77549
  -8   6   3 614.310 227.656   2-0.56914 0.00216 0.45707 0.04403-0.77893 0.98125
   8  -6  -3 898.367 331.189   9-0.13550 0.70176-0.21286-0.28749-0.97590 0.77316
   8  -6  -3 1009.05 317.635   3 0.62826-0.06241-0.38519-0.11415 0.78281-0.98536
  -8   6   3 994.219 313.681   5-0.68928 0.12155 0.30668 0.19404-0.77525 0.97892
  -8  -6   3 186.149 227.477   8-0.73205 0.16532-0.24321-0.25724-0.76407 0.96599
  -7  -6   3 257.174 303.430   4 0.15791-0.64574-0.12313-0.37716 0.99182-0.77480
  -7   6   3 536.234 191.643   2-0.57082 0.08230 0.45986 0.04127-0.77602 0.99327
   7  -6  -3 1124.55 291.382   9-0.16748 0.65528-0.13448-0.36589-0.99078 0.77313
   7  -6  -3 1007.56 281.079   3 0.63345-0.14616-0.39088-0.10843 0.77578-0.99323
   7   6  -3 145.958 356.224   1-0.17497 0.66410 0.14633 0.35392-0.98905 0.77303
   6   6  -3 -53.046 88.3601   1-0.19151 0.60209 0.05798 0.44214-0.99828 0.76745
  -6  -6   3 114.104 187.432   4 0.18520-0.59455-0.04937-0.45117 0.99874-0.76673
  -8   7   3 57.2413 132.015   2-0.57247 0.00549 0.46258 0.12197-0.77316 0.97555
   8  -7  -3 -69.753 169.521   3 0.63585-0.07002-0.39353-0.18925 0.77246-0.97501
  -7  -7   3 92.3691 138.569   4 0.13984-0.62758-0.17013-0.41363 0.98413-0.76713
   7   7  -3 2.26113 145.169   1-0.16451 0.65363 0.19814 0.38556-0.97979 0.76386
   5   7  -3 -12.893 54.1027   1-0.19257 0.52464 0.05201 0.53139-0.99861 0.75306
  -5  -7   3 6.62882 74.5557   4 0.18645-0.51716-0.04590-0.53834 0.99891-0.75191
  -7  -8   3 8.15473 227.619   4 0.12142-0.60905-0.21670-0.45051 0.97393-0.75693
  -5  -8   3 -443.82 170.205   4 0.16381-0.49440-0.10744-0.56025 0.99381-0.74683
   0   0   0    0.00    0.00
   1  -2   1 7.60627 15.6524   9 0.05663 0.04223-0.61118 0.44443-0.76471 0.88683
  -5  -5   3 -37.271 49.8470   4 0.23303-0.56397 0.08900-0.50629 0.99509-0.74803
   5   5  -3 -7.5310 72.9706   1-0.21718 0.54923-0.10107 0.51763-0.99453 0.74884
   5   6  -3 12.5065 49.0624   1-0.20487 0.53693-0.02074 0.52070-0.99968 0.75406
  -5  -6   3 -30.640 65.5996   4 0.20944-0.54027 0.01918-0.51995 0.99963-0.75261
   6   7  -3 55.7406 124.555   1-0.17989 0.59048 0.12093 0.46261-0.99254 0.76179
  -6  -7   3 25.8480 101.608   4 0.16451-0.57375-0.10558-0.47841 0.99403-0.76203
  -6  -8   3 5.68183 105.055   4 0.14386-0.55298-0.15978-0.50768 0.98605-0.75406
   6   8  -3 7.09936 102.431   1-0.16819 0.57880 0.18021 0.48677-0.98332 0.75266
  -6  -3   3 -63.634 114.180   4 0.24981-0.65946 0.14084-0.39095 0.98811-0.75599
  -6  -3   3 -95.067 151.467   8-0.73753 0.32778-0.24571-0.00468-0.75791 0.98982
   0   5  -2 33.6452 30.7334   1-0.23463 0.19453-0.23456 0.65083-0.97092 0.75791
   0  -5   2 47.2263 46.1310   4 0.27824-0.23673 0.23369-0.65164 0.96771-0.75294
   0  -6   2 417.449 119.090   4 0.24566-0.20403 0.12786-0.62927 0.99015-0.77545
   0   6  -2 -19.067 50.7479   6 0.36931-0.41019 0.61816-0.11861 0.75185-0.96582
   0   6  -2 646.979 140.339   1-0.22099 0.18090-0.12776 0.62742-0.99134 0.77837
   0   4  -1 556.529 156.992   6 0.33873-0.35919 0.46324-0.13013 0.86871-0.97566
   0  -4   1 172.090 63.6496   7 0.62299-0.60241 0.09934-0.43259 0.88024-0.77336
   0   4   1 71.4019 82.1508   2-0.55847 0.57876 0.43965-0.10562-0.79649 0.90383
   0   4   1 219.900 127.158   6 0.15374-0.13333-0.13436 0.46828 0.99022-0.88257
   0  -4  -1 323.816 135.405   9-0.26513 0.24459 0.13360-0.46723-0.98781 0.88032
   0  -4   1 348.150 137.386   4 0.24756-0.22666 0.13378-0.46798 0.98924-0.88200
   0  -4   1 420.864 153.419   9-0.02069 0.04102-0.46487 0.13130-0.87324 0.98032
   0   4  -1 362.731 129.180   1-0.22176 0.20173-0.13341 0.46663-0.99056 0.88410
  -1   7  -2 142.045 74.1717   1-0.20986 0.09141-0.05225 0.63521-0.99846 0.77073
   1  -7   2 -17.778 65.8147   4 0.22130-0.10094 0.05384-0.63885 0.99807-0.76839
   1  -7   2 17.6151 57.2930   9 0.05836 0.06081-0.61423 0.03049-0.76194 0.99107
  -2   7  -2 -5.2631 55.2498   1-0.21097 0.01413-0.05942 0.64228-0.99804 0.75549
   2  -7   2 -53.155 44.2006   4 0.22428-0.02532 0.06270-0.64782 0.99745-0.75274
   2  -8   2 -38.345 67.7269   4 0.19206 0.00704-0.03029-0.63825 0.99952-0.75485
  -2   8  -2 112.875 99.4157   1-0.19656-0.00025 0.02911 0.63717-0.99953 0.75705
   3   2   1 4470.30 344.329   7-0.16874 0.42469-0.04988 0.21684 0.93434-0.78208
  -4  -2   0 120.612 16.9110   9-0.25286-0.06107 0.09702-0.26392-0.99308 0.93327
   4  -2   0 316.122 78.4445   9-0.03277 0.34659-0.44036 0.27360-0.88739 0.94693
   4  -2   0 333.740 35.4645   4 0.20491 0.10953 0.00612-0.17359 0.99987-0.94016
   4   2   0 303.456 68.5885   6 0.20224 0.11177-0.00179 0.16862 0.99992-0.94010
  -4  -2   0 304.255 69.1630   4 0.02866-0.34231-0.43231 0.26601 0.88999-0.94961
  -4   2   0 284.172 42.4650   1-0.20160-0.11205-0.00079 0.16735-0.99993 0.94046
   4  -2   0 248.967 34.0586   6 0.20599 0.10792 0.00895-0.17563 0.99983-0.94028
  -4  -2   0 251.424 53.1841   8-0.19158-0.12224-0.01816-0.14860-0.99985 0.94008
   4   2   0 106.564 65.1562   7 0.19250 0.12136 0.01638 0.15037 0.99987-0.94009
   4  -2   0 368.926 74.4325   7 0.21189 0.10199 0.02001-0.18684 0.99956-0.94001
  -4   2   0 232.426 48.9887   8-0.21595-0.09790-0.02774 0.19451-0.99928 0.93973
;
_shelx_hkl_checksum              79037
loop_
_space_group_symop_operation_xyz
'x, y, z'
'-x+1/2, y+1/2, -z'
'-x, -y, -z'
'x-1/2, -y-1/2, z'
loop_
_atom_site_label
_atom_site_type_symbol
_atom_site_fract_x
_atom_site_fract_y
_atom_site_fract_z
_atom_site_U_iso_or_equiv
_atom_site_adp_type
_atom_site_occupancy
_atom_site_site_symmetry_order
_atom_site_calc_flag
_atom_site_refinement_flags_posn
_atom_site_refinement_flags_adp
_atom_site_refinement_flags_occupancy
_atom_site_disorder_assembly
_atom_site_disorder_group
C1 C 0.6774(9) 0.2846(8) 0.789(4) 0.022(9) Uani 1 1 d . U . . .
H1D H 0.580475 0.235638 0.760315 0.026 Uiso 1 1 calc R U . . .
H1E H 0.698517 0.313812 0.930740 0.026 Uiso 1 1 calc R U . . .
C2 C 0.7912(11) 0.1709(8) 0.747(4) 0.023(8) Uani 1 1 d . U . . .
N1 N 0.6777(8) 0.4243(7) 0.665(3) 0.017(10) Uani 1 1 d . U . . .
H1A H 0.638751 0.401184 0.536996 0.021 Uiso 1 1 calc R U . . .
H1B H 0.770242 0.457859 0.672601 0.021 Uiso 1 1 calc R U . . .
H1C H 0.624212 0.499457 0.708479 0.021 Uiso 1 1 calc R U . . .
O1 O 0.5271(9) 0.8642(7) 0.979(3) 0.041(6) Uani 1 1 d . U . . .
H1 H 0.536610 0.960129 0.983919 0.049 Uiso 0.5 1 calc DR U P . .
O2 O 0.4624(7) 0.6451(6) 0.731(3) 0.026(8) Uani 1 1 d . U . . .
O3 O 0.4447(7) 0.9277(7) 0.624(2) 0.042(7) Uani 1 1 d . U . . .
H3 H 0.490033 0.943848 0.532244 0.051 Uiso 0.5 1 calc DR U P . .
O4 O 0.8549(7) 0.1831(6) 0.610(2) 0.029(8) Uani 1 1 d . U . . .
O5 O 0.8085(8) 0.0543(6) 0.884(2) 0.037(8) Uani 1 1 d . U . . .
H5 H 0.871969 -0.007029 0.860902 0.045 Uiso 1 1 calc R U . . .
P1 P 0.5277(3) 0.8083(3) 0.7689(13) 0.031(5) Uani 1 1 d . U . . .
H1P H 0.630515 0.805092 0.749359 0.038 Uiso 1 1 calc R U . . .
loop_
_atom_site_aniso_label
_atom_site_aniso_U_11
_atom_site_aniso_U_22
_atom_site_aniso_U_33
_atom_site_aniso_U_23
_atom_site_aniso_U_13
_atom_site_aniso_U_12
C1 0.018(4) 0.024(4) 0.02(3) 0.003(7) -0.007(9) -0.001(3)
C2 0.018(5) 0.015(3) 0.03(2) -0.003(7) 0.004(10) -0.002(3)
N1 0.019(4) 0.017(3) 0.01(3) 0.005(6) -0.011(8) -0.004(3)
O1 0.051(5) 0.018(3) 0.064(18) -0.006(7) 0.037(8) 0.007(3)
O2 0.024(3) 0.017(2) 0.04(2) 0.000(5) 0.001(7) -0.004(2)
O3 0.029(4) 0.023(3) 0.07(2) 0.017(6) 0.005(7) 0.004(3)
O4 0.023(4) 0.021(3) 0.05(2) 0.007(5) 0.010(8) 0.005(2)
O5 0.038(4) 0.018(3) 0.06(3) 0.011(5) 0.014(8) 0.005(2)
P1 0.0184(13) 0.0138(12) 0.063(15) 0.002(2) 0.010(3) 0.0019(9)
loop_
_atom_type_symbol
_atom_type_description
_atom_type_scat_dispersion_real
_atom_type_scat_dispersion_imag
_atom_type_scat_source
C C 0.0033 0.0016 'International Tables Vol C Tables 4.2.6.8 and 6.1.1.4'
H H 0.0000 0.0000 'International Tables Vol C Tables 4.2.6.8 and 6.1.1.4'
N N 0.0061 0.0033 'International Tables Vol C Tables 4.2.6.8 and 6.1.1.4'
O O 0.0106 0.0060 'International Tables Vol C Tables 4.2.6.8 and 6.1.1.4'
P P 0.1023 0.0942 'International Tables Vol C Tables 4.2.6.8 and 6.1.1.4'
loop_
_geom_angle_atom_site_label_1
_geom_angle_atom_site_label_2
_geom_angle_atom_site_label_3
_geom_angle
_geom_angle_site_symmetry_1
_geom_angle_site_symmetry_3
_geom_angle_publ_flag
N1 C1 C2 110.0(14) . . ?
N1 C1 H1D 109.7 . . ?
C2 C1 H1D 109.7 . . ?
N1 C1 H1E 109.7 . . ?
C2 C1 H1E 109.7 . . ?
H1D C1 H1E 108.2 . . ?
O4 C2 O5 126.0(9) . . ?
O4 C2 C1 123.9(15) . . ?
O5 C2 C1 110.1(17) . . ?
C1 N1 H1A 109.5 . . ?
C1 N1 H1B 109.5 . . ?
H1A N1 H1B 109.5 . . ?
C1 N1 H1C 109.5 . . ?
H1A N1 H1C 109.5 . . ?
H1B N1 H1C 109.5 . . ?
P1 O1 H1 109.5 . . ?
P1 O3 H3 109.5 . . ?
C2 O5 H5 109.5 . . ?
O1 P1 O3 107.9(7) . . ?
O1 P1 O2 112.2(9) . . ?
O3 P1 O2 111.7(8) . . ?
O1 P1 H1P 108.3 . . ?
O3 P1 H1P 108.3 . . ?
O2 P1 H1P 108.3 . . ?
loop_
_geom_bond_atom_site_label_1
_geom_bond_atom_site_label_2
_geom_bond_distance
_geom_bond_site_symmetry_2
_geom_bond_publ_flag
C1 N1 1.455(17) . ?
C1 C2 1.490(14) . ?
C1 H1D 0.9700 . ?
C1 H1E 0.9700 . ?
C2 O4 1.19(2) . ?
C2 O5 1.34(2) . ?
N1 H1A 0.8900 . ?
N1 H1B 0.8900 . ?
N1 H1C 0.8900 . ?
O1 P1 1.50(2) . ?
O1 H1 0.8200 . ?
O2 P1 1.514(6) . ?
O3 P1 1.512(12) . ?
O3 H3 0.8200 . ?
O5 H5 0.8200 . ?
P1 H1P 0.9800 . ?
loop_
_geom_hbond_atom_site_label_D
_geom_hbond_atom_site_label_H
_geom_hbond_atom_site_label_A
_geom_hbond_distance_DH
_geom_hbond_distance_HA
_geom_hbond_distance_DA
_geom_hbond_angle_DHA
_geom_hbond_site_symmetry_A
_geom_hbond_publ_flag
N1 H1A O2 0.89 1.91 2.80(3) 174.7 3_666 yes
N1 H1B O3 0.89 1.96 2.820(8) 162.7 4_675 yes
N1 H1C O2 0.89 1.96 2.826(8) 162.3 . yes
O1 H1 O1 0.82 1.64 2.390(13) 150.8 3_677 yes
O3 H3 O3 0.82 1.70 2.45(2) 149.6 3_676 yes
O5 H5 O2 0.82 1.76 2.550(12) 159.8 4_665 yes
loop_
_geom_torsion_atom_site_label_1
_geom_torsion_atom_site_label_2
_geom_torsion_atom_site_label_3
_geom_torsion_atom_site_label_4
_geom_torsion
_geom_torsion_site_symmetry_1
_geom_torsion_site_symmetry_2
_geom_torsion_site_symmetry_3
_geom_torsion_site_symmetry_4
_geom_torsion_publ_flag
N1 C1 C2 O4 -11(2) . . . . ?
N1 C1 C2 O5 169.8(11) . . . . ?

_cod_database_fobs_code 2109039
