#------------------------------------------------------------------------------
#$Date: 2022-09-02 04:49:51 +0300 (Fri, 02 Sep 2022) $
#$Revision: 277573 $
#$URL: file:///home/coder/svn-repositories/cod/cif/2/10/90/2109027.cif $
#------------------------------------------------------------------------------
#
# This file is available in the Crystallography Open Database (COD),
# http://www.crystallography.net/. The original data for this entry
# were provided by IUCr Journals, http://journals.iucr.org/.
#
# The file may be used within the scientific community so long as
# proper attribution is given to the journal article from which the
# data were obtained.
#
data_2109027
loop_
_publ_author_name
'Bogdanov, Nikita E.'
'Korabel'nikov, Dmitry V.'
'Fedorov, Igor A.'
'Zakharov, Boris A.'
'Boldyreva, Elena V.'
_publ_section_title
;
 The effect of hydrostatic compression on the crystal structure of
 glycinium phosphite
;
_journal_coeditor_code           XK5096
_journal_issue                   5
_journal_name_full               'Acta Crystallographica Section B'
_journal_page_first
;
;
_journal_paper_doi               10.1107/S2052520622008289
_journal_volume                  78
_journal_year                    2022
_chemical_formula_moiety         'C2 H6 N O2, H2 O3 P'
_chemical_formula_sum            'C2 H8 N O5 P'
_chemical_formula_weight         157.06
_space_group_crystal_system      monoclinic
_space_group_IT_number           14
_space_group_name_Hall           '-P 2yab'
_space_group_name_H-M_alt        'P 1 21/a 1'
_atom_sites_solution_hydrogens   geom
_atom_sites_solution_primary     direct
_atom_sites_solution_secondary   difmap
_audit_creation_method           SHELXL-2018/3
_cell_angle_alpha                90
_cell_angle_beta                 100.43(3)
_cell_angle_gamma                90
_cell_formula_units_Z            4
_cell_length_a                   9.7872(10)
_cell_length_b                   8.4868(5)
_cell_length_c                   7.407(7)
_cell_measurement_pressure       0
_cell_measurement_reflns_used    876
_cell_measurement_temperature    298(2)
_cell_measurement_theta_max      27.1150
_cell_measurement_theta_min      3.1880
_cell_volume                     605.1(6)
_computing_cell_refinement       'CrysAlisPro 1.171.40.53 (Rigaku OD, 2019)'
_computing_data_collection       'CrysAlisPro 1.171.40.53 (Rigaku OD, 2019)'
_computing_data_reduction        'CrysAlisPro 1.171.40.53 (Rigaku OD, 2019)'
_computing_structure_refinement  'SHELXL-2018/3 (Sheldrick, 2018)'
_diffrn_ambient_pressure         0
_diffrn_ambient_temperature      298(2)
_diffrn_detector                 'CCD plate'
_diffrn_detector_area_resol_mean 10.3457
_diffrn_detector_type            Ruby
_diffrn_measured_fraction_theta_full 0.358
_diffrn_measured_fraction_theta_max 0.319
_diffrn_measurement_device       'four-circle diffractometer'
_diffrn_measurement_device_type  'Xcalibur, Ruby, Gemini ultra'
_diffrn_radiation_monochromator  graphite
_diffrn_radiation_probe          x-ray
_diffrn_radiation_type           'Mo K\a'
_diffrn_radiation_wavelength     0.71073
_diffrn_reflns_av_R_equivalents  0.0900
_diffrn_reflns_av_unetI/netI     0.0735
_diffrn_reflns_Laue_measured_fraction_full 0.358
_diffrn_reflns_Laue_measured_fraction_max 0.319
_diffrn_reflns_limit_h_max       12
_diffrn_reflns_limit_h_min       -12
_diffrn_reflns_limit_k_max       11
_diffrn_reflns_limit_k_min       -11
_diffrn_reflns_limit_l_max       3
_diffrn_reflns_limit_l_min       -3
_diffrn_reflns_number            3114
_diffrn_reflns_point_group_measured_fraction_full 0.358
_diffrn_reflns_point_group_measured_fraction_max 0.319
_diffrn_reflns_theta_full        25.242
_diffrn_reflns_theta_max         28.125
_diffrn_reflns_theta_min         3.200
_diffrn_source                   'fine-focus sealed X-ray tube'
_diffrn_source_type              'Enhance (Mo) X-ray Source'
_exptl_absorpt_coefficient_mu    0.410
_exptl_absorpt_correction_T_max  1.00000
_exptl_absorpt_correction_T_min  0.19017
_exptl_absorpt_correction_type   multi-scan
_exptl_absorpt_process_details
;
CrysAlisPro 1.171.40.53 (Rigaku Oxford Diffraction, 2019)
Empirical absorption correction using spherical harmonics,
 implemented in SCALE3 ABSPACK scaling algorithm.
;
_exptl_crystal_colour            white
_exptl_crystal_density_diffrn    1.724
_exptl_crystal_description       plates
_exptl_crystal_F_000             328
_exptl_crystal_size_max          0.21
_exptl_crystal_size_mid          0.10
_exptl_crystal_size_min          0.05
_refine_diff_density_max         0.315
_refine_diff_density_min         -0.386
_refine_diff_density_rms         0.086
_refine_ls_extinction_method     none
_refine_ls_goodness_of_fit_ref   1.093
_refine_ls_hydrogen_treatment    constr
_refine_ls_matrix_type           full
_refine_ls_number_parameters     83
_refine_ls_number_reflns         469
_refine_ls_number_restraints     46
_refine_ls_restrained_S_all      1.063
_refine_ls_R_factor_all          0.1044
_refine_ls_R_factor_gt           0.0567
_refine_ls_shift/su_max          0.000
_refine_ls_shift/su_mean         0.000
_refine_ls_structure_factor_coef Fsqd
_refine_ls_weighting_details
'w=1/[\s^2^(Fo^2^)+(0.0910P)^2^] where P=(Fo^2^+2Fc^2^)/3'
_refine_ls_weighting_scheme      calc
_refine_ls_wR_factor_gt          0.1269
_refine_ls_wR_factor_ref         0.1650
_reflns_Friedel_coverage         0.000
_reflns_number_gt                309
_reflns_number_total             469
_reflns_threshold_expression     'I > 2\s(I)'
_cod_data_source_file            xk5096sup1.cif
_cod_data_source_block           new_no_ptm
_cod_original_sg_symbol_H-M      'P 21/a'
_cod_database_code               2109027
_shelx_shelxl_version_number     2018/3
_shelx_space_group_comment
;
The symmetry employed for this shelxl refinement is uniquely defined
by the following loop, which should always be used as a source of
symmetry information in preference to the above space-group names.
They are only intended as comments.
;
_oxdiff_exptl_absorpt_empirical_full_min 0.761
_oxdiff_exptl_absorpt_empirical_full_max 4.225
_oxdiff_exptl_absorpt_empirical_details
;
Empirical correction (ABSPACK) includes:
- Absorption correction using spherical harmonics
- Frame scaling
;
_shelx_res_file
;
TITL sample4 in P2(1)/c
    new_no_ptm.res
    created by SHELXL-2018/3 at 15:15:45 on 15-Aug-2022
REM  transformed to space group : P21/a:b3
REM P2(1)/c (#14 in standard setting)
CELL   0.71073  9.7872  8.4868  7.4074   90.000  100.431   90.000
ZERR   4        0.0010  0.0005  0.0071    0.000    0.032    0.000
LATT    1
SYMM   1/2-X,1/2+Y,-Z
SFAC C H N O P
UNIT 8 32 4 20 4
LIST 4 ! automatically inserted. Change 6 to 4 for CHECKCIF!!
TEMP 25
PLAN 30
FMAP 2
L.S. 20
BOND
BOND $H
CONF
ACTA
EQIV $1 1-X, 1-Y,1-Z
EQIV $2 1/2+X, 3/2-Y,Z
EQIV $3 1-X, 2-Y, 2-Z
EQIV $4 1-X, 2-Y, 1-Z
EQIV $5 1/2+X, 1/2-Y, Z
HTAB N1 O2_$1
HTAB N1 O3_$2
HTAB N1 O2
HTAB O1 O1_$3
HTAB O3 O3_$4
HTAB O5 O2_$5
DFIX 0.82 O1 H1
DFIX 1.66  H1 O1_$3
DFIX 0.82 O3 H3
DFIX 1.70  H3 O3_$4
SIMU 0.01
WGHT    0.091000
FVAR       1.69321
C1    1    0.699245    0.302230    0.783169    11.00000    0.02682    0.02643 =
         0.02095    0.00409    0.00396    0.00475
AFIX  23
H1D   2    0.611692    0.249895    0.786909    11.00000   -1.20000
H1E   2    0.732704    0.347648    0.903199    11.00000   -1.20000
AFIX   0
C2    1    0.803277    0.182946    0.739920    11.00000    0.01856    0.01683 =
         0.02686   -0.00471   -0.00003   -0.00301
N1    3    0.676999    0.427309    0.646133    11.00000    0.02470    0.02056 =
         0.02956    0.00757   -0.00295    0.00192
AFIX 137
H1A   2    0.642679    0.386285    0.536739    11.00000   -1.20000
H1B   2    0.757446    0.474678    0.641649    11.00000   -1.20000
H1C   2    0.617290    0.497336    0.676336    11.00000   -1.20000
AFIX   0
O1    4    0.483371    0.865342    0.950704    11.00000    0.08438    0.03062 =
         0.04906   -0.01814    0.03405   -0.00346
AFIX 141
H1    2    0.472453    0.961099    0.952185    10.50000   -1.20000
AFIX   0
O2    4    0.467499    0.642977    0.718758    11.00000    0.03642    0.01636 =
         0.03339   -0.00467    0.00792   -0.00470
O3    4    0.436689    0.924642    0.605665    11.00000    0.03295    0.03230 =
         0.04951    0.01650    0.01161    0.01102
AFIX 141
H3    2    0.495226    0.964511    0.553471    10.50000   -1.20000
AFIX   0
O4    4    0.863591    0.199431    0.616266    11.00000    0.03358    0.02928 =
         0.01376    0.00582    0.00542    0.00791
O5    4    0.818362    0.063394    0.853082    11.00000    0.03670    0.02600 =
         0.03885    0.01331    0.01102    0.01085
AFIX 141
H5    2    0.865937   -0.004479    0.815621    11.00000   -1.20000
AFIX   0
P1    5    0.508170    0.813660    0.757150    11.00000    0.02423    0.01491 =
         0.04920   -0.00425    0.00423   -0.00375
AFIX  13
H1P   2    0.608309    0.821116    0.758790    11.00000   -1.20000
AFIX   0
HKLF 4




REM  sample4 in P2(1)/c
REM wR2 = 0.1650, GooF = S = 1.093, Restrained GooF = 1.063 for all data
REM R1 = 0.0567 for 309 Fo > 4sig(Fo) and 0.1044 for all 469 data
REM 83 parameters refined using 46 restraints

END

WGHT      0.0910      0.0000

REM Highest difference peak  0.315,  deepest hole -0.386,  1-sigma level  0.086
Q1    1   0.4355  0.8180  1.0822  11.00000  0.05    0.31
Q2    1   0.8967  0.3354  0.8061  11.00000  0.05    0.31
Q3    1   0.3563  0.8057  0.5457  11.00000  0.05    0.29
Q4    1   0.5048  0.6741  0.5938  11.00000  0.05    0.29
Q5    1   0.3418  0.8028  0.5037  11.00000  0.05    0.28
Q6    1   0.4801  0.6774  0.8631  11.00000  0.05    0.27
Q7    1   0.5140  0.6761  0.6374  11.00000  0.05    0.27
Q8    1   0.7618  0.6705  0.6120  11.00000  0.05    0.27
Q9    1   0.9577  0.1717  0.6337  11.00000  0.05    0.25
Q10   1   0.5547  0.3276  0.9092  11.00000  0.05    0.25
Q11   1   0.9428  0.1788  0.5835  11.00000  0.05    0.25
Q12   1   0.8003  0.3276  0.9018  11.00000  0.05    0.25
Q13   1   0.7776  0.7969  0.6815  11.00000  0.05    0.23
Q14   1   0.3954  0.6725  0.6328  11.00000  0.05    0.23
Q15   1   0.8185  0.3277  0.9519  11.00000  0.05    0.23
Q16   1   0.6766  0.1747  0.8813  11.00000  0.05    0.23
Q17   1   0.8818  0.1658  0.4308  11.00000  0.05    0.22
Q18   1   0.9764  0.2938  0.6840  11.00000  0.05    0.22
Q19   1   0.7432  0.8165  0.8772  11.00000  0.05    0.21
Q20   1   0.5969  0.1557  0.7201  11.00000  0.05    0.21
Q21   1   0.9623  0.2931  0.6331  11.00000  0.05    0.21
Q22   1   0.7359  0.6866  0.9017  11.00000  0.05    0.21
Q23   1   0.3002  0.9124  0.4588  11.00000  0.05    0.20
Q24   1   0.5868  0.1938  0.6130  11.00000  0.05    0.20
Q25   1   0.6616  0.8359  0.6775  11.00000  0.05    0.20
Q26   1   0.9203  0.1735  0.5271  11.00000  0.05    0.20
Q27   1   0.6587  0.9955  0.6172  11.00000  0.05    0.20
Q28   1   0.6184  0.8915  1.0607  11.00000  0.05    0.20
Q29   1   0.5846  0.1523  0.6695  11.00000  0.05    0.20
Q30   1   0.7243  0.6953  0.8476  11.00000  0.05    0.20
;
_shelx_res_checksum              87276
_shelx_hkl_file
;
  -1   0   0 3.39078 4.77074   7-0.03689-0.03690-0.01772 0.01774-0.98929 0.97591
   1   0   0 4.16745 2.89496   8 0.03682 0.03682 0.03832-0.03827 0.98871-0.97536
  -2   0   0 8888.60 180.813   9-0.07366-0.07366-0.51027 0.51018 0.82938-0.85614
   2   0   0 7247.56 214.764   8 0.07364 0.07362 0.02219-0.02210 0.99386-0.96717
  -2   0   0 7349.25 222.493   7-0.07379-0.07381-0.00912 0.00916-0.99408 0.96732
   2   0   0 8026.11 148.581   9 0.07364 0.07365-0.21684 0.21691 0.97068-0.94396
  -3   0   0 -1.7609 7.02204   9-0.11051-0.11050-0.57648 0.57635 0.77624-0.81640
  -3   0   0 5.43432 4.37363   6-0.11076-0.11062-0.15410 0.15417-0.98562 0.94549
  -3   0   0 0.73564 2.41493   4-0.11065-0.11046-0.15520 0.15500-0.98544 0.94541
   3   0   0 3.67456 7.08410   9 0.11046 0.11048-0.13637 0.13646 0.98821-0.94815
   3   0   0 8.77411 9.72633   8 0.11047 0.11042 0.00596-0.00585 0.99742-0.95738
  -3   0   0 7.15203 11.4961   7-0.11067-0.11072-0.00048 0.00054-0.99745 0.95731
  -4   0   0 4937.06 143.344   4-0.14744-0.14747-0.03972 0.03949-0.99862 0.94516
  -4   0   0 4523.23 247.664   7-0.14755-0.14764 0.00819-0.00813-0.99938 0.94586
  -4   0   0 4753.44 140.082   6-0.14761-0.14746-0.03836 0.03843-0.99868 0.94521
   4   0   0 4446.68 237.266   8 0.14729 0.14722-0.01036 0.01050 0.99935-0.94597
  -5   0   0 10.8700 12.7161   6-0.18427-0.18441 0.08497-0.08489-0.99639 0.92953
  -5   0   0 12.7014 14.0711   4-0.18438-0.18438 0.08446-0.08470-0.99643 0.92956
  -5   0   0 -5.3972 20.3333   7-0.18442-0.18456 0.01690-0.01682-0.99985 0.93294
   5   0   0 20.6528 12.8614   8 0.18413 0.18400-0.02677 0.02693 0.99964-0.93292
  -6   0   0 8392.95 423.075   7-0.22128-0.22148 0.02565-0.02556-0.99884 0.91853
   6   0   0 8892.36 354.894   2 0.22098 0.22086 0.04248-0.04265 0.99826-0.91818
   6   0   0 8958.73 420.733   8 0.22098 0.22079-0.04327 0.04346 0.99824-0.91819
  -6   0   0 9353.98 221.456   6-0.22097-0.22126 0.21869-0.21861-0.97479 0.89457
  -7   0   0 2.86321 23.8579   3-0.25830-0.25848-0.07266 0.07282-0.99418 0.90044
   7   0   0 41.0235 37.6193   8 0.25782 0.25757-0.05988 0.06007 0.99511-0.90173
   7   0   0 8.67544 16.6957   2 0.25783 0.25766 0.08298-0.08315 0.99340-0.89998
  -7   0   0 -36.488 23.4523   7-0.25814-0.25841 0.03443-0.03435-0.99630 0.90259
   8   0   0 -5.1415 45.2227   8 0.29467 0.29435-0.07659 0.07678 0.99017-0.88347
  -8   0   0 24.3687 28.5076   3-0.29518-0.29541-0.10167 0.10188-0.98777 0.88062
  -8   0   0 54.7665 36.4978   7-0.29499-0.29534 0.04327-0.04318-0.99219 0.88507
   8   0   0 -25.724 44.6464   2 0.29468 0.29446 0.12413-0.12430 0.98520-0.87844
   9   0   0 26.8833 22.5194   2 0.33153 0.33125 0.16599-0.16614 0.97342-0.85333
  -9   0   0 -18.646 47.4240   3-0.33204-0.33233-0.13100 0.13126-0.97882 0.85825
   9   0   0 -55.354 83.7316   8 0.33153 0.33113-0.09338 0.09360 0.98337-0.86336
  -9   0   0 47.9145 83.6700   7-0.33184-0.33227 0.05214-0.05205-0.98645 0.86591
 -10   0   0 865.970 187.678   3-0.36891-0.36926-0.16067 0.16098-0.96716 0.83315
 -10   0   0 1178.23 231.250   7-0.36867-0.36921 0.06106-0.06097-0.97903 0.84506
  10   0   0 963.567 214.014   8 0.36838 0.36789-0.11031 0.11052 0.97461-0.84130
  11   0   0 63.9856 79.4510   5 0.40533 0.40507 0.14149-0.14092 0.96165-0.81494
 -11   0   0 -23.174 52.4994   7-0.40550-0.40614 0.07003-0.06994-0.96983 0.82242
  11   0   0 79.0750 79.5977   8 0.40525 0.40467-0.12733 0.12755 0.96378-0.81718
  12   0   0 127.059 113.761   5 0.44221 0.44190 0.16110-0.16046 0.94785-0.78784
 -12   0   0 252.871 180.450   7-0.44234-0.44308 0.07904-0.07895-0.95876 0.79789
  12   0   0 66.1521 106.509   8 0.44212 0.44143-0.14448 0.14469 0.95075-0.79087
   0  -1   0 2.05989 2.96363   9 0.15201-0.15203-0.04177-0.04177 0.99870-0.99869
   0  -1   0 6.21817 4.19704   1 0.16228-0.16221-0.04181-0.04181 0.99895-0.99893
   0   1   0 -0.8940 5.24989   2 0.22036-0.22039 0.04180 0.04180 0.99832-0.99833
   0   1   0 -1.6070 2.13687   4-0.17204 0.17206 0.04195 0.04170-0.99908 0.99908
   0   1   0 5.49003 5.16316   6-0.17154 0.17155 0.04111 0.04251-0.99911 0.99904
   1  -1   0 399.478 41.9729   1 0.15016-0.07638 0.05803-0.14171 0.99782-0.98443
   1  -1   0 425.331 44.8074   8 0.09744-0.02384 0.01170-0.09520 0.99635-0.98299
  -1  -1   0 434.031 34.3185   6-0.18526 0.11153 0.08842-0.17197-0.99609 0.98280
  -1  -1   0 427.078 33.8420   4-0.18586 0.11204 0.08963-0.17337-0.99597 0.98259
  -1   1   0 407.674 41.8440   7-0.09032 0.01652-0.00525 0.08897-0.99577 0.98238
  -1   1   0 417.395 41.9820   1 0.13162-0.20538 0.19040-0.10673 0.98056-0.99394
   1   1   0 412.355 33.3661   4-0.23806 0.31191 0.28453-0.20073-0.95645 0.96985
  -1  -1   0 372.120 43.0556   9 0.09908-0.17273-0.16157 0.07796 0.98359-0.99694
  -1  -1   0 377.955 36.6000   1 0.18106-0.25470-0.23391 0.15032 0.97228-0.98563
   1   1   0 366.695 36.2847   1 0.16560-0.09194-0.07174 0.15534 0.99731-0.98397
   1  -1   0 424.279 45.8820   6-0.10600 0.17977-0.16852 0.08482-0.98293 0.99638
   1   1   0 405.720 31.3130   7 0.15429-0.08048-0.06165 0.14535-0.94178 0.95515
   1   1   0 401.516 32.1653   6-0.23756 0.31129 0.28354-0.20005-0.95678 0.97009
  -1  -1   0 397.116 31.3479   7-0.07406 0.00029-0.00905-0.07461-0.99411 0.98075
   1  -1   0 410.498 41.0992   7 0.04326 0.03056-0.03626-0.04745-0.97401 0.98741
  -1   1   0 428.187 45.8028   4-0.14356 0.06986-0.05225 0.13578-0.99790 0.98454
  -1   1   0 393.262 43.5325   8-0.01505-0.05854 0.06091 0.02258 0.97876-0.99211
  -1   1   0 407.616 44.3721   6-0.14321 0.06944-0.05258 0.13627-0.99787 0.98443
   2  -1   0 98.7367 29.5058   8 0.10264 0.04460 0.00941-0.09286 0.99680-0.97010
   2  -1   0 97.1164 22.9501   4-0.06567 0.21305-0.28698 0.20361-0.95171 0.97835
  -2   1   0 94.3367 24.6421   6-0.13744-0.01012-0.07103 0.15475-0.99650 0.96968
  -2  -1   0 89.4623 22.5804   9 0.05187-0.19917-0.26305 0.17940 0.95687-0.98357
  -2   1   0 96.7959 29.2590   7-0.09931-0.04829-0.00315 0.08689-0.99657 0.96979
  -2  -1   0 99.1103 22.9311   7-0.09515-0.05240-0.00412-0.07954-0.99621 0.96947
   2   1   0 121.971 23.5589   8 0.08851 0.05880 0.01565 0.06795 0.99549-0.96880
   2  -1   0 122.496 23.7452   1 0.14643 0.00107 0.08630-0.17006 0.99565-0.96889
   2   1   0 103.722 18.7402   1 0.17177-0.02438-0.13118 0.21476 0.99135-0.96464
   3  -1   0 18423.0 310.556   1 0.14971 0.07156 0.06150-0.14532 0.99760-0.95745
  -3   1   0 17832.8 441.063   7-0.12537-0.09602 0.00297 0.08080-0.99840 0.95824
   3   1   0 17878.0 224.371   1 0.17027 0.05089-0.11619 0.19974 0.99320-0.95312
   3  -1   0 18449.2 381.109   4-0.02475 0.24576-0.39884 0.31560-0.90592 0.94583
  -3   1   0 17549.2 353.448   6-0.14453-0.07680-0.04829 0.13202-0.99814 0.95795
  -3  -1   0 17752.9 374.784   9 0.00758-0.22854-0.35399 0.27028 0.92115-0.96124
  -3  -1   0 17796.1 405.234   7-0.12779-0.09354 0.00354-0.08719-0.99853 0.95841
   3  -1   0 17941.7 443.740   8 0.12590 0.09496-0.00087-0.08254 0.99843-0.95839
   3   1   0 17951.0 374.277   8 0.12679 0.09415-0.00126 0.08488 0.99848-0.95844
   4   1   0 1509.54 129.568   8 0.16426 0.13030-0.01791 0.10155 0.99969-0.94631
  -4  -1   0 1536.56 140.469   7-0.16271-0.13241 0.01177-0.09541-0.99975 0.94625
  -4   1   0 1591.14 152.585   7-0.15651-0.13870 0.01030 0.07349-0.99963 0.94608
   4  -1   0 1507.33 147.644   8 0.15517 0.13931-0.01386-0.06951 0.99956-0.94617
  -4  -1   0 1627.01 128.028   9-0.03504-0.25958-0.43769 0.35391 0.87727-0.93076
  -4   1   0 1450.01 108.391   6-0.15931-0.13576 0.00007 0.08366-0.99975 0.94622
   4  -1   0 1725.99 133.313   4 0.01618 0.27845-0.50343 0.42031-0.84656 0.89971
  -5  -1   0 685.671 96.6894   9-0.07664-0.29165-0.51571 0.43188 0.82537-0.89227
  -5  -1   0 505.822 91.3482   7-0.19847-0.17044 0.02023-0.10386-0.99964 0.93276
  -5   1   0 506.272 96.1645   7-0.18980-0.17920 0.01817 0.06563-0.99980 0.93286
   5  -1   0 552.222 97.2162   8 0.18718 0.18092-0.02814-0.05520 0.99959-0.93287
   5  -1   0 689.913 95.1203   4 0.05709 0.31114-0.60080 0.51777-0.77371 0.84005
   5  -1   0 604.474 41.2234   9 0.22313 0.14492 0.13065-0.21410 0.99042-0.92369
   5   1   0 558.232 86.5284   8 0.20150 0.16670-0.03454 0.11819 0.99919-0.93247
  -5   1   0 575.033 72.0350   6-0.17877-0.19000 0.06589 0.01782-0.99783 0.93091
  -6   1   0 807.239 133.523   7-0.22422-0.21857 0.02635 0.05747-0.99869 0.91835
   6  -1   0 876.631 100.875   2 0.24114 0.20076 0.06457-0.14827 0.99600-0.91590
  -6  -1   0 900.481 132.160   7-0.23461-0.20809 0.02883-0.11245-0.99810 0.91782
   6  -1   0 935.864 58.2346   9 0.28366 0.15792 0.29084-0.37431 0.94999-0.86994
   6   1   0 780.786 117.084   2 0.22084 0.22096 0.04233 0.04105 0.99827-0.91822
   6  -1   0 792.408 133.116   8 0.22068 0.22106-0.04314-0.04017 0.99826-0.91821
   6   1   0 835.272 122.965   8 0.23860 0.20323-0.05121 0.13487 0.99696-0.91691
  -7   1   0 111.723 53.6742   7-0.25931-0.25728 0.03471 0.04911-0.99619 0.90245
   7   1   0 101.380 53.8512   2 0.25213 0.26331 0.07668 0.00670 0.99436-0.90097
   7  -1   0 18.5330 22.3986   8 0.25504 0.26031-0.05863-0.02466 0.99540-0.90203
   7   1   0 28.5339 30.4610   8 0.27566 0.23980-0.06795 0.15163 0.99295-0.89957
  -7  -1   0 53.9768 45.1224   7-0.27096-0.24551 0.03750-0.12114-0.99505 0.90137
  -7   1   0 53.3012 32.6868   6-0.22596-0.29002 0.23790-0.15426-0.96999 0.87630
   7  -1   0 59.4517 42.3491   2 0.28257 0.23298 0.11055-0.19424 0.98828-0.89483
  -7  -1   0 41.7171 39.3151   3-0.25385-0.26294-0.06918-0.01436-0.99479 0.90105
   8  -1   0 98.6988 52.8727   8 0.29000 0.29899-0.07445-0.00881 0.99090-0.88420
  -8  -1   0 -16.785 47.8945   3-0.28754-0.30307-0.09564 0.01215-0.98930 0.88216
   8   1   0 -11.814 45.1590   8 0.31266 0.27643-0.08478 0.16845 0.98709-0.88039
  -8   1   0 107.190 76.8799   7-0.29480-0.29556 0.04323 0.04061-0.99221 0.88506
  -8   1   0 85.4704 50.3142   3-0.31808-0.27244-0.11985 0.20374-0.98252 0.87535
  -8  -1   0 63.6630 49.4870   7-0.30744-0.28280 0.04627-0.12990-0.99043 0.88335
   8  -1   0 40.5375 41.9876   2 0.32278 0.26643 0.15599-0.23968 0.97655-0.86978
   8   1   0 69.1892 40.7253   2 0.28456 0.30452 0.11278-0.02940 0.98780-0.88107
   9  -1   0 275.020 117.865   8 0.32533 0.33727-0.09055 0.00729 0.98465-0.86464
  -9   1   0 233.149 79.4486   3-0.35625-0.30804-0.15045 0.23439-0.97148 0.85089
  -9   1   0 188.348 99.6109   7-0.33059-0.33357 0.05184 0.03199-0.98667 0.86610
  -9  -1   0 255.617 97.8972   7-0.34401-0.32000 0.05509-0.13872-0.98419 0.86368
   9   1   0 297.748 81.0900   8 0.34966 0.31306-0.10170 0.18537 0.97931-0.85931
   9   1   0 388.111 112.057   2 0.31780 0.34493 0.15031-0.06694 0.97825-0.85819
  -9  -1   0 254.319 109.031   3-0.32183-0.34259-0.12284 0.03941-0.98156 0.86099
  10  -1   0 264.374 100.060   5 0.38818 0.34856 0.13243-0.21546 0.96726-0.83385
 -10  -1   0 171.849 98.2539   7-0.38064-0.35715 0.06397-0.14761-0.97624 0.84230
  10   1   0 210.648 75.9656   2 0.35161 0.38475 0.18912-0.10574 0.96536-0.83199
  10   1   0 208.652 111.039   8 0.38665 0.34971-0.11872 0.20240 0.96951-0.83621
 -10   1   0 93.9712 55.7429   7-0.36656-0.37137 0.06055 0.02330-0.97950 0.84549
 -10  -1   0 163.569 84.1662   3-0.35656-0.38166-0.15069 0.06731-0.97138 0.83738
  10  -1   0 91.9154 58.5665   8 0.36095 0.37528-0.10688 0.02364 0.97654-0.84323
  11   1   0 261.039 141.998   5 0.39562 0.41475 0.13636-0.05227 0.96488-0.81819
  11   1   0 62.1007 50.3183   8 0.42362 0.38637-0.13587 0.21953 0.95757-0.81098
 -11   1   0 237.571 158.424   7-0.40269-0.40902 0.06934 0.01450-0.97060 0.82314
 -11  -1   0 6.18656 54.8365   7-0.41731-0.39425 0.07291-0.15655-0.96649 0.81912
  11  -1   0 86.7236 122.909   8 0.39678 0.41308-0.12342 0.04017 0.96646-0.81986
  11  -1   0 37.8376 49.5656   5 0.42528 0.38516 0.15208-0.23506 0.95448-0.80777
 -11  -1   0 62.6135 46.5660   3-0.39161-0.42040-0.17912 0.09580-0.95854 0.81109
  12   1   0 232.656 184.828   5 0.43151 0.45256 0.15539-0.07124 0.95210-0.79210
  12   1   0 225.040 141.248   8 0.46060 0.42304-0.15313 0.23679 0.94333-0.78348
 -12  -1   0 -3.4661 64.4087   3-0.42692-0.45889-0.20812 0.12485-0.94280 0.78190
  12  -1   0 53.8987 100.323   8 0.43277 0.45073-0.14013 0.05688 0.95427-0.79438
 -12   1   0 8.22798 137.604   7-0.43892-0.44657 0.07820 0.00564-0.95987 0.79895
 -12  -1   0 -25.367 98.0224   7-0.45400-0.43132 0.08191-0.16557-0.95484 0.79402
   0   2   0 4473.98 182.923   6-0.18366 0.18370 0.08286 0.08438-0.99657 0.99642
   0  -2   0 4654.38 143.789   3-0.27230 0.27239-0.08363-0.08365-0.99204 0.99205
   0  -2   0 4521.48 178.707   9 0.13388-0.13391-0.08356-0.08355 0.99539-0.99537
   0   2   0 4595.07 157.360   2 0.25839-0.25845 0.08360 0.08360 0.99330-0.99332
   0   2   0 4708.42 117.799   8-0.06739 0.06747 0.08352 0.08351 0.96552-0.96553
   0  -2   0 4495.07 118.094   8 0.31003-0.31012-0.08358-0.08357 0.98757-0.98753
   1   2   0 413.948 56.9497   1 0.15345-0.07985 0.03217 0.13504 0.99908-0.98575
  -1   2   0 472.781 38.1982   2 0.43970-0.51348 0.29360-0.12634 0.91440-0.92775
  -1  -2   0 446.887 53.7278   4-0.14919 0.07535-0.03404-0.13333-0.99889 0.98551
   1   2   0 405.898 50.9240   6-0.21449 0.28829 0.19421-0.02710-0.98028 0.99357
   1  -2   0 416.067 49.1291   9 0.15678-0.08319-0.03067-0.13639 0.99923-0.98586
   1  -2   0 430.037 51.8619   8 0.17492-0.10133-0.02266-0.14440 0.99973-0.98636
   1  -2   0 463.853 47.9628   7 0.10992-0.03605-0.05154-0.11587-0.95622 0.96965
  -1   2   0 465.746 62.2753   6-0.16702 0.09328 0.02583 0.14149-0.99957 0.98609
  -1   2   0 424.469 45.8528   7-0.18697 0.11322 0.01751 0.14989-0.99983 0.98643
  -1  -2   0 389.857 58.7924   9 0.10591-0.17956-0.14648-0.02067 0.98645-0.99978
  -2   2   0 1787.90 124.435   7-0.15691 0.00934 0.01040 0.15705-0.99964 0.97285
   2   2   0 1832.82 100.337   6-0.26012 0.40758 0.37766-0.21072-0.92115 0.94772
   2  -2   0 1772.31 130.033   8 0.15348-0.00626-0.01311-0.15389 0.99952-0.97281
  -2  -2   0 1820.70 94.5663   7-0.18900 0.04151 0.01799-0.18529-0.99981 0.97309
  -2   2   0 1646.69 126.348   6-0.16112 0.01359 0.00607 0.16130-0.99977 0.97290
   2  -2   0 1886.46 137.981   4-0.08724 0.23465-0.22500 0.05798-0.97015 0.99680
   2  -2   0 1822.78 90.1935   9 0.17063-0.02343 0.00198-0.16902 0.99994-0.97323
   2   2   0 1639.04 109.304   1 0.15608-0.00873 0.01092 0.15628 0.99961-0.97292
   2   2   0 1866.06 74.6461   8 0.21415-0.06674-0.04021 0.20734 0.99863-0.97195
   2   2   0 2058.84 106.509   7 0.26768-0.12003-0.08720 0.25463-0.89512 0.92187
  -2  -2   0 1771.47 99.1182   4-0.15628 0.00865-0.01083-0.15660-0.99962 0.97285
  -2  -2   0 1801.81 132.578   9 0.07477-0.22207-0.21442 0.04720 0.97133-0.99802
   3   2   0 355.274 48.8651   1 0.15425 0.06684 0.02572 0.14143 0.99929-0.95923
   3  -2   0 336.443 32.3180   9 0.16498 0.05583-0.01137-0.15565 0.99980-0.95975
   3  -2   0 395.360 73.1760   8 0.16110 0.05975-0.01650-0.15044 0.99966-0.95961
  -3  -2   0 358.541 54.8895   7-0.18712-0.03414 0.01754-0.18485-0.99983 0.95974
   3  -2   0 381.962 67.0222   4-0.05864 0.27973-0.30673 0.13987-0.94483 0.98479
  -3  -2   0 311.016 59.4211   9 0.04156-0.26248-0.28461 0.11734 0.94945-0.98951
  -3  -2   0 361.942 41.3703   6-0.14909-0.07213-0.03354-0.13363-0.99890 0.95897
  -3   2   0 360.593 62.4682   6-0.16335-0.05796 0.01354 0.15384-0.99975 0.95952
   3   2   0 324.403 44.2241   8 0.19906 0.02198-0.03344 0.20057 0.99928-0.95925
  -3  -2   0 357.836 39.9921   4-0.14993-0.07144-0.03164-0.13583-0.99899 0.95885
  -3   2   0 320.529 61.3188   7-0.16470-0.05669 0.01224 0.15524-0.99979 0.95961
   4   2   0 1111.23 83.8930   1 0.14662 0.14825 0.08487 0.08221 0.99578-0.94233
  -4  -2   0 1156.72 62.4358   6-0.11443-0.18062-0.14289-0.02435-0.98754 0.93422
  -4   2   0 1274.28 140.105   7-0.18532-0.10989 0.01711 0.15041-0.99985 0.94628
  -4  -2   0 1221.63 126.118   9 0.00687-0.30145-0.35543 0.18809 0.92049-0.97394
   4   2   0 1235.14 112.741   8 0.21878 0.07588-0.04229 0.20943 0.99837-0.94500
  -4  -2   0 1207.70 120.582   7-0.20762-0.08742 0.02240-0.18972-0.99939 0.94591
   4  -2   0 1228.04 128.716   4-0.02758 0.32232-0.39133 0.22462-0.90954 0.96275
  -4  -2   0 1227.94 63.4671   4-0.11558-0.17944-0.14016-0.02728-0.98800 0.93457
  -4   2   0 1148.96 118.445   6-0.17148-0.12359 0.04092 0.12645-0.99912 0.94551
   4  -2   0 1306.17 147.659   8 0.18038 0.11409-0.02510-0.14180 0.99969-0.94630
   5  -2   0 174.280 50.2386   4 0.00543 0.36292-0.47668 0.31013-0.86344 0.92988
  -5  -2   0 180.736 49.0971   9-0.02888-0.33936-0.42581 0.25840 0.88420-0.95104
   5   2   0 194.820 33.6657   1 0.12953 0.23914 0.20411-0.03716 0.97771-0.91084
  -5   2   0 229.673 46.2228   3-0.25378-0.11528-0.06913 0.23655-0.99480 0.92784
   5   2   0 207.596 54.6788   8 0.24714 0.12115-0.05506 0.22220 0.99620-0.92948
   5  -2   0 226.469 35.5506   2 0.26192 0.10643 0.08751-0.25476 0.99266-0.92587
   5  -2   0 270.804 71.9147   8 0.20549 0.16261-0.03633-0.13053 0.99904-0.93232
  -5   2   0 222.130 58.4782   6-0.18391-0.18487 0.08373 0.08360-0.99650 0.92945
  -5  -2   0 265.318 63.1346   7-0.23547-0.13335 0.02903-0.19635-0.99804 0.93118
  -5   2   0 174.622 57.9935   7-0.21178-0.15721 0.02339 0.14414-0.99924 0.93228
  -6   2   0 1171.05 120.845   3-0.28982-0.15305-0.09743 0.26489-0.98886 0.90850
  -6   2   0 1084.41 125.960   6-0.19971-0.24277 0.13982 0.02748-0.98998 0.90961
  -6   2   0 1188.23 163.445   7-0.24142-0.20138 0.03045 0.13711-0.99764 0.91727
   6  -2   0 1233.06 152.920   4 0.04005 0.40192-0.56114 0.39471-0.80571 0.88534
  -6  -2   0 1109.21 148.472   7-0.26662-0.17597 0.03647-0.20379-0.99549 0.91524
  -6  -2   0 1237.76 154.056   9-0.06542-0.37649-0.49503 0.32758 0.84027-0.92052
   6   2   0 1001.41 141.051   2 0.23194 0.20985 0.05445 0.11249 0.99715-0.91712
   6  -2   0 1209.76 171.930   8 0.23393 0.20779-0.04910-0.11772 0.99734-0.91729
   6  -2   0 1236.11 100.132   2 0.30339 0.13863 0.13396-0.30120 0.98275-0.90262
   6   2   0 1069.56 130.575   8 0.27894 0.16299-0.06944 0.23658 0.99250-0.91246
  -7  -2   0 68.4234 58.2417   9-0.10261-0.41297-0.56254 0.39502 0.78826-0.88195
  -7   2   0 252.194 89.7603   7-0.27297-0.24363 0.03798 0.12959-0.99484 0.90106
  -7   2   0 135.425 52.4264   6-0.21785-0.29829 0.20685-0.03961-0.97753 0.88378
   7   2   0 93.1200 41.3278   2 0.25792 0.25750 0.08309 0.08384 0.99338-0.90002
   7   2   0 185.477 61.5181   8 0.31246 0.20310-0.08468 0.25182 0.98713-0.89376
   7  -2   0 112.629 57.5039   8 0.26445 0.25090-0.06288-0.10391 0.99435-0.90097
  -7   2   0 153.923 52.7303   3-0.32631-0.19034-0.12642 0.29391-0.98039 0.88662
  -7  -2   0 80.4692 19.2577   7-0.29955-0.21682 0.04437-0.21170-0.99157 0.89792
   7  -2   0 192.264 48.1000   2 0.34322 0.17245 0.17943-0.34666 0.96887-0.87541
  -7  -2   0 204.578 86.0227   3-0.26111-0.25568-0.07485-0.09239-0.99378 0.90005
  -8  -2   0 1323.35 202.682   3-0.29097-0.29965-0.09834-0.06885-0.98863 0.88148
  -8  -2   0 1363.92 199.497   7-0.33353-0.25660 0.05255-0.21989-0.98615 0.87909
   8  -2   0 1633.11 239.338   8 0.29635 0.29262-0.07735-0.08942 0.98990-0.88321
   8   2   0 1210.14 177.928   2 0.28589 0.30316 0.11427 0.05265 0.98747-0.88077
  -8   2   0 1628.01 237.989   7-0.30573-0.28466 0.04586 0.12173-0.99069 0.88349
   8   2   0 1318.55 176.209   8 0.34697 0.24222-0.10047 0.26760 0.97994-0.87326
   9  -2   0 243.940 86.2303   5 0.38562 0.27746 0.13108-0.29773 0.96805-0.84796
   9  -2   0 427.814 140.663   8 0.32924 0.33335-0.09233-0.07441 0.98385-0.86385
  -9  -2   0 218.977 98.5319   7-0.36820-0.29570 0.06094-0.22829-0.97913 0.85866
  -9   2   0 259.544 92.6609   7-0.33935-0.32483 0.05396 0.11364-0.98508 0.86446
   9   2   0 299.975 113.859   2 0.31533 0.34736 0.14751 0.01941 0.97906-0.85903
  -9  -2   0 152.070 60.7991   3-0.32208-0.34235-0.12305-0.04410-0.98150 0.86093
   9   2   0 323.008 102.734   8 0.38211 0.28073-0.11663 0.28376 0.97083-0.85084
  10  -2   0 349.989 152.019   8 0.36282 0.37340-0.10774-0.05899 0.97606-0.84276
  10   2   0 429.357 126.990   2 0.34586 0.39047 0.18247-0.01555 0.96779-0.83444
 -10  -2   0 348.803 125.765   7-0.40333-0.33433 0.06949-0.23685-0.97042 0.83652
  10   2   0 367.979 108.342   8 0.41766 0.31881-0.13309 0.30022 0.95965-0.82637
  10  -2   0 350.584 94.7626   5 0.42137 0.31542 0.15000-0.31661 0.95594-0.82253
 -10  -2   0 485.168 166.938   3-0.35412-0.38412-0.14873-0.01836-0.97217 0.83817
 -10   2   0 532.676 183.664   7-0.37355-0.36441 0.06225 0.10535-0.97791 0.84385
 -11   2   0 -37.770 97.8750   7-0.40821-0.40354 0.07069 0.09691-0.96908 0.82157
 -11  -2   0 299.107 120.639   7-0.43880-0.37263 0.07817-0.24554-0.95991 0.81256
 -11  -2   0 129.059 118.633   3-0.38687-0.42519-0.17526 0.00823-0.96043 0.81299
  11   2   0 216.115 121.457   2 0.37722 0.43274 0.21896-0.05204 0.95331-0.80665
  11   2   0 390.489 161.741   5 0.39465 0.41571 0.13584 0.03175 0.96520-0.81852
  11  -2   0 476.300 200.417   8 0.39693 0.41291-0.12348-0.04324 0.96641-0.81981
 -12  -2   0 3.31581 90.6357   3-0.42015-0.46571-0.20253 0.03556-0.94604 0.78514
  12   2   0 -93.313 114.174   5 0.42897 0.45507 0.15404 0.01361 0.95308-0.79310
 -12  -2   0 80.0417 94.4045   7-0.47451-0.41067 0.08696-0.25433-0.94746 0.78667
  12  -2   0 192.201 158.063   8 0.43145 0.45202-0.13951-0.02720 0.95475-0.79487
   0  -3   0 -5.2248 13.2997   9 0.11539-0.11544-0.12534-0.12531 0.98999-0.98996
   0   3   0 8.76439 8.80698   2 0.29581-0.29591 0.12541 0.12541 0.98489-0.98492
   0   3   0 -23.467 16.4731   6-0.19550 0.19556 0.12467 0.12618-0.99209 0.99186
   0  -3   0 -3.9586 15.6987   4-0.12038 0.12028-0.12538-0.12553-0.99026 0.99028
   0  -3   0 1.86611 3.46831   8 0.40104-0.40117-0.12538-0.12538 0.96513-0.96505
   0  -3   0 1.81453 8.12368   3-0.32508 0.32522-0.12544-0.12547-0.98071 0.98072
   1   3   0 950.688 100.053   2 0.24171-0.16815 0.06520 0.18556 0.99592-0.98261
   1  -3   0 990.757 95.7076   9 0.12719-0.05363-0.09876-0.15185 0.99367-0.98029
   1   3   0 943.049 101.340   1 0.14547-0.07194 0.09346 0.15738 0.99498-0.98166
   1  -3   0 1046.09 92.4862   8 0.25849-0.18494-0.06018-0.19046 0.99503-0.98164
  -1  -3   0 976.762 108.822   9 0.09758-0.17124-0.16486-0.08584 0.98293-0.99625
   1   3   0 988.450 98.9440   6-0.21589 0.28973 0.19944 0.05129-0.97916 0.99241
  -1   3   0 1002.04 76.5220   7-0.30685 0.23315 0.04613 0.20490-0.99052 0.97709
  -1   3   0 866.527 101.647   6-0.18330 0.10958 0.08161 0.16932-0.99667 0.98306
   1  -3   0 1093.68 69.1639   3-0.52469 0.59860-0.29059 0.03980-0.88197 0.89531
  -1   3   0 979.421 73.5455   2 0.40882-0.48263 0.25636-0.00547 0.93543-0.94879
  -1  -3   0 1023.68 104.649   4-0.12910 0.05521-0.09821-0.15278-0.99380 0.98040
  -2  -3   0 2400.90 179.177   9 0.07544-0.22272-0.21299-0.03777 0.97170-0.99838
   2   3   0 2450.62 147.337   6-0.24462 0.39216 0.31216-0.06159-0.94718 0.97373
   2   3   0 2485.73 164.160   1 0.14697 0.00031 0.08227 0.16855 0.99601-0.96933
  -2  -3   0 2574.67 155.867   4-0.13122-0.01644-0.09157-0.15947-0.99453 0.96775
   2  -3   0 2493.09 188.342   4-0.08880 0.23620-0.22042-0.03023-0.97132 0.99797
  -2  -3   0 2544.06 93.8150   7-0.40664 0.25925 0.07030-0.32112-0.96951 0.94282
  -2   3   0 2483.72 152.356   7-0.23719 0.08967 0.02944 0.22168-0.99793 0.97112
   2  -3   0 2541.37 167.181   8 0.21655-0.06935-0.04129-0.20927 0.99850-0.97177
   2  -3   0 2442.78 139.469   9 0.13013 0.01705-0.09210-0.15851 0.99446-0.96774
  -2   3   0 2452.48 180.663   6-0.17805 0.03053 0.06341 0.18758-0.99799 0.97102
   2   3   0 2524.02 179.916   2 0.21878-0.07156 0.04008 0.21060 0.99845-0.97180
  -2   3   0 2532.56 181.274   1 0.12367-0.27125 0.24156 0.00940 0.96891-0.99569
   3  -3   0 6183.69 137.356   5 0.42462-0.20370 0.15173-0.40238 0.95473-0.91460
  -3  -3   0 5642.59 217.074   4-0.12426-0.09714-0.11333-0.13772-0.99193 0.95177
   3   3   0 5558.70 237.452   1 0.14531 0.07573 0.09466 0.15612 0.99486-0.95481
   3  -3   0 5593.98 290.934   4-0.06751 0.28863-0.28178 0.03129-0.95344 0.99339
  -3   3   0 5641.68 271.461   7-0.22336 0.00202 0.02615 0.22504-0.99874 0.95854
   3   3   0 6064.39 238.661   6-0.28022 0.50140 0.46958-0.21921-0.87424 0.91405
  -3  -3   0 5888.23 206.915   7-0.30451 0.08335 0.04556-0.29645-0.99086 0.95079
  -3  -3   0 5577.52 288.788   9 0.05004-0.27097-0.26689 0.01608 0.95559-0.99563
  -3   3   0 5769.40 288.131   6-0.17848-0.04281 0.06490 0.18610-0.99790 0.95754
   3   3   0 5695.51 155.727   8 0.38858-0.16734-0.11961 0.37032 0.96894-0.92896
   3  -3   0 5840.99 195.797   9 0.11864 0.10218-0.11805-0.13255 0.99108-0.95102
   3  -3   0 6010.89 292.687   8 0.20937 0.01148-0.03807-0.21243 0.99887-0.95881
  -4  -3   0 1792.16 112.808   4-0.10323-0.19186-0.17761-0.07341-0.98114 0.92769
   4   3   0 1702.99 129.814   1 0.13984 0.15499 0.13417 0.11656 0.99012-0.93668
   4   3   0 1902.93 122.355   8 0.33491-0.04008-0.09494 0.34560 0.98265-0.92931
  -4   3   0 1772.67 168.196   6-0.18350-0.11157 0.08229 0.16871-0.99662 0.94285
  -4  -3   0 1801.48 174.885   9 0.02213-0.31670-0.32456 0.07368 0.93400-0.98742
  -4   3   0 1803.07 173.670   7-0.23061-0.06455 0.02787 0.22336-0.99834 0.94475
   4  -3   0 1825.06 177.413   4-0.04335 0.33816-0.34890 0.09857-0.92845 0.98169
  -4  -3   0 1951.75 145.827   7-0.28992-0.00501 0.04205-0.29299-0.99285 0.93940
   4  -3   0 1827.37 94.0501   9 0.07881 0.21567-0.20572-0.04490 0.97359-0.92017
   4  -3   0 1935.53 187.623   8 0.21811 0.07636-0.04199-0.20845 0.99841-0.94502
  -4   3   0 2057.97 76.6107   3-0.44099 0.14585-0.21978 0.47069-0.93568 0.88211
  -5   3   0 1049.35 151.816   7-0.24803-0.12092 0.03202 0.21924-0.99715 0.93015
   5   3   0 971.596 96.2431   1 0.12922 0.23941 0.20612 0.04450 0.97728-0.91043
  -5  -3   0 1185.98 86.4607   4-0.05622-0.31242-0.31347 0.06253-0.94237 0.87553
   5   3   0 1142.61 113.591   8 0.33396 0.03449-0.09451 0.34515 0.98285-0.91617
  -5   3   0 960.355 127.868   6-0.19222-0.17659 0.11296 0.13800-0.99354 0.92638
   5  -3   0 264.017 39.1521   8 0.23545 0.13264-0.04979-0.20060 0.99722-0.93049
   5  -3   0 1097.88 143.895   4-0.01675 0.38522-0.41985 0.16968-0.89538 0.96187
  -5  -3   0 974.868 120.030   7-0.29992-0.06877 0.04446-0.29541-0.99152 0.92468
   5   3   0 1113.44 150.128   2 0.23218 0.13597 0.05471 0.19584 0.99712-0.93045
  -5   3   0 1109.23 80.1219   3-0.39153 0.02259-0.17906 0.43005-0.95857 0.89160
  -5  -3   0 1002.97 135.471   9-0.00776-0.36045-0.38456 0.13361 0.90642-0.97323
   6   3   0 206.981 64.9525   2 0.24991 0.19186 0.07424 0.17628 0.99472-0.91471
   6  -3   0 177.383 55.9442   4 0.01198 0.43011-0.49304 0.24304-0.85327 0.93297
  -6   3   0 249.025 83.0139   7-0.27117-0.17160 0.03755 0.21373-0.99503 0.91463
  -6  -3   0 205.632 67.8072   9-0.03927-0.40259-0.44580 0.19477 0.87240-0.95261
  -6  -3   0 216.115 65.8651   7-0.32030-0.12217 0.04936-0.30034-0.98843 0.90820
   6  -3   0 263.400 73.5315   8 0.25796 0.18376-0.05995-0.19040 0.99509-0.91504
  -6  -3   0 241.685 81.6974   3-0.25342-0.18950-0.06884-0.18213-0.99485 0.91453
   6   3   0 179.759 55.0089   8 0.35004 0.09205-0.10187 0.35251 0.97922-0.89921
  -6   3   0 199.247 40.3765   3-0.39597-0.04677-0.18268 0.43372-0.95675 0.87638
  -6   3   0 209.559 62.6835   6-0.20388-0.23863 0.15496 0.09596-0.98762 0.90707
  -7  -3   0 1503.92 184.108   7-0.34600-0.17023 0.05557-0.30656-0.98380 0.89018
   7  -3   0 1524.32 221.915   8 0.28382 0.23153-0.07165-0.17865 0.99182-0.89844
   7   3   0 1825.64 184.102   8 0.37379 0.14193-0.11280 0.36342 0.97315-0.87982
  -7   3   0 1551.92 211.554   7-0.29779-0.21878 0.04395 0.20737-0.99181 0.89799
   7  -3   0 1824.44 214.437   4 0.04258 0.47313-0.56711 0.31726-0.80110 0.89399
  -7  -3   0 1570.07 209.189   3-0.27681-0.23995-0.08719-0.16376-0.99127 0.89755
  -7   3   0 1661.37 185.222   6-0.21796-0.29826 0.20728 0.04360-0.97744 0.88361
   7   3   0 1504.09 198.481   2 0.27115 0.24425 0.09779 0.15271 0.99083-0.89749
  -7  -3   0 1670.78 212.097   9-0.07212-0.44341-0.50742 0.25633 0.83145-0.92508
   8   3   0 360.257 99.0796   2 0.29497 0.29406 0.12446 0.12601 0.98512-0.87845
  -8  -3   0 -0.3724 40.0018   9-0.10611-0.48309-0.56873 0.31757 0.78299-0.89006
  -8  -3   0 285.210 98.4139   3-0.30269-0.28791-0.10762-0.14328-0.98616 0.87902
  -8  -3   0 366.729 98.0451   7-0.37483-0.21517 0.06255-0.31356-0.97762 0.87058
   8  -3   0 412.844 94.4014   5 0.40893 0.18048 0.14339-0.39374 0.96041-0.85362
   8   3   0 366.556 94.8163   8 0.40165 0.18771-0.12567 0.37628 0.96493-0.85829
  -8   3   0 342.018 93.0918   6-0.23372-0.35613 0.26824-0.01745-0.96150 0.85423
   8  -3   0 343.442 117.653   8 0.31196 0.27701-0.08445-0.16582 0.98722-0.88053
  -8   3   0 319.319 86.0437   7-0.32673-0.26365 0.05091 0.20042-0.98735 0.88011
  -9  -3   0 384.542 101.222   7-0.40561-0.25814 0.07005-0.32107-0.96980 0.84935
   9  -3   0 654.357 168.135   8 0.34174 0.32085-0.09806-0.15219 0.98115-0.86114
  -9   3   0 597.442 147.378   7-0.35725-0.30691 0.05829 0.19305-0.98151 0.86085
  -9  -3   0 491.006 144.342   3-0.33038-0.33405-0.12967-0.12118-0.97928 0.85871
   9   3   0 543.275 144.437   2 0.32073 0.34193 0.15365 0.09681 0.97726-0.85726
 -10  -3   0 29.2615 28.2712   7-0.43774-0.29978 0.07791-0.32895-0.96025 0.82637
  10   3   0 43.1464 55.2903   2 0.34799 0.38830 0.18493 0.06552 0.96690-0.83359
 -10  -3   0 129.503 121.717   3-0.35947-0.37878-0.15304-0.09776-0.97041 0.83641
 -10   3   0 47.2191 106.515   7-0.38894-0.34902 0.06599 0.18537-0.97419 0.84008
  10  -3   0 82.9756 82.6871   8 0.37272 0.36350-0.11230-0.13792 0.97345-0.84015
 -11   3   0 814.667 225.239   7-0.42148-0.39027 0.07393 0.17743-0.96526 0.81770
  11  -3   0 677.660 209.195   8 0.40461 0.40523-0.12704-0.12317 0.96399-0.81739
  11   3   0 648.889 181.149   5 0.40117 0.40920 0.13929 0.11179 0.96305-0.81640
 -11  -3   0 483.268 152.906   7-0.47080-0.34047 0.08605-0.33709-0.94885 0.80153
  11   3   0 852.262 253.328   2 0.37644 0.43348 0.21805 0.03242 0.95370-0.80708
 -11  -3   0 666.087 202.351   3-0.38963-0.42244-0.17751-0.07324-0.95934 0.81189
 -12  -3   0 -39.773 99.1406   3-0.42063-0.46525-0.20292-0.04776-0.94582 0.78491
 -12  -3   0 71.5828 76.1109   7-0.50454-0.38048 0.09440-0.34546-0.93547 0.77470
   0   4   0 3172.76 183.718   2 0.33260-0.33272 0.16722 0.16722 0.97302-0.97305
   0   4   0 3093.85 138.450   5 0.45353-0.45316 0.16715 0.16709 0.94311-0.94330
   0  -4   0 3200.43 221.036   4-0.10670 0.10655-0.16716-0.16739-0.98322 0.98322
   0   4   0 3273.02 218.382   6-0.20720 0.20733 0.16712 0.16736-0.98553 0.98544
   0  -4   0 3123.40 206.568   9 0.09654-0.09662-0.16714-0.16708 0.98246-0.98243
   0  -4   0 3130.23 137.417   8 0.49051-0.49068-0.16720-0.16720 0.93002-0.92990
   0  -4   0 3142.21 167.490   3-0.37700 0.37721-0.16722-0.16729-0.96422 0.96421
  -2   4   0 2687.30 163.098   7-0.33384 0.18641 0.05263 0.28213-0.98609 0.95925
   2   4   0 2696.59 200.227   1 0.13926 0.00796 0.13824 0.19621 0.98954-0.96287
   2  -4   0 2738.66 186.270   8 0.28694-0.13975-0.07307-0.26109 0.99136-0.96461
  -2  -4   0 2670.81 212.872   9 0.06773-0.21504-0.22949-0.10481 0.96718-0.99384
  -2  -4   0 2717.74 191.275   4-0.11223-0.03548-0.15038-0.18429-0.98629 0.95955
  -2   4   0 2479.01 205.585   6-0.19251 0.04502 0.11400 0.22059-0.99342 0.96631
   2   4   0 2386.42 174.250   6-0.24323 0.39085 0.30651 0.02767-0.94916 0.97565
  -2  -4   0 2647.53 197.003   3-0.26905 0.12161-0.08108-0.25357-0.99257 0.96583
   2  -4   0 2599.45 172.359   9 0.10230 0.04486-0.15446-0.17972 0.98498-0.95825
   3  -4   0 461.851 68.9409   9 0.09057 0.13023-0.18022-0.15396 0.97967-0.93960
   3  -4   0 434.097 83.6336   8 0.26658-0.04573-0.06384-0.27024 0.99410-0.95402
   3  -4   0 414.316 89.1551   4-0.06678 0.28790-0.28386-0.05029-0.95275 0.99269
  -3   4   0 433.193 76.8244   7-0.29736 0.07610 0.04384 0.29101-0.99187 0.95164
  -3   4   0 408.551 87.7546   6-0.19208-0.02919 0.11248 0.22213-0.99360 0.95311
  -3  -4   0 484.851 53.2109   7-0.50700 0.28594 0.09501-0.42937-0.93443 0.89438
  -3  -4   0 389.718 85.3555   9 0.04771-0.26863-0.27177-0.06258 0.95394-0.99397
   3   4   0 416.567 71.5940   6-0.26917 0.49045 0.41787-0.08389-0.90220 0.94197
   3   4   0 429.165 77.7771   1 0.13770 0.08329 0.14915 0.18527 0.98790-0.94786
  -3  -4   0 487.293 92.1078   3-0.25614 0.03484-0.07097-0.26371-0.99448 0.95436
  -3  -4   0 424.670 73.7457   4-0.10553-0.11593-0.17071-0.16396-0.98253 0.94241
   4  -4   0 938.644 138.046   8 0.26510 0.02937-0.06317-0.27084 0.99428-0.94087
   4   4   0 879.274 133.167   2 0.25114 0.04335 0.07560 0.25859 0.99452-0.94120
  -4  -4   0 975.186 141.056   9 0.02487-0.31942-0.31899-0.01544 0.93629-0.98969
   4   4   0 1247.70 132.210   6-0.29764 0.59253 0.55913-0.22535-0.81503 0.86802
   4  -4   0 961.177 91.4040   9 0.06156 0.23289-0.24260-0.09159 0.96333-0.90991
   4   4   0 847.950 106.236   1 0.13324 0.16153 0.17956 0.15482 0.98266-0.92924
  -4   4   0 841.722 122.062   7-0.28967-0.00540 0.04199 0.29293-0.99288 0.93925
  -4  -4   0 903.203 99.8844   4-0.08959-0.20555-0.21809-0.11652-0.97192 0.91834
  -4   4   0 1029.45 143.858   6-0.19537-0.09968 0.12422 0.21040-0.99215 0.93830
  -4  -4   0 1077.49 149.409   3-0.25642-0.03874-0.07119-0.26350-0.99444 0.94092
  -4  -4   0 1043.64 98.8883   7-0.42065 0.12585 0.07373-0.40819-0.96551 0.91207
   4   4   0 1115.56 82.2393   8 0.56978-0.27467-0.20496 0.53925 0.88597-0.83278
   4  -4   0 922.047 138.177   4-0.04729 0.34213-0.33813 0.00415-0.93286 0.98610
   5   4   0 2398.66 234.810   2 0.25915 0.10898 0.08445 0.24969 0.99316-0.92651
   5  -4   0 2331.76 233.794   4-0.02533 0.39385-0.39731 0.06351-0.90667 0.97317
  -5  -4   0 2235.93 231.532   3-0.26525-0.10375-0.07810-0.25658-0.99316 0.92624
  -5  -4   0 2089.36 221.770   9-0.00032-0.36787-0.36979 0.03530 0.91372-0.98050
   5   4   0 2602.86 158.770   8 0.48591-0.11721-0.16504 0.49926 0.93218-0.86559
   5  -4   0 2775.62 142.096   5 0.51982-0.15152 0.20294-0.53713 0.91027-0.84342
  -5  -4   0 2430.96 180.630   7-0.39781 0.02925 0.06815-0.40268-0.97190 0.90508
   5  -4   0 2918.48 154.203   9-0.00084 0.36900-0.37082 0.03658 0.91322-0.84643
  -5   4   0 2310.99 227.753   7-0.29660-0.07229 0.04366 0.29131-0.99197 0.92494
   5   4   0 2266.16 175.885   1 0.12516 0.24342 0.23217 0.10213 0.97126-0.90443
   5  -4   0 2455.07 240.428   8 0.27449 0.09361-0.06742-0.26653 0.99310-0.92637
  -5  -4   0 2601.74 168.640   4-0.05934-0.30944-0.30478-0.02975-0.94553 0.87862
  -5   4   0 2246.57 219.534   6-0.20172-0.16709 0.14708 0.18751-0.98888 0.92159
  -6  -4   0 65.7164 50.0252   9-0.02747-0.41435-0.42312 0.08854 0.88573-0.96592
  -6  -4   0 190.268 57.8598   7-0.39937-0.04295 0.06853-0.40310-0.97149 0.89128
   6  -4   0 199.169 79.7029   8 0.29070 0.15104-0.07477-0.25912 0.99079-0.91074
  -6   4   0 192.868 73.0755   6-0.21078-0.23178 0.18035 0.15421-0.98307 0.90251
   6   4   0 210.165 52.6419   8 0.46509-0.02277-0.15524 0.48942 0.94144-0.86151
   6  -4   0 71.6754 37.0853   4-0.00113 0.44332-0.46006 0.12645-0.87331 0.95304
  -6   4   0 163.522 60.7493   7-0.31198-0.13073 0.04735 0.28766-0.98975 0.90931
  -6  -4   0 185.265 73.9909   3-0.27995-0.16292-0.08965-0.24502-0.99072 0.91040
   6   4   0 115.042 56.5114   2 0.27235 0.16940 0.09913 0.23497 0.99058-0.91059
   7   4   0 384.761 92.7105   2 0.28944 0.22595 0.11825 0.21581 0.98658-0.89326
   7  -4   0 633.595 140.569   4 0.02508 0.49074-0.52526 0.19181-0.83185 0.92478
  -7   4   0 497.969 128.075   7-0.33265-0.18387 0.05234 0.28271-0.98631 0.89245
  -7   4   0 462.342 112.032   6-0.22192-0.29435 0.22233 0.11218-0.97391 0.87999
  -7  -4   0 566.859 134.204   9-0.05633-0.45915-0.47809 0.14344 0.85184-0.94543
  -7  -4   0 424.324 114.016   3-0.29880-0.21791-0.10455-0.23010-0.98701 0.89327
   7  -4   0 519.166 130.166   8 0.31144 0.20392-0.08422-0.24963 0.98732-0.89394
  -7  -4   0 471.628 105.953   7-0.41289-0.10318 0.07183-0.40643-0.96776 0.87415
   8  -4   0 -24.137 54.0778   8 0.33537 0.25362-0.09515-0.23866 0.98255-0.87586
  -8  -4   0 54.4863 74.5896   3-0.32073-0.26982-0.12197-0.21264-0.98184 0.87469
  -8  -4   0 90.8058 88.6882   9-0.08667-0.50248-0.53398 0.19927 0.81148-0.91850
  -8  -4   0 14.5766 51.1115   7-0.43319-0.15664 0.07680-0.41142-0.96169 0.85467
  -8   4   0 4.09104 32.1460   6-0.23476-0.35518 0.27238 0.06204-0.96025 0.85289
   8   4   0 8.15617 47.5876   2 0.30948 0.27954 0.14086 0.19317 0.98091-0.87427
  -8   4   0 -2.0432 46.0844   7-0.35687-0.23346 0.05819 0.27687-0.98160 0.87431
   8  -4   0 79.1195 53.7578   4 0.05318 0.53627-0.59182 0.25853-0.78126 0.88734
  -9   4   0 93.6552 99.1046   7-0.38357-0.28056 0.06468 0.27041-0.97552 0.85480
  -9  -4   0 34.6924 47.7151   3-0.34499-0.31941-0.14138-0.19320-0.97504 0.85446
   9   4   0 -11.696 33.6932   2 0.33183 0.33083 0.16633 0.16769 0.97330-0.85334
  -9  -4   0 5.79574 36.9865   7-0.45770-0.20589 0.08282-0.41747-0.95356 0.83313
   9  -4   0 109.702 109.491   8 0.36162 0.30100-0.10719-0.22658 0.97637-0.85637
  -9  -4   0 47.5112 40.6558   9-0.11832-0.54449-0.59013 0.25536 0.76400-0.88446
  10   4   0 110.091 102.836   2 0.35599 0.38029 0.19419 0.13983 0.96345-0.83017
 -10   4   0 -69.792 49.8595   7-0.41208-0.32584 0.07163 0.26348-0.96799 0.83382
 -10  -4   0 -22.378 69.0784   3-0.37103-0.36721-0.16239-0.17214-0.96640 0.83238
  10  -4   0 12.8695 56.6927   8 0.38960 0.34664-0.12009-0.21364 0.96864-0.83534
  10   4   0 143.586 67.6629   5 0.38515 0.35160 0.13083 0.20366 0.96820-0.83488
 -11   4   0 159.163 125.119   7-0.44196-0.36976 0.07895 0.25617-0.95888 0.81125
 -11  -4   0 44.6787 74.2675   3-0.39848-0.41358-0.18474-0.14974-0.95570 0.80824
  11  -4   0 130.188 130.879   8 0.41892 0.39094-0.13368-0.20003 0.95921-0.81263
  11   4   0 251.998 133.263   5 0.41418 0.39622 0.14619 0.18837 0.95855-0.81193
  11   4   0 203.828 99.6068   2 0.38160 0.42831 0.22411 0.10990 0.95103-0.80444
   0  -5   0 34.5537 20.1685   3-0.42801 0.42828-0.20902-0.20911-0.94226 0.94223
   0   5   0 -18.563 26.2651   2 0.36875-0.36890 0.20903 0.20902 0.95753-0.95756
   0  -5   0 -41.119 36.4008   9 0.07732-0.07743-0.20893-0.20884 0.97276-0.97273
   0  -5   0 15.4190 26.1311   4-0.09280 0.09260-0.20864-0.20951-0.97424 0.97410
   0  -5   0 -4.4978 14.1959   8 0.57822-0.57841-0.20903-0.20902 0.88044-0.88027
   0   5   0 9.49660 17.0959   6-0.21834 0.21849 0.20868 0.20941-0.97712 0.97689
   0   5   0 5.90711 13.9881   5 0.53087-0.53041 0.20896 0.20887 0.90389-0.90418
   0   5   0 13.3626 30.9673   1 0.12877-0.12908 0.20904 0.20908 0.97664-0.97671
   1  -5   0 288.605 55.3465   3-0.55002 0.62405-0.31257-0.10543-0.86128 0.87456
   1   5   0 209.504 63.9938   1 0.13132-0.05791 0.19233 0.22577 0.98017-0.96688
   1  -5   0 190.578 65.7330   4-0.08548 0.15905-0.23013-0.18793-0.96880 0.98202
   1  -5   0 267.866 56.3548   8 0.43124-0.35773-0.13941-0.27849 0.95483-0.94137
   1  -5   0 182.431 53.4708   9 0.08094-0.00743-0.20113-0.21662 0.97474-0.96137
   1   5   0 225.696 52.7613   5 0.40887-0.33473 0.14336 0.27439 0.96043-0.94727
  -1   5   0 143.386 56.5629   1 0.12432-0.19834 0.23751 0.18063 0.96994-0.98337
  -1   5   0 214.056 52.2227   2 0.43919-0.51305 0.29297 0.12516 0.91478-0.92814
  -1   5   0 239.041 75.9571   6-0.21014 0.13648 0.17798 0.24019-0.98353 0.96986
  -1  -5   0 262.304 69.4002   9 0.06864-0.14235-0.22755-0.19026 0.96773-0.98104
  -1  -5   0 214.416 55.3228   3-0.35851 0.28498-0.15227-0.26595-0.97073 0.95734
  -1   5   0 249.356 42.1890   7-0.57989 0.50638 0.11323 0.30492-0.89856 0.88498
   1   5   0 249.814 70.3893   6-0.23053 0.30444 0.25565 0.16230-0.96516 0.97822
   2  -5   0 -1.8022 16.8541   9 0.07807 0.06906-0.20732-0.21042 0.97318-0.94646
  -2   5   0 -4.7156 25.2647   2 0.54490-0.69250 0.42717-0.00895 0.80829-0.83495
   2  -5   0 25.4598 20.2993   8 0.36182-0.21464-0.10728-0.31050 0.97632-0.94954
   2   5   0 -8.8216 24.2970   1 0.13191 0.01526 0.18842 0.22966 0.98095-0.95429
  -2  -5   0 44.6527 13.4675   9 0.05587-0.20319-0.25464-0.16320 0.95959-0.98626
   2   5   0 68.2674 44.8919   6-0.24691 0.39459 0.32160 0.09618-0.94378 0.97019
  -2  -5   0 9.40402 24.3481   3-0.32064 0.17328-0.12190-0.29639-0.98187 0.95511
  -2   5   0 20.7417 17.4751   7-0.44236 0.29503 0.07905 0.33930-0.95875 0.93185
   2  -5   0 -29.945 33.1318   4-0.07485 0.22220-0.26087-0.15708-0.96005 0.98663
   2   5   0 27.4844 33.7815   2 0.29935-0.15216 0.12941 0.28850 0.98391-0.95728
  -2   5   0 19.9552 38.3258   6-0.20585 0.05839 0.16216 0.25610-0.98641 0.95945
   3   5   0 2793.70 239.803   2 0.28706-0.06622 0.11558 0.30227 0.98718-0.94721
   3  -5   0 2763.81 261.023   4-0.06130 0.28240-0.29929-0.11851-0.94748 0.98739
   3   5   0 2657.47 205.313   6-0.26704 0.48841 0.40826 0.00932-0.90694 0.94665
  -3   5   0 2478.56 188.978   7-0.38359 0.16244 0.06469 0.35380-0.97552 0.93524
   3  -5   0 2673.43 219.537   8 0.33006-0.10922-0.09271-0.32496 0.98368-0.94358
  -3   5   0 2751.69 245.278   6-0.20491-0.01636 0.15871 0.25957-0.98700 0.94658
  -3  -5   0 2626.01 229.187   3-0.30249 0.08127-0.10747-0.31087-0.98620 0.94606
   3  -5   0 2704.37 195.790   9 0.06650 0.15426-0.23212-0.18564 0.96642-0.92636
  -3  -5   0 2607.60 244.899   9 0.03971-0.26065-0.28843-0.12946 0.94807-0.98809
   3   5   0 2533.84 219.836   1 0.13040 0.09053 0.19841 0.21965 0.97892-0.93889
   4   5   0 8.44827 22.8323   1 0.12651 0.16822 0.22361 0.19441 0.97332-0.91991
  -4   5   0 111.150 68.1796   6-0.20705-0.08801 0.16656 0.25171-0.98563 0.93183
   4  -5   0 46.9874 26.2582   9 0.04243 0.25200-0.28279-0.13499 0.95010-0.89669
  -4  -5   0 10.6914 25.6586   4-0.07523-0.21999-0.25977-0.15842-0.96038 0.90675
   4  -5   0 22.2319 32.1928   8 0.31907-0.02458-0.08769-0.32991 0.98589-0.93246
   4   5   0 16.7777 27.3915   6-0.28970 0.58472 0.51678-0.09940-0.84486 0.89780
   4  -5   0 49.1747 51.4672   4-0.04513 0.33997-0.34406-0.07357-0.93045 0.98366
  -4   5   0 45.7983 44.6258   7-0.36028 0.06530 0.05902 0.35955-0.98087 0.92720
  -4  -5   0 10.5110 21.8892   3-0.29728 0.00220-0.10333-0.31502-0.98733 0.93380
   4   5   0 -15.343 46.7890   2 0.28422 0.01026 0.11239 0.30539 0.98788-0.93458
  -4  -5   0 -7.5402 42.2850   9 0.02069-0.31525-0.32750-0.09046 0.93277-0.98617
  -4  -5   0 19.6741 11.7487   7-0.61759 0.32291 0.12277-0.54066-0.87597 0.82255
  -5   5   0 1588.32 197.632   6-0.21182-0.15701 0.18420 0.23404-0.98232 0.91507
  -5  -5   0 1215.38 178.908   9-0.00077-0.36741-0.37069-0.04734 0.91328-0.98006
  -5   5   0 1479.74 182.329   7-0.35583-0.01297 0.05795 0.36071-0.98181 0.91473
  -5  -5   0 1447.77 151.548   4-0.05183-0.31704-0.32562-0.09250-0.93778 0.87079
   5  -5   0 1245.92 183.642   8 0.32068 0.04745-0.08843-0.32909 0.98557-0.91883
   5   5   0 1285.40 190.659   2 0.28836 0.07976 0.11704 0.30069 0.98685-0.92022
   5  -5   0 1299.44 195.562   4-0.02657 0.39513-0.39401-0.02344-0.90826 0.97474
  -5  -5   0 1491.56 142.663   7-0.53759 0.16917 0.10262-0.52063-0.92055 0.85374
  -5  -5   0 1353.00 191.548   3-0.30093-0.06801-0.10623-0.31213-0.98655 0.91962
   6   5   0 90.5192 74.3600   2 0.29779 0.14397 0.12764 0.29005 0.98435-0.90439
  -6   5   0 32.1739 49.0017   6-0.21892-0.22368 0.21090 0.20731-0.97661 0.89600
  -6  -5   0 61.3055 40.9358   9-0.02435-0.41747-0.41705-0.00105 0.88915-0.96931
   6  -5   0 82.8683 46.8224   4-0.00583 0.44808-0.44808 0.03081-0.88015 0.95988
   6  -5   0 13.8698 43.0536   8 0.33050 0.11126-0.09291-0.32455 0.98359-0.90352
  -6   5   0 38.7709 44.0063   7-0.36258-0.08004 0.05958 0.35913-0.98038 0.89988
  -6  -5   0 49.9943 39.9767   3-0.31091-0.13188-0.11415-0.30421-0.98427 0.90394
   7  -5   0 1416.52 215.473   4 0.01693 0.49898-0.50532 0.08824-0.84533 0.93827
   7   5   0 1537.22 224.325   2 0.31127 0.20412 0.14290 0.27476 0.98036-0.88707
  -7  -5   0 1273.55 207.949   9-0.04981-0.46565-0.46580 0.04761 0.85989-0.95347
  -7   5   0 1479.41 224.629   7-0.37651-0.13992 0.06297 0.35579-0.97722 0.88330
  -7   5   0 1595.18 223.533   6-0.22792-0.28839 0.24546 0.17266-0.96798 0.87391
   7  -5   0 1446.81 233.594   8 0.34594 0.16944-0.09999-0.31741 0.98018-0.88680
  -7  -5   0 1397.70 220.412   3-0.32555-0.19110-0.12581-0.29254-0.98059 0.88684
   8  -5   0 -27.689 67.5049   4 0.04160 0.54796-0.56482 0.14791-0.80288 0.90900
  -8   5   0 -22.916 40.1549   6-0.23858-0.35142 0.28765 0.13040-0.95547 0.84801
   8   5   0 144.891 128.305   2 0.32794 0.26108 0.16188 0.25573 0.97473-0.86811
  -8  -5   0 -89.106 59.3525   3-0.34371-0.24680-0.14035-0.27797-0.97543 0.86826
  -8  -5   0 -95.644 30.8615   9-0.07692-0.51220-0.51621 0.09796 0.82500-0.93199
  -8   5   0 6.82688 56.9220   7-0.39533-0.19493 0.06755 0.35126-0.97255 0.86520
   8  -5   0 -63.334 81.9545   8 0.36542 0.22360-0.10894-0.30841 0.97539-0.86870
  -9  -5   0 78.9367 90.1411   9-0.10552-0.55725-0.56769 0.14937 0.78388-0.90431
   9   5   0 165.212 84.9592   5 0.38209 0.28107 0.12922 0.28868 0.96913-0.84916
   9  -5   0 299.349 138.485   8 0.38787 0.27477-0.11929-0.29801 0.96915-0.84916
   9   5   0 175.091 78.7628   2 0.34715 0.31550 0.18396 0.23363 0.96726-0.84732
  -9   5   0 341.202 118.168   7-0.41759-0.24646 0.07298 0.34585-0.96641 0.84561
  -9  -5   0 292.576 130.567   3-0.36459-0.29977-0.15717-0.26111-0.96867 0.84807
  10   5   0 -37.870 63.0535   5 0.40659 0.33021 0.14216 0.27580 0.96121-0.82794
  10   5   0 18.7004 68.7144   2 0.36842 0.36786 0.20865 0.20892 0.95769-0.82444
 -10  -5   0 134.212 119.312   3-0.38760-0.35060-0.17586-0.24238-0.96014 0.82611
  10  -5   0 -22.701 65.4153   8 0.41259 0.32368-0.13073-0.28653 0.96137-0.82808
 -10   5   0 181.079 83.5213   7-0.44242-0.29546 0.07906 0.33979-0.95873 0.82448
  11   5   0 625.827 220.716   2 0.39135 0.41855 0.23560 0.18197 0.94574-0.79918
   0  -6   0 1108.79 125.943   3-0.47804 0.47838-0.25079-0.25091-0.91445 0.91436
   0   6   0 1520.22 135.571   5 0.60654-0.60599 0.25076 0.25065 0.85189-0.85234
   0  -6   0 873.814 139.157   9 0.05772-0.05786-0.25073-0.25060 0.96083-0.96080
   0   6   0 1078.90 158.552   6-0.22914 0.22932 0.25026 0.25143-0.96666 0.96627
   0  -6   0 966.905 155.083   4-0.07849 0.07821-0.25041-0.25136-0.96316 0.96296
  -1  -6   0 351.764 99.9596   4-0.08069 0.00663-0.24403-0.25779-0.96498 0.95141
   1  -6   0 372.234 77.9121   3-0.58336 0.65745-0.34199-0.15960-0.83019 0.84341
   1  -6   0 265.326 76.0373   9 0.05930 0.01418-0.24740-0.25391 0.96186-0.94849
  -1   6   0 309.266 91.5457   6-0.22213 0.14851 0.22313 0.27867-0.97372 0.95999
  -1   6   0 296.391 68.5220   2 0.46493-0.53882 0.32459 0.17718 0.89428-0.90764
   1  -6   0 271.280 85.7421   4-0.07289 0.14640-0.26645-0.23524-0.95834 0.97150
  -1  -6   0 235.890 55.9208   3-0.41182 0.33836-0.19567-0.30615-0.94989 0.93646
   1   6   0 139.031 50.2340   1 0.12425-0.05089 0.23796 0.26378 0.96982-0.95654
   1   6   0 247.650 57.1600   5 0.48624-0.41199 0.18474 0.31660 0.92804-0.91500
   1   6   0 261.285 76.7029   6-0.23939 0.31335 0.29087 0.21068-0.95442 0.96740
   1   6   0 296.592 80.7615   2 0.36343-0.28993 0.20284 0.29876 0.96006-0.94676
   1  -6   0 259.431 58.7497   8 0.51779-0.44430-0.18011-0.32143 0.91637-0.90286
  -1  -6   0 253.369 77.3675   9 0.05155-0.12528-0.26374-0.23762 0.95664-0.96996
  -2  -6   0 1768.13 199.838   4-0.07898-0.06886-0.24898-0.25285-0.96357 0.93662
  -2   6   0 1667.07 204.370   6-0.21815 0.07073 0.20800 0.29388-0.97727 0.95020
   2   6   0 1500.39 179.441   2 0.33780-0.19063 0.17319 0.32834 0.97103-0.94440
   2  -6   0 1818.03 177.634   8 0.43944-0.29226-0.14323-0.35819 0.95177-0.92496
  -2  -6   0 1497.24 171.148   3-0.37193 0.22464-0.16312-0.33879-0.96608 0.93929
   2   6   0 1521.06 192.425   1 0.12459 0.02253 0.23580 0.26593 0.97036-0.94372
  -2  -6   0 1708.29 209.320   9 0.04155-0.18889-0.28463-0.21677 0.94944-0.97611
   2  -6   0 1698.69 218.974   4-0.06432 0.21161-0.29080-0.21078-0.95042 0.97694
   2   6   0 1579.72 180.990   6-0.25280 0.40053 0.34622 0.15515-0.93436 0.96067
  -2   6   0 1906.68 156.444   7-0.55937 0.41216 0.10807 0.39384-0.90965 0.88263
  -2   6   0 1763.46 213.700   2 0.55016-0.69776 0.43419 0.06766 0.80115-0.82781
   2  -6   0 1505.93 172.367   9 0.05517 0.09193-0.25611-0.24521 0.95912-0.93241
   4  -6   0 1839.35 237.912   4-0.03933 0.33416-0.35980-0.14148-0.92383 0.97700
  -4   6   0 1766.51 226.360   6-0.21835-0.07669 0.20874 0.29317-0.97710 0.92324
  -4  -6   0 1850.77 236.784   9 0.01226-0.30682-0.34460-0.15690 0.92539-0.97879
   4  -6   0 2157.91 196.281   9 0.02239 0.27199-0.32405-0.17732 0.93421-0.88082
   4  -6   0 1859.97 216.821   8 0.37832-0.08382-0.11488-0.38633 0.97190-0.91846
  -4  -6   0 1887.17 197.417   4-0.06043-0.23488-0.30174-0.20003-0.94662 0.89291
   4   6   0 1911.92 226.367   2 0.31794-0.02348 0.15048 0.35092 0.97820-0.92491
  -4  -6   0 1823.64 221.706   3-0.34016 0.04517-0.13750-0.36451-0.97649 0.92294
  -4   6   0 1946.26 190.266   7-0.44056 0.14571 0.07861 0.42361-0.95934 0.90559
   4   6   0 2381.34 230.047   6-0.28757 0.58269 0.50588-0.00491-0.85200 0.90485
  -5   6   0 177.412 58.2173   7-0.42428 0.05560 0.07462 0.42770-0.96443 0.89727
   5   6   0 154.980 58.5301   2 0.31899 0.04912 0.15167 0.34966 0.97785-0.91123
  -5   6   0 219.353 89.4786   6-0.22200-0.14684 0.22262 0.27926-0.97384 0.90654
  -5  -6   0 79.9226 52.4424   9-0.00623-0.36195-0.38154-0.12003 0.90794-0.97472
   5  -6   0 80.8476 62.9515   8 0.37254-0.00440-0.11222-0.38891 0.97350-0.90674
   5   6   0 -8.4443 36.3096   6-0.30653 0.67527 0.61078-0.10998-0.77363 0.83967
   5  -6   0 96.2880 58.4836   4-0.02337 0.39195-0.40247-0.09865-0.90415 0.97060
  -5  -6   0 270.012 101.950   3-0.33937-0.02948-0.13687-0.36516-0.97672 0.90977
   6   6   0 736.024 163.450   2 0.32523 0.11651 0.15880 0.34249 0.97569-0.89575
  -6   6   0 632.876 143.604   6-0.22765-0.21494 0.24444 0.25738-0.96825 0.88749
  -6   6   0 604.939 130.205   7-0.42184-0.02067 0.07402 0.42837-0.96516 0.88459
   6  -6   0 684.893 147.530   8 0.37609 0.06569-0.11386-0.38720 0.97252-0.89245
   6  -6   0 668.552 157.824   4-0.00531 0.44760-0.44941-0.05152-0.87940 0.95911
  -6  -6   0 622.193 153.659   9-0.02688-0.41492-0.42197-0.07967 0.88639-0.96655
  -6  -6   0 580.974 140.302   3-0.34516-0.09756-0.14152-0.36052-0.97499 0.89463
   7   6   0 -61.465 83.1968   2 0.33561 0.17977 0.17068 0.33057 0.97187-0.87861
  -7  -6   0 62.1537 61.3566   3-0.35593-0.16066-0.15018-0.35185-0.97159 0.87781
  -7   6   0 4.04021 41.4478   7-0.42847-0.08786 0.07565 0.42681-0.96315 0.86916
  -7   6   0 -13.077 40.4876   6-0.23509-0.28124 0.27370 0.22805-0.95985 0.86569
   7  -6   0 34.3546 65.7294   8 0.38621 0.12920-0.11852-0.38246 0.96964-0.87626
  -7  -6   0 61.1741 51.7481   9-0.04947-0.46598-0.46516-0.03654 0.86030-0.95386
   7  -6   0 76.8431 52.2923   4 0.01472 0.50126-0.49983-0.00091-0.84891 0.94183
  -8  -6   0 685.437 166.719   9-0.07379-0.51528-0.51050 0.00872 0.82921-0.93619
   8  -6   0 865.983 189.238   4 0.03661 0.55303-0.55299 0.05244-0.81187 0.91798
   8   6   0 992.303 205.985   2 0.34929 0.23972 0.18643 0.31477 0.96636-0.85977
  -8  -6   0 1028.63 204.387   3-0.37054-0.21990-0.16199-0.34002-0.96658 0.85938
   8  -6   0 1055.09 223.769   8 0.40112 0.18792-0.12542-0.37550 0.96510-0.85841
  -8   6   0 791.977 169.697   7-0.44135-0.14880 0.07880 0.42371-0.95908 0.85165
  -8   6   0 1211.47 234.439   6-0.24404-0.34601 0.30981 0.19187-0.94801 0.84043
   8   6   0 1008.05 205.679   5 0.39336 0.19626 0.13516 0.36615 0.96562-0.85902
   9  -6   0 3.65947 45.6877   8 0.41963 0.24304-0.13402-0.36686 0.95896-0.83898
  -9   6   0 -135.00 113.939   7-0.45871-0.20526 0.08307 0.41949-0.95321 0.83233
  -9  -6   0 34.7684 76.8300   9-0.09972-0.56301-0.55741 0.05554 0.79258-0.91299
   9   6   0 -1.5306 83.6676   2 0.36566 0.29698 0.20544 0.29573 0.95901-0.83910
   9   6   0 143.396 96.5400   5 0.41189 0.25136 0.14497 0.35640 0.95937-0.83946
  -9  -6   0 -39.223 53.1385   3-0.38818-0.27612-0.17633-0.32566-0.95991 0.83928
  10  -6   0 339.903 179.171   8 0.44092 0.29538-0.14392-0.35690 0.95121-0.81793
 -10   6   0 380.526 129.252   7-0.47939-0.25839 0.08817 0.41442-0.94561 0.81127
  10   6   0 292.918 141.777   2 0.38426 0.35201 0.22722 0.27393 0.94962-0.81641
  10   6   0 360.006 138.874   5 0.43309 0.30379 0.15624 0.34518 0.95149-0.81827
   0   7   0 -6.6995 25.5468   6-0.23968 0.23989 0.29204 0.29324-0.95404 0.95356
   0  -7   0 21.4021 34.8711   4-0.06384 0.06348-0.29215-0.29322-0.94996 0.94968
   0   7   0 -15.767 26.3358   2 0.43894-0.43915 0.29267 0.29264 0.91496-0.91500
   0  -7   0 26.8685 32.3077   3-0.52700 0.52741-0.29258-0.29273-0.88018 0.88003
   0  -7   0 56.3683 58.8591   9 0.03773-0.03789-0.29254-0.29236 0.94656-0.94655
   1  -7   0 79.6846 43.9167   9 0.03781 0.03565-0.29239-0.29250 0.94662-0.93326
  -1  -7   0 44.7981 28.3917   9 0.03343-0.10720-0.30140-0.28351 0.94323-0.95656
  -1   7   0 35.9956 46.7348   6-0.23348 0.15989 0.26728 0.31811-0.96178 0.94793
  -1  -7   0 111.426 52.4873   3-0.46375 0.39037-0.23878-0.34665-0.92308 0.90960
   1   7   0 112.013 41.0483   5 0.56259-0.48823 0.22636 0.35856 0.88392-0.87103
   1  -7   0 122.081 79.6496   4-0.05954 0.13298-0.30422-0.28109-0.94573 0.95883
   1   7   0 115.024 60.8755   6-0.24845 0.32245 0.32797 0.25719-0.94142 0.95430
   1   7   0 88.7462 48.5059   2 0.40081-0.32733 0.24681 0.33842 0.94029-0.92700
  -1  -7   0 49.7041 46.5059   4-0.06508-0.00906-0.28867-0.29675-0.95114 0.93749
   2   7   0 400.657 115.244   6-0.25974 0.40753 0.37601 0.20897-0.92188 0.94808
  -2  -7   0 495.159 124.933   4-0.06282-0.08510-0.29502-0.29040-0.94897 0.92194
   2  -7   0 533.296 120.629   9 0.03276 0.11430-0.30278-0.28211 0.94270-0.91600
   2  -7   0 644.585 149.902   4-0.05249 0.19975-0.32379-0.26142-0.93849 0.96493
   2   7   0 469.588 117.101   2 0.37526-0.22811 0.21666 0.36849 0.95430-0.92769
   2  -7   0 555.956 112.913   8 0.51858-0.37141-0.18049-0.40459 0.91595-0.88910
  -2   7   0 466.063 123.377   6-0.22977 0.08236 0.25270 0.33275-0.96599 0.93873
  -2  -7   0 562.073 116.038   3-0.42268 0.27550-0.20462-0.38089-0.94484 0.91800
   2   7   0 527.115 104.059   5 0.49122-0.34320 0.18743 0.39742 0.92556-0.89922
  -2  -7   0 458.479 124.571   9 0.02556-0.17294-0.31757-0.26738 0.93687-0.96355
   3  -7   0 2891.94 265.112   9 0.02136 0.19933-0.32613-0.25878 0.93334-0.89331
  -3  -7   0 2513.98 287.691   9 0.01460-0.23558-0.33986-0.24512 0.92748-0.96752
   3   7   0 2767.26 245.613   5 0.44901-0.22735 0.16474 0.42006 0.94503-0.90528
   3   7   0 2585.46 271.702   2 0.35967-0.13885 0.19846 0.38662 0.96180-0.92185
  -3   7   0 2898.13 306.846   6-0.22844 0.00722 0.24747 0.33802-0.96743 0.92677
  -3  -7   0 2633.29 264.694   3-0.39765 0.17661-0.18406-0.40154-0.95605 0.91584
  -3  -7   0 2625.71 267.195   4-0.05648-0.16519-0.31275-0.27264-0.94264 0.90222
   3  -7   0 2485.82 293.271   4-0.04298 0.26401-0.34992-0.23517-0.92803 0.96781
   3  -7   0 3012.38 265.731   8 0.46898-0.24814-0.15707-0.42789 0.93977-0.89962
   3   7   0 2764.76 266.411   6-0.27334 0.49486 0.43705 0.14774-0.89232 0.93182
   4  -7   0 34.7743 32.2426   8 0.44158-0.14707-0.14424-0.44061 0.95095-0.89749
  -4   7   0 40.8928 67.7457   6-0.22927-0.06575 0.25076 0.33475-0.96653 0.91247
  -4  -7   0 4.18979 30.3182   9 0.00093-0.29552-0.36731-0.21773 0.91491-0.96832
   4   7   0 104.795 61.5465   6-0.28870 0.58391 0.51167 0.07291-0.84823 0.90098
   4   7   0 70.0170 59.8167   2 0.35194-0.05748 0.18950 0.39551 0.96522-0.91195
   4   7   0 -11.564 20.6172   5 0.42584-0.13056 0.15238 0.43238 0.95427-0.90114
  -4  -7   0 11.1800 33.0980   3-0.38433 0.08943-0.17319-0.41246-0.96143 0.90783
  -4  -7   0 -4.3136 24.8042   4-0.04521-0.25019-0.34384-0.24150-0.93054 0.87674
   4  -7   0 100.974 67.6428   4-0.03117 0.32597-0.38177-0.20317-0.91402 0.96712
  -5  -7   0 212.181 96.9177   3-0.37976 0.01100-0.16946-0.41622-0.96318 0.89619
   5   7   0 122.005 60.5442   2 0.35048 0.01763 0.18781 0.39714 0.96585-0.89925
  -5  -7   0 136.465 42.4851   9-0.01514-0.35306-0.39907-0.18603 0.89892-0.96570
  -5   7   0 111.607 72.3432   6-0.23211-0.13670 0.26188 0.32361-0.96337 0.89592
   5  -7   0 88.8497 64.8948   8 0.42890-0.06074-0.13832-0.44642 0.95568-0.88891
   5  -7   0 131.713 77.4739   4-0.01723 0.38579-0.41858-0.16619-0.89603 0.96242
   5   7   0 35.3776 41.7575   5 0.41565-0.04677 0.14697 0.43779 0.95803-0.89153
  -5   7   0 157.965 72.4558   7-0.50067 0.13213 0.09343 0.49251-0.93710 0.86985
  -6   7   0 200.837 78.1870   7-0.48875 0.04637 0.09049 0.49556-0.94196 0.86129
  -6   7   0 234.218 99.0373   6-0.23673-0.20587 0.28019 0.30526-0.95784 0.87698
   6  -7   0 96.2122 60.1076   8 0.42643 0.01538-0.13718-0.44748 0.95657-0.87649
  -6  -7   0 76.8887 57.2630   9-0.03336-0.40846-0.43445-0.15072 0.87918-0.95935
   6   7   0 186.470 98.7239   5 0.41468 0.02783 0.14645 0.43831 0.95838-0.87853
   6   7   0 168.030 98.7568   2 0.35406 0.08768 0.19197 0.39293 0.96430-0.88438
   6  -7   0 12.0143 39.0875   4-0.00130 0.44360-0.45964-0.12495-0.87355 0.95320
  -6  -7   0 133.546 66.6061   3-0.38183-0.06080-0.17116-0.41454-0.96239 0.88199
  -7   7   0 -37.845 35.4252   7-0.48769-0.02851 0.09022 0.49591-0.94238 0.84828
  -7   7   0 -84.330 93.1164   6-0.24293-0.27343 0.30522 0.28017-0.94960 0.85533
   7   7   0 56.5491 54.6713   2 0.36175 0.15363 0.20088 0.38396 0.96084-0.86760
   7  -7   0 16.9747 70.6855   8 0.43132 0.08413-0.13945-0.44513 0.95480-0.86142
  -7  -7   0 -17.343 73.4700   9-0.05352-0.46192-0.47279-0.11244 0.85534-0.94891
   7   7   0 -48.221 53.9395   5 0.42045 0.09567 0.14951 0.43526 0.95628-0.86309
  -7  -7   0 55.2172 85.6239   3-0.38909-0.12741-0.17706-0.40865-0.95955 0.86574
   7  -7   0 16.7704 54.7369   4 0.01653 0.49950-0.50429-0.08011-0.84600 0.93887
  -8  -7   0 41.0838 96.1752   9-0.07546-0.51360-0.51355-0.07176 0.82697-0.93395
   8   7   0 220.660 108.880   5 0.43131 0.15842 0.15529 0.42951 0.95218-0.84567
   8  -7   0 28.5088 33.1210   4 0.03615 0.55356-0.55190-0.03231-0.81269 0.91875
   8   7   0 145.648 100.229   2 0.37279 0.21623 0.21377 0.37103 0.95554-0.84899
  -8   7   0 252.870 108.989   7-0.49424-0.09578 0.09184 0.49436-0.93975 0.83221
   8  -7   0 22.5208 38.6603   8 0.44166 0.14742-0.14428-0.44024 0.95092-0.84423
  -8   7   0 67.5858 43.9462   6-0.25050-0.33958 0.33655 0.24875-0.93816 0.83046
  -8  -7   0 39.5843 72.6358   3-0.40041-0.18996-0.18631-0.39939-0.95489 0.84765
   9   7   0 48.9160 92.3138   5 0.44608 0.21727 0.16317 0.42167 0.94625-0.82642
   9   7   0 -74.860 128.054   2 0.38661 0.27604 0.22999 0.35477 0.94836-0.82848
  -9  -7   0 67.6298 111.392   9-0.09904-0.56366-0.55620-0.02919 0.79358-0.91399
  -9  -7   0 1.54765 61.1300   3-0.41500-0.24921-0.19830-0.38739-0.94844 0.82776
  -9   7   0 -52.630 89.1429   6-0.25926-0.40454 0.37391 0.21129-0.92279 0.80167
  -9   7   0 68.5061 82.7228   7-0.50631-0.15755 0.09483 0.49142-0.93472 0.81373
   9  -7   0 147.210 74.6445   8 0.45618 0.20654-0.15106-0.43338 0.94516-0.82518
 -10   7   0 12.1767 71.1179   7-0.52250-0.21516 0.09886 0.48743-0.92759 0.79314
   0  -8   0 4423.98 383.382   9 0.01733-0.01753-0.33434-0.33412 0.92987-0.92988
   0   8   0 5794.75 398.546   2 0.47289-0.47312 0.33450 0.33446 0.88733-0.88736
   0   8   0 4587.22 389.181   6-0.24984 0.25010 0.33379 0.33511-0.93922 0.93862
   0  -8   0 4247.75 394.027   4-0.04883 0.04840-0.33390-0.33509-0.93455 0.93418
  -1  -8   0 32.2521 53.2448   9 0.01452-0.08833-0.34002-0.32845 0.92741-0.94076
  -1  -8   0 24.2198 50.0276   3-0.51436 0.44105-0.28170-0.38732-0.88977 0.87620
  -1  -8   0 -15.723 31.8901   4-0.04931-0.02491-0.33259-0.33643-0.93506 0.92132
   1   8   0 4.83114 38.6200   6-0.25748 0.33154 0.36620 0.30254-0.92612 0.93887
   1  -8   0 -51.752 51.6296   9 0.01622 0.05719-0.33659-0.33187 0.92890-0.91557
  -1   8   0 26.3540 54.0187   6-0.24432 0.17076 0.31093 0.35807-0.94761 0.93364
   1   8   0 67.9437 48.8201   2 0.43705-0.36359 0.29037 0.37850 0.91636-0.90307
   1  -8   0 39.9180 77.2319   4-0.04555 0.11892-0.34291-0.32602-0.93092 0.94392
  -2   8   0 36.7182 41.0193   6-0.24088 0.09352 0.29694 0.37212-0.95242 0.92506
   2  -8   0 -57.012 67.5125   9 0.01045 0.13657-0.34822-0.32024 0.92377-0.89710
  -2  -8   0 -46.338 50.1086   3-0.47275 0.32564-0.24635-0.42278-0.91770 0.89079
   2   8   0 -41.608 42.2696   2 0.41181-0.26467 0.25993 0.40886 0.93355-0.90695
   2   8   0 -20.602 60.9589   6-0.26717 0.41502 0.40889 0.25970-0.90664 0.93271
  -2  -8   0 -24.186 56.3915   9 0.00834-0.15576-0.35246-0.31603 0.92185-0.94856
   2  -8   0 -8.2411 31.3101   4-0.03972 0.18690-0.35875-0.31010-0.92428 0.95064
  -2  -8   0 17.2923 26.7303   4-0.04661-0.10139-0.33999-0.32902-0.93211 0.90498
   3   8   0 333.055 108.699   6-0.27873 0.50032 0.46243 0.20596-0.87836 0.91772
  -3  -8   0 290.836 86.1616   3-0.44552 0.22458-0.22355-0.44565-0.93328 0.89300
   3  -8   0 269.166 93.9488   9-0.00099 0.22164-0.37112-0.29737 0.91307-0.87307
   3   8   0 172.500 91.9818   2 0.39530-0.17450 0.24027 0.42843 0.94351-0.90357
  -3   8   0 195.277 72.9256   6-0.23946 0.01827 0.29117 0.37794-0.95433 0.91357
  -3  -8   0 313.722 121.947   9-0.00077-0.22024-0.37068-0.29785 0.91329-0.95335
   3  -8   0 280.355 109.832   4-0.03158 0.25256-0.38066-0.28808-0.91453 0.95422
  -3  -8   0 412.105 118.080   4-0.04026-0.18150-0.35730-0.31167-0.92490 0.88438
   4   8   0 277.622 98.8008   6-0.29172 0.58700 0.52727 0.14092-0.83779 0.89041
   4  -8   0 256.779 101.352   4-0.02129 0.31606-0.40793-0.26067-0.90144 0.95445
  -4   8   0 357.661 114.830   6-0.23992-0.05509 0.29301 0.37611-0.95372 0.89957
  -4  -8   0 342.134 115.167   3-0.42926 0.13447-0.21005-0.45922-0.94164 0.88799
   4   8   0 332.412 111.363   2 0.38595-0.09149 0.22921 0.43942 0.94872-0.89546
   4   8   0 287.445 94.4006   5 0.48661-0.19120 0.18494 0.48338 0.92786-0.87486
  -4  -8   0 215.698 114.579   9-0.01249-0.28213-0.39387-0.27471 0.90165-0.95508
  -4  -8   0 277.925 95.0564   4-0.02956-0.26592-0.38603-0.28287-0.91204 0.85812
  -5  -8   0 -39.689 71.1591   3-0.42147 0.05280-0.20362-0.46571-0.94542 0.87837
  -5   8   0 -208.43 100.488   6-0.24211-0.12670 0.30189 0.36722-0.95075 0.88317
  -5  -8   0 158.570 103.611   9-0.02654-0.34168-0.42130-0.24734 0.88677-0.95357
   5  -8   0 -72.172 106.124   4-0.00900 0.37753-0.43994-0.22850-0.88467 0.95097
   5  -8   0 16.0005 38.9149   8 0.48883-0.12064-0.16641-0.50197 0.93082-0.86403
   5   8   0 -34.439 58.8392   5 0.47098-0.10194 0.17651 0.49177 0.93534-0.86896
   5   8   0 59.5420 33.3963   2 0.38246-0.01436 0.22511 0.44346 0.95058-0.88400
  -6   8   0 1159.81 238.923   6-0.24589-0.19671 0.31737 0.35171-0.94532 0.86433
  -6  -8   0 1468.34 253.661   3-0.42030-0.02224-0.20265-0.46671-0.94597 0.86552
   6  -8   0 1279.38 242.744   8 0.48066-0.03882-0.16255-0.50573 0.93459-0.85450
   6   8   0 1346.39 229.923   5 0.46497-0.02233 0.17329 0.49499 0.93808-0.85834
   6  -8   0 1187.37 240.243   4 0.00520 0.43709-0.47610-0.19217-0.86379 0.94336
   6   8   0 1420.22 255.465   2 0.38381 0.05794 0.22670 0.44181 0.94986-0.86997
  -6  -8   0 1407.77 267.513   9-0.04271-0.39911-0.45235-0.21635 0.86838-0.94857
  -7  -8   0 53.8398 73.7839   9-0.06082-0.45462-0.48647-0.18230 0.84619-0.93977
   7   8   0 160.810 89.0484   2 0.38916 0.12621 0.23302 0.43544 0.94696-0.85374
  -7  -8   0 -4.0476 70.9770   3-0.42437-0.09203-0.20601-0.46336-0.94403 0.85016
  -7   8   0 -122.28 99.6396   6-0.25109-0.26527 0.33902 0.32999-0.93720 0.84280
   7   8   0 23.6048 49.0564   5 0.46619 0.05006 0.17395 0.49434 0.93753-0.84445
   7  -8   0 75.9022 89.3768   4 0.02122 0.49481-0.51584-0.15224-0.83831 0.93111
   7  -8   0 62.3718 96.4746   8 0.48049 0.03500-0.16247-0.50572 0.93467-0.84128
  -8   8   0 93.2786 105.262   6-0.25755-0.33256 0.36652 0.30242-0.92598 0.81815
   8   8   0 16.2457 41.2746   5 0.47296 0.11691 0.17758 0.49072 0.93442-0.82801
   8  -8   0 51.2706 97.2381   8 0.48634 0.10279-0.16524-0.50288 0.93198-0.82529
  -8  -8   0 11.0932 55.0276   9-0.08070-0.50835-0.52314-0.14569 0.81981-0.92680
   8  -8   0 -30.960 54.1173   4 0.03899 0.55076-0.55862-0.10927-0.80763 0.91363
  -8  -8   0 -104.85 72.9717   3-0.43268-0.15759-0.21288-0.45650-0.93994 0.83264
   0   9   0 64.8621 67.1904   6-0.25963 0.25993 0.37552 0.37696-0.92209 0.92134
   0  -9   0 75.1618 80.6156   9-0.00352 0.00327-0.37615-0.37588 0.91062-0.91066
   0  -9   0 63.0588 72.4502   4-0.03346 0.03294-0.37565-0.37695-0.91682 0.91634
  -1   9   0 172.748 85.7651   6-0.25467 0.18117 0.35420 0.39840-0.93114 0.91703
   1   9   0 105.540 64.2513   6-0.26636 0.34047 0.40520 0.34714-0.90842 0.92102
   1  -9   0 154.151 101.283   9-0.00560 0.07897-0.38028-0.37174 0.90857-0.89528
   1   9   0 33.1850 37.7312   2 0.47221-0.39878 0.33366 0.41885 0.88793-0.87464
  -1  -9   0 92.6307 42.3800   9-0.00509-0.06875-0.37928-0.37275 0.90907-0.92246
   1  -9   0 116.411 100.947   4-0.03100 0.10430-0.38222-0.37033-0.91381 0.92669
  -1  -9   0 64.1121 56.5637   4-0.03330-0.04100-0.37605-0.37656-0.91664 0.90277
   2  -9   0 196.195 99.2736   9-0.01199 0.15896-0.39288-0.35916 0.90216-0.87553
   2   9   0 54.5704 37.7689   2 0.44744-0.30033 0.30305 0.44937 0.90853-0.88192
  -2  -9   0 133.095 87.6860   9-0.00987-0.13758-0.38870-0.36335 0.90432-0.93106
   2   9   0 57.7153 48.0571   6-0.27479 0.42268 0.44376 0.30842-0.88873 0.91464
   2  -9   0 17.3483 67.2522   4-0.02617 0.17328-0.39506-0.35742-0.90775 0.93399
  -2   9   0 86.4457 69.2827   6-0.25148 0.10415 0.34070 0.41197-0.93654 0.90904
  -2  -9   0 49.5686 69.5757   4-0.03023-0.11786-0.38428-0.36833-0.91286 0.88560
  -3   9   0 595.036 162.992   6-0.25002 0.02886 0.33455 0.41817-0.93893 0.89804
   3   9   0 592.578 164.405   6-0.28473 0.50636 0.49162 0.26037-0.86100 0.90021
  -3  -9   0 586.325 177.066   9-0.01743-0.20361-0.40357-0.34851 0.89653-0.93662
  -3  -9   0 589.684 145.282   3-0.49318 0.27233-0.26362-0.48919-0.90465 0.86429
  -3  -9   0 689.102 175.141   4-0.02382-0.19804-0.40129-0.35126-0.90473 0.86408
   3   9   0 628.610 164.738   2 0.43036-0.20957 0.28226 0.47008 0.92116-0.88124
   3  -9   0 529.055 161.871   4-0.01917 0.24007-0.41353-0.33884-0.89862 0.93820
  -4   9   0 120.596 90.1127   6-0.25019-0.04479 0.33525 0.41748-0.93866 0.88436
   4  -9   0 63.7853 51.0785   4-0.01012 0.30483-0.43704-0.31521-0.88625 0.93915
  -4  -9   0 86.8196 61.6246   9-0.02751-0.26713-0.42319-0.32893 0.88569-0.93915
  -4  -9   0 123.488 91.1966   3-0.47457 0.17987-0.24787-0.50502-0.91659 0.86286
   4   9   0 240.896 119.323   2 0.41977-0.12532 0.26948 0.48278 0.92840-0.87516
   5  -9   0 -40.219 51.1136   4 0.00083 0.36767-0.46505-0.28705-0.87040 0.93659
  -5   9   0 76.1184 64.5949   6-0.25189-0.11690 0.34239 0.41034-0.93588 0.86817
  -5  -9   0 69.0503 74.8989   9-0.03987-0.32837-0.44693-0.30524 0.87171-0.93854
  -5  -9   0 7.97485 57.0091   3-0.46406 0.09550-0.23903-0.51392-0.92290 0.85577
   5   9   0 -52.714 82.9285   2 0.41464-0.04654 0.26332 0.48887 0.93175-0.86519
  -6   9   0 26.5927 53.7658   6-0.25500-0.18758 0.35558 0.39712-0.93057 0.84944
  -6  -9   0 177.844 153.540   9-0.05429-0.38755-0.47427-0.27797 0.85438-0.93459
  -6  -9   0 37.8998 47.4941   3-0.46003 0.01761-0.23567-0.51733-0.92523 0.84470
   6   9   0 62.4592 101.903   2 0.41410 0.02763 0.26268 0.48945 0.93209-0.85222
   6  -9   0 71.5851 61.8448   4 0.01360 0.42868-0.49706-0.25488-0.85069 0.93015
   7   9   0 140.761 98.4199   5 0.51486 0.00153 0.20024 0.55157 0.91305-0.82011
  -7  -9   0 -33.657 81.1050   3-0.46128-0.05502-0.23671-0.51632-0.92451 0.83057
   0 -10   0 384.157 150.111   4-0.01769 0.01709-0.41738-0.41882-0.89665 0.89603
   0  10   0 294.904 131.828   6-0.26903 0.26938 0.41726 0.41883-0.90251 0.90159
   0 -10   0 176.204 65.8055   9-0.02482 0.02453-0.41796-0.41763 0.88864-0.88873
   1 -10   0 -20.261 49.0143   4-0.01593 0.08914-0.42197-0.41420-0.89427 0.90702
  -1 -10   0 -37.028 54.7701   9-0.02535-0.04853-0.41899-0.41659 0.88806-0.90149
   1 -10   0 82.3558 75.7569   9-0.02774 0.10106-0.42363-0.41197 0.88544-0.87219
   1  10   0 -7.0222 78.9276   6-0.27499 0.34914 0.44473 0.39121-0.88820 0.90062
  -1 -10   0 -14.791 46.5011   4-0.01700-0.05740-0.41919-0.41701-0.89572 0.88171
  -1  10   0 -36.460 54.7750   6-0.26456 0.19108 0.39719 0.43900-0.91224 0.89796
   2  10   0 -34.366 54.9671   6-0.28237 0.43031 0.48001 0.35578-0.86808 0.89382
  -2  10   0 22.1301 64.1694   6-0.26161 0.11430 0.38414 0.45214-0.91825 0.89059
   2  10   0 16.7440 74.6934   2 0.48215-0.33505 0.34608 0.48998 0.87885-0.85226
   2 -10   0 -58.207 75.9579   9-0.03469 0.18163-0.43702-0.39860 0.87767-0.85108
  -2 -10   0 61.7063 38.4336   4-0.01358-0.13461-0.42809-0.40809-0.89106 0.86366
  -2 -10   0 -21.768 36.4811   9-0.02892-0.11857-0.42590-0.40970 0.88415-0.91093
   2 -10   0 66.4822 56.0686   4-0.01194 0.15897-0.43234-0.40377-0.88879 0.91489
   3 -10   0 68.7570 107.358   4-0.00588 0.22672-0.44795-0.38807-0.88022 0.91967
  -3 -10   0 -45.883 70.5542   4-0.00707-0.21489-0.44490-0.39122-0.88193 0.84113
  -3 -10   0 -123.64 114.260   9-0.03518-0.18590-0.43795-0.39767 0.87711-0.91725
   3  10   0 -95.173 97.3808   6-0.29098 0.51267 0.52339 0.31220-0.84043 0.87945
   3  10   0 41.1061 68.9880   2 0.46476-0.24399 0.32438 0.51159 0.89443-0.85452
  -3  10   0 80.4901 121.978   6-0.26013 0.03900 0.37771 0.45861-0.92112 0.88007
  -4  10   0 -81.777 91.6170   6-0.26009-0.03486 0.37753 0.45881-0.92120 0.86675
   4  10   0 -59.114 88.2424   2 0.45325-0.15882 0.31017 0.52572 0.90395-0.85073
  -4 -10   0 51.1684 60.0657   9-0.04386-0.25082-0.45455-0.38112 0.86702-0.92052
   4 -10   0 78.6417 104.293   4 0.00212 0.29253-0.46830-0.36761-0.86847 0.92124
   5  10   0 -77.633 106.503   2 0.44680-0.07871 0.30227 0.53356 0.90902-0.84249
  -5 -10   0 -13.038 49.4871   3-0.50713 0.13867-0.27550-0.56107-0.89501 0.82777
   0 -11   0 -83.042 110.192   9-0.04662 0.04629-0.45977-0.45938 0.86374-0.86388
   1 -11   0 614.876 203.957   9-0.05030 0.12357-0.46673-0.45244 0.85929-0.84609
   1  11   0 570.005 184.285   6-0.28331 0.35750 0.48463 0.43491-0.86529 0.87751
  -1 -11   0 596.088 224.627   4-0.00033-0.07417-0.46210-0.45770-0.87213 0.85795
  -2 -11   0 67.1256 104.949   4 0.00342-0.15171-0.47159-0.44818-0.86651 0.83894
   2  11   0 75.0735 85.0656   6-0.28978 0.43776 0.51722 0.40217-0.84457 0.87010
  12   0  -1 75.9497 85.1346   5 0.52985 0.33682 0.20841-0.20759 0.90449-0.84209
 -12   0   1 128.840 109.310   7-0.53138-0.33587 0.10107-0.10116-0.92349 0.86007
  12   0  -1 75.8364 41.9164   8 0.52996 0.33644-0.18590 0.18609 0.90979-0.84687
  11   0  -1 -82.651 68.1388   8 0.50429 0.28850-0.17371 0.17389 0.92331-0.87368
 -11   0   1 -23.765 78.4404   7-0.50564-0.28782 0.09467-0.09475-0.93501 0.88503
  11   0  -1 -20.339 38.2611   5 0.50427 0.28871 0.19448-0.19374 0.91880-0.86971
 -11   0   1 5.03140 26.5859   3-0.50156-0.29236-0.27074 0.27128-0.89893 0.84879
 -10   0   1 35.2989 58.9870   7-0.48188-0.23779 0.08879-0.08887-0.94466 0.90812
  10   0  -1 97.9153 71.6594   8 0.48056 0.23860-0.16251 0.16270 0.93464-0.89830
 -10   0   1 70.7430 46.8493   3-0.47809-0.24202-0.25084 0.25133-0.91441 0.87772
  10   0  -1 88.0381 58.5651   5 0.48064 0.23866 0.18171-0.18102 0.93077-0.89498
   9   0  -1 27.7251 51.8010   2 0.45350 0.19202 0.31048-0.31049 0.90375-0.88070
  -9   0   1 48.9805 54.2199   7-0.46075-0.18512 0.08358-0.08365-0.95248 0.92938
  -9   0   1 -30.038 46.4195   3-0.45716-0.18915-0.23325 0.23370-0.92687 0.90361
   9   0  -1 99.0453 90.5102   8 0.45944 0.18611-0.15259 0.15277 0.94382-0.92078
   9   0  -1 -9.4099 30.8364   5 0.45962 0.18600 0.17042-0.16979 0.94046-0.91799
  -8   0   1 22.7400 18.6797   3-0.43971-0.13279-0.21872 0.21911-0.93635 0.92650
  -8   0   1 41.4610 50.8409   7-0.44325-0.12884 0.07927-0.07935-0.95846 0.94876
   8   0  -1 59.8006 35.5352   5 0.44219 0.12976 0.16109-0.16051 0.94785-0.93871
   8   0  -1 80.9614 18.6032   2 0.43624 0.13564 0.28940-0.28942 0.91694-0.90721
   8   0  -1 141.726 65.4502   8 0.44190 0.13003-0.14439 0.14456 0.95083-0.94111
   7   0  -1 12.5243 25.8541   5 0.42984 0.06843 0.15450-0.15398 0.95275-0.95694
  -7   0   1 -3.1339 9.09823   9-0.09986-0.39801-0.55765 0.55743 0.79237-0.78877
  -7   0   1 10.2282 27.1664   3-0.42722-0.07147-0.20837 0.20872-0.94265 0.94621
   7   0  -1 -14.285 26.3517   8 0.42944 0.06887-0.13857 0.13874 0.95549-0.95910
   7   0  -1 -23.289 18.7288   2 0.42377 0.07448 0.27429-0.27432 0.92572-0.92932
  -7   0   1 34.2931 42.1796   7-0.43088-0.06742 0.07624-0.07632-0.96241 0.96611
  -6   0   1 932.527 87.7993   9-0.01649-0.40767-0.40171 0.40155 0.89752-0.88048
   6   0  -1 724.230 99.7436   2 0.41828 0.00631 0.26770-0.26772 0.92938-0.94633
   6   0  -1 806.587 125.516   8 0.42448 0.00021-0.13627 0.13641 0.95727-0.97422
   6   0  -1 875.657 120.483   5 0.42497-0.00038 0.15192-0.15145 0.95460-0.97213
  -6   0   1 773.105 119.472   7-0.42612 0.00162 0.07507-0.07516-0.96387 0.98095
   6   0  -1 640.602 68.5781   4 0.03430 0.39018-0.54746 0.54774-0.81598 0.79848
  -5   0   1 1.69991 14.6004   9 0.07766-0.42809-0.20820 0.20812 0.97295-0.94251
   5   0  -1 -5.8571 6.78283   6-0.07389 0.42516-0.26291 0.26309-0.95940 0.92872
   5   0  -1 -14.433 18.6015   5 0.43173-0.08081 0.15551-0.15510 0.95202-0.98290
   5   0  -1 -18.005 25.4562   8 0.43117-0.08011-0.13938 0.13951 0.95486-0.98517
  -5   0   1 -14.934 17.6858   3-0.42804 0.07699-0.20906 0.20933-0.94224 0.97258
   5   0  -1 -3.6483 17.1605   2 0.42348-0.07252 0.27395-0.27397 0.92591-0.95622
  -5   0   1 -17.949 30.3596   7-0.43323 0.08252 0.07681-0.07691-0.96167 0.99213
   5   0  -1 0.42882 8.10807   4-0.07417 0.42525-0.26281 0.26292-0.95946 0.92875
  -4   0   1 5996.84 255.837   3-0.45233 0.17508-0.22922 0.22947-0.92957 0.97328
   4   0  -1 5909.85 235.627   2 0.44558-0.16827 0.30078-0.30078 0.90996-0.95364
   4   0  -1 6264.34 161.895   6-0.18323 0.46045 0.08135-0.08110-0.99669 0.95281
   4   0  -1 6032.99 260.380   5 0.45762-0.18038 0.16934-0.16898 0.94134-0.98559
   4   0  -1 5959.56 277.841   8 0.45711-0.17968-0.15150 0.15160 0.94478-0.98846
  -4   0   1 5798.14 275.688   7-0.46010 0.18316 0.08342-0.08352-0.95271 0.99652
   4   0  -1 5889.13 157.499   4-0.18329 0.46098 0.08064-0.08073-0.99675 0.95267
  -4   0   1 5790.78 177.175   9 0.18428-0.46098 0.03467-0.03466 0.99939-0.95560
  -3   0   1 -1.9542 2.84444   9 0.29744-0.50048 0.32960-0.32954 0.93507-0.87799
   3   0  -1 -4.1667 9.17532   2 0.49488-0.29123 0.36215-0.36214 0.86647-0.92353
   3   0  -1 -4.9668 5.02262   5 0.51703-0.31348 0.20142-0.20111 0.91184-0.96948
  -3   0   1 1.25740 8.02284   3-0.50761 0.30415-0.27591 0.27612-0.89467 0.95172
   3   0  -1 -1.8212 5.90401   8 0.51703-0.31326-0.17975 0.17984 0.91677-0.97385
  -3   0   1 7.14167 6.38652   7-0.52236 0.31919 0.09882-0.09894-0.92766 0.98477
   3   0  -1 -11.126 7.56315   6-0.27577 0.47913 0.44838-0.44817-0.88621 0.82913
  -2   0   1 5035.76 212.663   7-0.65115 0.52167 0.13134-0.13145-0.85317 0.92358
  -2   0   1 5559.60 232.453   3-0.61386 0.48413-0.36949 0.36964-0.79727 0.86765
   2   0  -1 5397.39 217.481   5 0.63609-0.50627 0.26738-0.26714 0.82708-0.89811
   2   0  -1 4759.44 214.897   8 0.63855-0.50848-0.23839 0.23847 0.83540-0.90590
  -3   0  -1 -12.712 37.5905   7 0.24788-0.48741-0.08277 0.08298-0.90431 0.76644
   4   0   1 800.601 145.117   8-0.13071 0.44238 0.11064-0.11048 0.94519-0.79504
  -4   0  -1 774.027 150.125   7 0.13174-0.44511-0.05652 0.05676-0.94938 0.79817
   5   0   1 -32.538 58.3077   8-0.04196 0.42724 0.07255-0.07237 0.97235-0.80885
  -5   0  -1 -0.2329 51.1954   7 0.04201-0.42918-0.03597 0.03622-0.97430 0.80973
  -6   0  -1 83.2116 73.6637   7-0.03243-0.42853-0.01876 0.01901-0.98862 0.81067
   6   0   1 22.3021 51.4562   8 0.03203 0.42686 0.04041-0.04020 0.98792-0.81107
  -7   0  -1 -38.756 16.6700   6-0.10040-0.43392-0.18535 0.18582-0.97951 0.78828
   7   0   1 63.8074 54.4843   8 0.09677 0.43575 0.01200-0.01178 0.99629-0.80608
  -7   0  -1 4.77247 66.5715   7-0.09736-0.43739-0.00360 0.00386-0.99640 0.80507
   8   0   1 210.598 156.717   8 0.15539 0.45076-0.01396 0.01420 0.99956-0.79603
  -8   0  -1 -75.991 50.4103   7-0.15602-0.45251 0.01019-0.00992-0.99962 0.79490
   9   0   1 -60.218 136.562   8 0.20975 0.47004-0.03824 0.03848 0.99885-0.78199
  -9   0  -1 -78.462 102.994   7-0.21034-0.47195 0.02305-0.02278-0.99930 0.78117
 -10   0  -1 -127.02 215.876   7-0.26156-0.49450 0.03525-0.03499-0.99598 0.76444
 -10   0  -1 132.146 195.159   3-0.26214-0.49408-0.07566 0.07579-0.99363 0.76217
 -12   1   1 593.257 186.034   7-0.52617-0.34114 0.09977-0.01613-0.92591 0.86246
 -12  -1   1 496.250 168.276   3-0.50653-0.36125-0.27499 0.19192-0.89544 0.83187
  12   1  -1 362.988 116.506   5 0.51578 0.35087 0.20073-0.11638 0.91255-0.85014
  12  -1  -1 463.334 187.783   8 0.51758 0.34875-0.18001 0.09674 0.91648-0.85355
  12   1  -1 406.917 154.056   8 0.55116 0.31534-0.19602 0.27966 0.89756-0.83469
 -12  -1   1 518.409 189.940   7-0.54448-0.32268 0.10435-0.18815-0.91719 0.85378
 -11   1   1 139.996 102.729   7-0.50059-0.29294 0.09341-0.00977-0.93713 0.88713
  11   1  -1 231.703 99.9388   8 0.52627 0.26660-0.18415 0.26779 0.91182-0.86222
  11   1  -1 74.1680 72.4349   5 0.49024 0.30273 0.18690-0.10260 0.92605-0.87694
 -11  -1   1 161.131 93.6100   7-0.51933-0.27404 0.09808-0.18187-0.92902 0.87907
 -11  -1   1 83.0483 69.5478   3-0.48133-0.31265-0.25358 0.17044-0.91237 0.86227
  11  -1  -1 162.503 95.2774   8 0.49195 0.30076-0.16788 0.08459 0.92934-0.87969
  11  -1  -1 74.6920 65.7952   5 0.52830 0.26470 0.20755-0.29038 0.90539-0.85631
  10   1  -1 1.85608 30.3444   8 0.50359 0.21568-0.17337 0.25703 0.92367-0.88736
  10  -1  -1 -49.592 56.4431   5 0.50578 0.21353 0.19531-0.27819 0.91800-0.88222
  10   1  -1 86.5178 69.4954   5 0.46657 0.25273 0.17415-0.08991 0.93736-0.90156
  10   1  -1 -11.886 44.5523   2 0.44736 0.27171 0.30295-0.21943 0.90859-0.87221
 -10  -1   1 76.4215 30.7770   3-0.45789-0.26227-0.23387 0.15069-0.92646 0.88979
 -10   1   1 133.739 62.3027   7-0.47695-0.24278 0.08757-0.00392-0.94655 0.90999
 -10  -1   1 62.8267 37.1687   7-0.49632-0.22327 0.09235-0.17615-0.93890 0.90238
  10  -1  -1 -36.752 51.5673   8 0.46819 0.25091-0.15670 0.07341 0.94011-0.90376
  -9   1   1 -4.4854 37.8720   3-0.49236-0.15388-0.26292 0.34700-0.90520 0.88188
   9   1  -1 -22.891 24.9775   5 0.44534 0.20028 0.16278-0.07860 0.94656-0.92408
   9  -1  -1 -89.051 85.2005   8 0.44690 0.19858-0.14673 0.06342 0.94888-0.92583
   9   1  -1 -44.602 49.0541   8 0.48388 0.16176-0.16408 0.24773 0.93312-0.91011
   9   1  -1 -26.811 43.5913   2 0.42663 0.21880 0.27774-0.19424 0.92376-0.90070
  -9  -1   1 48.4095 53.6320   3-0.43677-0.20958-0.21628 0.13305-0.93786 0.91464
  -9   1   1 25.5577 59.8301   7-0.45590-0.19004 0.08238 0.00126-0.95419 0.93106
  -9  -1   1 27.4341 42.0174   7-0.47619-0.16961 0.08738-0.17116-0.94683 0.92373
   9  -1  -1 31.5523 41.0189   5 0.48628 0.15935 0.18476-0.26769 0.92802-0.90557
   8  -1  -1 1869.84 182.926   2 0.48511 0.08687 0.34981-0.43337 0.87604-0.86634
   8   1  -1 1453.41 180.794   2 0.40882 0.16299 0.25635-0.17284 0.93543-0.92570
  -8   1   1 1564.16 181.338   3-0.47756-0.09488-0.25039 0.33442-0.91474 0.90485
   8  -1  -1 1480.40 184.965   5 0.47100 0.10094 0.17653-0.25952 0.93532-0.92620
   8  -1  -1 1452.84 205.051   8 0.42895 0.14291-0.13835 0.05503 0.95566-0.94593
  -8  -1   1 1580.02 195.264   3-0.41879-0.15375-0.20140 0.11813-0.94668 0.93688
   8   1  -1 1438.58 193.874   8 0.46834 0.10368-0.15677 0.24042 0.94005-0.93036
  -8   1   1 1433.14 198.943   7-0.43838-0.13376 0.07807 0.00556-0.96004 0.95033
  -8  -1   1 1577.26 201.355   7-0.46004-0.11198 0.08340-0.16717-0.95274 0.94304
   8   1  -1 1453.67 190.036   5 0.42742 0.14453 0.15322-0.06910 0.95367-0.94452
  -7  -1   1 30.6764 43.7630   7-0.44960-0.04863 0.08083-0.16460-0.95634 0.96005
  -7  -1   1 129.379 58.6073   3-0.40511-0.09361-0.19015 0.10685-0.95287 0.95647
  -7   1   1 -7.2182 17.7879   6-0.30529-0.19258 0.60318-0.51994-0.78009 0.78358
   7  -1  -1 108.399 61.2380   8 0.41565 0.08260-0.13216 0.04882 0.96033-0.96393
   7  -1  -1 109.296 37.8101   2 0.47776 0.02059 0.34057-0.42414 0.88293-0.88657
  -7  -1   1 117.254 45.1491   9-0.02112-0.47665-0.41076 0.32697 0.89263-0.88896
   7   1  -1 55.2493 45.5950   2 0.39498 0.10317 0.23990-0.15639 0.94368-0.94729
   7  -1  -1 121.476 57.8604   5 0.46183 0.03643 0.17161-0.25465 0.93949-0.94369
   7   1  -1 104.045 56.9733   8 0.45881 0.03959-0.15229 0.23595 0.94408-0.94773
   7  -1  -1 109.533 42.5290   4 0.01478 0.48347-0.49997 0.41683-0.84882 0.84457
   7   1  -1 122.298 52.7883   5 0.41410 0.08419 0.14614-0.06207 0.95858-0.96277
  -7   1   1 71.8762 37.0674   7-0.42580-0.07254 0.07499 0.00862-0.96397 0.96765
   6  -1  -1 1579.32 136.844   2 0.48056-0.05586 0.34409-0.42766 0.88033-0.89732
   6   1  -1 1406.78 150.703   2 0.38677 0.03776 0.23019-0.14666 0.94827-0.96522
  -6   1   1 1796.63 148.034   6-0.29687-0.12736 0.55486-0.47163-0.81820 0.83507
  -6  -1   1 1306.03 156.574   3-0.39754-0.02734-0.18397 0.10063-0.95610 0.97310
  -6   1   1 1318.08 133.348   3-0.47037 0.04553-0.24433 0.32827-0.91915 0.93606
   6  -1  -1 1445.64 178.021   8 0.40907 0.01555-0.12911 0.04574 0.96253-0.97947
  -6  -1   1 1482.60 135.206   9 0.04101-0.46508-0.28573 0.20203 0.94904-0.93197
   6  -1  -1 1462.10 122.100   4-0.04743 0.47218-0.33777 0.25444-0.93301 0.91555
   6  -1  -1 1331.15 144.805   5 0.46190-0.03733 0.17164-0.25475 0.93946-0.95701
   6   1  -1 1492.21 166.475   8 0.45834-0.03357-0.15207 0.23574 0.94427-0.96126
  -6   1   1 1392.21 169.620   7-0.42046-0.00407 0.07369 0.00991-0.96556 0.98263
  -6  -1   1 1301.94 154.533   7-0.44769 0.02324 0.08036-0.16412-0.95699 0.97406
   6   1  -1 1153.72 148.074   5 0.40740 0.01723 0.14258-0.05856 0.96094-0.97846
  -5   1   1 340.154 62.9319   3-0.48727 0.13624-0.25861 0.34249-0.90855 0.93883
   5  -1  -1 378.424 61.5153   2 0.49965-0.14860 0.36823-0.45180 0.86159-0.89195
  -5  -1   1 329.783 57.5319   9 0.10525-0.45563-0.14792 0.06430 0.98619-0.95574
  -5   1   1 381.937 63.5422   6-0.29124-0.05935 0.52478-0.44156-0.83949 0.86974
   5  -1  -1 323.223 52.8599   4-0.10811 0.45936-0.16292 0.07937-0.98402 0.95330
   5   1  -1 360.248 72.8090   8 0.47236-0.12120-0.15865 0.24231 0.93830-0.96866
   5   1  -1 376.379 73.7115   5 0.41063-0.05967 0.14430-0.06033 0.95981-0.99069
   5  -1  -1 419.234 88.4604   8 0.41264-0.06164-0.13076 0.04737 0.96135-0.99164
   5  -1  -1 364.259 68.5958   5 0.47674-0.12586 0.17961-0.26279 0.93264-0.96354
   5   1  -1 344.947 69.0338   2 0.38663-0.03574 0.23002-0.14648 0.94834-0.97865
  -5   1   1 354.030 75.4481   7-0.42624 0.07551 0.07510 0.00848-0.96383 0.99427
  -5  -1   1 378.747 75.1787   7-0.45930 0.10863 0.08322-0.16697-0.95300 0.98344
  -5  -1   1 309.153 69.6258   3-0.39901 0.04795-0.18517 0.10181-0.95548 0.98586
  -4  -1   1 9113.17 330.596   7-0.49375 0.21685 0.09172-0.17546-0.93995 0.98373
   4   1  -1 9221.33 329.399   2 0.39856-0.12132 0.24414-0.16057 0.94162-0.98528
  -4   1   1 9858.65 304.008   6-0.28970 0.01275 0.51676-0.43354-0.84488 0.88849
   4  -1  -1 8851.66 267.899   4-0.16617 0.44385 0.02209-0.10586-0.99964 0.95556
  -4  -1   1 9034.94 147.598   1 0.14658-0.42345 0.08521-0.16854 0.99575-0.95210
  -4   1   1 9106.47 291.050   3-0.53076 0.25351-0.29582 0.37965-0.87723 0.92088
  -4  -1   1 8695.73 279.022   9 0.17147-0.44817 0.00399-0.08751 0.99994-0.95615
  -4  -1   1 8950.75 342.715   3-0.41440 0.13716-0.19780 0.11441-0.94871 0.99246
   4  -1  -1 9010.75 301.912   5 0.51673-0.23955 0.20126-0.28449 0.91201-0.95627
  -4   1   1 8673.85 227.321   1 0.16159-0.43857-0.03579 0.11958 0.99917-0.95547
   4   1  -1 8938.54 324.724   8 0.51101-0.23349-0.17690 0.26055 0.91991-0.96365
  -4   1   1 9064.10 356.403   7-0.45013 0.17317 0.08096 0.00259-0.95617 0.99996
   4   1  -1 9079.25 344.617   5 0.42960-0.15230 0.15438-0.07046 0.95284-0.99708
   4  -1  -1 8876.48 364.125   8 0.43239-0.15503-0.13995 0.05652 0.95441-0.99806
   4  -1  -1 9983.63 311.830   2 0.54518-0.26779 0.42754-0.51113 0.80792-0.85166
  -3   1   1 149.069 26.7442   2 0.36957-0.57327 0.21001-0.12635 0.95712-0.90006
  -3   1   1 144.210 30.3404   1 0.18483-0.38814-0.28233 0.36600 0.95929-0.90222
   3  -1  -1 130.541 32.7996   4-0.21951 0.42350 0.21219-0.29614-0.97630 0.91876
  -3  -1   1 128.943 32.4318   9 0.23858-0.44163 0.17015-0.25360 0.98348-0.92637
   3   1  -1 118.394 36.4634   2 0.42896-0.22538 0.28056-0.19698 0.92214-0.97917
  -3   1   1 164.289 37.9117   6-0.29333 0.09006 0.53582-0.45262-0.83188 0.88884
  -3   1   1 195.339 46.9341   3-0.61927 0.41577-0.37443 0.45819-0.79092 0.84790
  -3  -1   1 163.496 42.2484   3-0.45218 0.24875-0.22911 0.14570-0.92965 0.98675
   3  -1  -1 138.000 41.4284   8 0.47954-0.27584-0.16203 0.07856 0.93510-0.99213
   3  -1  -1 160.953 38.2103   5 0.60170-0.39824 0.24806-0.33136 0.85568-0.91331
   3   1  -1 164.603 39.4851   8 0.59412-0.39027-0.21671 0.30037 0.86954-0.92670
  -3  -1   1 151.612 38.1326   7-0.56969 0.36652 0.11067-0.19438-0.90417 0.96128
  -3   1   1 153.782 40.7407   7-0.50560 0.30242 0.09466-0.01115-0.93502 0.99214
  -2   1   1 32242.5 532.980   7-0.61927 0.48982 0.12320-0.03971-0.87489 0.94529
  -2   1   1 32364.9 512.115   6-0.30253 0.17291 0.58689-0.50369-0.79351 0.86380
   2   1  -1 32422.1 527.044   2 0.48739-0.35748 0.35267-0.26905 0.87386-0.94427
  -2  -1   1 33031.0 523.677   9 0.30361-0.43307 0.34730-0.43070 0.92753-0.85712
   2  -1  -1 32639.9 559.147   8 0.57534-0.44533-0.20763 0.12412 0.88235-0.95278
  -2  -1   1 37035.0 712.155   7-0.72167 0.59215 0.14959-0.23327-0.79553 0.86593
  -3  -1  -1 -20.459 27.8974   7 0.26177-0.50125-0.08587 0.00232-0.89791 0.76009
  -3   1  -1 93.6518 39.3403   7 0.21088-0.45045-0.07445 0.15843-0.92028 0.78239
  -4  -1  -1 8731.40 493.633   7 0.13579-0.44910-0.05744-0.02608-0.94806 0.79689
   4  -1   1 6939.07 393.847   8-0.09565 0.40732 0.09565-0.17899 0.95704-0.80687
  -4   1  -1 7092.67 422.272   7 0.10782-0.42121-0.05106 0.13507-0.95685 0.80561
  -5   1  -1 51.2321 36.5907   7 0.02608-0.41329-0.03231 0.11631-0.97785 0.81324
  -5   1  -1 2.38429 12.1108   6-0.05113-0.33579-0.32693 0.41112-0.93725 0.77251
   5  -1   1 50.0922 29.4735   8-0.01965 0.40493 0.06290-0.14621 0.97772-0.81420
   5   1   1 44.5995 24.6232   8-0.04913 0.43442 0.07565 0.00801 0.97050-0.80700
  -5  -1  -1 26.9841 34.4289   7 0.04074-0.42785-0.03568-0.04782-0.97460 0.81007
  -6   1  -1 21.9819 18.1353   6-0.08681-0.37383-0.22552 0.30971-0.96999 0.79196
   6   1   1 37.0505 61.7952   8 0.03234 0.42658 0.04028 0.04340 0.98797-0.81111
   6  -1   1 97.8694 58.0886   8 0.04591 0.41298 0.03434-0.11762 0.99013-0.81327
  -6  -1  -1 20.6595 61.6772   7-0.03679-0.42411-0.01774-0.06576-0.98928 0.81138
  -6   1  -1 148.136 100.021   7-0.04310-0.41789-0.01627 0.10029-0.99020 0.81221
  -7   1  -1 1118.58 146.765   6-0.12344-0.41088-0.11512 0.19930-0.99168 0.80038
   7  -1   1 1486.43 254.255   8 0.10475 0.42775 0.00848-0.09173 0.99697-0.80677
   7   1   1 1239.11 222.934   8 0.10192 0.43063 0.00973 0.07396 0.99674-0.80653
  -7  -1  -1 1068.44 223.406   7-0.10365-0.43103-0.00213-0.08136-0.99692 0.80564
  -7   1  -1 1519.37 268.082   7-0.10439-0.43041-0.00196 0.08598-0.99698 0.80560
   8  -1   1 2808.22 420.398   8 0.15905 0.44708-0.01559-0.06764 0.99963-0.79610
  -8   1  -1 2522.46 396.257   7-0.16038-0.44819 0.01121 0.07282-0.99971 0.79494
   9   1   1 584.032 196.367   8 0.22058 0.45926-0.04310 0.12680 0.99826-0.78140
   9  -1   1 294.197 149.669   8 0.21014 0.46963-0.03841-0.04481 0.99883-0.78198
  -9  -1  -1 475.017 203.239   7-0.21877-0.46344 0.02505-0.10853-0.99896 0.78089
   9   1   1 621.439 171.830   2 0.21104 0.46899 0.03166 0.05160 0.99903-0.78207
  -9   1  -1 442.876 228.709   7-0.21268-0.46967 0.02361 0.06042-0.99921 0.78103
  10   1   1 533.547 316.388   2 0.25672 0.49696 0.08175 0.00151 0.99359-0.76330
  10  -1   1 344.738 247.944   8 0.25890 0.49452-0.06037-0.02286 0.99499-0.76482
  10   1   1 488.593 246.092   8 0.27366 0.47982-0.06705 0.15074 0.99321-0.76304
 -10   1  -1 134.346 178.694   7-0.26232-0.49379 0.03544 0.04859-0.99591 0.76431
 -10  -1  -1 -181.56 100.747   7-0.27062-0.48535 0.03742-0.12091-0.99508 0.76360
 -10  -1  -1 354.666 226.449   3-0.25855-0.49772-0.07286-0.01073-0.99415 0.76268
  12   2  -1 -48.060 43.6260   5 0.50970 0.35693 0.19744-0.02957 0.91588-0.85348
 -12  -2   1 31.7032 86.2194   3-0.49509-0.37275-0.26524 0.09848-0.90336 0.83982
  12  -2  -1 82.1887 109.821   8 0.51304 0.35326-0.17786 0.01111 0.91886-0.85592
 -12  -2   1 -24.167 43.9189   7-0.56597-0.30106 0.10973-0.27724-0.90617 0.84276
 -12   2   1 -91.774 69.9211   7-0.52838-0.33898 0.10032 0.06707-0.92489 0.86139
  11   2  -1 581.030 158.129   8 0.55921 0.23379-0.19987 0.36699 0.89265-0.84312
 -11   2   1 411.547 142.052   7-0.50358-0.28997 0.09416 0.07323-0.93588 0.88584
 -11  -2   1 273.563 114.894   7-0.54224-0.25101 0.10379-0.27127-0.91829 0.86833
  11   2  -1 390.622 124.520   5 0.48489 0.30808 0.18401-0.01619 0.92871-0.87961
 -11  -2   1 248.582 103.721   3-0.47073-0.32330-0.24464 0.07781-0.91893 0.86885
  11  -2  -1 491.345 152.374   8 0.48812 0.30457-0.16607-0.00069 0.93115-0.88150
  11   2  -1 415.139 125.578   2 0.45458 0.33806 0.31180-0.14475 0.90288-0.85321
  10  -2  -1 48.7363 31.4507   5 0.54389 0.17544 0.21608-0.38257 0.89599-0.86023
  10   2  -1 46.3312 86.7603   8 0.53885 0.18052-0.19014 0.35727 0.90478-0.86853
  10   2  -1 75.0433 70.1626   5 0.46194 0.25736 0.17167-0.00391 0.93944-0.90364
  10  -2  -1 -47.539 33.3038   8 0.46510 0.25396-0.15525-0.01153 0.94144-0.90508
 -10  -2   1 12.5793 47.1860   3-0.44814-0.27207-0.22573 0.05885-0.93187 0.89523
  10   2  -1 16.4736 27.4686   2 0.43268 0.28633 0.28506-0.11801 0.91952-0.88316
 -10   2   1 -29.458 40.6894   7-0.48083-0.23893 0.08853 0.07886-0.94506 0.90847
 -10  -2   1 51.8659 59.4675   7-0.52099-0.19849 0.09849-0.26596-0.92828 0.89175
   9   2  -1 159.512 71.5315   2 0.41288 0.23249 0.26122-0.09417 0.93287-0.90983
   9  -2  -1 200.012 80.0606   5 0.52768 0.11795 0.20722-0.37377 0.90575-0.88331
   9   2  -1 39.0274 26.2635   5 0.44146 0.20418 0.16070 0.00700 0.94815-0.92567
   9   2  -1 134.144 55.0320   8 0.52221 0.12355-0.18221 0.34935 0.91402-0.89107
  -9   2   1 178.757 77.1045   7-0.46077-0.18519 0.08358 0.08379-0.95248 0.92932
  -9  -2   1 167.972 69.8188   7-0.50308-0.14261 0.09403-0.26149-0.93609 0.91298
  -9  -2   1 141.495 73.2929   3-0.42782-0.21855-0.20887 0.04195-0.94235 0.91915
   9  -2  -1 218.432 112.128   8 0.44457 0.20087-0.14564-0.02117 0.94980-0.92674
   8   2  -1 139.129 64.1391   5 0.42423 0.14775 0.15152 0.01612 0.95488-0.94573
  -8  -2   1 135.369 71.0203   9-0.03853-0.53287-0.44438 0.27695 0.87326-0.88299
   8   2  -1 85.8281 44.9740   2 0.39586 0.17589 0.24093-0.07388 0.94319-0.93347
   8  -2  -1 154.457 49.8483   5 0.51690 0.05504 0.20134-0.36795 0.91192-0.90280
   8  -2  -1 66.3989 32.3141   8 0.42737 0.14445-0.13761-0.02921 0.95624-0.94650
  -8  -2   1 199.790 80.8720   7-0.48986-0.08206 0.09076-0.25820-0.94152 0.93181
   8   2  -1 139.401 69.0940   8 0.51080 0.06135-0.17680 0.34395 0.92001-0.91039
  -8  -2   1 117.558 61.3889   3-0.41054-0.16201-0.19462 0.02766-0.95047 0.94068
  -8   2   1 278.353 99.5928   7-0.44435-0.12781 0.07954 0.08782-0.95810 0.94835
  -7  -2   1 -21.806 29.5149   9 0.01064-0.50836-0.34783 0.18049 0.92395-0.92025
  -7   2   1 16.6266 17.8974   6-0.28298-0.21504 0.48304-0.31633-0.86626 0.86971
   7  -2  -1 59.5553 43.9529   5 0.51410-0.01586 0.19982-0.36649 0.91348-0.91769
   7  -2  -1 0.87888 39.8573   8 0.41471 0.08350-0.13172-0.03513 0.96065-0.96424
   7   2  -1 -105.25 58.4909   5 0.41144 0.08688 0.14474 0.02286 0.95953-0.96371
   7   2  -1 0.46941 17.8847   8 0.50707-0.00855-0.17503 0.34220 0.92191-0.92562
  -7  -2   1 55.9649 17.8254   3-0.39729-0.10143-0.18376 0.01678-0.95620 0.95983
   7   2  -1 2.30919 26.0449   2 0.38248 0.11564 0.22513-0.05807 0.95057-0.95419
  -7  -2   1 -17.761 31.8736   7-0.48337-0.01477 0.08916-0.25657-0.94407 0.94776
   7  -2  -1 -11.130 32.9166   4-0.02426 0.52272-0.40012 0.23337-0.90530 0.90108
  -6  -2   1 947.916 119.131   9 0.05952-0.48354-0.24695 0.07970 0.96200-0.94491
   6   2  -1 946.058 134.511   2 0.37403 0.05045 0.21522-0.04814 0.95492-0.97189
  -6   2   1 1107.01 122.080   3-0.55379 0.12899-0.31587 0.48337-0.85800 0.87483
  -6  -2   1 819.513 130.218   3-0.38961-0.03528-0.17749 0.01047-0.95935 0.97637
   6  -2  -1 1046.17 122.145   5 0.52366-0.09913 0.20502-0.37176 0.90809-0.92564
   6   2  -1 975.837 140.246   5 0.40490 0.01977 0.14126 0.02628 0.96179-0.97932
   6  -2  -1 944.438 114.552   4-0.06935 0.49425-0.27656 0.10958-0.95514 0.93768
   6  -2  -1 1038.60 152.581   8 0.40847 0.01611-0.12883-0.03807 0.96273-0.97966
   6   2  -1 1060.15 137.296   8 0.51518-0.09028-0.17887 0.34606 0.91774-0.93481
  -6   2   1 935.549 140.195   7-0.42890 0.00435 0.07575 0.09155-0.96302 0.98007
  -6  -2   1 897.487 129.617   7-0.48709 0.06272 0.09008-0.25747-0.94262 0.95968
  -6   2   1 990.321 120.924   6-0.27429-0.15009 0.44143-0.27471-0.88998 0.90684
   5   2  -1 4290.72 271.285   2 0.37239-0.02156 0.21331-0.04619 0.95574-0.98605
   5  -2  -1 4336.54 236.251   4-0.11192 0.46324-0.15134-0.01588-0.98612 0.95539
  -5   2   1 4436.44 239.425   6-0.26819-0.08252 0.41344-0.24671-0.90440 0.93465
  -5  -2   1 4049.51 236.414   9 0.10795-0.45830-0.14195-0.02519 0.98726-0.95680
   5  -2  -1 4458.35 232.264   5 0.55345-0.20261 0.22133-0.38813 0.88993-0.92083
   5   2  -1 4226.97 243.727   8 0.54257-0.19130-0.19192 0.35911 0.90263-0.93308
  -5   2   1 5880.54 269.141   3-0.59272 0.24170-0.35037 0.51780-0.82058 0.85079
   5  -2  -1 4498.85 294.369   8 0.41166-0.06071-0.13031-0.03662 0.96167-0.99196
  -5  -2   1 4413.39 253.523   7-0.50706 0.15645 0.09502-0.26239-0.93440 0.96482
  -5   2   1 4041.60 194.473   1 0.13050-0.48120 0.19778-0.03026 0.97905-0.94880
  -5   2   1 4121.38 274.697   7-0.43580 0.08507 0.07744 0.08983-0.96086 0.99128
   4  -2  -1 106.716 38.7263   4-0.15160 0.42927-0.02618-0.14127-0.99920 0.95512
   4   2  -1 116.230 20.3460   4-0.18528 0.46289 0.08758 0.07968-0.99616 0.95210
   4  -2  -1 130.675 40.5935   5 0.61798-0.34086 0.25717-0.42405 0.84262-0.88687
  -4   2   1 139.330 45.3781   6-0.26552-0.01151 0.40146-0.23475-0.91022 0.95383
  -4  -2   1 115.965 36.2098   9 0.15566-0.43236-0.03329-0.13377 0.99912-0.95531
   4   2  -1 127.511 19.9308   6-0.18436 0.46170 0.08529 0.08219-0.99636 0.95227
  -4   2   1 89.1056 23.8345   1 0.15361-0.43065 0.03088 0.13653 0.99913-0.95544
   4  -2  -1 76.4810 30.4152   8 0.42937-0.15205-0.13854-0.02844 0.95551-0.99915
   4   2  -1 118.310 38.4407   8 0.60317-0.32555-0.22110 0.38833 0.86304-0.90689
   4   2  -1 89.6488 34.3156   2 0.38036-0.10316 0.22264-0.05549 0.95169-0.99535
  -4  -2   1 122.539 37.4761   7-0.55472 0.27784 0.10691-0.27424-0.91205 0.95581
  -4   2   1 95.9513 41.8030   7-0.46016 0.18322 0.08343 0.08379-0.95269 0.99647
  -3   2   1 661.872 51.1297   9 0.05994-0.26313-0.24604 0.41322 0.96228-0.90510
  -3   2   1 647.943 84.4280   6-0.26712 0.06378 0.40859-0.24189-0.90678 0.96376
  -3   2   1 593.115 76.7748   1 0.17036-0.37375-0.11713 0.28445 0.99309-0.93601
   3  -2  -1 663.961 51.6131   3-0.36913 0.57271-0.16085-0.00653-0.96708 0.90997
   3  -2  -1 635.699 90.5930   8 0.47058-0.26691-0.15782-0.00922 0.93908-0.99609
   3   2  -1 656.136 61.3173   4-0.09217 0.29582-0.21051 0.37751-0.97379 0.91651
   3  -2  -1 651.203 87.8328   4-0.18780 0.39173 0.09644-0.26408-0.99533 0.93782
  -3  -2   1 775.839 91.3955   7-0.65203 0.44885 0.13156-0.29883-0.85255 0.90963
  -3  -2   1 581.200 83.3177   9 0.20215-0.40523 0.07823-0.24522 0.99668-0.93954
   3   2  -1 609.480 57.0389   6-0.09161 0.29533-0.21145 0.37916-0.97354 0.91589
  -3   2   1 652.545 87.5037   7-0.51401 0.31084 0.09675 0.07041-0.93139 0.98848
   2   2  -1 244.493 41.6659   6-0.04596 0.17590-0.34114 0.50894-0.93161 0.86049
  -2   2   1 252.383 50.4327   1 0.18175-0.31147-0.24236 0.40964 0.97021-0.89975
   2  -2  -1 248.544 53.2248   8 0.55150-0.42153-0.19619 0.02908 0.89735-0.96775
  -2  -2   1 287.545 55.4740   9 0.24665-0.37613 0.19115-0.35807 0.97901-0.90856
  -2   2   1 249.897 49.1868   6-0.27364 0.14400 0.43842-0.27174-0.89159 0.96192
   2   2  -1 230.037 46.2776   5 0.53790-0.40789 0.21280-0.04538 0.89967-0.97073
  -2  -2   1 256.368 51.2118   3-0.48790 0.35829-0.25913 0.09211-0.90815 0.97860
  -2   2   1 262.513 52.3175   7-0.61996 0.49053 0.12337 0.04372-0.87445 0.94482
   2  -2  -1 262.915 52.1302   4-0.21980 0.34993 0.21326-0.38107-0.97606 0.90508
  -1   2   1 7548.51 274.365   6-0.28525 0.22930 0.49428-0.32765-0.85935 0.94298
  -1  -2   1 7937.59 279.640   3-0.58541 0.52953-0.34383 0.17680-0.82812 0.91188
  -1  -2   1 7797.81 287.500   9 0.28803-0.34393 0.30301-0.46989 0.94554-0.86177
  -1  -2   1 8012.42 288.788   4 0.05546-0.11171-0.59707 0.43033-0.77687 0.86058
   1   2  -1 7472.90 261.815   6-0.02520 0.08129-0.39705 0.56489-0.90676 0.82220
   1   2  -1 8033.09 278.969   2 0.51331-0.45714 0.38575-0.21848 0.84691-0.93069
   0   2  -1 34.1794 23.7376   6-0.01945 0.00169-0.41221 0.58008-0.89925 0.80128
   0  -2  -1 -4.2904 5.89037   9-0.10564 0.08787-0.56789 0.40057 0.78371-0.88106
   0   2   1 3.79704 3.80983   6-0.30093 0.31863 0.57760-0.41101-0.80090 0.89781
  -1   2  -1 8730.14 323.108   6-0.02351-0.06811-0.40153 0.56943-0.90458 0.79321
  -1  -2  -1 7377.47 310.959   9-0.09835 0.00691-0.55495 0.38759 0.79461-0.90534
  -2   2  -1 376.996 68.2272   6-0.03434-0.13112-0.37266 0.54058-0.91814 0.79339
  -2  -2  -1 138.537 48.0683   9-0.10208-0.06300-0.56161 0.39421 0.78905-0.91315
  -2   2  -1 193.752 55.2223   7 0.27101-0.43675-0.08795 0.25569-0.89352 0.76898
   2  -2   1 386.568 75.5368   4 0.05505 0.10965-0.59614 0.42963-0.77765 0.90128
  -3   2  -1 2657.26 191.009   6-0.05007-0.18922-0.32985 0.49778-0.93611 0.79802
   3  -2   1 2868.74 219.013   8-0.12291 0.36098 0.10731-0.27420 0.94796-0.81110
  -3  -2  -1 1555.02 233.237   7 0.24730-0.48671-0.08264-0.08467-0.90457 0.76682
  -3   2  -1 2901.72 227.062   7 0.15433-0.39391-0.06166 0.22941-0.94177 0.80387
   4   2   1 1906.10 216.453   8-0.14813 0.45982 0.11805 0.04904 0.93876-0.78862
   4  -2   1 1037.79 146.120   8-0.04888 0.36056 0.07554-0.24239 0.97057-0.82037
  -4   2  -1 845.008 113.031   6-0.06945-0.24364-0.27559 0.44352-0.95543 0.80399
  -4  -2  -1 1332.29 169.448   7 0.11606-0.42930-0.05295-0.11432-0.95435 0.80324
  -4   2  -1 1067.78 154.583   7 0.06679-0.38019-0.04167 0.20944-0.96826 0.81700
  -5   2  -1 2275.60 195.458   6-0.09162-0.29525-0.21141 0.37933-0.97355 0.80878
   5  -2   1 2625.36 261.153   8 0.01444 0.37085 0.04809-0.21490 0.98480-0.82126
   5   2   1 3301.93 270.077   8-0.03616 0.42149 0.07004 0.09708 0.97381-0.81029
  -5   2  -1 2694.36 270.454   7-0.00488-0.38232-0.02514 0.19292-0.98399 0.81936
  -5  -2  -1 2867.36 264.952   7 0.01942-0.40645-0.03076-0.13648-0.97925 0.81479
  -6   2  -1 163.746 63.2285   6-0.11598-0.34462-0.13814 0.30604-0.98831 0.81023
   6   2   1 253.933 70.2555   8 0.05089 0.40808 0.03216 0.13498 0.99087-0.81399
  -6  -2  -1 266.310 105.627   7-0.05836-0.40246-0.01271-0.15451-0.99225 0.81442
  -6   2  -1 294.764 117.914   7-0.06714-0.39387-0.01067 0.17846-0.99333 0.81531
   6  -2   1 152.573 78.2534   8 0.07114 0.38776 0.02328-0.19006 0.99356-0.81668
  -7   2  -1 1023.91 161.301   6-0.14209-0.39221-0.05617 0.22401-0.99763 0.80626
   7  -2   1 1119.15 212.572   8 0.12349 0.40904 0.00020-0.16694 0.99829-0.80808
   7   2   1 931.909 162.755   8 0.12350 0.40912 0.00019 0.16695 0.99829-0.80807
  -7  -2  -1 1032.02 192.105   7-0.12493-0.40965 0.00286-0.17009-0.99837 0.80716
  -7   2  -1 1267.79 228.160   7-0.12337-0.41143 0.00250 0.16530-0.99828 0.80687
   8  -2   1 35.8604 69.7585   8 0.17284 0.43331-0.02173-0.14500 0.99973-0.79619
   8   2   1 52.5050 36.9105   8 0.18714 0.41912-0.02812 0.19527 0.99959-0.79604
  -8   2  -1 -55.149 69.4897   7-0.17556-0.43303 0.01480 0.15299-0.99988 0.79506
  -8  -2  -1 52.5187 46.7951   7-0.18439-0.42396 0.01689-0.18411-0.99985 0.79525
  -9  -2  -1 20.8606 100.129   7-0.23907-0.44303 0.02989-0.19710-0.99781 0.77980
   9  -2   1 260.333 157.774   8 0.22004 0.45974-0.04285-0.12385 0.99830-0.78145
   9   2   1 18.2402 132.801   2 0.22037 0.45965 0.04181 0.12498 0.99832-0.78138
   9   2   1 174.408 115.040   8 0.24490 0.43501-0.05405 0.22119 0.99641-0.77954
  -9   2  -1 322.849 170.546   7-0.22489-0.45747 0.02651 0.14129-0.99866 0.78043
  10   2   1 -21.011 276.438   2 0.26072 0.49295 0.08619 0.08061 0.99288-0.76261
 -10  -2  -1 76.0633 231.405   3-0.26369-0.49260-0.07687-0.09043-0.99340 0.76192
  10  -2   1 75.0441 131.578   8 0.26564 0.48776-0.06342-0.10328 0.99421-0.76405
 -10   2  -1 108.302 129.009   7-0.27216-0.48398 0.03779 0.13001-0.99492 0.76327
 -10  -2  -1 1.12944 87.5739   7-0.29041-0.46543 0.04217-0.20938-0.99279 0.76137
  10   2   1 98.5701 63.7112   8 0.29859 0.45497-0.07837 0.24550 0.98954-0.75937
 -12  -3   1 160.705 109.244   3-0.49103-0.37685-0.26179 0.01132-0.90608 0.84254
 -12  -3   1 279.617 124.498   7-0.59636-0.27054 0.11739-0.36856-0.88906 0.82564
  11   3  -1 347.658 142.128   5 0.48704 0.30594 0.18517 0.06614 0.92765-0.87856
  11   3  -1 282.834 121.141   2 0.44736 0.34523 0.30296-0.05237 0.90859-0.85894
 -11  -3   1 302.157 117.630   3-0.46795-0.32609-0.24230-0.00822-0.92060 0.87053
  11  -3  -1 389.134 157.340   8 0.49176 0.30090-0.16779-0.08246 0.92943-0.87978
 -11   3   1 124.718 68.9039   7-0.51408-0.27949 0.09677 0.15439-0.93136 0.88126
 -11  -3   1 175.245 50.3752   7-0.57495-0.21817 0.11198-0.36314-0.90131 0.85133
 -10  -3   1 320.421 108.392   3-0.44671-0.27351-0.22454-0.02603-0.93264 0.89601
 -10   3   1 246.888 74.3299   7-0.49285-0.22691 0.09150 0.15963-0.94031 0.90367
  10  -3  -1 268.475 111.507   8 0.47007 0.24897-0.15758-0.09269 0.93930-0.90295
  10   3  -1 404.389 122.578   5 0.46540 0.25392 0.17352 0.07773 0.93789-0.90210
  10   3  -1 503.040 147.805   2 0.42691 0.29205 0.27809-0.02750 0.92356-0.88722
 -10  -3   1 336.380 103.520   7-0.55658-0.16276 0.10737-0.35850-0.91109 0.87455
   9   3  -1 542.819 132.613   8 0.57669 0.06923-0.20829 0.45893 0.88145-0.85861
   9   3  -1 338.982 97.3283   5 0.44633 0.19934 0.16330 0.08790 0.94615-0.92369
   9  -3  -1 454.745 136.069   8 0.45101 0.19442-0.14864-0.10167 0.94726-0.92421
  -9  -3   1 434.455 129.772   3-0.42782-0.21856-0.20887-0.04175-0.94235 0.91916
   9   3  -1 504.532 133.493   2 0.40861 0.23673 0.25610-0.00551 0.93556-0.91255
  -9   3   1 339.880 105.402   7-0.47455-0.17140 0.08697 0.16413-0.94745 0.92424
  -9  -3   1 428.745 117.401   7-0.54232-0.10326 0.10381-0.35490-0.91825 0.89512
   8   3  -1 14.8664 31.8232   2 0.39300 0.17870 0.23755 0.01305 0.94481-0.93512
  -8  -3   1 -2.1634 40.9169   9-0.01818-0.55316-0.40503 0.15407 0.89574-0.90544
  -8   3   1 -6.1871 33.7422   6-0.28088-0.29092 0.47276-0.22254-0.87238 0.86238
   8  -3  -1 -0.0815 39.2422   5 0.58351-0.01159 0.23793-0.48818 0.86935-0.86023
   8   3  -1 -57.102 62.5336   5 0.43060 0.14142 0.15491 0.09624 0.95245-0.94331
   8  -3  -1 1.47293 42.1587   8 0.43537 0.13643-0.14134-0.10900 0.95330-0.94357
   8   3  -1 -0.9757 33.9271   8 0.57219 0.00010-0.20612 0.45679 0.88440-0.87489
  -8  -3   1 -66.046 67.4773   3-0.41195-0.16060-0.19578-0.05487-0.94983 0.94006
  -8  -3   1 26.1518 36.8979   7-0.53381-0.03800 0.10168-0.35275-0.92235 0.91262
   8  -3  -1 -44.393 45.2471   4-0.00151 0.57366-0.45913 0.20895-0.87385 0.88283
  -8   3   1 -40.773 24.9952   7-0.46015-0.11199 0.08343 0.16765-0.95270 0.94291
  -7   3   1 72.2098 44.2695   6-0.27130-0.22686 0.42759-0.17733-0.89726 0.90068
   7   3  -1 130.270 47.9274   8 0.57810-0.07942-0.20897 0.45967 0.88052-0.88434
   7  -3  -1 40.7731 34.1127   5 0.59147-0.09326 0.24235-0.49267 0.86348-0.86770
   7  -3  -1 20.2378 35.6536   8 0.42437 0.07381-0.13622-0.11417 0.95730-0.96090
   7   3  -1 -25.566 56.6834   5 0.41935 0.07903 0.14893 0.10218 0.95669-0.96088
  -7  -3   1 62.6185 42.0645   3-0.40003-0.09868-0.18601-0.06467-0.95505 0.95868
   7   3  -1 34.0026 37.8873   2 0.38090 0.11718 0.22327 0.02735 0.95140-0.95505
  -7   3   1 100.976 68.2601   7-0.45112-0.04721 0.08120 0.16984-0.95583 0.95945
  -7  -3   1 130.997 51.7239   7-0.53365 0.03560 0.10164-0.35266-0.92242 0.92609
   7  -3  -1 -13.748 17.0011   4-0.03926 0.53785-0.35999 0.10958-0.92375 0.91952
  -7  -3   1 2.26458 25.0570   9 0.02301-0.52067-0.32278 0.07191 0.93474-0.93103
   6   3  -1 768.456 115.548   8 0.60020-0.17516-0.21966 0.47039 0.86520-0.88239
   6   3  -1 737.585 129.831   2 0.37336 0.05109 0.21443 0.03623 0.95526-0.97224
  -6  -3   1 604.174 106.903   9 0.06300-0.48700-0.23956-0.01122 0.96424-0.94714
  -6   3   1 596.924 102.819   6-0.26347-0.16102 0.39233-0.14206-0.91450 0.93132
   6  -3  -1 846.171 118.752   5 0.61679-0.19230 0.25650-0.50690 0.84360-0.86114
   6  -3  -1 562.913 110.347   8 0.41976 0.00479-0.13408-0.11635 0.95892-0.97585
   6   3  -1 656.005 121.682   5 0.41424 0.01049 0.14622 0.10484 0.95853-0.97607
   6  -3  -1 648.090 109.111   4-0.07465 0.49963-0.26143 0.01078-0.95988 0.94239
  -6  -3   1 643.083 124.435   3-0.39342-0.03144-0.18060-0.07009-0.95780 0.97484
  -6   3   1 630.271 117.519   7-0.44970 0.02518 0.08085 0.17015-0.95631 0.97331
  -6  -3   1 564.414 103.332   7-0.54615 0.12186 0.10477-0.35575-0.91636 0.93340
  -5   3   1 19.2847 24.7263   6-0.25794-0.09285 0.36821-0.11792-0.92526 0.95548
   5  -3  -1 -8.9845 18.9784   5 0.67028-0.31953 0.28687-0.53732 0.79454-0.82541
  -5  -3   1 54.3111 34.5452   9 0.10161-0.45196-0.15598-0.09470 0.98469-0.95422
   5   3  -1 40.5716 17.3485   6-0.27660 0.62754 0.45226-0.20161-0.88407 0.85336
   5   3  -1 78.6256 35.8278   5 0.41786-0.06678 0.14814 0.10289 0.95723-0.98813
   5  -3  -1 28.9589 30.6217   4-0.10745 0.45879-0.16492-0.08597-0.98364 0.95291
   5  -3  -1 4.17690 31.8776   8 0.42432-0.07340-0.13619-0.11429 0.95732-0.98761
  -5   3   1 14.2050 24.5545   1 0.12998-0.48076 0.20114 0.04996 0.97835-0.94809
   5   3  -1 51.4890 29.4778   8 0.64866-0.29727-0.24338 0.49416 0.82680-0.85740
  -5  -3   1 20.9425 24.9223   3-0.39408 0.04305-0.18114-0.06956-0.95753 0.98795
  -5   3   1 47.5996 34.2500   7-0.45956 0.10884 0.08328 0.16767-0.95291 0.98329
   5   3  -1 45.9119 44.5683   2 0.37188-0.02108 0.21269 0.03799 0.95600-0.98633
  -5  -3   1 61.4601 34.2719   7-0.57891 0.22836 0.11298-0.36392-0.89911 0.92950
   4   3  -1 525.362 59.0937   6-0.20334 0.48083 0.15298 0.09810-0.98795 0.94402
  -4   3   1 579.448 95.0816   6-0.25529-0.02180 0.35681-0.10651-0.93006 0.97366
  -4  -3   1 575.773 96.8330   9 0.13858-0.41530-0.07281-0.17778 0.99644-0.95262
  -4   3   1 567.405 52.7366   9 0.25924-0.53592 0.22440 0.02616 0.97078-0.92704
   4  -3  -1 568.716 99.2617   8 0.44248-0.16520-0.14466-0.10589 0.95061-0.99424
  -4   3   1 484.565 83.1344   1 0.14679-0.42391 0.08358 0.16743 0.99590-0.95222
   4  -3  -1 507.754 91.3996   4-0.13752 0.41517-0.07160-0.17953-0.99646 0.95237
  -4  -3   1 655.795 93.9926   7-0.64571 0.36887 0.12994-0.38081-0.85706 0.90077
  -4   3   1 524.770 91.9569   7-0.48684 0.20994 0.09001 0.16087-0.94272 0.98644
   3   3  -1 623.004 75.3957   6-0.15028 0.35396-0.02965 0.28095-0.99906 0.94141
  -3   3   1 675.259 96.4893   6-0.25606 0.05269 0.36007-0.10981-0.92871 0.98568
  -3  -3   1 733.301 105.550   9 0.17357-0.37666 0.00897-0.25948 0.99993-0.94277
   3  -3  -1 608.535 97.7952   8 0.48174-0.27812-0.16306-0.08756 0.93410-0.99110
   3   3  -1 655.084 93.4615   5 0.47028-0.26651 0.17614 0.07485 0.93566-0.99333
  -3  -3   1 627.912 56.3927   8 0.23963-0.44350-0.05168-0.19924 0.99687-0.93974
  -3  -3   1 689.621 93.1048   4 0.04600-0.24962-0.57512 0.32477-0.79481 0.85184
  -3  -3   1 568.712 93.3736   3-0.43061 0.22725-0.21117-0.03951-0.94097 0.99812
   3  -3  -1 734.394 106.197   4-0.16460 0.36847 0.01680-0.26812-0.99972 0.94223
  -3   3   1 649.920 89.5067   7-0.54252 0.33939 0.10386 0.14695-0.91815 0.97521
  -3   3   1 672.469 95.2403   1 0.15979-0.36324-0.02018 0.27114 0.99956-0.94249
   2   3  -1 7906.96 295.390   5 0.53702-0.40692 0.21233 0.03866 0.90020-0.97130
  -2   3   1 7462.71 318.394   1 0.16946-0.29924-0.10832 0.35924 0.99407-0.92363
   2   3  -1 7464.63 321.748   2 0.42967-0.29984 0.28143-0.03059 0.92164-0.99205
   2   3  -1 7745.04 285.729   6-0.11576 0.24567-0.13883 0.39027-0.98819 0.91709
  -2   3   1 7970.03 332.127   6-0.26073 0.13108 0.38029-0.13006-0.91998 0.99030
   2  -3  -1 7770.58 313.775   8 0.55476-0.42484-0.19775-0.05295 0.89538-0.96575
  -2  -3   1 7926.37 335.219   9 0.20615-0.33564 0.08811-0.33856 0.99576-0.92527
   2  -3  -1 8491.26 303.689   9-0.09166 0.22120-0.54298 0.29212 0.80436-0.87498
  -2  -3   1 7233.11 301.712   3-0.47793 0.34837-0.25071 0.00005-0.91451 0.98498
  -2  -3   1 8518.06 329.415   4 0.02086-0.15086-0.51494 0.26464-0.83891 0.90931
   2   3  -1 8184.47 204.578   7-0.47129 0.60089 0.08617 0.16477-0.94866 0.87811
   2  -3  -1 7973.82 334.216   4-0.18835 0.31843 0.09837-0.34986-0.99513 0.92421
  -2   3   1 8608.97 311.192   7-0.64575 0.51635 0.12995 0.12076-0.85703 0.92736
   1   3  -1 1019.20 108.549   2 0.48333-0.42720 0.34758-0.09670 0.87773-0.96150
   1   3  -1 969.632 108.380   6-0.09498 0.15109-0.20147 0.45301-0.97591 0.89137
  -1   3   1 1087.69 118.680   6-0.26959 0.21366 0.41979-0.16961-0.90124 0.98489
  -1  -3   1 1003.70 105.087   3-0.55634 0.50053-0.31811 0.06747-0.85574 0.93951
   1  -3  -1 1123.54 116.040   9-0.06542 0.12129-0.49503 0.24414 0.84027-0.92423
   1   3  -1 1231.35 126.214   5 0.65075-0.59439 0.27570-0.02474 0.81367-0.89823
  -1  -3   1 1054.80 119.020   4 0.00890-0.06524-0.48537 0.23512-0.85809 0.94184
  -1  -3   1 1004.69 115.074   9 0.23581-0.29172 0.16300-0.41341 0.98488-0.90108
   0  -3   1 29.2457 20.0159   9 0.26197-0.24430 0.23169-0.48206 0.96879-0.87166
   0   3  -1 3.38340 12.8377   2 0.56071-0.57829 0.44844-0.19752 0.78610-0.88324
   0  -3  -1 26.0688 18.7669   4-0.22489 0.20726 0.23274-0.48442-0.97131 0.87349
   0   3  -1 71.8069 34.0684   6-0.08459 0.06685-0.23202 0.48361-0.96827 0.87032
   0  -3  -1 48.1848 23.6124   9-0.05490 0.03711-0.47540 0.22448 0.85362-0.95094
   0   3   1 30.1744 13.5666   6-0.28246 0.30022 0.48044-0.23034-0.86782 0.96477
   0  -3   1 41.1369 20.3407   4 0.00621 0.01113-0.47862 0.22844-0.86226 0.95935
  -1   3  -1 6538.15 313.038   6-0.08209-0.00949-0.23928 0.49090-0.96629 0.85493
   1   3   1 6377.48 294.852   1 0.18368-0.09236-0.26709 0.51805 0.96367-0.85308
   1   3   1 6692.69 302.147   6-0.29828 0.38968 0.56264-0.31260-0.81240 0.92261
  -1  -3  -1 6437.37 311.758   9-0.05487-0.03657-0.47534 0.22439 0.85366-0.96434
   1  -3   1 6383.25 277.850   9 0.28398-0.19276 0.29172-0.54207 0.94968-0.83923
  -1  -3  -1 6210.75 282.870   4-0.23719 0.14568 0.28104-0.53277-0.95756 0.84631
  -2   3  -1 1269.98 146.009   6-0.08568-0.07974-0.22883 0.48048-0.96912 0.84438
  -2  -3  -1 1379.97 153.788   9-0.06219-0.10290-0.48903 0.23803 0.84443-0.96848
   2   3   1 1253.18 133.143   1 0.18483-0.01975-0.28237 0.53335 0.95928-0.83531
   2  -3   1 1230.94 131.729   8-0.11412 0.27861 0.10356-0.35404 0.95098-0.82742
   2  -3   1 1359.31 125.602   9 0.30115-0.13636 0.34024-0.59058 0.93059-0.80682
  -2   3  -1 1185.03 121.645   7 0.16951-0.33525-0.06510 0.31660-0.93634 0.81182
  -2  -3  -1 1294.46 129.789   4-0.24519 0.07979 0.31347-0.56522-0.94670 0.82202
   2  -3   1 1424.73 157.488   4 0.01971 0.14500-0.51213 0.26212-0.84080 0.96452
  -3   3  -1 2025.56 191.656   6-0.09403-0.14521-0.20429 0.45594-0.97526 0.83714
   3   3   1 2105.26 173.749   1 0.18447 0.05437-0.27757 0.52857 0.96069-0.82333
   3  -3   1 2151.56 153.461   9 0.31268-0.07431 0.37376-0.62412 0.91539-0.77828
  -3  -3  -1 2033.85 196.095   9-0.07487-0.16388-0.51246 0.26142 0.82777-0.96520
   3  -3   1 2051.39 189.417   8-0.04917 0.28725 0.07566-0.32609 0.97049-0.83360
  -3   3  -1 2025.44 181.544   7 0.08088-0.32044-0.04491 0.29641-0.96454 0.82666
   3  -3   1 2068.20 201.894   4 0.03317 0.20521-0.54476 0.29486-0.81796 0.95494
  -3  -3  -1 2454.62 196.679   7 0.19595-0.43529-0.07108-0.17995-0.92630 0.78862
  -3  -3  -1 2231.65 170.102   4-0.24847 0.00922 0.32703-0.57879-0.94175 0.80367
  -4   3  -1 -27.118 30.7767   6-0.10616-0.20689-0.16805 0.41970-0.98303 0.83156
  -4  -3  -1 17.0477 13.3773   4-0.24619-0.06689 0.31759-0.56933-0.94522 0.79377
  -4  -3  -1 75.6484 39.6004   9-0.09156-0.22083-0.54280 0.29171 0.80451-0.95532
   4  -3   1 36.7703 36.7306   8 0.00696 0.30474 0.05134-0.30172 0.98336-0.83313
   4   3   1 48.9497 27.8021   8-0.11402 0.42577 0.10352 0.14704 0.95101-0.80085
   4   3   1 78.8862 39.9470   1 0.18245 0.13016-0.25121 0.50221 0.96794-0.81720
  -4  -3  -1 41.4689 26.0145   7 0.06683-0.37996-0.04168-0.20930-0.96825 0.81723
  -4   3  -1 13.8590 17.9940   7 0.01079-0.32418-0.02877 0.28029-0.98101 0.82974
   4  -3   1 84.0300 46.5254   4 0.04992 0.26212-0.58428 0.33447-0.78746 0.93769
   5   3   1 638.433 93.9358   1 0.17824 0.20818-0.20051 0.45149 0.97972-0.81560
  -5   3  -1 690.852 121.873   6-0.12131-0.26553-0.12173 0.37334-0.99077 0.82597
  -5  -3  -1 678.549 115.048   7-0.02593-0.36099-0.02026-0.23069-0.98760 0.82321
   5   3   1 718.003 109.050   8 0.00515 0.38026 0.05213 0.19846 0.98301-0.81946
   5  -3   1 681.825 139.036   8 0.05793 0.32738 0.02908-0.27941 0.99186-0.82829
  -5   3  -1 873.651 152.762   7-0.04920-0.33798-0.01485 0.26639-0.99105 0.82640
  -5  -3  -1 606.457 81.4600   4-0.23642-0.15043 0.27796-0.52967-0.95852 0.79373
   6   3   1 1466.22 134.601   1 0.17068 0.28957-0.12025 0.37116 0.99272-0.81520
  -6   3  -1 1531.75 187.791   6-0.13891-0.32167-0.06636 0.31792-0.99688 0.81874
   6  -3   1 1706.07 234.264   8 0.10563 0.35329 0.00809-0.25839 0.99704-0.82015
   6   3   1 1629.39 179.599   8 0.09395 0.36511 0.01324 0.23736 0.99602-0.81913
  -6  -3  -1 1510.46 187.876   7-0.09997-0.36072-0.00299-0.24794-0.99662 0.81886
  -6   3  -1 1336.70 210.560   7-0.10316-0.35783-0.00224 0.25380-0.99688 0.81884
  -7   3  -1 1391.77 192.129   6-0.15855-0.37576-0.00245 0.25397-0.99973 0.80832
   7   3   1 1187.61 169.241   8 0.16637 0.36635-0.01885 0.26945 0.99971-0.80948
   7  -3   1 1237.50 225.778   8 0.15116 0.38138-0.01208-0.23818 0.99946-0.80924
  -7   3  -1 1385.65 236.666   7-0.15323-0.38156 0.00953 0.24203-0.99955 0.80811
  -7  -3  -1 1302.49 194.107   7-0.16334-0.37111 0.01192-0.26284-0.99977 0.80862
  -8   3  -1 43.3312 35.8895   6-0.17970-0.42822 0.06911 0.18230-0.99762 0.79277
  -8  -3  -1 208.045 64.6593   7-0.22013-0.38808 0.02538-0.27629-0.99889 0.79436
   8  -3   1 74.4794 93.0644   8 0.19516 0.41100-0.03170-0.21853 0.99940-0.79585
   8   3   1 160.861 84.7017   8 0.22914 0.37724-0.04694 0.29755 0.99770-0.79414
  -8   3  -1 51.1965 44.4002   7-0.20065-0.40792 0.02075 0.23082-0.99959 0.79474
   9   3   1 693.261 213.235   2 0.23543 0.44460 0.05828 0.19207 0.99674-0.77983
   9  -3   1 593.879 202.069   8 0.23806 0.44173-0.05096-0.19924 0.99701-0.78015
  -9   3  -1 329.712 145.328   7-0.24621-0.43615 0.03158 0.21998-0.99729 0.77902
  -9  -3  -1 144.233 90.1934   7-0.27258-0.40937 0.03789-0.28881-0.99488 0.77694
  10   3   1 227.789 185.225   2 0.27100 0.48265 0.09762 0.15273 0.99086-0.76063
  10  -3   1 36.5844 127.870   8 0.28014 0.47328-0.06998-0.18020 0.99234-0.76217
 -10  -3  -1 -81.992 91.4346   7-0.32205-0.43364 0.04978-0.30070-0.98814 0.75678
 -10   3  -1 -39.204 72.9414   7-0.29040-0.46573 0.04217 0.20941-0.99279 0.76109
 -10  -3  -1 45.9956 89.8941   3-0.27569-0.48058-0.08631-0.16473-0.99147 0.75997
  12   4  -1 -7.8643 51.3452   2 0.46720 0.39899 0.32741 0.00672 0.89233-0.82941
  11  -4  -1 144.615 84.3006   8 0.50200 0.29066-0.17263-0.16113 0.92445-0.87482
  11   4  -1 172.982 96.8169   5 0.49571 0.29729 0.18985 0.14494 0.92328-0.87421
  11   4  -1 221.762 120.065   2 0.44668 0.34588 0.30212 0.03201 0.90912-0.85950
 -11  -4   1 194.627 119.817   3-0.47158-0.32247-0.24536-0.08888-0.91842 0.86834
 -11   4   1 243.338 108.456   7-0.53152-0.26203 0.10111 0.23379-0.92343 0.87326
  10   4  -1 160.095 85.4259   5 0.47580 0.24356 0.17911 0.15563 0.93308-0.89732
 -10  -4   1 -1.1074 42.9163   3-0.45201-0.26820-0.22895-0.10532-0.92975 0.89312
  10  -4  -1 75.8005 96.0581   8 0.48209 0.23695-0.16323-0.17056 0.93394-0.89760
  10   4  -1 0.77044 34.7966   2 0.42790 0.29102 0.27929 0.05485 0.92288-0.88657
 -10   4   1 -56.036 72.1423   7-0.51237-0.20736 0.09634 0.23853-0.93211 0.89539
   9   4  -1 1759.86 252.508   2 0.41130 0.23401 0.25933 0.07482 0.93387-0.91088
  -9  -4   1 1558.89 239.374   3-0.43488-0.21150-0.21470-0.11961-0.93883 0.91564
   9   4  -1 1629.08 236.323   5 0.45860 0.18711 0.16987 0.16482 0.94091-0.91847
   9  -4  -1 1651.57 258.995   8 0.46497 0.18046-0.15519-0.17865 0.94149-0.91846
  -9   4   1 1678.88 248.441   7-0.49645-0.14947 0.09239 0.24244-0.93884 0.91557
  -9  -4   1 2107.74 276.411   7-0.59474-0.05072 0.11698-0.45166-0.89002 0.86686
  -9  -4   1 1935.62 270.396   9-0.04667-0.59830-0.45987 0.12528 0.86368-0.88679
  -8   4   1 347.278 104.233   7-0.48483-0.08728 0.08951 0.24529-0.94351 0.93366
  -8   4   1 370.064 101.090   6-0.27469-0.29724 0.44330-0.10950-0.88897 0.87892
  -8  -4   1 417.447 107.447   9-0.00998-0.56132-0.38893 0.05443 0.90420-0.91389
   8  -4  -1 421.945 115.160   4-0.01218 0.58445-0.43172 0.09790-0.88913 0.89809
   8   4  -1 407.817 119.323   5 0.44491 0.12717 0.16254 0.17210 0.94674-0.93762
   8  -4  -1 235.278 91.9167   8 0.45149 0.12031-0.14887-0.18500 0.94706-0.93735
  -8  -4   1 239.345 90.9016   3-0.42081-0.15171-0.20307-0.13126-0.94573 0.93596
   8   4  -1 367.720 107.712   2 0.39741 0.17427 0.24277 0.09139 0.94229-0.93262
  -8  -4   1 299.230 81.8027   7-0.59293 0.02124 0.11652-0.45116-0.89109 0.88132
   7   4  -1 1525.30 207.847   2 0.38691 0.11113 0.23036 0.10383 0.94819-0.95186
  -7   4   1 2058.00 219.549   6-0.26626-0.23200 0.40474-0.07090-0.90864 0.91201
   7   4  -1 1758.62 226.332   5 0.43582 0.06262 0.15769 0.17691 0.95041-0.95463
   7  -4  -1 1798.42 212.615   4-0.04359 0.54225-0.34823 0.01416-0.92873 0.92448
   7  -4  -1 1873.13 243.869   8 0.44281 0.05536-0.14482-0.18911 0.95048-0.95409
  -7  -4   1 1736.59 225.001   3-0.41071-0.08797-0.19476-0.13961-0.95039 0.95402
  -7  -4   1 1790.08 212.197   9 0.02527-0.52291-0.31817-0.01623 0.93662-0.93291
  -7   4   1 1869.70 225.732   7-0.47900-0.01929 0.08807 0.24668-0.94576 0.94932
  -7  -4   1 2093.28 225.003   7-0.60167 0.10372 0.11873-0.45332-0.88588 0.88950
   6  -4  -1 663.099 122.989   4-0.07270 0.49771-0.26701-0.06730-0.95817 0.94064
  -6   4   1 820.592 130.045   6-0.25946-0.16510 0.37481-0.04092-0.92240 0.93917
  -6  -4   1 692.949 128.378   9 0.05893-0.48291-0.24820-0.08611 0.96162-0.94452
   6   4  -1 639.629 126.209   5 0.43293-0.00813 0.15615 0.17841 0.95155-0.96912
   6  -4  -1 672.793 137.173   8 0.44066-0.01612-0.14380-0.19017 0.95131-0.96825
  -6  -4   1 714.898 142.236   3-0.40577-0.01907-0.19069-0.14368-0.95258 0.96961
  -6  -4   1 906.136 135.404   7-0.62638 0.20217 0.12501-0.45953-0.87025 0.88724
   6   4  -1 748.111 143.795   2 0.38075 0.04367 0.22309 0.11114 0.95148-0.96849
  -6   4   1 712.821 129.818   7-0.48131 0.05683 0.08864 0.24605-0.94488 0.96182
  -5  -4   1 24.3393 22.6053   7-0.67626 0.32575 0.13779-0.47224-0.83429 0.86463
  -5  -4   1 34.0704 53.2592   9 0.09082-0.44118-0.17967-0.15455 0.97979-0.94932
   5  -4  -1 1.43121 27.4909   4-0.09939 0.45071-0.18909-0.14546-0.97872 0.94787
  -5   4   1 38.4525 34.3135   6-0.25471-0.09614 0.35437-0.02047-0.93107 0.96124
   5   4  -1 33.8351 19.1403   6-0.26222 0.61330 0.38684-0.05254-0.91702 0.88623
   5   4  -1 133.816 62.4066   5 0.43859-0.08743 0.15918 0.17537 0.94931-0.98024
   5  -4  -1 27.3513 25.9268   8 0.44761-0.09670-0.14705-0.18700 0.94861-0.97889
  -5  -4   1 54.8365 41.2027   3-0.40768 0.05670-0.19227-0.14210-0.95174 0.98215
   5   4  -1 37.5123 29.9773   2 0.38011-0.02934 0.22236 0.11191 0.95181-0.98216
  -5   4   1 22.2462 45.0514   7-0.49539 0.14472 0.09212 0.24250-0.93928 0.96960
   4   4  -1 1118.88 153.516   2 0.38671-0.10958 0.23012 0.10420 0.94830-0.99200
   4   4  -1 989.933 102.427   6-0.21650 0.49399 0.20176 0.13288-0.97866 0.93455
  -4   4   1 987.362 139.619   6-0.25240-0.02473 0.34455-0.01065-0.93503 0.97859
   4   4  -1 965.584 133.531   5 0.45642-0.17889 0.16870 0.16583 0.94186-0.98618
  -4  -4   1 1022.84 148.576   9 0.12073-0.39746-0.11337-0.22075 0.99175-0.94793
  -4  -4   1 1109.82 148.882   3-0.41891 0.14176-0.20150-0.13285-0.94663 0.99041
  -4  -4   1 1298.23 144.348   4 0.04218-0.31956-0.56617 0.23225-0.80184 0.84548
   4  -4  -1 1036.49 147.177   8 0.46764-0.19039-0.15644-0.17768 0.94035-0.98399
   4  -4  -1 1044.66 147.409   4-0.12343 0.40107-0.11592-0.21888-0.99159 0.94752
  -4   4   1 1106.73 138.667   7-0.52718 0.25033 0.10003 0.23451-0.92545 0.96911
   3  -4  -1 208.037 53.8585   9-0.08797 0.29114-0.53633 0.20189 0.80963-0.86689
  -3  -4   1 183.416 61.8315   9 0.14837-0.35149-0.05024-0.28381 0.99819-0.94103
  -3   4   1 207.444 27.1744   2 0.36773-0.57150 0.20785 0.12669 0.95802-0.90095
   3  -4  -1 160.842 57.6447   4-0.14489 0.34874-0.04796-0.28702-0.99817 0.94067
   3   4  -1 205.591 56.4961   6-0.18028 0.38397 0.07110 0.26376-0.99748 0.93978
  -3   4   1 212.496 68.2932   6-0.25291 0.04952 0.34667-0.01281-0.93418 0.99112
   3  -4  -1 188.147 67.5620   8 0.50715-0.30356-0.17507-0.15914 0.92187-0.97887
  -3  -4   1 162.046 55.9096   3-0.44300 0.23968-0.22144-0.11289-0.93462 0.99176
  -3  -4   1 213.273 58.9024   4 0.01454-0.21829-0.49939 0.16549-0.84919 0.90622
  -3   4   1 144.811 43.0526   7-0.58671 0.38363 0.11495 0.21949-0.89469 0.95167
   2   4  -1 655.842 96.9440   6-0.15399 0.28391-0.01751 0.35255-0.99946 0.92832
  -2   4   1 779.737 121.315   6-0.25657 0.12692 0.36226-0.02843-0.92779 0.99809
   2   4  -1 700.292 49.5352   7-0.27709 0.40672 0.03898 0.29573-0.99438 0.92373
  -2  -4   1 613.479 100.091   4-0.00135-0.12875-0.45951 0.12564-0.87363 0.94403
  -2  -4   1 614.783 98.2216   3-0.48503 0.35552-0.25671-0.07759-0.91001 0.98047
  -2  -4   1 658.829 109.641   9 0.17341-0.30294 0.00861-0.34260 0.99993-0.92943
   2  -4  -1 699.969 97.0316   9-0.05664 0.18613-0.47866 0.14420 0.85146-0.92206
   2   4  -1 662.258 93.6977   5 0.55419-0.42399 0.22174 0.11280 0.88945-0.96060
   2  -4  -1 641.967 95.0822   8 0.57619-0.44631-0.20805-0.12625 0.88178-0.95214
  -2   4   1 900.518 116.566   7-0.68987 0.56051 0.14131 0.19302-0.82333 0.89358
   1   4  -1 6917.18 314.952   2 0.47546-0.41936 0.33770-0.00321 0.88502-0.96880
   1   4  -1 6153.91 309.186   6-0.13624 0.19236-0.07485 0.41000-0.99616 0.91161
  -1   4   1 6573.63 336.813   6-0.26359 0.20768 0.39288-0.05912-0.91425 0.99789
  -1  -4   1 6253.69 290.387   3-0.55160 0.49585-0.31395-0.02029-0.85991 0.94368
  -1  -4   1 6453.70 333.011   9 0.19548-0.25141 0.06186-0.39580 0.99797-0.91413
   1  -4  -1 6281.61 307.475   9-0.04037 0.09620-0.44789 0.11342 0.87113-0.95507
  -1  -4   1 6635.33 334.466   4-0.00869-0.04773-0.44073 0.10690-0.88423 0.96800
   1   4  -1 6379.17 326.111   5 0.65474-0.59829 0.27797 0.05656 0.80988-0.89451
   0  -4   1 299.361 79.0572   9 0.21408-0.19644 0.10787-0.44179 0.99355-0.89639
   0   4  -1 388.823 86.5378   6-0.12572 0.10800-0.10803 0.44326-0.99260 0.89463
   0   4   1 359.267 83.0139   6-0.27397 0.29177 0.43994-0.10626-0.89078 0.98773
   0  -4  -1 289.426 76.5064   4-0.19108 0.17341 0.10798-0.44334-0.99411 0.89635
   0   4  -1 335.239 74.0280   2 0.53834-0.55595 0.41845-0.08390 0.81690-0.91404
   0  -4  -1 415.165 92.9899   9-0.03456 0.01673-0.43675 0.10226 0.87782-0.97512
   0  -4   1 258.682 52.8394   8-0.09766 0.11491 0.09651-0.43069 0.95640-0.85943
   0   4  -1 239.037 41.9649   7 0.24393-0.26194-0.08188 0.41708-0.90609 0.80834
   0  -4  -1 218.038 38.7589   7-0.49535 0.47746 0.09211-0.42628-0.93930 0.84221
   0  -4   1 196.803 65.2749   4-0.00950 0.02678-0.43865 0.10489-0.88537 0.98249
  -1   4  -1 12.5419 32.7557   6-0.12118 0.02963-0.12212 0.45740-0.99072 0.87934
   1   4   1 8.84395 14.8978   1 0.17191-0.08063-0.13256 0.46713 0.99116-0.88060
  -1  -4  -1 -8.8717 29.6132   4-0.19969 0.10817 0.13877-0.47419-0.99013 0.87896
   1   4   1 14.4182 17.8993   6-0.28725 0.37875 0.50429-0.17070-0.85302 0.96324
  -1  -4  -1 -9.1486 31.1180   9-0.03635-0.05511-0.44019 0.10566 0.87578-0.98643
   1  -4   1 -3.9242 30.7801   8-0.05217 0.14304 0.07696-0.41106 0.96970-0.85941
   1   4   1 17.7706 11.6198   8 0.53418-0.44281-0.18791 0.52222 0.90744-0.79712
   1  -4   1 6.17541 22.6761   9 0.22867-0.13744 0.14471-0.47861 0.98817-0.87768
  -1   4  -1 14.5930 13.8179   7 0.12597-0.21783-0.05521 0.39041-0.95124 0.84014
  -2   4  -1 -5.0082 19.3928   6-0.12162-0.04376-0.12075 0.45606-0.99091 0.86615
  -2  -4  -1 -10.428 16.6086   9-0.04388-0.12121-0.45458 0.12001 0.86700-0.99101
  -2  -4  -1 -24.775 31.5053   4-0.20436 0.03898 0.15576-0.49120-0.98748 0.86290
   2   4   1 -2.7507 15.6923   6-0.30230 0.46744 0.58550-0.25200-0.79463 0.91809
   2  -4   1 21.8094 20.5588   8-0.01015 0.17463 0.05877-0.39282 0.97983-0.85621
   2   4   1 17.0687 27.3252   1 0.17285-0.00783-0.14223 0.47683 0.98983-0.86589
   2  -4   1 -15.845 22.6173   9 0.23846-0.07366 0.16987-0.50375 0.98354-0.85972
  -2  -4  -1 -2.6511 14.3361   7 0.28919-0.45459-0.09200-0.24278-0.88462 0.76040
  -2   4  -1 -32.073 24.8334   7 0.05129-0.21697-0.03811 0.37333-0.97212 0.84764
   2  -4   1 0.80525 22.8501   4 0.00345 0.16126-0.47167 0.13808-0.86646 0.99023
  -3   4  -1 2676.14 245.902   6-0.12620-0.11301-0.10653 0.44184-0.99279 0.85465
   3   4   1 2488.62 213.068   1 0.17221 0.06657-0.13568 0.47028 0.99075-0.85342
  -3  -4  -1 2908.28 257.884   9-0.05588-0.18285-0.47724 0.14262 0.85241-0.98979
   3  -4   1 2586.04 185.772   9 0.24236-0.00396 0.17997-0.51385 0.98146-0.84430
   3  -4   1 2662.83 230.164   8 0.03030 0.20779 0.04117-0.37515 0.98763-0.85068
   3  -4   1 2765.46 259.505   4 0.01552 0.22289-0.50180 0.16832-0.84763 0.98467
  -3  -4  -1 2457.65 150.735   7 0.09191-0.33114-0.04743-0.28725-0.96149 0.82391
  -3   4  -1 2570.51 213.790   7-0.00735-0.23215-0.02457 0.35981-0.98444 0.84657
  -3  -4  -1 2553.39 199.906   4-0.20450-0.03469 0.15629-0.49174-0.98739 0.84942
   4  -4   1 122.190 42.7454   9 0.23847 0.07353 0.16991-0.50380 0.98353-0.83302
  -4   4  -1 103.782 53.5952   6-0.13420-0.17882-0.08136 0.41667-0.99556 0.84405
  -4  -4  -1 117.139 43.0290   4-0.19910-0.11390 0.13667-0.47209-0.99044 0.83910
   4   4   1 78.9423 32.4439   8-0.02558 0.33744 0.06547 0.26856 0.97635-0.82614
   4  -4   1 48.7720 42.1216   8 0.06992 0.24180 0.02382-0.35775 0.99342-0.84314
  -4  -4  -1 30.1756 23.2488   9-0.07142-0.24094-0.50613 0.17147 0.83238-0.98315
   4   4   1 92.6308 44.9480   1 0.16980 0.14277-0.11162 0.44622 0.99371-0.84301
  -4  -4  -1 113.301 39.4952   7-0.02121-0.29180-0.02136-0.31326-0.98683 0.83590
  -4   4  -1 120.329 51.9997   7-0.05847-0.25485-0.01269 0.34795-0.99227 0.84101
   4  -4   1 186.931 76.8241   4 0.03053 0.28156-0.53843 0.20506-0.82255 0.97285
   5  -4   1 5759.07 248.329   9 0.22315 0.16248 0.13070-0.46461 0.99041-0.82653
  -5   4  -1 5484.05 378.203   6-0.14505-0.24174-0.04661 0.38188-0.99824 0.83338
  -5  -4  -1 5581.98 404.046   9-0.08984-0.29618-0.53969 0.20499 0.80698-0.97114
   5   4   1 5468.00 259.848   8 0.09018 0.29535 0.01490 0.31916 0.99566-0.83208
   5   4   1 5531.93 305.290   1 0.16520 0.22118-0.06809 0.40267 0.99756-0.83347
   5  -4   1 5604.28 397.456   8 0.10901 0.27632 0.00660-0.34048 0.99731-0.83370
   5  -4   1 5557.13 395.719   4 0.04807 0.33769-0.57998 0.24673-0.79094 0.95447
  -5  -4  -1 5230.75 290.829   7-0.10118-0.28560-0.00271-0.33189-0.99672 0.83242
  -5   4  -1 5172.22 364.594   7-0.10549-0.28164-0.00170 0.33697-0.99707 0.83241
  -5  -4  -1 5864.72 280.364   4-0.18622-0.20052 0.09090-0.42626-0.99586 0.83119
  -6   4  -1 55.1418 36.2307   6-0.15835-0.30222-0.00312 0.33837-0.99972 0.82156
  -6  -4  -1 15.4678 22.8632   9-0.11061-0.34906-0.57665 0.24189 0.77609-0.95366
   6   4   1 119.837 44.9369   8 0.17226 0.28696-0.02147 0.35554 0.99973-0.82281
   6  -4   1 177.295 79.1884   8 0.14781 0.31114-0.01059-0.32324 0.99937-0.82244
   6   4   1 200.857 61.6928   1 0.15762 0.30259-0.00185 0.33636 0.99971-0.82221
  -6  -4  -1 173.059 62.1225   7-0.16564-0.29489 0.01246-0.34705-0.99980 0.82212
  -6   4  -1 227.722 79.7494   7-0.15004-0.31089 0.00878 0.32652-0.99946 0.82140
  -7   4  -1 637.581 143.717   6-0.17359-0.36070 0.04809 0.28706-0.99882 0.80727
   7  -4   1 708.960 174.968   8 0.18638 0.34619-0.02778-0.30602 0.99960-0.80936
  -7   4  -1 761.150 166.355   7-0.19299-0.34174 0.01893 0.31638-0.99975 0.80828
  -7  -4  -1 534.590 119.893   7-0.22177-0.31251 0.02577-0.36035-0.99881 0.80775
  -8   4  -1 0.80782 47.0032   6-0.19048-0.41746 0.10679 0.22825-0.99424 0.78928
   8   4   1 29.1350 84.0947   2 0.22431 0.38207 0.04611 0.28783 0.99795-0.79439
   8  -4   1 -20.351 74.7695   8 0.22482 0.38138-0.04500-0.28875 0.99800-0.79443
  -8   4  -1 33.7126 49.1487   7-0.23486-0.37367 0.02889 0.30643-0.99808 0.79319
  -8  -4  -1 69.6874 68.8012   7-0.27296-0.33508 0.03798-0.37256-0.99484 0.79037
   9   4   1 1994.60 325.389   2 0.25467 0.42535 0.07948 0.25444 0.99394-0.77706
   9  -4   1 1939.34 331.023   8 0.26315 0.41667-0.06229-0.27144 0.99450-0.77763
  -9   4  -1 972.980 213.450   7-0.27594-0.40636 0.03870 0.29663-0.99451 0.77620
  -9  -4  -1 140.691 103.935   7-0.32098-0.36079 0.04952-0.38411-0.98832 0.77044
  -9  -4  -1 826.485 218.974   3-0.25877-0.42366-0.07303-0.26179-0.99412 0.77603
  10   4   1 -40.845 86.0472   2 0.28596 0.46769 0.11434 0.21957 0.98745-0.75725
  10  -4   1 -77.800 116.392   8 0.30140 0.45205-0.07965-0.25405 0.98907-0.75890
 -10  -4  -1 -146.65 164.899   3-0.29323-0.46302-0.10013-0.23462-0.98817 0.75666
  11   5  -1 174.437 131.756   2 0.45110 0.34144 0.30753 0.11015 0.90566-0.85608
 -11   5   1 40.5917 83.4562   7-0.55539-0.23812 0.10707 0.31157-0.91171 0.86145
  10   5  -1 176.403 91.0329   5 0.49215 0.22726 0.18793 0.23029 0.92509-0.88937
 -10  -5   1 155.276 85.4317   3-0.46276-0.25743-0.23795-0.18004-0.92366 0.88700
  10   5  -1 250.279 125.259   2 0.43407 0.28484 0.28676 0.13094 0.91852-0.88224
  10  -5  -1 160.057 147.477   8 0.50022 0.21883-0.17179-0.24553 0.92533-0.88901
 -10   5   1 137.085 83.3564   7-0.53877-0.18093 0.10292 0.31569-0.91998 0.88318
  -9  -5   1 213.113 101.205   9-0.04146-0.60346-0.44997 0.03185 0.86985-0.89296
   9   5  -1 217.691 100.115   5 0.47714 0.16864 0.17983 0.23833 0.93245-0.91005
   9  -5  -1 359.553 133.488   8 0.48541 0.16002-0.16480-0.25257 0.93241-0.90940
  -9  -5   1 239.910 98.9671   3-0.44756-0.19878-0.22524-0.19278-0.93218 0.90897
   9   5  -1 149.576 70.7003   2 0.41926 0.22602 0.26887 0.14885 0.92873-0.90578
  -9   5   1 206.935 84.7510   7-0.52575-0.12012 0.09967 0.31889-0.92611 0.90275
  -8  -5   1 60.1447 51.7565   3-0.43551-0.13698-0.21522-0.20282-0.93851 0.92872
  -8   5   1 94.0783 62.7530   6-0.27264-0.29940 0.43378-0.01637-0.89404 0.88391
  -8  -5   1 42.0993 50.2076   9-0.00917-0.56210-0.38733-0.03069 0.90501-0.91470
   8   5  -1 159.152 79.3093   5 0.46582 0.10633 0.17375 0.24438 0.93769-0.92862
   8  -5  -1 91.1995 81.5316   8 0.47446 0.09735-0.15964-0.25779 0.93737-0.92767
   8   5  -1 -68.679 30.7778   2 0.40714 0.16451 0.25436 0.16339 0.93647-0.92683
  -8   5   1 -3.7972 37.6232   7-0.51745-0.05459 0.09761 0.32090-0.92986 0.91993
   8  -5  -1 -29.112 58.1294   4-0.01523 0.58759-0.42380 0.00630-0.89332 0.90225
  -7  -5   1 61.9667 42.8875   9 0.02150-0.51912-0.32586-0.09206 0.93346-0.92974
  -7   5   1 146.029 81.6959   6-0.26531-0.23304 0.40050 0.01695-0.91067 0.91396
   7   5  -1 169.953 89.2284   5 0.45927 0.03925 0.17024 0.24786 0.94062-0.94488
   7  -5  -1 137.402 75.9130   8 0.46854 0.02964-0.15686-0.26063 0.93996-0.94358
  -7  -5   1 120.768 76.4890   3-0.42742-0.07121-0.20853-0.20952-0.94255 0.94617
   7   5  -1 122.759 80.7430   2 0.39836 0.09967 0.24389 0.17388 0.94174-0.94543
  -7   5   1 122.590 72.8006   7-0.51549 0.01727 0.09712 0.32133-0.93073 0.93420
   7  -5  -1 114.867 63.2292   4-0.04211 0.54082-0.35226-0.06548-0.92704 0.92274
   6  -5  -1 359.720 106.336   4-0.06682 0.49184-0.28375-0.13423-0.95279 0.93521
  -6  -5   1 445.531 116.548   9 0.05041-0.47439-0.26613-0.15170 0.95585-0.93875
  -6   5   1 481.880 107.442   6-0.25948-0.16514 0.37488 0.04261-0.92237 0.93908
  -6  -5   1 407.282 118.991   3-0.42439-0.00038-0.20603-0.21202-0.94402 0.96104
   6   5  -1 370.448 106.745   5 0.45902-0.03413 0.17010 0.24797 0.94073-0.95835
   6  -5  -1 412.849 115.407   8 0.46931-0.04477-0.15723-0.26033 0.93963-0.95658
   6   5  -1 464.753 116.600   2 0.39369 0.03070 0.23837 0.17944 0.94442-0.96146
  -6   5   1 445.396 101.360   7-0.52225 0.09784 0.09879 0.31958-0.92771 0.94457
   5  -5  -1 286.869 87.2389   4-0.08925 0.44055-0.21911-0.19910-0.97166 0.94076
  -5   5   1 339.261 100.750   6-0.25547-0.09542 0.35758 0.05993-0.92974 0.95986
   5   5  -1 321.723 74.3569   6-0.26150 0.61268 0.38365 0.03427-0.91847 0.88757
  -5  -5   1 240.478 89.6104   9 0.07740-0.42777-0.20876-0.20899 0.97281-0.94234
   5   5  -1 223.855 74.4829   5 0.46725-0.11599 0.17451 0.24355 0.93705-0.96804
   5  -5  -1 301.404 90.4052   8 0.47921-0.12832-0.16188-0.25576 0.93525-0.96553
  -5  -5   1 271.041 93.8319   3-0.42793 0.07700-0.20895-0.20908-0.94230 0.97270
   5   5  -1 142.131 55.9402   2 0.39418-0.04343 0.23895 0.17892 0.94414-0.97452
  -5  -5   1 401.166 99.1101   4 0.05530-0.40644-0.59670 0.17923-0.77718 0.80738
  -5   5   1 357.176 93.2262   7-0.54137 0.19077 0.10357 0.31472-0.91871 0.94894
   4   5  -1 1034.62 156.810   2 0.40116-0.12406 0.24723 0.17069 0.94008-0.98380
   4   5  -1 938.102 117.073   6-0.22844 0.50595 0.24747 0.17075-0.96743 0.92318
  -4   5   1 1038.62 157.317   6-0.25356-0.02359 0.34943 0.06808-0.93308 0.97659
   4  -5  -1 93.7706 47.8621   9-0.10609 0.38288-0.56870 0.15068 0.78301-0.82694
  -4  -5   1 1003.99 160.303   9 0.10228-0.37904-0.15449-0.26317 0.98497-0.94114
   4   5  -1 885.351 134.024   5 0.48716-0.20954 0.18524 0.23282 0.92759-0.97196
   4  -5  -1 1038.37 157.390   8 0.50186-0.22462-0.17256-0.24516 0.92452-0.96816
  -4   5   1 1027.19 152.939   1 0.13353-0.41078 0.17766 0.24057 0.98302-0.93936
  -4  -5   1 1362.44 173.142   4 0.02401-0.30154-0.52264 0.10518-0.83366 0.87726
   4  -5  -1 1042.35 158.519   4-0.10925 0.38683-0.15946-0.25900-0.98466 0.94053
  -4   5   1 1144.85 151.005   7-0.57857 0.30177 0.11289 0.30529-0.89930 0.94287
  -4  -5   1 1046.59 155.809   3-0.44008 0.16299-0.21902-0.19899-0.93615 0.97992
  -3   5   1 1213.26 91.2579   2 0.43226-0.63607 0.28456 0.13363 0.91981-0.86271
   3   5  -1 1032.08 149.604   2 0.41635-0.21292 0.26538 0.15259 0.93064-0.98771
   3   5  -1 982.141 128.203   6-0.20133 0.40515 0.14567 0.27282-0.98910 0.93154
  -3   5   1 1119.92 160.035   6-0.25401 0.05062 0.35136 0.06612-0.93229 0.98918
  -3  -5   1 908.729 134.806   3-0.46369 0.26043-0.23872-0.17925-0.92312 0.98023
  -3  -5   1 969.052 151.194   9 0.12481-0.32796-0.10417-0.31343 0.99299-0.93582
   3  -5  -1 1023.52 144.077   8 0.54271-0.33915-0.19199-0.22583 0.90255-0.95954
   3  -5  -1 1006.51 131.864   9-0.06817 0.27128-0.50013 0.08210 0.83668-0.89394
  -3   5   1 993.546 150.218   1 0.14263-0.34622 0.11426 0.30393 0.99271-0.93566
   3  -5  -1 873.992 146.774   4-0.12686 0.33065-0.10524-0.31339-0.99296 0.93544
  -3   5   1 1130.69 138.505   7-0.64280 0.43977 0.12920 0.28887-0.85910 0.91597
  -2   5   1 5.13032 38.6957   1 0.14976-0.27968 0.06107 0.35711 0.99762-0.92720
  -2  -5   1 42.4421 47.6117   9 0.14469-0.27425-0.05874-0.35880 0.99761-0.92709
   2  -5  -1 38.8393 42.7700   4-0.14184 0.27182-0.05779-0.36101-0.99753 0.92662
   2   5  -1 28.3294 26.7519   6-0.18019 0.31013 0.07080 0.34781-0.99750 0.92629
  -2   5   1 14.8706 17.7606   2 0.28219-0.41226 0.11011 0.30798 0.98837-0.91801
  -2   5   1 10.7140 27.3335   6-0.25707 0.12744 0.36446 0.05298-0.92686 0.99711
   2  -5  -1 30.9115 19.3794   9-0.04537 0.17481-0.45740 0.03937 0.86523-0.93583
   2   5  -1 3.49113 24.7330   5 0.58323-0.45294 0.23778 0.18031 0.86955-0.94079
  -2  -5   1 4.72974 26.8783   3-0.50259 0.37313-0.27163-0.14629-0.89821 0.96866
   2   5  -1 36.8079 32.8588   2 0.44189-0.31212 0.29627 0.12178 0.91277-0.98320
   2  -5  -1 31.3526 19.2603   3-0.32849 0.45852-0.12816-0.29016-0.97980 0.90923
   2  -5  -1 36.3290 33.6716   8 0.60981-0.47996-0.22433-0.19358 0.85813-0.92847
  -1  -5   1 69.4175 44.7699   9 0.16160-0.21755-0.01936-0.39814 0.99962-0.91577
   1   5  -1 62.6892 40.0976   6-0.16522 0.22139 0.01979 0.39900-0.99967 0.91515
   1  -5  -1 25.8144 14.8660   4-0.15406 0.21019-0.01814-0.40077-0.99945 0.91513
  -1   5   1 29.5565 37.8684   6-0.26289 0.20701 0.38980 0.02757-0.91567 0.99927
  -1  -5   1 58.6642 16.2166   8 0.17357-0.23005-0.02206-0.39588 0.99973-0.91593
  -1  -5   1 42.3350 25.3129   3-0.56145 0.50575-0.32259-0.09528-0.85115 0.93489
  -1   5   1 69.8519 49.1742   1 0.15512-0.21134 0.01876 0.39941 0.99947-0.91567
   1   5  -1 -2.1737 16.7498   5 0.67478-0.61824 0.28945 0.12864 0.78992-0.87464
   1  -5  -1 41.4008 33.4223   9-0.03323 0.08903-0.43421 0.01616 0.87932-0.96326
   0   5  -1 4034.35 294.847   6-0.15540 0.13771-0.01289 0.43174-0.99957 0.90155
   0   5   1 3919.74 284.916   6-0.27147 0.28933 0.42840-0.01113-0.89685 0.99376
   0  -5   1 4138.93 194.772   8 0.09843-0.08124 0.01127-0.42907 0.99644-0.89937
   0  -5   1 4076.11 284.223   9 0.17508-0.15745 0.01259-0.43005 0.99990-0.90272
   0  -5  -1 3726.93 274.953   9-0.02903 0.01118-0.42610 0.00804 0.88403-0.98131
   0  -5   1 4225.42 309.956   4-0.01384 0.03108-0.42740 0.01003-0.89143 0.98854
   0   5  -1 4101.85 152.985   7-0.06751 0.04956-0.01058 0.42933-0.99337 0.89577
   0  -5  -1 4206.17 145.729   7-0.16539 0.14757 0.01240-0.43039-0.99980 0.90256
   0  -5  -1 3938.83 291.160   4-0.16328 0.14557 0.01243-0.43143-0.99976 0.90203
   0   5   1 3882.92 288.588   1 0.15883-0.14135-0.01205 0.43023 0.99967-0.90250
   0   5  -1 4404.79 285.689   2 0.53313-0.55077 0.41157 0.00661 0.82351-0.92065
  -1   5  -1 1053.61 159.891   6-0.15030 0.05878-0.02961 0.44853-0.99907 0.88765
   1   5   1 989.142 144.860   6-0.28258 0.37413 0.48100-0.06383-0.86748 0.97768
   1  -5   1 951.755 132.336   9 0.18459-0.09338 0.03542-0.45286 0.99936-0.88884
  -1  -5  -1 1014.83 151.181   9-0.03094-0.06054-0.42978 0.01170 0.88191-0.99254
   1  -5   1 1031.96 119.644   8 0.08617 0.00467 0.01667-0.43439 0.99525-0.88488
   1  -5   1 899.544 148.150   4-0.00998 0.10094-0.43742 0.02012-0.88605 0.99650
  -1   5  -1 1051.75 101.314   7-0.06242-0.02935-0.01177 0.43059-0.99276 0.88174
   1   5   1 965.243 146.226   1 0.16101-0.06980-0.03077 0.44897 0.99932-0.88878
   2  -5   1 2540.62 210.643   8 0.09514 0.06933 0.01272-0.43036 0.99614-0.87245
  -2   5  -1 2653.35 255.872   6-0.14924-0.01610-0.03304 0.45199-0.99892 0.87411
   2   5   1 2421.81 224.153   6-0.29557 0.46080 0.54775-0.13069-0.82339 0.94684
   2   5   1 2582.78 89.4340   8 0.32852-0.16349-0.09201 0.50975 0.98400-0.86037
   2  -5   1 2504.44 215.193   9 0.18936-0.02456 0.04696-0.46440 0.99885-0.87500
  -2  -5  -1 2504.04 246.486   9-0.03770-0.12741-0.44278 0.02466 0.87422-0.99822
   2  -5   1 2552.43 258.418   4-0.00252 0.16721-0.45655 0.03935-0.87534 0.99912
  -2  -5  -1 2545.15 97.2565   7 0.01437-0.17970-0.02959-0.38866-0.98029 0.85620
  -2   5  -1 2555.91 191.562   7-0.08147-0.08412-0.00732 0.42620-0.99490 0.87047
   2   5   1 2365.75 229.844   1 0.16170 0.00326-0.03677 0.45499 0.99913-0.87521
  -3   5  -1 175.808 82.1984   6-0.15168-0.08747-0.02506 0.44401-0.99923 0.86104
   3   5   1 129.660 56.0389   1 0.16084 0.07789-0.02930 0.44752 0.99936-0.86206
  -3  -5  -1 161.104 63.2906   9-0.04840-0.19034-0.46314 0.04498 0.86159-0.99895
   3  -5   1 222.321 68.5336   9 0.18824 0.05017 0.04424-0.46169 0.99899-0.86179
  -3  -5  -1 149.597 30.6884   7-0.10136-0.13774-0.00267-0.41551-0.99674 0.85929
  -3   5  -1 197.461 62.2842   7-0.10866-0.13075-0.00095 0.41988-0.99731 0.85946
   3  -5   1 172.894 75.7026   4 0.00803 0.23039-0.48319 0.06610-0.85944 0.99652
   3  -5   1 149.140 52.5773   8 0.11408 0.12404 0.00436-0.42193 0.99768-0.86067
  -4   5  -1 455.679 127.133   6-0.15715-0.15582-0.00710 0.42605-0.99967 0.84811
   4  -5   1 345.272 76.6670   9 0.17936 0.13267 0.02281-0.44027 0.99973-0.84918
  -4  -5  -1 306.134 90.6691   9-0.06236-0.25002-0.48933 0.07112 0.84422-0.99496
   4  -5   1 388.071 104.586   8 0.13852 0.17322-0.00646-0.41104 0.99904-0.84872
  -4   5  -1 297.396 85.9356   7-0.13960-0.17362 0.00632 0.41264-0.99909 0.84784
  -4  -5  -1 350.143 66.2951   7-0.16524-0.14761 0.01236-0.43053-0.99979 0.84898
   4  -5   1 295.500 96.7110   4 0.02127 0.29086-0.51595 0.09898-0.83823 0.98858
   4   5   1 271.940 82.7934   1 0.15827 0.15425-0.00734 0.42556 0.99970-0.84901
  -5   5  -1 106.971 38.3892   6-0.16528-0.22151 0.01998 0.39899-0.99967 0.83484
  -5  -5  -1 157.311 56.7571   4-0.14901-0.23770-0.03462-0.38432-0.99886 0.83426
  -5  -5  -1 166.400 85.2687   9-0.07903-0.30698-0.52009 0.10181 0.82211-0.98624
   5  -5   1 154.138 93.8273   8 0.16635 0.21902-0.01884-0.39861 0.99971-0.83607
   5   5   1 124.561 56.4424   1 0.15365 0.23268 0.03055 0.38765 0.99914-0.83505
  -5   5  -1 114.181 46.4981   7-0.17260-0.21444 0.01410 0.40489-0.99986 0.83520
   5  -5   1 30.4907 27.8673   4 0.03688 0.34894-0.55362 0.13678-0.81140 0.97498
  -5  -5  -1 193.484 64.3256   7-0.21588-0.17072 0.02437-0.44252-0.99908 0.83489
  -6   5  -1 3082.54 386.189   6-0.17549-0.28503 0.05462 0.36424-0.99850 0.82020
  -6  -5  -1 1236.00 216.468   9-0.09801-0.36163-0.55436 0.13603 0.79511-0.97264
   6  -5   1 1772.21 245.892   8 0.19641 0.26257-0.03226-0.38513 0.99936-0.82241
   6   5   1 1729.04 187.750   1 0.14640 0.31375 0.08652 0.33160 0.99563-0.81814
  -6   5  -1 3050.97 345.432   7-0.20684-0.25401 0.02222 0.39680-0.99942 0.82134
   6  -5   1 1585.77 234.625   4 0.05461 0.40489-0.59512 0.17840-0.77851 0.95531
  -7   5  -1 132.443 56.2746   6-0.18767-0.34658 0.09688 0.32189-0.99528 0.80359
   7   5   1 170.738 95.5397   2 0.22652 0.30624 0.04852 0.36902 0.99774-0.80751
  -7  -5  -1 -27.241 21.9987   9-0.11898-0.41430-0.59128 0.17290 0.76295-0.95389
   7  -5   1 235.444 112.727   8 0.22803 0.30458-0.04645-0.37090 0.99778-0.80750
  -7   5  -1 134.417 80.0851   7-0.24190-0.29276 0.03056 0.38848-0.99761 0.80611
  -8   5  -1 223.948 113.692   6-0.20143-0.40647 0.14602 0.27261-0.98905 0.78387
   8   5   1 360.054 180.480   2 0.25093 0.35546 0.07536 0.34217 0.99455-0.79101
   8  -5   1 126.918 70.3180   8 0.26079 0.34545-0.06122-0.35609 0.99478-0.79119
  -8   5  -1 264.184 111.270   7-0.27751-0.33094 0.03908 0.37999-0.99434 0.78940
  -8  -5  -1 69.1136 61.4574   3-0.25530-0.35323-0.07031-0.34826-0.99460 0.78993
   9   5   1 84.5492 112.416   2 0.27703 0.40300 0.10433 0.31316 0.98956-0.77269
   9  -5   1 208.822 125.529   8 0.29439 0.38548-0.07646-0.34081 0.99022-0.77333
  -9   5  -1 -86.589 86.7242   7-0.31353-0.36871 0.04773 0.37134-0.98951 0.77114
  -9  -5  -1 -3.5418 43.6609   3-0.28472-0.39765-0.09342-0.32511-0.98984 0.77175
  10   5   1 15.3128 102.599   2 0.30448 0.44917 0.13520 0.28228 0.98243-0.75225
 -10  -5  -1 -53.765 108.395   3-0.31526-0.44095-0.11760-0.30087-0.98322 0.75169
  10   6  -1 -100.03 92.8919   5 0.51363 0.20585 0.19957 0.30212 0.91374-0.87808
 -10  -6   1 5.26466 61.0358   3-0.47796-0.24219-0.25073-0.25097-0.91449 0.87781
  10   6  -1 42.4368 84.2787   2 0.44426 0.27463 0.29916 0.20210 0.91097-0.87474
  10  -6  -1 -93.779 128.812   8 0.52370 0.19537-0.18292-0.31796 0.91321-0.87692
 -10   6   1 138.412 106.574   7-0.57143-0.14818 0.11111 0.39122-0.90323 0.86632
  -9  -6   1 495.508 164.851   9-0.04201-0.60289-0.45102-0.05062 0.86920-0.89231
  -9   6   1 500.951 165.625   6-0.28079-0.36501 0.47233 0.02863-0.87263 0.84897
   9   6  -1 395.375 129.241   5 0.50099 0.14487 0.19271 0.30894 0.92053-0.89819
  -9  -6   1 333.007 121.641   3-0.46476-0.18154-0.23962-0.26209-0.92249 0.89924
   9   6  -1 503.185 154.743   2 0.43122 0.21406 0.28329 0.21800 0.92056-0.89763
   9  -6  -1 471.434 165.213   8 0.51142 0.13404-0.17709-0.32385 0.91969-0.89670
  -9   6   1 320.836 133.895   7-0.56170-0.08409 0.10866 0.39361-0.90843 0.88495
  -8   6   1 -6.3911 40.0610   6-0.27330-0.29881 0.43686 0.06417-0.89242 0.88220
  -8  -6   1 -32.300 33.7458   9-0.01328-0.55799-0.39541-0.10613 0.90084-0.91054
   8   6  -1 123.495 86.2524   5 0.49224 0.07999 0.18798 0.31364 0.92504-0.91604
  -8  -6   1 119.976 71.0134   3-0.45477-0.11766-0.23126-0.27047-0.92822 0.91839
   8  -6  -1 49.9554 72.6982   8 0.50323 0.06860-0.17320-0.32779 0.92385-0.91416
   8   6  -1 92.2646 53.2418   2 0.42085 0.15079 0.27078 0.23054 0.92768-0.91808
   8  -6  -1 88.8680 79.5527   4-0.01356 0.58597-0.42814-0.07303-0.89103 0.89990
  -8   6   1 -20.863 56.6625   7-0.55718-0.01478 0.10752 0.39468-0.91078 0.90074
  -7   6   1 242.624 97.9186   6-0.26695-0.23145 0.40785 0.09323-0.90714 0.91035
  -7  -6   1 249.615 96.5305   9 0.01377-0.51139-0.34154-0.15991 0.92674-0.92303
   7   6  -1 222.764 96.2826   5 0.48843 0.01018 0.18592 0.31568 0.92696-0.93129
  -7  -6   1 189.386 85.6833   3-0.44876-0.04981-0.22625-0.27549-0.93153 0.93512
   7  -6  -1 198.032 101.020   8 0.50029-0.00211-0.17182-0.32925 0.92530-0.92893
   7   6  -1 242.427 87.1339   2 0.41374 0.08427 0.26224 0.23913 0.93232-0.93605
  -7   6   1 273.439 104.230   7-0.55953 0.06139 0.10811 0.39402-0.90956 0.91293
   7  -6  -1 116.030 73.1485   4-0.03705 0.53577-0.36599-0.13543-0.92114 0.91677
   6  -6  -1 32.4665 35.9712   4-0.05847 0.48349-0.30720-0.19446-0.94466 0.92702
  -6   6   1 -3.6178 59.9116   6-0.26197-0.16270 0.38574 0.11538-0.91753 0.93416
  -6  -6   1 -17.529 51.0348   9 0.03898-0.46297-0.28995-0.21141 0.94751-0.93042
   6   6  -1 2.72123 39.7934   5 0.49100-0.06601 0.18731 0.31427 0.92567-0.94336
  -6  -6   1 -35.864 37.3904   3-0.44772 0.02300-0.22538-0.27634-0.93210 0.94908
   6  -6  -1 53.6662 40.7185   8 0.50425-0.07970-0.17369-0.32746 0.92333-0.94030
   6   6  -1 74.3128 59.6735   2 0.41057 0.01381 0.25845 0.24296 0.93433-0.95140
  -6   6   1 35.3139 35.5630   7-0.57120 0.14687 0.11105 0.39100-0.90336 0.92011
   5   6  -1 2298.96 266.125   2 0.41221-0.06148 0.26042 0.24104 0.93330-0.96370
  -5   6   1 2246.91 254.121   6-0.25860-0.09232 0.37104 0.13010-0.92404 0.95408
   5   6  -1 2519.67 220.309   6-0.26532 0.61658 0.40057 0.10093-0.91064 0.87961
   5  -6  -1 2344.49 266.082   8 0.51734-0.16645-0.17990-0.32133 0.91661-0.94690
  -5  -6   1 2099.13 249.389   3-0.45297 0.10211-0.22976-0.27194-0.92922 0.95958
  -5  -6   1 2213.26 261.544   9 0.06222-0.41261-0.24121-0.26007 0.96375-0.93329
   5   6  -1 1992.52 226.405   5 0.50200-0.15064 0.19326 0.30831 0.92000-0.95107
   5  -6  -1 2204.67 273.209   4-0.07777 0.42905-0.25246-0.24942-0.96256 0.93160
  -5   6   1 2510.07 248.748   7-0.59577 0.24525 0.11724 0.38470-0.88941 0.91952
   4  -6  -1 45.2375 33.8258   4-0.09488 0.37238-0.20249-0.29958-0.97570 0.93140
   4   6  -1 39.3567 50.0440   6-0.23967 0.51724 0.29200 0.20980-0.95405 0.90971
  -4   6   1 -16.871 38.3895   6-0.25705-0.02010 0.36439 0.13674-0.92689 0.97033
  -4   6   1 40.1013 39.9208   1 0.12668-0.40400 0.22254 0.27930 0.97357-0.92993
  -4  -6   1 -15.243 36.2960   9 0.08332-0.36011-0.19596-0.30524 0.97601-0.93219
   4  -6  -1 80.9577 54.5539   9-0.09383 0.37056-0.54687 0.04527 0.80123-0.84516
   4   6  -1 43.4386 48.8210   5 0.52427-0.24655 0.20536 0.29623 0.90773-0.95220
  -4  -6   1 -0.4806 39.4869   3-0.46626 0.18924-0.24088-0.26078-0.92160 0.96533
   4  -6  -1 -33.312 41.2205   8 0.54287-0.26565-0.19206-0.30927 0.90246-0.94610
   4   6  -1 27.4070 32.8352   2 0.41977-0.14269 0.26948 0.23205 0.92840-0.97214
  -4  -6   1 26.2927 30.7248   4 0.01915-0.29680-0.51075 0.00970-0.84172 0.88526
  -4   6   1 2.62262 23.7544   7-0.63862 0.36190 0.12813 0.37369-0.86200 0.90544
  -3   6   1 741.730 143.875   7-0.70749 0.50450 0.14589 0.35580-0.80833 0.86506
   3  -6  -1 445.113 117.050   4-0.10962 0.31337-0.15832-0.34397-0.98487 0.92734
   3   6  -1 427.772 91.6873   6-0.21804 0.42189 0.20758 0.29450-0.97737 0.91971
  -3   6   1 502.053 120.269   6-0.25754 0.05415 0.36648 0.13462-0.92600 0.98282
  -3  -6   1 411.602 104.507   9 0.10207-0.30524-0.15498-0.34617 0.98488-0.92771
   3  -6  -1 565.017 110.311   9-0.06414 0.26719-0.49265-0.00895 0.84193-0.89920
   3   6  -1 353.634 82.5978   5 0.56184-0.35777 0.22595 0.27566 0.88442-0.94231
  -3  -6   1 373.976 94.6561   3-0.48988 0.28669-0.26082-0.24079-0.90684 0.96391
   3   6  -1 425.791 101.752   2 0.43457-0.23115 0.28736 0.21423 0.91816-0.97525
  -3   6   1 401.749 104.438   1 0.13466-0.33832 0.16999 0.33182 0.98441-0.92738
   3  -6  -1 456.037 107.511   8 0.58549-0.38195-0.21253-0.28891 0.87554-0.93251
  -3  -6   1 389.301 98.3272   4 0.00295-0.20692-0.47040-0.03066-0.86722 0.92417
  -2  -6   1 249.829 78.7285   9 0.11819-0.24778-0.11907-0.38203 0.99094-0.92042
   2  -6  -1 260.037 91.2149   4-0.12202 0.25195-0.12031-0.38214-0.99099 0.92010
   2   6  -1 297.359 78.0802   6-0.20070 0.33072 0.14340 0.35883-0.98945 0.91828
  -2   6   1 164.994 57.1368   6-0.26022 0.13060 0.37810 0.12296-0.92095 0.99114
   2  -6  -1 140.895 57.9104   9-0.04559 0.17499-0.45782-0.04378 0.86497-0.93557
  -2  -6   1 283.563 78.4269   3-0.52677 0.39738-0.29238-0.20918-0.88036 0.95076
   2   6  -1 290.693 84.8015   2 0.45819-0.32845 0.31627 0.18540 0.89993-0.97037
   2  -6  -1 340.980 84.6352   8 0.65151-0.52169-0.24478-0.25677 0.82432-0.89463
  -2  -6   1 253.333 81.1803   4-0.00690-0.12338-0.44535-0.05572-0.88168 0.95202
  -2   6   1 299.014 61.5889   2 0.35693-0.48704 0.19529 0.30644 0.96303-0.89264
  -2   6   1 234.164 82.5991   1 0.14096-0.27094 0.12622 0.37559 0.99120-0.92079
   1   6  -1 4237.64 304.040   2 0.49234-0.43629 0.35894 0.14280 0.86900-0.95280
   1   6  -1 4304.71 322.066   6-0.18770 0.24388 0.09701 0.40533-0.99527 0.91059
  -1   6   1 4786.63 271.735   2 0.28559-0.34200 0.11393 0.38770 0.98754-0.90387
  -1   6   1 4175.42 329.501   6-0.26520 0.20935 0.40002 0.10096-0.91090 0.99444
  -1  -6   1 4979.87 329.929   3-0.58023 0.52459-0.33921-0.16228-0.83332 0.91702
  -1  -6   1 4304.33 331.927   9 0.13139-0.18738-0.08924-0.41181 0.99478-0.91093
   1  -6  -1 4190.73 310.917   9-0.03537 0.09113-0.43832-0.06328 0.87689-0.96083
   1  -6  -1 4878.27 241.188   3-0.31739 0.37368-0.11930-0.38274-0.98269 0.89871
  -1  -6   1 4542.27 344.600   4-0.01159-0.04497-0.43324-0.06780-0.88831 0.97203
  -1   6   1 4059.53 325.270   1 0.14570-0.20200 0.09175 0.41005 0.99514-0.91136
   1  -6  -1 4427.33 343.476   4-0.13191 0.18798-0.08940-0.41314-0.99476 0.91043
   0  -6   1 137.955 56.7368   9 0.14126-0.12365-0.06668-0.43434 0.99698-0.89979
   0  -6  -1 107.896 60.5022   4-0.13901 0.12125-0.06684-0.43578-0.99685 0.89912
   0   6  -1 163.679 59.7919   6-0.17883 0.16119 0.06612 0.43632-0.99782 0.89972
   0   6   1 197.923 66.1941   1 0.14897-0.13156 0.06709 0.43472 0.99721-0.90006
   0   6   1 145.751 62.2958   6-0.27247 0.29037 0.43298 0.06790-0.89446 0.99132
   0  -6  -1 178.350 76.2165   9-0.03165 0.01377-0.43115-0.07047 0.88111-0.97839
   0  -6   1 199.355 46.1475   8 0.27567-0.25852-0.06796-0.43353 0.99294-0.89575
   0  -6   1 207.315 66.5238   4-0.01201 0.02920-0.43215-0.06884-0.88889 0.98598
   0  -6  -1 201.902 54.4983   3-0.25161 0.23408-0.06743-0.43473-0.99508 0.89770
  -1   6  -1 3030.35 288.721   6-0.17368 0.08221 0.04842 0.45408-0.99881 0.88730
   1   6   1 3083.70 273.720   6-0.28187 0.37350 0.47757 0.02320-0.86954 0.97968
   1   6   1 2944.37 249.783   2 0.22100-0.13007 0.04250 0.45897 0.99826-0.88797
   1  -6   1 3114.90 268.998   9 0.14725-0.05607-0.05282-0.44819 0.99802-0.88749
  -1  -6  -1 2926.76 283.572   9-0.03313-0.05837-0.43401-0.06764 0.87944-0.99007
   1  -6   1 3271.04 218.997   8 0.21942-0.12861-0.04258-0.45878 0.99833-0.88787
   1  -6   1 2960.32 297.940   4-0.00879 0.09971-0.44048-0.06045-0.88437 0.99481
  -1   6  -1 3270.35 179.042   7-0.26605 0.17444 0.03633 0.46602-0.99555 0.88459
  -1  -6  -1 2920.24 277.242   4-0.14312 0.05151-0.05368-0.44898-0.99781 0.88668
   1   6   1 2833.27 273.250   1 0.15083-0.05968 0.05273 0.44911 0.99813-0.88760
   2  -6   1 52.6291 40.0568   9 0.14867 0.01612-0.04953-0.45148 0.99824-0.87436
   2   6   1 78.3745 55.0556   6-0.29300 0.45832 0.53403-0.03339-0.83313 0.95653
  -2   6  -1 108.957 74.6071   6-0.17190 0.00661 0.04235 0.46021-0.99907 0.87420
  -2  -6  -1 35.7535 30.3978   4-0.14386-0.02157-0.05128-0.45139-0.99797 0.87344
  -2  -6  -1 14.5509 31.6429   9-0.03887-0.12625-0.44503-0.05664 0.87287-0.99685
   2   6   1 78.3469 52.0630   1 0.15130 0.01362 0.04920 0.45264 0.99833-0.87442
   2   6   1 63.2188 36.2737   2 0.21099-0.04640 0.03160 0.46981 0.99903-0.87542
   2  -6   1 103.975 50.0036   8 0.20103-0.03655-0.03433-0.46694 0.99921-0.87545
  -2   6  -1 94.2359 44.4799   7-0.22708 0.06164 0.02703 0.47544-0.99854 0.87415
   2  -6   1 180.248 85.8756   4-0.00240 0.16707-0.45684-0.04399-0.87517 0.99894
   3  -6   1 80.7621 33.8622   9 0.14445 0.09395-0.05931-0.44172 0.99756-0.86034
  -3  -6  -1 59.7614 37.3766   4-0.14073-0.09852-0.06137-0.44128-0.99727 0.85937
  -3   6  -1 191.365 68.0595   6-0.17305-0.06607 0.04625 0.45631-0.99890 0.86062
   3   6   1 57.2162 32.1836   1 0.15026 0.08842 0.05716 0.44469 0.99787-0.86058
   3   6   1 15.2955 27.1317   6-0.30509 0.54406 0.60198-0.10144-0.78111 0.91774
  -3  -6  -1 53.7848 67.5191   9-0.04820-0.19055-0.46275-0.03896 0.86184-0.99919
   3   6   1 104.727 64.5903   2 0.21006 0.02817 0.03059 0.47075 0.99909-0.86217
   3  -6   1 105.039 57.6443   8 0.20107 0.03705-0.03435-0.46683 0.99921-0.86214
  -3   6  -1 161.509 59.3250   7-0.22167-0.01761 0.02574 0.47682-0.99882 0.86100
   3  -6   1 122.035 68.6213   4 0.00677 0.23164-0.48003-0.02069-0.86139 0.99846
  -4  -6  -1 388.798 92.3485   4-0.13291-0.18010-0.08623-0.41636-0.99509 0.84383
  -4   6  -1 244.524 85.9825   6-0.17685-0.13607 0.05927 0.44328-0.99824 0.84658
   4   6   1 350.355 94.7680   1 0.14762 0.16486 0.07740 0.42444 0.99642-0.84574
   4   6   1 382.023 98.0573   2 0.21581 0.09607 0.03684 0.46445 0.99869-0.84844
   4  -6   1 415.653 89.2481   9 0.13291 0.17911-0.08577-0.41528 0.99516-0.84458
  -4  -6  -1 391.596 128.821   9-0.06054-0.25183-0.48596-0.01581 0.84654-0.99726
   4  -6   1 289.221 99.3684   8 0.21164 0.10012-0.03908-0.46202 0.99876-0.84838
  -4   6  -1 462.348 109.669   7-0.23147-0.08163 0.02808 0.47456-0.99829 0.84704
   4  -6   1 318.119 114.020   4 0.01842 0.29372-0.50897 0.00837-0.84291 0.99326
  -5   6  -1 1839.23 262.444   6-0.18295-0.20376 0.08037 0.42214-0.99677 0.83170
   5   6   1 1677.18 248.343   2 0.22661 0.15890 0.04862 0.45261 0.99773-0.83416
  -5  -6  -1 1637.63 250.022   9-0.07549-0.31051-0.51360 0.01179 0.82693-0.99104
   5  -6   1 1631.60 228.531   8 0.22882 0.15658-0.04680-0.45423 0.99772-0.83403
   5  -6   1 1659.31 252.645   4 0.03231 0.35355-0.54270 0.04223-0.81946 0.98307
   5   6   1 1645.80 199.882   1 0.14308 0.24320 0.11100 0.39081 0.99309-0.82902
  -5  -6  -1 1679.84 187.904   4-0.11911-0.26763-0.12927-0.37324-0.98969 0.82511
  -5   6  -1 1574.64 211.880   7-0.24958-0.13733 0.03239 0.47028-0.99703 0.83236
  -6   6  -1 -3.3461 63.5618   6-0.19111-0.26938 0.10899 0.39346-0.99400 0.81553
   6   6   1 62.8973 76.3520   2 0.24132 0.21782 0.06476 0.43643 0.99598-0.81909
   6  -6   1 -37.777 80.1797   8 0.25044 0.20858-0.05655-0.44443 0.99587-0.81888
  -6  -6  -1 104.318 86.1175   9-0.09269-0.36694-0.54483 0.04297 0.80288-0.98038
   6  -6   1 -20.093 38.4441   4 0.04822 0.41134-0.58034 0.08000-0.79065 0.96748
  -6   6  -1 15.0783 26.2032   7-0.27276-0.18798 0.03793 0.46479-0.99486 0.81676
  -7   6  -1 164.978 92.6921   6-0.20101-0.33320 0.14450 0.35786-0.98928 0.79740
  -7  -6  -1 -25.362 62.2223   9-0.11187-0.42138-0.57887 0.07695 0.77413-0.96504
   7  -6   1 283.249 121.769   8 0.27520 0.25746-0.06774-0.43318 0.99301-0.80271
  -7   6  -1 59.1746 42.7587   7-0.29924-0.23530 0.04429 0.45846-0.99161 0.80008
  -7  -6  -1 120.016 77.6278   3-0.26565-0.26894-0.07842-0.42389-0.99310 0.80184
  -8   6  -1 78.4520 64.1563   6-0.21257-0.39543 0.18700 0.31533-0.98176 0.77665
   8   6   1 37.2686 63.6404   2 0.27942 0.32698 0.10701 0.39410 0.98901-0.78549
   8  -6   1 64.9272 92.4074   8 0.30224 0.30404-0.08003-0.42084 0.98893-0.78533
  -8   6  -1 106.917 67.6428   7-0.32803-0.28032 0.05122 0.45156-0.98712 0.78215
  -8  -6  -1 176.632 108.724   3-0.28892-0.31953-0.09672-0.40555-0.98903 0.78435
   9   6   1 -64.493 110.997   2 0.30174 0.37828 0.13211 0.36898 0.98323-0.76639
   9  -6   1 -6.9575 74.9633   8 0.33104 0.34888-0.09317-0.40766 0.98347-0.76657
  -9  -6  -1 -114.65 91.2860   3-0.31415-0.36815-0.11672-0.38552-0.98349 0.76537
 -10  -7   1 115.751 74.8836   9-0.07414-0.64440-0.51115-0.07411 0.82874-0.86529
 -10   7   1 69.3392 103.563   7-0.60979-0.10974 0.12079 0.46525-0.88089 0.84384
  -9   7   1 104.597 105.769   6-0.28234-0.36355 0.47984 0.10475-0.86818 0.84441
  -9  -7   1 28.2055 61.2295   9-0.04668-0.59822-0.45988-0.12529 0.86367-0.88679
   9   7  -1 1.80460 54.4181   5 0.52934 0.11661 0.20813 0.37701 0.90479-0.88253
  -9  -7   1 72.7561 92.6380   3-0.48560-0.16064-0.25719-0.32823-0.90964 0.88634
   9   7  -1 3.35771 62.1886   2 0.44624 0.19902 0.30158 0.28330 0.90946-0.88657
   9  -7  -1 209.282 146.980   8 0.54218 0.10329-0.19173-0.39278 0.90286-0.87989
   9  -7  -1 17.9377 60.5147   4 0.01407 0.63204-0.49822-0.08639-0.84994 0.87194
  -9   7   1 0.57263 53.0873   7-0.60364-0.04206 0.11923 0.46674-0.88468 0.86106
  -8   7   1 755.551 191.423   6-0.27577-0.29640 0.44839 0.13626-0.88621 0.87588
  -8  -7   1 837.467 196.118   9-0.02085-0.55040-0.41025-0.17483 0.89291-0.90261
   8   7  -1 1061.80 220.603   5 0.52323 0.04910 0.20479 0.38031 0.90833-0.89941
  -8  -7   1 988.582 217.498   3-0.47766-0.09471-0.25047-0.33495-0.91468 0.90481
   8   7  -1 958.152 221.292   2 0.43754 0.13408 0.29097 0.29394 0.91599-0.90643
   8  -7  -1 837.765 211.201   8 0.53688 0.03496-0.18919-0.39538 0.90591-0.89625
   8  -7  -1 830.850 210.996   4-0.00870 0.58113-0.44070-0.14415-0.88425 0.89304
  -8   7   1 1165.35 222.625   7-0.60317 0.03130 0.11911 0.46678-0.88496 0.87478
  -7   7   1 306.234 113.094   6-0.27026-0.22818 0.42288 0.16183-0.89967 0.90278
   7   7  -1 241.050 130.079   5 0.52222-0.02350 0.20424 0.38085 0.90891-0.91334
  -7  -7   1 192.566 95.3240   3-0.47368-0.02483-0.24713-0.33829-0.91714 0.92068
   7   7  -1 235.845 99.9870   2 0.43201 0.06598 0.28426 0.30070 0.91999-0.92375
   7  -7  -1 132.026 91.9839   8 0.53704-0.03885-0.18927-0.39539 0.90582-0.90947
  -7  -7   1 194.864 84.1268   9 0.00323-0.50086-0.36271-0.22227 0.91710-0.91340
   7  -7  -1 143.998 87.0569   4-0.02954 0.52827-0.38610-0.19898-0.91200 0.90755
  -7   7   1 325.239 103.094   7-0.61011 0.11205 0.12087 0.46493-0.88069 0.88392
  -6  -7   1 578.232 159.630   9 0.02547-0.44949-0.31775-0.26716 0.93679-0.91972
  -6   7   1 594.925 155.778   6-0.26601-0.15869 0.40365 0.18110-0.90917 0.92570
   6   7  -1 582.376 139.311   5 0.52766-0.10256 0.20721 0.37788 0.90577-0.92356
  -6  -7   1 662.464 152.596   3-0.47457 0.04993-0.24787-0.33751-0.91659 0.93352
   6   7  -1 639.406 155.677   2 0.43024-0.00589 0.28212 0.30289 0.92124-0.93833
   6  -7  -1 598.505 148.664   8 0.54422-0.11967-0.19270-0.39205 0.90167-0.91865
  -6   7   1 722.377 157.377   7-0.62687 0.20264 0.12513 0.46057-0.86993 0.88653
   6  -7  -1 561.297 150.988   4-0.04844 0.47343-0.33499-0.25032-0.93412 0.91639
  -5   7   1 26.3284 32.7845   7-0.65695 0.30651 0.13281 0.45275-0.84897 0.87892
   5  -7  -1 -3.9653 50.2592   4-0.06534 0.41657-0.28793-0.29758-0.95139 0.92035
  -5   7   1 40.2062 54.0149   6-0.26319-0.08774 0.39111 0.19366-0.91507 0.94501
  -5  -7   1 40.4668 34.0842   9 0.04575-0.39616-0.27587-0.30895 0.95253-0.92208
   5   7  -1 -9.7507 51.9936   5 0.54143-0.18996 0.21474 0.37036 0.89751-0.92869
  -5  -7   1 25.5454 32.3192   3-0.48151 0.13071-0.25372-0.33164-0.91226 0.94257
   5   7  -1 -3.9923 40.3148   2 0.43300-0.08228 0.28545 0.29962 0.91929-0.94972
   5  -7  -1 -18.377 29.8136   8 0.56054-0.20965-0.20052-0.38433 0.89182-0.92213
   4   7  -1 1294.46 205.943   2 0.44115-0.16408 0.29536 0.28978 0.91332-0.95709
   4  -7  -1 984.633 193.270   4-0.08017 0.35762-0.24554-0.34017-0.96455 0.92018
   4   7  -1 1152.76 167.238   6-0.25032 0.52795 0.33577 0.24960-0.93846 0.89398
   4   7  -1 1046.24 166.806   5 0.56606-0.28824 0.22827 0.35684 0.88158-0.92617
  -4   7   1 959.906 183.940   6-0.26198-0.01519 0.38576 0.19900-0.91752 0.96086
   4  -7  -1 1538.26 242.002   9-0.09351 0.37019-0.54629-0.03889 0.80170-0.84565
  -4  -7   1 1164.46 214.057   9 0.06389-0.34069-0.23767-0.34708 0.96480-0.92099
   4  -7  -1 1207.94 193.299   8 0.58892-0.31171-0.21419-0.37076 0.87318-0.91681
  -4  -7   1 990.972 171.813   3-0.49594 0.21899-0.26597-0.31934-0.90279 0.94646
  -4  -7   1 1167.23 189.257   4 0.02119-0.29896-0.51576-0.06887-0.83836 0.88182
   3  -7  -1 149.451 74.2422   4-0.09287 0.29652-0.20844-0.37743-0.97429 0.91656
  -3  -7   1 221.216 85.2596   9 0.07970-0.28292-0.20380-0.38089 0.97407-0.91692
   3   7  -1 135.450 67.4348   6-0.23244 0.43632 0.26319 0.32244-0.96299 0.90516
  -3   7   1 53.3633 33.3255   6-0.26251 0.05913 0.38812 0.19661-0.91644 0.97317
  -3   7   1 181.368 75.1667   1 0.12674-0.33046 0.22216 0.36326 0.97366-0.91664
   3  -7  -1 136.553 41.3619   9-0.06842 0.27144-0.50059-0.08458 0.83635-0.89363
   3   7  -1 122.169 59.0264   5 0.60490-0.40074 0.24985 0.33531 0.85318-0.91120
   3   7  -1 266.559 93.5371   2 0.45576-0.25237 0.31326 0.27195 0.90193-0.95904
  -3  -7   1 107.927 51.7956   3-0.51976 0.31664-0.28634-0.29891-0.88574 0.94275
   3  -7  -1 224.017 86.7098   8 0.63329-0.42978-0.23581-0.34925 0.83975-0.89671
  -3  -7   1 212.538 89.8698   4 0.00725-0.21134-0.48123-0.10343-0.86066 0.91752
   2   7  -1 1925.96 233.668   2 0.47801-0.34830 0.34088 0.24439 0.88270-0.95315
   2   7  -1 1796.03 227.525   6-0.21789 0.34800 0.20701 0.37885-0.97750 0.90636
  -2   7   1 2035.35 258.904   6-0.26492 0.13532 0.39879 0.18589-0.91148 0.98159
  -2  -7   1 2001.58 229.349   3-0.55521 0.42587-0.31711-0.26807-0.85675 0.92709
   2  -7  -1 1966.30 234.061   9-0.05224 0.18160-0.47038-0.11479 0.85692-0.92753
   2   7  -1 1260.72 214.405   5 0.66211-0.53166 0.28218 0.30301 0.80273-0.87423
  -2  -7   1 1975.49 250.937   9 0.09295-0.22258-0.17499-0.40965 0.98081-0.91030
  -2   7   1 2224.29 268.578   1 0.13239-0.26244 0.18529 0.40013 0.98156-0.91117
  -2  -7   1 1835.18 241.015   4-0.00145-0.12892-0.45927-0.12540-0.87377 0.94404
   2  -7  -1 1865.18 254.116   4-0.10330 0.23313-0.17743-0.40860-0.98118 0.91014
   1  -7  -1 231.688 84.8017   4-0.11130 0.16731-0.15323-0.43295-0.98579 0.90147
   1   7  -1 217.426 86.1349   6-0.20672 0.26304 0.16534 0.42073-0.98585 0.90145
  -1   7   1 162.524 79.3646   6-0.26927 0.21344 0.41833 0.16627-0.90197 0.98542
   1   7  -1 296.008 95.2246   2 0.50910-0.45307 0.38031 0.20505 0.85156-0.93536
  -1  -7   1 323.560 105.686   3-0.60455 0.54898-0.36104-0.22407-0.80782 0.89145
  -1  -7   1 287.286 104.769   9 0.10335-0.15938-0.15212-0.43249 0.98542-0.90157
   1  -7  -1 255.257 101.604   9-0.04296 0.09869-0.45283-0.13233 0.86808-0.95203
  -1   7   1 286.952 100.485   1 0.13663-0.19298 0.15655 0.42888 0.98671-0.90294
  -1  -7   1 174.265 82.6032   4-0.00578-0.05086-0.44819-0.13647-0.88009 0.96375
   0  -7  -1 191.918 82.1883   4-0.11681 0.09899-0.13635-0.44989-0.98861 0.89089
   0   7   1 161.655 58.3781   2 0.30681-0.28957 0.13784 0.44735 0.98173-0.88473
   0   7  -1 97.6793 29.2420   6-0.19856 0.18098 0.13565 0.45043-0.99059 0.89253
   0   7  -1 124.787 56.0298   2 0.54981-0.56750 0.43372 0.15171 0.80163-0.89877
   0   7   1 122.767 62.7310   6-0.27554 0.29348 0.44731 0.13719-0.88680 0.98358
   0  -7   1 185.538 81.3617   9 0.11053-0.09296-0.13621-0.44839 0.98824-0.89105
   0  -7  -1 160.301 67.3971   9-0.03925 0.02135-0.44576-0.13942 0.87243-0.96971
   0  -7  -1 196.381 61.0208   3-0.34149 0.32404-0.13857-0.44715-0.97610 0.87870
   0  -7   1 123.763 58.1758   4-0.00642 0.02353-0.44657-0.13804-0.88100 0.97803
   0   7   1 175.056 73.4948   1 0.13953-0.12217 0.13638 0.44906 0.98980-0.89266
   1   7   1 396.111 130.561   1 0.14110-0.05001 0.12518 0.46027 0.99134-0.88082
  -1  -7  -1 423.340 117.983   4-0.11953 0.02787-0.12799-0.45828-0.98988 0.87877
  -1   7  -1 445.786 118.930   6-0.19348 0.10204 0.11744 0.46864-0.99300 0.88137
   1   7   1 300.824 84.8349   2 0.28045-0.18953 0.10816 0.47694 0.98878-0.87847
   1   7   1 407.479 127.094   6-0.28362 0.37530 0.48615 0.09822-0.86437 0.97443
   1  -7   1 344.690 102.821   9 0.11399-0.02283-0.12848-0.45611 0.98950-0.87896
  -1  -7  -1 480.270 136.293   9-0.04013-0.05140-0.44743-0.13776 0.87141-0.98204
  -1  -7  -1 407.749 95.4288   3-0.30044 0.20915-0.10585-0.47998-0.98665 0.87586
   1  -7   1 388.510 131.658   4-0.00382 0.09470-0.45321-0.13134-0.87725 0.98764
  -2  -7  -1 3158.45 287.447   3-0.27896 0.11382-0.08888-0.49703-0.99089 0.86669
  -2   7  -1 3314.10 334.650   6-0.19130 0.02604 0.10970 0.47643-0.99392 0.86892
   2   7   1 3104.10 298.094   2 0.26600-0.10143 0.09206 0.49298 0.99187-0.86825
   2   7   1 3200.80 304.742   6-0.29321 0.45860 0.53510 0.04913-0.83238 0.95571
   2  -7   1 3112.90 291.399   9 0.11307 0.05169-0.13054-0.45407 0.98917-0.86529
  -2  -7  -1 3095.43 325.658   9-0.04486-0.12029-0.45643-0.12880 0.86584-0.98983
   2  -7   1 3476.09 265.342   8 0.30704-0.14256-0.08221-0.50271 0.98810-0.86426
   2   7   1 3065.34 317.892   1 0.14135 0.02350 0.12343 0.46205 0.99157-0.86766
   2  -7   1 3306.92 358.273   4 0.00162 0.16301-0.46704-0.11744-0.86922 0.99295
  -2  -7  -1 2998.46 309.378   4-0.11912-0.04637-0.12926-0.45701-0.98969 0.86519
   3   7   1 470.493 131.652   2 0.26042-0.02220 0.08586 0.49911 0.99293-0.85600
  -3  -7  -1 529.370 124.950   4-0.11509-0.12421-0.14165-0.44461-0.98776 0.84992
  -3   7  -1 465.770 132.264   6-0.19163-0.04743 0.11089 0.47524-0.99378 0.85535
   3  -7   1 522.485 117.102   9 0.10683 0.13154-0.14443-0.44018 0.98682-0.84959
   3   7   1 300.751 92.0331   6-0.30375 0.54282 0.59401-0.00990-0.78772 0.92428
   3  -7   1 604.479 129.844   8 0.29050-0.05236-0.07468-0.51014 0.99082-0.85369
  -3  -7  -1 403.596 109.133   9-0.05287-0.18589-0.47158-0.11368 0.85614-0.99348
   3  -7   1 563.640 156.765   4 0.00960 0.22879-0.48711-0.09726-0.85701 0.99405
  -3  -7  -1 386.457 104.780   3-0.27045 0.03143-0.08218-0.50377-0.99234 0.85474
   3   7   1 389.165 114.609   1 0.14020 0.09843 0.13165 0.45383 0.99047-0.85318
  -4  -7  -1 637.872 132.849   4-0.10684-0.20624-0.16675-0.41943-0.98330 0.83208
  -4   7  -1 694.091 152.867   6-0.19432-0.11857 0.12042 0.46572-0.99263 0.84086
   4   7   1 779.263 177.560   2 0.26158 0.05028 0.08715 0.49775 0.99272-0.84247
  -4  -7  -1 874.890 192.642   9-0.06373-0.24864-0.49190-0.09341 0.84245-0.99317
   4  -7   1 928.205 175.875   8 0.28840 0.02339-0.07373-0.51099 0.99114-0.84071
   4   7   1 659.659 147.919   1 0.13750 0.17492 0.15050 0.43498 0.98768-0.83701
   4  -7   1 764.942 184.395   4 0.01989 0.29225-0.51256-0.07168-0.84052 0.99084
  -4  -7  -1 686.460 161.045   3-0.27099-0.04189-0.08261-0.50338-0.99225 0.84123
  -5   7  -1 154.233 79.7302   6-0.19909-0.18762 0.13758 0.44861-0.99031 0.82526
   5   7   1 335.758 135.254   2 0.26800 0.11750 0.09428 0.49057 0.99148-0.82791
   5   7   1 316.410 90.2646   1 0.13305 0.25319 0.18084 0.40461 0.98242-0.81834
   5  -7   1 250.119 93.5790   8 0.29557 0.08986-0.07699-0.50766 0.99003-0.82630
  -5  -7  -1 348.117 134.257   9-0.07708-0.30892-0.51652-0.06883 0.82477-0.98887
   5  -7   1 294.332 113.425   4 0.03228 0.35359-0.54263-0.04149-0.81951 0.98310
  -5   7  -1 399.796 117.921   7-0.33563-0.05113 0.05306 0.53326-0.98577 0.82106
  -5  -7  -1 326.947 126.073   3-0.27814-0.10862-0.08823-0.49777-0.99104 0.82661
  -6   7  -1 133.656 80.4100   6-0.20568-0.25483 0.16152 0.42463-0.98652 0.80811
   6   7   1 334.009 122.631   2 0.27860 0.18054 0.10609 0.47870 0.98920-0.81232
  -6  -7  -1 331.113 138.760   9-0.09263-0.36698-0.54472-0.04068 0.80297-0.98046
   6  -7   1 160.360 84.1055   8 0.30907 0.15000-0.08314-0.50144 0.98774-0.81071
   6  -7   1 86.6444 64.7490   4 0.04662 0.41299-0.57657-0.00741-0.79366 0.97049
  -6   7  -1 340.364 112.470   7-0.34709-0.11349 0.05583 0.53056-0.98359 0.80544
  -6  -7  -1 213.033 91.3743   3-0.29024-0.17038-0.09776-0.48823-0.98877 0.81092
  -7   7  -1 -60.482 91.1796   6-0.21386-0.32040 0.19183 0.39423-0.98077 0.78894
   7   7   1 98.9668 73.2799   2 0.29255 0.24021 0.12175 0.46300 0.98577-0.79557
   7  -7   1 70.7059 66.2257   8 0.32711 0.20559-0.09136-0.49315 0.98429-0.79395
  -7   7  -1 -17.585 27.8697   7-0.36444-0.16996 0.06003 0.52641-0.97997 0.78838
  -7  -7  -1 -33.208 65.4137   3-0.30616-0.22834-0.11037-0.47562-0.98538 0.79410
  -7  -7  -1 -30.576 40.9063   9-0.11014-0.42310-0.57582-0.00963 0.77682-0.96772
  -9   8   1 20.4518 49.4750   6-0.28519-0.36075 0.49398 0.17424-0.85954 0.83564
  -8   8   1 180.065 107.309   6-0.27946-0.29277 0.46588 0.20240-0.87638 0.86593
  -8  -8   1 184.829 126.438   9-0.03105-0.54022-0.43000-0.23860 0.88178-0.89151
   8   8  -1 117.871 70.7719   2 0.45649 0.11513 0.31417 0.35435 0.90133-0.89180
   8   8  -1 239.811 116.463   5 0.55801 0.01443 0.22384 0.44476 0.88696-0.87815
  -8  -8   1 219.538 144.813   3-0.50338-0.06891-0.27231-0.39680-0.89766 0.88772
   8  -8  -1 184.127 106.592   8 0.57462-0.00277-0.20729-0.46090 0.88282-0.87318
   8  -8  -1 142.221 90.0409   4-0.00154 0.57398-0.45904-0.20948-0.87391 0.88259
  -7   8   1 98.2007 98.9172   6-0.27469-0.22380 0.44328 0.22506-0.88899 0.89198
  -7  -8   1 -18.527 79.4301   9-0.00940-0.48823-0.38780-0.28071 0.90477-0.90111
   7   8  -1 5.82659 54.9014   5 0.55975-0.06093 0.22480 0.44380 0.88581-0.89035
   7   8  -1 -80.790 62.7436   2 0.45241 0.04557 0.30915 0.35941 0.90462-0.90841
  -7  -8   1 84.5461 109.394   3-0.50135 0.00292-0.27057-0.39851-0.89908 0.90255
   7  -8  -1 19.5981 53.8543   8 0.57785-0.07965-0.20886-0.45942 0.88068-0.88435
   7  -8  -1 0.41116 52.8602   4-0.02025 0.51897-0.41066-0.25810-0.90007 0.89552
  -6   8   1 220.768 97.8212   6-0.27104-0.15368 0.42643 0.24194-0.89786 0.91427
  -6  -8   1 288.475 117.875   9 0.01039-0.43443-0.34834-0.32009 0.92372-0.90667
   6   8  -1 331.273 117.905   5 0.56799-0.14279 0.22934 0.43927 0.88027-0.89819
  -6  -8   1 202.434 99.5878   3-0.50406 0.07950-0.27288-0.39617-0.89718 0.91405
   6   8  -1 109.269 59.2436   2 0.45193-0.02759 0.30855 0.36007 0.90500-0.92212
   6  -8  -1 175.441 84.7106   8 0.58820-0.16365-0.21384-0.45453 0.87368-0.89066
   6  -8  -1 38.3990 53.9537   4-0.03713 0.46209-0.36577-0.30321-0.92123 0.90340
   5  -8  -1 54.4844 78.3299   4-0.05211 0.40329-0.32486-0.34431-0.93808 0.90694
  -5  -8   1 12.7484 41.2351   9 0.02824-0.37868-0.31208-0.35628 0.93907-0.90865
   5   8  -1 -16.372 29.5133   5 0.58440-0.23282 0.23843 0.43020 0.86870-0.90001
   5   8  -1 -1.0425 30.0194   2 0.45568-0.10498 0.31316 0.35553 0.90199-0.93245
  -5  -8   1 -18.702 36.1823   3-0.51254 0.16183-0.28014-0.38886-0.89110 0.92134
   5  -8  -1 62.8888 45.2076   8 0.60760-0.25671-0.22325-0.44523 0.85978-0.89008
   4  -8  -1 143.553 79.4526   4-0.06516 0.34254-0.28844-0.38091-0.95122 0.90675
   4   8  -1 233.297 90.9521   6-0.26047 0.53816 0.37916 0.28979-0.92048 0.87586
  -4   8   1 266.030 111.787   6-0.26774-0.00942 0.41144 0.25695-0.90539 0.94862
  -4  -8   1 154.792 83.7022   9 0.04399-0.32083-0.27954-0.38876 0.95125-0.90746
   4   8  -1 253.206 115.706   5 0.61120-0.33327 0.25337 0.41530 0.84816-0.89289
  -4  -8   1 81.0261 50.4056   3-0.52805 0.25117-0.29348-0.37546-0.87936 0.92296
   4   8  -1 165.357 89.8466   2 0.46438-0.18734 0.32390 0.34485 0.89476-0.93855
  -4  -8   1 105.025 66.5966   4 0.02735-0.30523-0.53075-0.13748-0.82802 0.87137
   3  -8  -1 89.5366 79.9781   4-0.07618 0.27975-0.25705-0.41244-0.96120 0.90338
   3   8  -1 28.1591 33.2953   6-0.24539 0.44931 0.31531 0.35389-0.94606 0.88810
  -3   8   1 119.515 103.379   6-0.26833 0.06496 0.41410 0.25426-0.90408 0.96070
  -3  -8   1 27.0905 43.3078   9 0.05746-0.26070-0.25130-0.41696 0.96065-0.90351
   3  -8  -1 13.5920 33.3320   9-0.07770 0.28066-0.51765-0.15109 0.82393-0.88123
  -3  -8   1 76.6805 70.3161   3-0.55208 0.34902-0.31437-0.35450-0.85949 0.91643
   3   8  -1 -5.1379 47.1228   2 0.47886-0.27549 0.34196 0.32687 0.88191-0.93904
  -3  -8   1 49.0646 47.6284   4 0.01482-0.21901-0.50009-0.16818-0.84874 0.90552
   2  -8  -1 -115.82 86.2698   4-0.08509 0.21483-0.23127-0.43834-0.96849 0.89731
  -2   8   1 2.36064 29.8972   1 0.12385-0.25396 0.24045 0.42860 0.96919-0.89881
   2   8  -1 -44.527 47.4967   6-0.23284 0.36297 0.26478 0.40462-0.96252 0.89120
  -2   8   1 -23.329 75.8521   6-0.27053 0.14096 0.42410 0.24421-0.89905 0.96904
   2  -8  -1 -74.216 70.5134   9-0.06291 0.19223-0.49037-0.17837 0.84351-0.91414
   2   8  -1 34.8036 55.4033   2 0.50003-0.37034 0.36871 0.30019 0.86120-0.93167
  -2  -8   1 42.6692 57.0071   9 0.06843-0.19809-0.22800-0.44021 0.96760-0.89711
  -2  -8   1 55.2438 59.6691   3-0.58632 0.45705-0.34464-0.32416-0.82720 0.89745
  -2  -8   1 -49.446 82.5053   4 0.00680-0.13727-0.48011-0.18818-0.86135 0.93152
   1  -8  -1 395.766 133.431   4-0.09176 0.14767-0.21173-0.45797-0.97349 0.88893
  -1  -8   1 274.692 97.4231   9 0.07663-0.13269-0.21042-0.45775 0.97238-0.88854
   1   8  -1 285.548 102.187   6-0.22296 0.27929 0.22634 0.44323-0.97293 0.88824
   1   8  -1 478.379 134.759   2 0.52870-0.47270 0.40574 0.26324 0.82898-0.91279
  -1   8   1 202.577 91.1527   6-0.27439 0.21860 0.44190 0.22632-0.88973 0.97307
  -1   8   1 294.663 115.117   1 0.12768-0.18410 0.21609 0.45297 0.97506-0.89130
   1  -8  -1 214.303 89.2090   9-0.05409 0.10978-0.47388-0.19484 0.85463-0.93859
  -1  -8   1 139.929 44.4269   4 0.00260-0.05931-0.46952-0.19875-0.86775 0.95132
   0  -8  -1 225.791 95.2001   4-0.09602 0.07811-0.19913-0.47062-0.97648 0.87854
   0  -8  -1 310.585 107.599   9-0.05020 0.03226-0.46654-0.20220 0.85941-0.95672
   0   8  -1 218.111 100.077   6-0.21573 0.19823 0.19885 0.47088-0.97929 0.88126
   0   8   1 274.917 110.308   6-0.27988 0.29786 0.46790 0.20021-0.87521 0.97188
   0  -8   1 159.644 57.1078   9 0.08172-0.06420-0.19945-0.46872 0.97516-0.87798
   0   8   1 138.928 79.9713   1 0.13026-0.11296 0.19933 0.46974 0.97873-0.88159
   0  -8   1 107.157 44.1440   4 0.00170 0.01534-0.46725-0.20101-0.86910 0.96605
   0   8   1 116.647 64.5446   2 0.36281-0.34558 0.20212 0.46671 0.96035-0.86333
   1   8   1 110.316 49.7429   2 0.33457-0.24367 0.16948 0.49926 0.97227-0.86196
  -1  -8  -1 142.437 88.9759   4-0.09765 0.00592-0.19427-0.47551-0.97758 0.86626
  -1   8  -1 138.927 77.1138   6-0.21094 0.11958 0.18095 0.48881-0.98296 0.87144
   1   8   1 60.7982 38.1012   6-0.28689 0.37863 0.50246 0.16553-0.85419 0.96415
  -1  -8  -1 107.706 65.0353   9-0.05043-0.04114-0.46697-0.20178 0.85913-0.96978
   1   8   1 119.590 72.0302   1 0.13159-0.04056 0.19054 0.47855 0.98053-0.87001
  -1  -8  -1 141.697 53.1065   3-0.37534 0.28416-0.16589-0.50351-0.96483 0.85399
   1  -8   1 76.6375 53.1537   9 0.08324 0.00788-0.19614-0.47202 0.97597-0.86545
   1  -8   1 97.7197 69.2074   4 0.00370 0.08710-0.47232-0.19587-0.86607 0.97639
   2   8   1 204.246 101.860   6-0.29520 0.46066 0.54575 0.12210-0.82483 0.94806
  -2  -8  -1 158.406 94.7285   4-0.09637-0.06918-0.19809-0.47167-0.97671 0.85202
   2   8   1 157.960 70.2844   2 0.31719-0.15262 0.14962 0.51905 0.97845-0.85482
  -2  -8  -1 140.774 77.0630   9-0.05419-0.11098-0.47407-0.19471 0.85451-0.97850
  -2   8  -1 223.221 115.843   6-0.20861 0.04340 0.17230 0.49758-0.98459 0.85977
   2  -8   1 138.338 65.2145   9 0.08060 0.08412-0.20185-0.46633 0.97456-0.85069
   2   8   1 149.268 74.3926   1 0.13166 0.03314 0.19011 0.47900 0.98061-0.85672
  -2  -8  -1 113.484 54.7664   3-0.34753 0.18249-0.14342-0.52607-0.97426 0.85003
   2  -8   1 204.379 99.2344   4 0.00832 0.15627-0.48390-0.18422-0.85900 0.98266
  -3  -8  -1 150.475 84.9953   4-0.09175-0.14759-0.21176-0.45796-0.97348 0.83542
   3   8   1 123.956 77.8182   2 0.30819-0.06998 0.13940 0.52918 0.98131-0.84437
  -3   8  -1 4.06933 36.2668   6-0.20842-0.03063 0.17159 0.49830-0.98473 0.84648
   3  -8   1 172.578 92.0293   9 0.07294 0.16539-0.21834-0.44987 0.97028-0.83305
   3   8   1 73.9827 58.3253   6-0.30437 0.54354 0.59771 0.07000-0.78467 0.92113
  -3  -8  -1 232.767 112.755   9-0.06103-0.17776-0.48685-0.18194 0.84592-0.98328
   3   8   1 30.0640 73.4885   1 0.13039 0.10818 0.19849 0.47063 0.97890-0.84162
  -3  -8  -1 178.996 92.3987   3-0.33282 0.09392-0.13162-0.53793-0.97860 0.84097
   3  -8   1 75.5048 83.4743   4 0.01528 0.22308-0.50123-0.16679-0.84800 0.98498
   4   8   1 179.570 94.9505   1 0.12766 0.18472 0.21623 0.45288 0.97503-0.82435
  -4  -8  -1 267.891 106.766   4-0.08320-0.22990-0.23676-0.43290-0.96701 0.81558
   4   8   1 294.905 109.171   2 0.30580 0.00606 0.13670 0.53182 0.98203-0.83178
  -4   8  -1 125.137 103.266   6-0.21021-0.10266 0.17823 0.49160-0.98348 0.83174
  -4  -8  -1 196.208 108.941   9-0.07054-0.24184-0.50451-0.16432 0.83355-0.98427
  -4  -8  -1 312.052 116.637   3-0.32760 0.01483-0.12745-0.54217-0.98004 0.82899
   4  -8   1 294.067 130.287   4 0.02440 0.28771-0.52360-0.14430-0.83300 0.98328
   5   8   1 -38.783 76.7145   2 0.30868 0.07681 0.13996 0.52850 0.98116-0.81760
   5   8   1 19.8642 42.9196   1 0.12328 0.26292 0.24403 0.42506 0.96827-0.80419
  -5   8  -1 -22.544 92.3774   6-0.21389-0.17279 0.19193 0.47787-0.98075 0.81561
  -5  -8  -1 88.3347 103.641   9-0.08245-0.30355-0.52633-0.14255 0.81738-0.98149
   5  -8   1 56.5426 77.3598   8 0.36589 0.01957-0.10916-0.55912 0.97527-0.81149
   5  -8   1 55.9437 66.3199   4 0.03551 0.35036-0.55037-0.11740-0.81382 0.97736
  -5  -8  -1 -62.876 57.6648   3-0.32945-0.05719-0.12892-0.54071-0.97954 0.81507
   6   8   1 85.6038 44.2914   2 0.31585 0.14329 0.14810 0.52032 0.97889-0.80202
  -6   8  -1 54.3390 73.3965   6-0.21925-0.24123 0.21215 0.45762-0.97632 0.79782
  -6  -8  -1 167.419 110.377   9-0.09650-0.36312-0.55166-0.11728 0.79733-0.97483
   6  -8   1 87.2681 56.5407   8 0.37164 0.08747-0.11180-0.55640 0.97374-0.79667
   6  -8   1 214.036 131.360   4 0.04848 0.41114-0.58093-0.08671-0.79017 0.96695
  -6  -8  -1 78.2286 84.2471   3-0.33674-0.12376-0.13476-0.53489-0.97749 0.79960
   7   8   1 -2.4485 38.2521   2 0.32651 0.20626 0.16025 0.50811 0.97524-0.78506
  -7   8  -1 32.2795 83.9724   6-0.22606-0.30817 0.23828 0.43139-0.96989 0.77792
  -7  -8  -1 -45.384 77.0283   9-0.11247-0.42075-0.57993-0.08906 0.77319-0.96410
   7  -8   1 27.2485 81.8099   8 0.38314 0.14961-0.11710-0.55102 0.97053-0.78017
  -7  -8  -1 -78.779 97.0025   3-0.34829-0.18608-0.14403-0.52562-0.97402 0.78271
  -7   9   1 -56.195 70.3746   6-0.27980-0.21871 0.46755 0.28442-0.87542 0.87826
   7   9  -1 93.5339 48.2989   5 0.60029-0.10135 0.24727 0.50485 0.85678-0.86148
  -7  -9   1 -45.570 93.3162   3-0.53111 0.03275-0.29612-0.45662-0.87695 0.88033
   7  -9  -1 108.018 97.9281   4-0.00959 0.50826-0.43842-0.31400-0.88550 0.88082
  -6   9   1 -32.501 59.7133   6-0.27669-0.14804 0.45271 0.29930-0.88382 0.90010
  -6  -9   1 -1.0315 63.7937   9-0.00596-0.41810-0.38100-0.37097 0.90821-0.89120
  -6  -9   1 87.6328 79.8776   3-0.53548 0.11099-0.29992-0.45279-0.87344 0.89021
   6   9  -1 177.660 92.0077   2 0.47503-0.05069 0.33715 0.41508 0.88541-0.90257
   6  -9  -1 92.0531 50.7960   4-0.02480 0.44971-0.39868-0.35394-0.90600 0.88805
  -5   9   1 69.1890 64.5341   6-0.27473-0.07622 0.44348 0.30855-0.88888 0.91858
  -5  -9   1 39.0277 49.4389   9 0.00986-0.36033-0.34941-0.40249 0.92323-0.89284
  -5  -9   1 14.0870 71.2728   3-0.54536 0.19472-0.30850-0.44415-0.86527 0.89542
   5   9  -1 32.1833 55.7491   2 0.47963-0.12895 0.34293 0.40937 0.88120-0.91168
   5  -9  -1 -46.977 75.2897   4-0.03823 0.38934-0.36281-0.39000-0.92253 0.89127
   4  -9  -1 560.877 176.809   4-0.04980 0.32711-0.33125-0.42173-0.93559 0.89101
  -4   9   1 696.489 184.553   6-0.27402-0.00314 0.44016 0.31186-0.89066 0.93376
   4   9  -1 680.714 185.572   2 0.48880-0.21177 0.35446 0.39792 0.87249-0.91631
  -4  -9   1 641.823 176.347   3-0.56177 0.28496-0.32287-0.42971-0.85086 0.89435
  -4  -9   1 580.019 167.681   9 0.02362-0.30050-0.32153-0.43032 0.93525-0.89149
   3  -9  -1 87.0818 59.4617   4-0.05946 0.26294-0.30445-0.44866-0.94565 0.88773
   3   9  -1 -21.212 42.1097   6-0.25722 0.46120 0.36513 0.38764-0.92658 0.86846
   3   9  -1 45.0252 94.7351   2 0.50316-0.29982 0.37272 0.37974 0.85792-0.91507
  -3   9   1 -49.452 57.9761   6-0.27464 0.07129 0.44308 0.30890-0.88909 0.94558
  -3  -9   1 -3.0642 55.9115   9 0.03515-0.23844-0.29785-0.45395 0.94458-0.88746
  -3  -9   1 -9.7763 48.9764   3-0.58592 0.38292-0.34428-0.40821-0.82761 0.88444
  -3  -9   1 21.1885 55.6430   4 0.02462-0.22893-0.52414-0.22773-0.83263 0.88928
   2  -9  -1 1225.35 234.579   4-0.06711 0.19677-0.28292-0.47030-0.95306 0.88178
  -2  -9   1 1268.38 239.294   9 0.04426-0.17396-0.27898-0.47280 0.95145-0.88098
   2   9  -1 1351.71 233.637   6-0.24632 0.37649 0.31916 0.43380-0.94467 0.87320
  -2   9   1 1413.91 252.852   6-0.27667 0.14712 0.45260 0.29933-0.88389 0.95374
   2  -9  -1 1552.72 259.364   9-0.07635 0.20562-0.51518-0.23711 0.82576-0.89643
  -2  -9   1 1325.01 247.113   4 0.01700-0.14757-0.50549-0.24640-0.84521 0.91528
   2   9  -1 1638.71 267.598   2 0.52339-0.39372 0.39882 0.35372 0.83534-0.90582
   1  -9  -1 31.2259 50.5924   4-0.07263 0.12846-0.26720-0.48609-0.95811 0.87345
   1   9  -1 171.635 72.3290   6-0.23756 0.29392 0.28354 0.46960-0.95679 0.87194
   1   9  -1 63.5376 54.7144   2 0.55002-0.49404 0.43400 0.31861 0.80134-0.88517
  -1   9   1 248.735 111.615   6-0.28012 0.22436 0.46906 0.28278-0.87454 0.95775
  -1  -9   1 63.1113 45.8801   9 0.05068-0.10678-0.26557-0.48618 0.95603-0.87222
   1  -9  -1 130.867 81.8626   9-0.06771 0.12336-0.49929-0.25300 0.83728-0.92127
  -1  -9   1 131.154 79.9484   4 0.01282-0.06962-0.49512-0.25678-0.85194 0.93540
   0  -9  -1 14.3698 52.8807   4-0.07588 0.05789-0.25789-0.49544-0.96095 0.86292
   0   9  -1 -18.338 45.1685   6-0.23096 0.21348 0.25735 0.49589-0.96467 0.86641
   0   9   1 86.4389 47.4408   6-0.28496 0.30298 0.49277 0.25897-0.86029 0.95683
   0  -9  -1 0.65147 55.4963   9-0.06353 0.04555-0.49151-0.26078 0.84272-0.94005
   0  -9   1 -3.5885 46.5689   9 0.05409-0.03661-0.25840-0.49334 0.95838-0.86123
   0  -9   1 11.7286 70.6921   4 0.01162 0.00533-0.49216-0.25972-0.85383 0.95067
   1   9   1 35.2995 47.0050   6-0.29109 0.38288 0.52400 0.22761-0.84002 0.94986
  -1  -9  -1 -11.507 71.2445   4-0.07665-0.01517-0.25570-0.49766-0.96160 0.85019
  -1   9  -1 143.933 117.667   6-0.22649 0.13517 0.23992 0.51342-0.96946 0.85781
   1  -9   1 -70.610 80.4952   9 0.05408 0.03701-0.25842-0.49333 0.95838-0.84787
  -1  -9  -1 -27.164 57.1084   9-0.06312-0.02848-0.49076-0.26154 0.84324-0.95391
   1   9   1 -21.061 51.8797   2 0.38464-0.29375 0.22767 0.52470 0.94942-0.83909
   1  -9   1 26.4445 77.9948   4 0.01310 0.07764-0.49583-0.25600-0.85148 0.96170
  -2  -9  -1 938.177 214.011   4-0.07466-0.09097-0.26140-0.49193-0.95989 0.83510
  -2   9  -1 856.960 197.037   6-0.22406 0.05890 0.23054 0.52289-0.97188 0.84687
  -2  -9  -1 857.578 208.689   9-0.06600-0.09920-0.49611-0.25620 0.83951-0.96353
   2   9   1 908.422 199.045   6-0.29832 0.46385 0.56288 0.18860-0.81222 0.93532
   2  -9   1 1121.59 211.049   9 0.05009 0.11460-0.26679-0.48498 0.95563-0.83177
   2  -9   1 974.002 228.586   4 0.01699 0.14754-0.50545-0.24632-0.84524 0.96880
   2   9   1 941.021 180.778   2 0.36531-0.20076 0.20503 0.54727 0.95917-0.83554
  -3  -9  -1 -13.339 66.4819   4-0.06955-0.16987-0.27599-0.47729-0.95532 0.81716
  -3   9  -1 53.5753 58.1259   6-0.22352-0.01548 0.22846 0.52499-0.97240 0.83398
   3   9   1 21.4639 15.5606   6-0.30630 0.54554 0.60938 0.14196-0.77483 0.91116
  -3  -9  -1 150.602 115.069   9-0.07176-0.16704-0.50677-0.24557 0.83192-0.96930
  -3  -9  -1 141.196 87.0031   3-0.39360 0.15482-0.18075-0.57240-0.95773 0.82003
   3  -9   1 68.1634 94.4619   4 0.02309 0.21523-0.52038-0.23130-0.83522 0.97211
   3   9   1 8.01272 76.1482   2 0.35381-0.11561 0.19168 0.56055 0.96441-0.82747
   4   9   1 204.695 102.417   2 0.34865-0.03680 0.18569 0.56646 0.96663-0.81638
  -4  -9  -1 318.344 113.480   9-0.08009-0.23232-0.52203-0.23034 0.82065-0.97139
  -4   9  -1 470.848 164.499   6-0.22476-0.08806 0.23324 0.52022-0.97119 0.81936
  -4  -9  -1 264.174 107.713   3-0.38362 0.07098-0.17261-0.58060-0.96170 0.81061
   4  -9   1 394.395 171.855   4 0.03120 0.28089-0.54004-0.21153-0.82139 0.97158
   5   9   1 -67.271 55.0548   2 0.34865 0.03685 0.18569 0.56640 0.96663-0.80307
  -5  -9  -1 138.229 135.696   9-0.09072-0.29531-0.54128-0.21113 0.80572-0.96984
  -5  -9  -1 4.01194 61.8295   3-0.38097-0.00555-0.17045-0.58281-0.96272 0.79821
   5  -9   1 24.5853 65.2942   4 0.04122 0.34465-0.56388-0.18757-0.80360 0.96707
  -6   9  -1 -125.72 90.7969   6-0.23201-0.22843 0.26151 0.49184-0.96348 0.78478
  -6  -9  -1 236.257 164.333   9-0.10342-0.35621-0.56395-0.18850 0.78707-0.96458
  -6  -9  -1 -24.081 79.8924   3-0.38404-0.07635-0.17295-0.58034-0.96154 0.78360
   6  -9   1 -104.44 104.635   4 0.05299 0.40663-0.59139-0.15992-0.78161 0.95832
   6   9   1 24.5750 79.1242   2 0.35292 0.10622 0.19064 0.56139 0.96480-0.78794
   7   9   1 66.8911 89.4546   5 0.42866 0.10515 0.15387 0.59762 0.95320-0.76271
   5  10  -1 1546.51 297.302   2 0.50441-0.15374 0.37431 0.46162 0.85660-0.88712
  -5 -10   1 1442.90 292.654   3-0.57934 0.22877-0.33842-0.49786-0.83420 0.86423
   4  10  -1 -172.91 139.795   2 0.51393-0.23693 0.38655 0.44946 0.84622-0.89006
  -4  10   1 -67.385 62.7497   6-0.28053 0.00339 0.47109 0.36456-0.87336 0.91631
  -4 -10   1 40.3702 97.4949   9 0.00278-0.27970-0.36361-0.47178 0.91667-0.87295
   4 -10  -1 107.280 45.8267   4-0.03408 0.31131-0.37398-0.46262-0.91758 0.87285
   3  10  -1 258.582 144.139   2 0.52814-0.32481 0.40501 0.43107 0.82966-0.88683
   3  10  -1 266.025 120.214   6-0.26818 0.47220 0.41340 0.42293-0.90442 0.84613
  -3  10   1 166.545 132.215   6-0.28119 0.07785 0.47425 0.36136-0.87150 0.92783
  -3 -10   1 389.760 154.495   9 0.01268-0.21601-0.34374-0.49163 0.92577-0.86869
  -3 -10   1 206.055 95.6389   4 0.03608-0.24049-0.55174-0.28373-0.81281 0.86932
   3 -10  -1 216.746 125.954   4-0.04259 0.24600-0.35096-0.48576-0.92759 0.86953
   2  10  -1 100.160 97.7787   2 0.54747-0.41783 0.43060 0.40556 0.80482-0.87532
   2  10  -1 73.4666 100.468   6-0.25862 0.38884 0.37114 0.46539-0.92400 0.85236
  -2  10   1 52.0967 65.0948   6-0.28306 0.15353 0.48340 0.35216-0.86604 0.93574
  -2 -10   1 -3.6398 38.0205   9 0.02021-0.14995-0.32848-0.50686 0.93236-0.86193
   2 -10  -1 65.6840 91.5824   9-0.09184 0.22107-0.54331-0.29255 0.80410-0.87481
  -2 -10   1 -74.748 84.0962   4 0.02870-0.15937-0.53401-0.30149-0.82571 0.89563
   2 -10  -1 71.7939 120.562   4-0.04920 0.17877-0.33290-0.50392-0.93495 0.86353
   1 -10  -1 751.792 186.027   4-0.05377 0.10950-0.32027-0.51661-0.93983 0.85505
   1  10  -1 815.534 219.974   6-0.25082 0.30722 0.33789 0.49879-0.93764 0.85263
  -1  10   1 880.170 228.115   6-0.28616 0.23043 0.49878 0.33669-0.85652 0.93958
  -1 -10   1 770.121 196.520   9 0.02513-0.08128-0.31845-0.51688 0.93651-0.85273
   1 -10  -1 844.210 223.038   9-0.08322 0.13882-0.52771-0.30813 0.81632-0.90036
  -1 -10   1 716.474 197.842   4 0.02444-0.08134-0.52370-0.31181-0.83293 0.91627
   0 -10  -1 56.4271 85.1086   4-0.05617 0.03808-0.31360-0.52330-0.94232 0.84417
   0  10  -1 212.807 119.433   6-0.24483 0.22740 0.31304 0.52379-0.94687 0.84848
   0  10   1 131.355 81.9652   6-0.29045 0.30851 0.52065 0.31472-0.84228 0.93866
   0 -10   1 -13.060 101.569   9 0.02714-0.00971-0.31432-0.52099 0.93817-0.84104
   0 -10  -1 248.351 131.995   9-0.07868 0.06066-0.51945-0.31639 0.82259-0.91996
   0 -10   1 283.644 158.106   4 0.02296-0.00608-0.52007-0.31543-0.83543 0.93215
  -1 -10  -1 1060.51 243.135   4-0.05621-0.03570-0.31350-0.52341-0.94236 0.83083
   1  10   1 1234.78 252.888   6-0.29584 0.38768 0.54921 0.28603-0.82234 0.93201
  -1  10  -1 1117.06 226.081   6-0.24064 0.14937 0.29595 0.54096-0.95275 0.84096
   1 -10   1 956.662 205.196   9 0.02586 0.06518-0.31696-0.51838 0.93711-0.82664
  -1 -10  -1 1208.84 266.039   9-0.07767-0.01397-0.51760-0.31824 0.82397-0.93468
   1 -10   1 1209.29 267.741   4 0.02395 0.06671-0.52250-0.31298-0.83376 0.94386
  -2 -10  -1 41.6969 47.3451   4-0.05363-0.11209-0.32066-0.51623-0.93968 0.81477
  -2 -10  -1 96.5150 92.8329   9-0.07974-0.08550-0.52138-0.31448 0.82114-0.94519
  -2  10  -1 71.0890 49.4620   6-0.23820 0.07308 0.28611 0.55087-0.95596 0.83078
   2  10   1 78.7800 63.0962   6-0.30213 0.46772 0.58456 0.25054-0.79539 0.91833
   2 -10   1 60.5889 51.5284   9 0.02077 0.14388-0.32735-0.50801 0.93284-0.80902
   2  10   1 77.9824 69.6667   2 0.41091-0.24637 0.25885 0.57709 0.93412-0.81048
   2 -10   1 55.1669 87.6320   4 0.02720 0.13726-0.53039-0.30503-0.82827 0.95171
  -3  10  -1 110.059 99.5210   6-0.23743-0.00153 0.28301 0.55401-0.95695 0.81836
  -3 -10  -1 55.7955 62.6021   9-0.08454-0.15429-0.53012-0.30575 0.81447-0.95188
   3  10   1 8.29875 50.4852   2 0.39757-0.15937 0.24297 0.59290 0.94219-0.80525
   3 -10   1 215.708 193.145   4 0.03253 0.20573-0.54322-0.29212-0.81908 0.95586
  -3 -10  -1 -64.878 81.7826   4-0.04810-0.19141-0.33592-0.50091-0.93375 0.79546
   4  10   1 137.511 141.386   2 0.39022-0.07836 0.23427 0.60153 0.94637-0.79612
   2  11  -1 114.233 97.4804   6-0.26994 0.40020 0.42139 0.49869-0.90043 0.82859
  -2 -11   1 188.707 143.374   4 0.04159-0.17237-0.56479-0.35434-0.80291 0.87267
   1  11  -1 145.737 139.065   6-0.26298 0.31942 0.39018 0.53007-0.91550 0.83030
   1 -11  -1 127.186 109.638   9-0.10024 0.15579-0.55833-0.36108 0.79181-0.87590
  -1 -11   1 203.415 138.011   4 0.03722-0.09422-0.55443-0.36471-0.81079 0.89397
   0 -11   1 -28.397 61.9145   9 0.00055 0.01683-0.36806-0.55085 0.91455-0.81747
   0 -11  -1 1.23609 69.2867   9-0.09532 0.07726-0.54955-0.36984 0.79905-0.89648
   1  11   1 -54.647 118.180   6-0.30084 0.39272 0.57709 0.34177-0.80130 0.91079
   1 -11   1 -80.501 86.0760   9-0.00183 0.09281-0.37279-0.54613 0.91226-0.80184
   2  11   1 -18.702 66.3191   6-0.30632 0.47197 0.60953 0.30920-0.77470 0.89745
  -2 -11  -1 64.8768 75.4190   4-0.03295-0.13287-0.37701-0.54341-0.91620 0.79114
  12   0  -2 52.2306 104.575   5 0.61511 0.23409 0.25556-0.25459 0.84498-0.88027
  12   0  -2 140.831 91.6246   8 0.61607 0.23317-0.22739 0.22755 0.85338-0.88754
 -12   0   2 238.019 134.929   7-0.62030-0.22881 0.12346-0.12370-0.87423 0.90812
 -11   0   2 11.0374 64.9997   3-0.59074-0.18521-0.34860 0.34926-0.82265 0.86969
  11   0  -2 -77.499 81.4715   5 0.60005 0.17546 0.24713-0.24622 0.85697-0.90556
  11   0  -2 64.1282 90.8601   8 0.60089 0.17474-0.22000 0.22017 0.86469-0.91214
 -11   0   2 -88.883 79.4852   7-0.60517-0.17013 0.11961-0.11986-0.88374 0.93107
 -10   0   2 3033.75 339.152   3-0.57905-0.12309-0.33816 0.33877-0.83448 0.89496
  10   0  -2 2393.85 319.380   8 0.58925 0.11277-0.21435 0.21453 0.87295-0.93370
  10   0  -2 2787.33 324.900   5 0.58849 0.11334 0.24070-0.23985 0.86570-0.92761
 -10   0   2 2697.86 324.058   7-0.59369-0.10781 0.11672-0.11696-0.89064 0.95138
   9   0  -2 -18.339 41.1318   2 0.55686 0.07135 0.44322-0.44314 0.79171-0.86580
  -9   0   2 21.2942 36.5056   3-0.57159-0.05673-0.33154 0.33212-0.84170 0.91559
   9   0  -2 -62.768 50.4534   5 0.58148 0.04667 0.23681-0.23602 0.87081-0.94605
   9   0  -2 40.7527 52.9780   8 0.58221 0.04620-0.21095 0.21112 0.87776-0.95185
   8   0  -2 0.31667 31.8546   2 0.55392 0.00065 0.43926-0.43918 0.79589-0.88333
  -8   0   2 75.8492 45.6851   3-0.56971 0.01519-0.32988 0.33040-0.84349 0.93079
   8   0  -2 89.3901 63.3381   5 0.58049-0.02603 0.23626-0.23552 0.87152-0.96011
   8   0  -2 86.7678 47.2990   8 0.58125-0.02646-0.21049 0.21065 0.87841-0.96584
  -8   0   2 23.8529 29.5440   7-0.58657 0.03266 0.11492-0.11516-0.89477 0.98230
   7   0  -2 -5.4481 13.7146   4-0.11306 0.59430-0.14785 0.14775-0.98672 0.88517
  -7   0   2 -10.970 15.4269   9 0.11429-0.59417-0.12780 0.12778 0.98961-0.88870
   7   0  -2 37.0778 47.9858   2 0.55728-0.07636 0.44380-0.44373 0.79109-0.89188
  -7   0   2 -18.192 31.9156   3-0.57517 0.09445-0.33472 0.33519-0.83827 0.93894
   7   0  -2 35.3543 37.2162   5 0.58754-0.10676 0.24017-0.23949 0.86640-0.96834
   7   0  -2 50.4601 46.3438   8 0.58845-0.10729-0.21397 0.21412 0.87350-0.97429
  -7   0   2 -10.218 44.0553   7-0.59471 0.11456 0.11697-0.11722-0.89004 0.99092
   6   0  -2 2801.29 256.117   8 0.60674-0.19924-0.22284 0.22299 0.86041-0.97459
  -6   0   2 2740.81 165.478   9 0.20960-0.61575 0.09669-0.09662 0.99486-0.88065
   6   0  -2 2726.11 247.096   5 0.60546-0.19836 0.25016-0.24953 0.85274-0.96805
  -6   0   2 2815.37 260.059   7-0.61457 0.20819 0.12200-0.12225-0.87789 0.99210
   6   0  -2 2880.40 157.064   4-0.20555 0.61344 0.16011-0.16041-0.98675 0.87170
  -5   0   2 5.99360 39.2975   7-0.65068 0.31802 0.13121-0.13145-0.85352 0.98104
  -5   0   2 -6.8745 14.0942   9 0.29525-0.62775 0.32336-0.32325 0.93761-0.81014
  -5   0   2 10.2237 27.2421   3-0.61816 0.28497-0.37340 0.37377-0.79224 0.91963
   5   0  -2 -37.929 37.1226   5 0.63801-0.30463 0.26847-0.26791 0.82537-0.95405
   5   0  -2 -31.011 31.5249   8 0.64012-0.30628-0.23917 0.23931 0.83408-0.96167
 -12  -1   2 161.452 103.752   3-0.58270-0.26711-0.34141 0.25849-0.83085 0.86451
  12  -1  -2 130.921 130.569   5 0.63977 0.20943 0.26946-0.35209 0.82379-0.85911
  12   1  -2 57.7449 58.8570   5 0.59872 0.25047 0.24639-0.16186 0.85799-0.89325
  12  -1  -2 22.8710 50.0162   8 0.60153 0.24764-0.22031 0.13700 0.86423-0.89835
  12   1  -2 35.1965 67.5602   8 0.63865 0.21068-0.23845 0.32208 0.83531-0.86953
 -12   1   2 160.534 97.7459   7-0.61367-0.23550 0.12177-0.03830-0.87846 0.91234
 -12  -1   2 129.236 43.5411   7-0.63421-0.21480 0.12700-0.21095-0.86501 0.89890
  11  -1  -2 -132.63 99.8758   5 0.62616 0.14936 0.26177-0.34446 0.83574-0.88436
 -11  -1   2 -10.550 45.2763   3-0.56691-0.20908-0.32741 0.24443-0.84611 0.89323
  11   1  -2 59.4600 64.7343   5 0.58301 0.19251 0.23765-0.15318 0.86971-0.91828
  11  -1  -2 -54.792 84.4691   8 0.58577 0.18979-0.21267 0.12936 0.87534-0.92275
  11   1  -2 -17.730 108.517   8 0.62482 0.15091-0.23166 0.31531 0.84656-0.89408
 -11   1   2 -9.9417 44.9876   7-0.59832-0.17703 0.11789-0.03442-0.88789 0.93522
 -11  -1   2 20.1514 73.9162   7-0.61997-0.15526 0.12337-0.20731-0.87444 0.92176
  10  -1  -2 43.0688 51.3644   5 0.61644 0.08538 0.25631-0.33905 0.84389-0.90583
  10   1  -2 139.617 59.2342   2 0.53376 0.16800 0.41240-0.32876 0.82272-0.88345
 -10  -1   2 63.2397 62.4854   3-0.55406-0.14810-0.31611 0.23310-0.85775 0.91830
  10   1  -2 59.1344 33.9889   5 0.57054 0.13131 0.23075-0.14633 0.87852-0.94041
  10  -1  -2 -10.337 48.2770   8 0.57332 0.12863-0.20666 0.12334 0.88367-0.94439
  10   1  -2 66.6003 84.1598   8 0.61487 0.08725-0.22680 0.31046 0.85430-0.91512
 -10   1   2 74.0362 37.1155   7-0.58650-0.11505 0.11490-0.03144-0.89481 0.95556
 -10  -1   2 128.374 89.7032   7-0.60959-0.09184 0.12074-0.20466-0.88102 0.94175
   9   1  -2 29.8650 27.5848   2 0.52417 0.10395 0.39984-0.31620 0.83441-0.90846
  -9   1   2 76.5476 66.3782   3-0.61103-0.01728-0.36691 0.45106-0.80053 0.87434
  -9  -1   2 -14.028 40.9663   3-0.54501-0.08335-0.30820 0.22514-0.86556 0.93953
   9  -1  -2 13.1449 33.9787   5 0.61183 0.01631 0.25372-0.33652 0.84766-0.92293
   9   1  -2 54.3392 42.0796   5 0.56227 0.06592 0.22618-0.14182 0.88414-0.95936
   9  -1  -2 40.8027 66.4968   8 0.56514 0.06320-0.20273 0.11939 0.88893-0.96298
   9   1  -2 -25.008 48.1933   8 0.61004 0.01847-0.22444 0.30811 0.85796-0.93211
  -9   1   2 -3.8909 34.4016   7-0.57927-0.04848 0.11307-0.02963-0.89891 0.97306
  -9  -1   2 47.6666 70.9818   7-0.60428-0.02336 0.11939-0.20331-0.88429 0.95841
   8   1  -2 322.400 95.5768   2 0.51882 0.03566 0.39287-0.30924 0.84067-0.92806
  -8  -1   2 176.807 76.4684   3-0.54087-0.01367-0.30458 0.22149-0.86903 0.95640
   8  -1  -2 185.794 77.1719   5 0.61399-0.05955 0.25493-0.33780 0.84590-0.93451
   8   1  -2 275.724 91.5833   5 0.55947-0.00495 0.22464-0.14033 0.88600-0.97456
   8  -1  -2 275.212 98.6534   8 0.56254-0.00784-0.20149 0.11813 0.89057-0.97795
   8   1  -2 138.545 74.6912   8 0.61198-0.05710-0.22539 0.30907 0.85649-0.94399
  -8   1   2 236.998 85.9738   7-0.57808 0.02413 0.11277-0.02934-0.89957 0.98710
  -8  -1   2 265.387 96.0975   7-0.60573 0.05186 0.11976-0.20365-0.88340 0.97090
  -8   1   2 301.844 102.653   3-0.61299 0.05848-0.36869 0.45279-0.79828 0.88549
   7   1  -2 1780.09 220.834   8 0.62308-0.14183-0.23080 0.31449 0.84794-0.94881
  -7  -1   2 1761.03 209.374   3-0.54314 0.06241-0.30657 0.22344-0.86713 0.96788
  -7  -1   2 1732.84 160.033   9 0.12552-0.60535-0.10257 0.01902 0.99320-0.89229
   7  -1  -2 2054.18 227.215   5 0.62524-0.14451 0.26126-0.34419 0.83652-0.93849
   7   1  -2 1829.50 215.189   5 0.56392-0.08308 0.22709-0.14283 0.88303-0.98495
   7  -1  -2 1571.51 215.254   8 0.56740-0.08631-0.20382 0.12043 0.88749-0.98824
   7  -1  -2 1790.79 148.976   4-0.12587 0.60729-0.10833 0.02456-0.99258 0.89103
  -7   1   2 1711.82 216.082   7-0.58503 0.10485 0.11452-0.03111-0.89566 0.99654
  -7  -1   2 1728.48 214.835   7-0.61633 0.13622 0.12245-0.20633-0.87677 0.97763
   7   1  -2 1666.26 203.477   2 0.51892-0.03807 0.39300-0.30937 0.84055-0.94129
   6  -1  -2 157.505 41.0838   4-0.18527 0.59315 0.08756-0.17158-0.99616 0.88112
   6   1  -2 188.774 30.3438   4-0.23799 0.64594 0.28422-0.20076-0.95655 0.84145
  -6   1   2 190.817 41.9060   1 0.17257-0.57903-0.13931 0.22314 0.99025-0.87619
   6   1  -2 189.824 65.4310   2 0.52602-0.11881 0.40223-0.31859 0.83222-0.94632
  -6  -1   2 157.151 50.9476   9 0.19279-0.59894 0.05531-0.13875 0.99839-0.88417
  -6  -1   2 123.650 58.5506   3-0.55387 0.14694-0.31594 0.23277-0.85793 0.97204
   6  -1  -2 181.222 63.8609   5 0.64873-0.24172 0.27454-0.35755 0.81557-0.93089
   6   1  -2 226.393 78.5056   5 0.57810-0.17095 0.23494-0.15072 0.87323-0.98852
   6  -1  -2 221.004 77.2097   8 0.58229-0.17485-0.21099 0.12759 0.87771-0.99183
   6   1  -2 187.623 71.7416   8 0.64657-0.23898-0.24234 0.32604 0.82861-0.94287
  -6   1   2 183.003 33.5750   9 0.22506-0.63120 0.13552-0.05194 0.98967-0.87547
  -6   1   2 196.131 65.6010   7-0.60307 0.19667 0.11908-0.03569-0.88502 0.99924
  -6  -1   2 115.606 53.9680   7-0.63949 0.23313 0.12835-0.21221-0.86140 0.97558
   5   1  -2 567.481 105.368   2 0.54190-0.20837 0.42317-0.33952 0.81227-0.93975
  -5  -1   2 549.066 88.3075   9 0.25574-0.58826 0.21511-0.29849 0.97322-0.84571
   5   1  -2 558.882 113.539   5 0.60540-0.27195 0.25013-0.16596 0.85279-0.98146
   5  -1  -2 474.207 111.872   8 0.61081-0.27703-0.22482 0.14139 0.85738-0.98490
   5  -1  -2 536.870 80.2983   4-0.23517 0.56935 0.27299-0.35717-0.96005 0.83145
  -5  -1   2 789.471 137.750   7-0.67996 0.34730 0.13875-0.22259-0.83136 0.95885
  -5   1   2 592.473 119.187   7-0.63645 0.30380 0.12757-0.04420-0.86349 0.99102
  -4  -1   2 769.802 126.669   3-0.61145 0.35206-0.36729 0.28405-0.80005 0.94084
   4   1  -2 641.093 121.327   5 0.65003-0.39029 0.27529-0.19119 0.81435-0.95642
   4  -1  -2 535.824 106.502   8 0.65753-0.39745-0.24775 0.16430 0.81898-0.95991
  -4   1   2 849.198 135.629   7-0.69066 0.43171 0.14151-0.05816-0.82268 0.96349
 -12  -2   2 83.9596 105.829   7-0.65577-0.19315 0.13251-0.30014-0.84983 0.88369
 -12  -2   2 226.941 119.195   3-0.56790-0.28195-0.32828 0.16170-0.84519 0.87890
  12   2  -2 151.242 81.4238   5 0.58979 0.25940 0.24142-0.07335 0.86474-0.89999
  12  -2  -2 298.185 115.131   8 0.59430 0.25481-0.21680 0.05002 0.86941-0.90351
 -12   2   2 56.3578 80.2356   7-0.61395-0.23525 0.12184 0.04536-0.87828 0.91214
  11   2  -2 -68.304 92.6450   2 0.52673 0.24858 0.40317-0.23599 0.83136-0.87876
 -11  -2   2 53.9272 92.7230   3-0.55199-0.22404-0.31429 0.14766-0.85957 0.90673
  11   2  -2 66.8347 36.6412   5 0.57407 0.20147 0.23270-0.06468 0.87607-0.92463
  11  -2  -2 28.4463 39.1790   8 0.57859 0.19692-0.20921 0.04241 0.88019-0.92758
  11   2  -2 79.2798 91.4596   8 0.65833 0.11751-0.24815 0.41529 0.81826-0.86588
 -11   2   2 -1.9700 46.0912   7-0.59895-0.17643 0.11805 0.04915-0.88751 0.93481
 -11  -2   2 -70.392 80.9328   7-0.64309-0.13204 0.12927-0.29687-0.85890 0.90618
  10   2  -2 547.459 148.412   2 0.51348 0.18821 0.38596-0.21878 0.84673-0.90744
  10  -2  -2 662.992 170.560   5 0.65546 0.04634 0.27838-0.44476 0.80920-0.87116
 -10  -2   2 431.637 134.937   3-0.53884-0.16336-0.30283 0.13615-0.87071 0.93130
  10   2  -2 497.625 137.758   5 0.56144 0.14043 0.22573-0.05777 0.88468-0.94656
  10  -2  -2 519.063 155.291   8 0.56607 0.13583-0.20318 0.03636 0.88834-0.94904
  10   2  -2 538.953 149.175   8 0.65112 0.05111-0.24459 0.41175 0.82466-0.88558
 -10   2   2 475.173 127.403   7-0.58747-0.11411 0.11514 0.05203-0.89426 0.95497
 -10  -2   2 577.021 154.475   7-0.63464-0.06671 0.12711-0.29468-0.86472 0.92542
   9   2  -2 149.407 46.4271   2 0.50322 0.12483 0.37279-0.20561 0.85786-0.93190
   9  -2  -2 183.183 98.4887   5 0.65453-0.02644 0.27785-0.44429 0.81009-0.88538
  -9  -2   2 155.114 69.5952   3-0.52919-0.09918-0.29447 0.12776-0.87847 0.95248
   9   2  -2 123.828 60.2912   5 0.55279 0.07542 0.22097-0.05306 0.89035-0.96556
   9  -2  -2 22.9467 34.9830   8 0.55762 0.07067-0.19912 0.03227 0.89363-0.96765
   9   2  -2 308.178 129.294   8 0.64971-0.02110-0.24390 0.41107 0.82589-0.90015
  -9   2   2 285.540 112.586   7-0.58051-0.04726 0.11339 0.05376-0.89821 0.97233
  -9  -2   2 144.142 83.4813   7-0.63173 0.00415 0.12636-0.29392-0.86669 0.94078
  -8  -2   2 483.805 100.105   9 0.06888-0.62238-0.22703 0.05985 0.96787-0.88033
   8   2  -2 513.423 128.344   2 0.49676 0.05766 0.36454-0.19735 0.86456-0.95194
   8  -2  -2 207.441 93.6295   5 0.66136-0.10698 0.28175-0.44826 0.80347-0.89210
  -8  -2   2 479.781 118.493   3-0.52401-0.03053-0.29000 0.12325-0.88250 0.96992
   8   2  -2 468.277 119.103   5 0.54927 0.00529 0.21903-0.05116 0.89261-0.98116
   8  -2  -2 426.986 128.306   8 0.55445 0.00021-0.19760 0.03073 0.89557-0.98293
   8   2  -2 460.954 119.657   8 0.65601-0.10104-0.24701 0.41421 0.82033-0.90795
  -8   2   2 593.859 140.826   7-0.57949 0.02552 0.11313 0.05399-0.89879 0.98629
  -8  -2   2 506.823 131.895   7-0.63617 0.08236 0.12750-0.29502-0.86368 0.95114
   7  -2  -2 421.369 80.4490   4-0.12438 0.60587-0.11297-0.05449-0.99198 0.89039
  -7  -2   2 395.336 81.3755   9 0.12324-0.60305-0.10771-0.05936 0.99253-0.89162
   7   2  -2 348.044 97.2367   2 0.49509-0.01431 0.36243-0.19523 0.86625-0.96697
   7  -2  -2 -3.9386 68.1627   5 0.67849-0.19784 0.29159-0.45817 0.78603-0.88801
  -7  -2   2 383.345 107.217   3-0.52458 0.04387-0.29050 0.12373-0.88206 0.98286
   7   2  -2 371.036 103.895   5 0.55244-0.07155 0.22078-0.05296 0.89058-0.99249
   7  -2  -2 395.008 123.273   8 0.55823-0.07720-0.19941 0.03250 0.89325-0.99398
  -7   2   2 345.545 68.4106   1 0.13645-0.61665 0.15778 0.00984 0.98651-0.88592
  -7   2   2 497.663 119.359   7-0.58636 0.10618 0.11486 0.05223-0.89489 0.99576
  -7  -2   2 610.453 130.472   7-0.65058 0.17051 0.13119-0.29868-0.85359 0.95440
  -6  -2   2 625.722 128.348   7-0.67854 0.27220 0.13838-0.30583-0.83249 0.94662
   6   2  -2 476.317 39.5188   6-0.09910 0.50645-0.18925 0.35715-0.97867 0.86358
   6  -2  -2 503.753 89.1536   4-0.16840 0.57626 0.02961-0.19733-0.99948 0.88444
  -6  -2   2 450.626 88.0694   9 0.17527-0.58142 0.01304-0.18002 0.99989-0.88566
   6   2  -2 474.530 101.828   2 0.49951-0.09237 0.36805-0.20084 0.86174-0.97582
  -6  -2   2 481.832 106.062   3-0.53264 0.12573-0.29745 0.13065-0.87573 0.98990
   6   2  -2 556.416 113.057   5 0.56450-0.15728 0.22741-0.05964 0.88264-0.99792
   6  -2  -2 520.178 113.348   8 0.57127-0.16388-0.20567 0.03873 0.88501-0.99910
  -6   2   2 508.090 82.8420   1 0.16247-0.56901-0.04353 0.21099 0.99888-0.88482
  -6   2   2 564.596 120.246   7-0.60392 0.19753 0.11930 0.04776-0.88451 0.99871
  -5  -2   2 -5.0225 29.6959   7-0.72475 0.39209 0.15040-0.31780-0.79266 0.92011
  -5   2   2 12.2383 10.4016   1 0.17948-0.51238-0.21494 0.38227 0.97666-0.84919
   5  -2  -2 3.66330 31.8796   4-0.20708 0.54121 0.16572-0.33364-0.98578 0.85724
   5   2  -2 -20.276 31.5270   2 0.51157-0.17808 0.38350-0.21626 0.84885-0.97630
  -5  -2   2 -3.9214 22.2888   9 0.22431-0.55682 0.13363-0.30052 0.98996-0.86243
  -5  -2   2 13.8688 26.0381   3-0.55036 0.21725-0.31288 0.14606-0.86098 0.98850
   5   2  -2 -25.642 23.2515   5 0.58840-0.25486 0.24065-0.07292 0.86576-0.99444
   5  -2  -2 8.97943 35.6312   8 0.59673-0.26301-0.21798 0.05099 0.86769-0.99517
  -5   2   2 90.4614 51.4375   7-0.63608 0.30344 0.12748 0.03954-0.86374 0.99126
  -4   2   2 73.0035 41.3213   7-0.68792 0.42899 0.14080 0.02618-0.82493 0.96573
  -4  -2   2 64.8506 33.1220   9 0.26945-0.52837 0.25185-0.41868 0.96290-0.82208
   4  -2  -2 54.3587 30.0667   4-0.24003 0.50036 0.29246-0.46052-0.95389 0.81182
   4   2  -2 121.540 59.9124   2 0.53296-0.27316 0.41135-0.24410 0.82372-0.96455
   4  -2  -2 36.5513 15.1852   8 0.63873-0.37871-0.23849 0.07146 0.83524-0.97613
 -12  -3   2 160.819 145.427   7-0.68519-0.16362 0.14009-0.39136-0.82716 0.86097
 -12  -3   2 2.16815 81.1999   3-0.56012-0.28977-0.32142 0.07115-0.85235 0.88609
 -11  -3   2 155.725 120.200   7-0.67484-0.10019 0.13743-0.38865-0.83540 0.88264
  11   3  -2 218.984 128.493   2 0.51479 0.26046 0.38766-0.13695 0.84525-0.89265
 -11  -3   2 92.0233 92.9261   3-0.54461-0.23144-0.30785 0.05754-0.86590 0.91309
  11   3  -2 51.1867 64.2387   5 0.57230 0.20325 0.23172 0.01981 0.87730-0.92586
  11  -3  -2 172.941 110.385   8 0.57855 0.19694-0.20919-0.04111 0.88022-0.92762
 -11   3   2 284.845 152.630   7-0.60661-0.16880 0.11998 0.13094-0.88286 0.93011
 -10  -3   2 223.060 105.744   7-0.66918-0.03208 0.13596-0.38716-0.83979 0.90043
  10   3  -2 285.205 112.757   2 0.50180 0.19983 0.37097-0.12025 0.85936-0.92007
 -10  -3   2 286.532 107.054   3-0.53176-0.17045-0.29669 0.04634-0.87643 0.93706
  10   3  -2 223.866 105.927   5 0.56012 0.14179 0.22500 0.02648 0.88557-0.94745
  10  -3  -2 209.359 97.6960   8 0.56653 0.13533-0.20340-0.04693 0.88805-0.94875
 -10   3   2 234.092 103.116   7-0.59604-0.10554 0.11731 0.13359-0.88925 0.94992
  -9  -3   2 261.532 90.7092   7-0.66965 0.04215 0.13609-0.38724-0.83942 0.91346
   9   3  -2 398.901 125.983   2 0.49161 0.13640 0.35801-0.10729 0.86973-0.94377
  -9  -3   2 259.824 105.701   3-0.52223-0.10615-0.28846 0.03808-0.88386 0.95791
   9   3  -2 203.126 73.3133   5 0.55178 0.07648 0.22041 0.03102 0.89101-0.96622
   9  -3  -2 301.735 134.396   8 0.55850 0.06975-0.19954-0.05082 0.89309-0.96711
  -9   3   2 491.270 142.664   7-0.59004-0.03773 0.11579 0.13507-0.89277 0.96685
  -8  -3   2 358.143 116.431   7-0.67825 0.12450 0.13831-0.38941-0.83272 0.92012
   8  -3  -2 231.615 76.0103   4-0.07913 0.63420-0.24855-0.00230-0.96369 0.87533
  -8  -3   2 236.209 89.2573   9 0.07038-0.62385-0.22383-0.02688 0.96877-0.88123
   8   3  -2 140.505 66.4598   2 0.48490 0.06947 0.34954-0.09880 0.87625-0.96362
  -8  -3   2 263.055 88.6991   3-0.51688-0.03766-0.28386 0.03345-0.88790 0.97535
   8   3  -2 215.668 77.8107   5 0.54834 0.00626 0.21852 0.03287 0.89320-0.98175
   8  -3  -2 292.549 104.541   8 0.55557-0.00095-0.19813-0.05226 0.89489-0.98225
  -8   3   2 319.893 105.252   7-0.58996 0.03600 0.11577 0.13505-0.89282 0.98028
  -7  -3   2 666.638 124.451   9 0.11491-0.59471-0.12642-0.12417 0.98982-0.88892
   7   3  -2 664.440 135.806   2 0.48252-0.00179 0.34656-0.09580 0.87849-0.97922
  -7  -3   2 831.500 155.785   3-0.51681 0.03611-0.28380 0.03338-0.88795 0.98878
   7   3  -2 790.151 152.833   5 0.55124-0.07029 0.22012 0.03124 0.89135-0.99326
  -7   3   2 877.469 123.531   1 0.13429-0.61455 0.17252 0.07868 0.98396-0.88336
   7  -3  -2 1031.66 182.947   8 0.55926-0.07827-0.19990-0.05054 0.89262-0.99333
   7  -3  -2 929.033 145.789   4-0.11770 0.59924-0.13365-0.11750-0.98903 0.88743
  -7  -3   2 1149.96 197.942   7-0.69772 0.21768 0.14335-0.39441-0.81676 0.91751
  -7   3   2 967.179 169.007   7-0.59769 0.11753 0.11773 0.13306-0.88827 0.98909
  -6  -3   2 172.555 64.7577   9 0.15722-0.56338-0.02962-0.22088 0.99927-0.88503
  -6  -3   2 111.694 65.0356   7-0.73166 0.32532 0.15221-0.40321-0.78611 0.90020
   6  -3  -2 191.829 64.2461   4-0.15274 0.56059-0.02243-0.22899-0.99933 0.88428
  -6   3   2 97.5124 40.1137   6-0.30453-0.10209 0.59863-0.34879-0.78390 0.89773
   6   3  -2 228.539 83.7032   2 0.48555-0.07846 0.35036-0.09958 0.87563-0.98970
  -6  -3   2 345.576 98.7318   3-0.52350 0.11661-0.28955 0.03911-0.88290 0.99710
   6   3  -2 295.957 88.4340   5 0.56240-0.15511 0.22626 0.02506 0.88405-0.99934
  -6   3   2 271.004 74.1404   1 0.15423-0.56084 0.02592 0.22515 0.99928-0.88523
   6  -3  -2 289.684 95.2802   8 0.57164-0.16430-0.20585-0.04465 0.88477-0.99885
  -6   3   2 197.974 79.9069   7-0.61585 0.20947 0.12233 0.12840-0.87708 0.99124
   5   3  -2 51.7893 25.6519   6-0.09650 0.43011-0.19697 0.44865-0.97695 0.84832
   5  -3  -2 107.233 49.6841   4-0.18399 0.51809 0.08309-0.33472-0.99655 0.86804
  -5  -3   2 25.7685 31.1939   9 0.19699-0.52953 0.06556-0.31598 0.99770-0.87015
  -5   3   2 72.3044 44.6261   6-0.30281-0.03014 0.58848-0.33865-0.79223 0.91944
   5   3  -2 61.2716 48.1119   2 0.49524-0.16181 0.36262-0.11181 0.86610-0.99354
  -5  -3   2 5.64331 25.2962   3-0.53877 0.20570-0.30277 0.05233-0.87076 0.99831
   5   3  -2 110.791 47.0651   5 0.58440-0.25079 0.23843 0.01286 0.86870-0.99738
  -5   3   2 99.1259 46.7670   1 0.16891-0.50188-0.10298 0.35395 0.99463-0.86716
   5  -3  -2 10.0969 38.0731   8 0.59551-0.26183-0.21738-0.03318 0.86856-0.99602
  -5   3   2 -7.1691 43.5366   7-0.64804 0.31542 0.13054 0.12013-0.85540 0.98288
  -4   3   2 551.340 118.836   7-0.69879 0.43988 0.14362 0.10699-0.81585 0.95661
   4   3  -2 202.953 50.8200   6-0.04782 0.30768-0.33604 0.58781-0.93367 0.79149
   4  -3  -2 433.873 90.8527   4-0.21134 0.47163 0.18147-0.43328-0.98285 0.84085
   4   3  -2 415.269 99.9229   2 0.51306-0.25330 0.38543-0.13458 0.84719-0.98801
  -4  -3   2 508.242 104.575   9 0.23383-0.49277 0.15793-0.40827 0.98584-0.84497
  -4   3   2 336.377 83.8170   6-0.30299 0.04372 0.58958-0.33976-0.79134 0.93191
  -4   3   2 468.894 90.8142   1 0.17937-0.43869-0.21370 0.46461 0.97693-0.83607
   4  -3  -2 444.599 108.221   8 0.63445-0.37446-0.23638-0.01424 0.83879-0.97965
  12   4  -2 54.4658 76.1579   2 0.52384 0.32499 0.39941-0.06516 0.83480-0.86891
  11   4  -2 85.7447 103.448   2 0.50933 0.26588 0.38060-0.04636 0.85132-0.89873
 -11  -4   2 186.897 75.7347   3-0.54358-0.23248-0.30695-0.02707-0.86677 0.91397
  11   4  -2 20.5401 36.8137   5 0.57685 0.19873 0.23423 0.10080 0.87412-0.92269
  11  -4  -2 111.983 75.4629   8 0.58483 0.19062-0.21222-0.12158 0.87598-0.92339
 -11   4   2 37.0498 46.0732   7-0.62076-0.15464 0.12358 0.21108-0.87393 0.92110
  10   4  -2 -106.27 93.8150   2 0.49699 0.20460 0.36483-0.03057 0.86433-0.92506
 -10  -4   2 116.329 83.3065   3-0.53145-0.17077-0.29641-0.03763-0.87669 0.93733
  10   4  -2 103.489 82.8153   5 0.56554 0.13640 0.22799 0.10700 0.88194-0.94383
  10  -4  -2 74.0528 96.3545   8 0.57379 0.12805-0.20689-0.12695 0.88336-0.94408
 -10   4   2 -47.008 57.0281   7-0.61160-0.08997 0.12125 0.21337-0.87976 0.94036
  -9  -4   2 612.111 191.944   7-0.71810 0.09065 0.14865-0.48337-0.79882 0.87279
  -9  -4   2 721.612 163.036   9 0.02588-0.65301-0.31691-0.01744 0.93713-0.86298
   9   4  -2 479.867 140.283   2 0.48731 0.14065 0.35257-0.01830 0.87394-0.94799
  -9  -4   2 673.052 163.967   3-0.52252-0.10585-0.28871-0.04536-0.88365 0.95771
   9   4  -2 780.352 174.775   5 0.55802 0.07027 0.22385 0.11109 0.88695-0.96217
   9  -4  -2 582.471 163.755   8 0.56670 0.06153-0.20348-0.13042 0.88794-0.96198
  -9   4   2 840.829 181.938   7-0.60712-0.02064 0.12011 0.21447-0.88255 0.95656
  -8  -4   2 32.1702 42.5917   7-0.73182 0.17810 0.15226-0.48691-0.78596 0.87329
   8  -4  -2 -27.061 50.2102   4-0.07650 0.63161-0.25613-0.07840-0.96148 0.87304
  -8  -4   2 46.9465 58.4764   9 0.06553-0.61898-0.23418-0.10006 0.96583-0.87829
  -8   4   2 3.14571 23.0822   6-0.30459-0.24944 0.59898-0.26564-0.78361 0.87063
   8   4  -2 11.0211 46.2912   2 0.48090 0.07343 0.34451-0.01022 0.88002-0.96741
  -8  -4   2 -15.470 37.0801   3-0.51756-0.03696-0.28444-0.04964-0.88739 0.97485
   8   4  -2 58.4869 67.2805   5 0.55528-0.00063 0.22234 0.11256 0.88874-0.97731
   8  -4  -2 -71.322 90.8411   8 0.56460-0.01002-0.20248-0.13147 0.88927-0.97664
  -8   4   2 106.582 48.4706   7-0.60862 0.05468 0.12049 0.21404-0.88162 0.96901
  -7   4   2 1193.45 177.511   6-0.29994-0.18042 0.57197-0.23862-0.80529 0.90572
  -7  -4   2 1202.49 198.062   3-0.51756 0.03687-0.28445-0.04965-0.88739 0.98824
  -7  -4   2 1081.19 169.447   9 0.10319-0.58300-0.15248-0.18164 0.98535-0.88445
   7   4  -2 994.520 175.822   5 0.55862-0.07761 0.22418 0.11069 0.88655-0.98849
   7   4  -2 972.907 170.808   2 0.47848 0.00222 0.34147-0.00715 0.88227-0.98300
   7  -4  -2 1334.26 218.996   8 0.56892-0.08797-0.20455-0.12945 0.88652-0.98724
  -7   4   2 1241.93 167.938   1 0.13024-0.61056 0.19947 0.13531 0.97870-0.87810
   7  -4  -2 1116.25 177.276   4-0.10849 0.59001-0.16175-0.17308-0.98424 0.88255
  -7   4   2 1132.07 191.786   7-0.61793 0.13780 0.12286 0.21161-0.87575 0.97651
   6  -4  -2 125.791 71.8599   4-0.13754 0.54537-0.07152-0.26357-0.99646 0.88140
  -6   4   2 24.6240 51.1413   6-0.29654-0.11013 0.55311-0.21976-0.81949 0.93332
  -6   4   2 64.2161 41.9667   1 0.14665-0.55333 0.08469 0.24998 0.99580-0.88175
   6   4  -2 124.109 63.7132   2 0.48092-0.07388 0.34455-0.01019 0.87999-0.99408
  -6  -4   2 63.6620 54.7910   9 0.13871-0.54488-0.07251-0.26152 0.99647-0.88222
   6   4  -2 79.6828 46.2990   5 0.56976-0.16240 0.23032 0.10452 0.87906-0.99437
  -6  -4   2 54.7334 49.6810   3-0.52376 0.11690-0.28978-0.04433-0.88270 0.99691
   6  -4  -2 94.4820 78.4196   8 0.58152-0.17421-0.21062-0.12344 0.87823-0.99232
  -6   4   2 4.29604 28.9564   7-0.63752 0.23116 0.12784 0.20656-0.86276 0.97686
  -5   4   2 60.1137 53.4286   7-0.67064 0.33804 0.13634 0.19798-0.83867 0.96608
  -5   4   2 76.6755 41.5251   1 0.15945-0.49249-0.01732 0.35192 0.99961-0.87214
   5   4  -2 78.8943 35.2031   6-0.15089 0.48443-0.02768 0.36295-0.99914 0.87056
   5  -4  -2 39.6748 21.1082   4-0.16360 0.49766 0.01350-0.34883-0.99975 0.87125
  -5   4   2 38.5528 30.5067   6-0.29472-0.03827 0.54319-0.20985-0.82667 0.95389
   5   4  -2 126.693 68.6722   2 0.48930-0.15591 0.35509-0.02069 0.87200-0.99945
  -5  -4   2 30.9846 44.3697   9 0.17190-0.50446 0.00501-0.33894 0.99994-0.87237
  -5  -4   2 46.0155 23.2433   3-0.53771 0.20466-0.30185-0.03226-0.87163 0.99920
   5   4  -2 48.7420 38.1696   5 0.59094-0.25726 0.24206 0.09276 0.86388-0.99259
   5  -4  -2 -8.3062 31.9167   8 0.60485-0.27121-0.22192-0.11221 0.86181-0.98927
   4   4  -2 300.254 89.6834   2 0.50478-0.24505 0.37477-0.04033 0.85622-0.99704
  -4   4   2 184.298 76.1209   7-0.72120 0.46232 0.14947 0.18478-0.79597 0.93666
   4   4  -2 230.313 67.6564   6-0.11092 0.37074-0.15362 0.48906-0.98570 0.84359
   4  -4  -2 232.625 71.4006   4-0.18660 0.44685 0.09223-0.42774-0.99573 0.85378
  -4  -4   2 243.029 83.9061   9 0.20253-0.46149 0.07918-0.41305 0.99660-0.85571
  -4   4   2 211.714 70.9662   6-0.29468 0.03538 0.54301-0.20969-0.82680 0.96738
  -4  -4   2 186.751 74.7901   3-0.56128 0.30203-0.32244-0.01165-0.85130 0.99219
   4   4  -2 239.423 72.1818   5 0.62497-0.36496 0.26110 0.07370 0.83675-0.97890
  -4   4   2 259.546 84.0416   1 0.16923-0.42862-0.10609 0.44065 0.99431-0.85344
   4  -4  -2 190.382 63.6206   8 0.64200-0.38206-0.24009-0.09412 0.83250-0.97335
   3   4  -2 608.416 104.425   6-0.08371 0.26974-0.23456 0.57011-0.96758 0.81198
   3  -4  -2 544.171 110.417   4-0.20652 0.39292 0.16367-0.49932-0.98614 0.83071
  -3  -4   2 600.799 125.361   3-0.59645 0.41097-0.35372 0.01963-0.81663 0.97083
  -3  -4   2 459.767 107.744   9 0.23037-0.41575 0.14908-0.48289 0.98742-0.83321
  -3   4   2 583.867 113.589   6-0.29659 0.11098 0.55333-0.22004-0.81932 0.97325
   3   4  -2 636.057 126.602   2 0.52852-0.34248 0.40551-0.07102 0.82919-0.98339
   2   4  -2 19.4816 22.3078   6-0.06624 0.17842-0.28472 0.62033-0.95244 0.78337
   2  -4  -2 14.3788 12.6206   4-0.22336 0.33587 0.22683-0.56259-0.97280 0.80390
  -2  -4   2 -13.108 24.8095   9 0.25520-0.36700 0.21365-0.54741 0.97360-0.80608
  -2   4   2 -26.401 31.6357   6-0.30044 0.18851 0.57479-0.24152-0.80310 0.97035
  -1   4   2 50.4813 45.6002   6-0.30601 0.26777 0.60765-0.27440-0.77631 0.95686
  11   5  -2 451.272 177.842   2 0.50908 0.26609 0.38029 0.03751 0.85158-0.89903
 -11   5   2 374.676 153.476   7-0.64089-0.13448 0.12871 0.28969-0.86043 0.90750
  10   5  -2 -8.1072 63.9324   2 0.49762 0.20393 0.36564 0.05218 0.86368-0.92444
 -10  -5   2 -63.288 83.8793   3-0.53672-0.16547-0.30099-0.11675-0.87244 0.93307
  10   5  -2 12.1780 59.4120   5 0.57683 0.12517 0.23423 0.18424 0.87413-0.93606
  10  -5  -2 192.325 136.892   8 0.58701 0.11483-0.21327-0.20412 0.87450-0.93523
 -10   5   2 -34.810 69.5622   7-0.63355-0.06799 0.12683 0.29151-0.86546 0.92597
  -9  -5   2 568.557 159.866   9 0.02222-0.64932-0.32438-0.09349 0.93407-0.85994
   9   5  -2 463.355 135.393   2 0.48873 0.13920 0.35437 0.06347 0.87255-0.94663
  -9  -5   2 367.979 106.840   3-0.52871-0.09964-0.29405-0.12371-0.87885 0.95290
   9   5  -2 529.698 155.278   5 0.57050 0.05786 0.23072 0.18771 0.87855-0.95381
   9  -5  -2 524.872 158.617   8 0.58123 0.04698-0.21048-0.20696 0.87842-0.95248
  -9   5   2 324.238 117.100   7-0.63102 0.00329 0.12618 0.29210-0.86717 0.94109
   8  -5  -2 -40.049 36.7491   4-0.07030 0.62544-0.27385-0.14435-0.95601 0.86750
  -8   5   2 4.19890 40.0263   6-0.29981-0.25431 0.57126-0.15438-0.80583 0.89282
  -8  -5   2 -5.6220 64.0665   9 0.05674-0.61019-0.25281-0.16496 0.96017-0.87264
   8   5  -2 -116.18 111.419   2 0.48293 0.07136 0.34707 0.07080 0.87811-0.96552
  -8  -5   2 -32.008 79.6979   3-0.52452-0.02997-0.29044-0.12734-0.88211 0.96956
   8   5  -2 -5.6234 64.7771   5 0.56887-0.01414 0.22983 0.18858 0.87967-0.96828
   8  -5  -2 -52.319 52.9308   8 0.58042-0.02583-0.21009-0.20742 0.87897-0.96636
  -8   5   2 -120.39 68.2048   7-0.63458 0.08068 0.12709 0.29113-0.86476 0.95206
   7  -5  -2 859.463 175.681   4-0.09770 0.57916-0.19412-0.22436-0.97761 0.87577
  -7   5   2 941.940 172.894   6-0.29541-0.18504 0.54689-0.13000-0.82402 0.92443
  -7  -5   2 694.403 150.300   9 0.08929-0.56910-0.18300-0.23465 0.97904-0.87815
   7   5  -2 856.334 176.603   2 0.48085-0.00019 0.34446 0.07345 0.88006-0.98082
  -7  -5   2 840.868 178.728   3-0.52501 0.04437-0.29087-0.12690-0.88172 0.98257
   7   5  -2 888.598 172.127   5 0.57314-0.09205 0.23218 0.18619 0.87672-0.97870
  -7   5   2 957.766 165.001   1 0.12517-0.60557 0.23210 0.18626 0.97128-0.87068
   7  -5  -2 789.455 178.564   8 0.58585-0.10492-0.21272-0.20485 0.87528-0.97602
  -7   5   2 979.167 192.737   7-0.64600 0.16591 0.13002 0.28813-0.85685 0.95751
  -6   5   2 16.0504 53.4226   7-0.66756 0.26124 0.13555 0.28253-0.84102 0.95502
   6  -5  -2 -3.7271 46.5544   4-0.12243 0.53026-0.11902-0.29976-0.99117 0.87611
  -6   5   2 31.6053 64.6126   6-0.29220-0.11454 0.52981-0.11290-0.83606 0.94988
  -6  -5   2 87.0335 73.3104   9 0.11977-0.52596-0.11553-0.30203 0.99145-0.87720
   6   5  -2 11.4022 55.3808   2 0.48322-0.07621 0.34744 0.07051 0.87783-0.99194
  -6  -5   2 18.2827 33.5811   3-0.53129 0.12447-0.29627-0.12149-0.87681 0.99102
   6   5  -2 75.8747 64.1207   5 0.58484-0.17739 0.23867 0.17969 0.86838-0.98375
   6  -5  -2 51.4742 47.8339   8 0.59925-0.19197-0.21920-0.19844 0.86588-0.97997
  -6   5   2 54.6923 51.4545   1 0.13927-0.54602 0.13818 0.28010 0.98955-0.87551
   5   5  -2 1723.11 234.757   2 0.49092-0.15756 0.35714 0.06085 0.87041-0.99787
   5   5  -2 1801.10 176.178   6-0.18380 0.51736 0.08333 0.33549-0.99653 0.86795
  -5   5   2 1633.44 218.079   6-0.29044-0.04260 0.52061-0.10371-0.84231 0.96952
  -5  -5   2 1653.68 218.997   3-0.54463 0.21163-0.30786-0.10989-0.86589 0.99344
  -5  -5   2 1806.73 236.963   9 0.14803-0.48062-0.05101-0.36645 0.99814-0.87056
   5   5  -2 1711.27 226.445   5 0.60592-0.27214 0.25041 0.16794 0.85238-0.98115
   5  -5  -2 1773.34 240.118   8 0.62274-0.28914-0.23064-0.18708 0.84820-0.97566
   5  -5  -2 1943.34 247.425   4-0.14471 0.47873-0.04854-0.37046-0.99813 0.86963
  -5   5   2 2660.35 307.974   7-0.70215 0.36959 0.14450 0.27348-0.81297 0.94028
  -5   5   2 1709.23 217.039   1 0.15063-0.48373 0.05441 0.36381 0.99803-0.87058
  -4   5   2 96.1641 47.2066   1 0.15962-0.41908-0.01880 0.43699 0.99959-0.85873
   4   5  -2 193.978 64.6675   6-0.15160 0.41141-0.02533 0.44435-0.99922 0.85712
   4  -5  -2 154.437 59.8422   4-0.16438 0.42457 0.01607-0.43526-0.99973 0.85779
  -4   5   2 282.971 89.8966   6-0.29031 0.03098 0.51992-0.10305-0.84277 0.98335
   4   5  -2 150.534 77.8726   2 0.50489-0.24520 0.37492 0.04312 0.85609-0.99692
  -4  -5   2 137.580 68.0703   9 0.17394-0.43292 0.00985-0.42725 0.99992-0.85901
  -4  -5   2 85.3550 47.0442   3-0.56658 0.30739-0.32712-0.09061-0.84642 0.98730
   4   5  -2 220.404 82.5424   5 0.63874-0.37864 0.26888 0.14946 0.82472-0.96693
   4  -5  -2 160.110 76.7121   8 0.65895-0.39905-0.24846-0.16935 0.81770-0.95854
   3   5  -2 2963.61 258.001   6-0.12792 0.31394-0.10112 0.52029-0.99344 0.83786
  -3   5   2 2740.09 275.024   6-0.29193 0.10631 0.52837-0.11152-0.83704 0.99098
  -3  -5   2 2826.62 281.063   3-0.59875 0.41332-0.35579-0.06192-0.81417 0.96836
  -3  -5   2 2925.57 296.587   9 0.19730-0.38271 0.06632-0.48365 0.99765-0.84342
   3  -5  -2 2823.84 276.163   4-0.18141 0.36776 0.07412-0.49347-0.99726 0.84188
   3   5  -2 2864.83 281.106   2 0.52608-0.34008 0.40232 0.01577 0.83214-0.98634
  -3   5   2 2578.19 261.533   1 0.16661-0.35241-0.08115 0.49932 0.99661-0.84236
   2   5  -2 94.5092 48.9511   6-0.11138 0.22357-0.15225 0.57153-0.98594 0.81690
   2   5  -2 16.3975 17.5153   2 0.55513-0.44283 0.44090-0.02276 0.79417-0.96174
   2  -5  -2 109.390 62.7052   4-0.19581 0.30829 0.12485-0.54431-0.99206 0.82323
  -2  -5   2 137.174 35.1520   9 0.21795-0.32978 0.11757-0.53486 0.99229-0.82474
  -2   5   2 72.0816 36.3510   6-0.29533 0.18343 0.54649-0.12968-0.82430 0.99157
  -2   5   2 141.307 72.3732   1 0.17189-0.28402-0.13242 0.55060 0.99118-0.82354
   1   5  -2 145.822 61.2691   6-0.10082 0.13918-0.18409 0.60346-0.97977 0.79728
   1  -5  -2 53.3213 35.0710   4-0.20755 0.24615 0.16747-0.58701-0.98546 0.80318
  -1  -5   2 153.202 59.9165   9 0.23569-0.27394 0.16269-0.57996 0.98494-0.80406
  -1   5   2 95.2506 51.2568   6-0.30040 0.26219 0.57462-0.15785-0.80323 0.98380
  -1   5   2 190.489 73.1782   1 0.17572-0.21415-0.17247 0.59067 0.98504-0.80400
   0   5   2 521.067 118.166   1 0.17830-0.14302-0.20119 0.61942 0.97958-0.78515
   0   5  -2 109.916 69.9297   6-0.09534 0.05986-0.20041 0.61982-0.97616 0.78025
   0  -5  -2 27.8035 31.8415   4-0.21661 0.18132 0.20119-0.62078-0.97877 0.78306
   0  -5   2 596.503 125.592   9 0.25030-0.21498 0.20073-0.61798 0.97678-0.78258
   0   5   2 -8.7944 20.6742   6-0.30685 0.34232 0.61275-0.19604-0.77193 0.96577
   0  -5  -2 4.25895 18.0259   9-0.12634 0.09077-0.60399 0.18575 0.75106-0.94576
   2   5   2 12.8520 50.0553   1 0.18024 0.00251-0.22401 0.64230 0.97461-0.75339
  -2  -5  -2 -41.428 49.3203   9-0.12421-0.05866-0.60032 0.18202 0.75453-0.97594
 -10   6   2 69.4244 66.1901   7-0.66126-0.04024 0.13392 0.36813-0.84577 0.90616
  10   6  -2 245.562 151.177   2 0.50260 0.19892 0.37200 0.12938 0.85851-0.91930
 -10  -6   2 57.8749 50.2041   3-0.54663-0.15554-0.30961-0.19183-0.86419 0.92480
  10   6  -2 195.914 132.817   5 0.59316 0.10890 0.24329 0.25866 0.86222-0.92421
  10  -6  -2 233.559 73.7792   8 0.60541 0.09642-0.22219-0.27874 0.86139-0.92216
  -9   6   2 -36.800 67.7909   7-0.66099 0.03332 0.13386 0.36813-0.84597 0.91977
  -9   6   2 -29.703 27.0732   6-0.30252-0.32539 0.58685-0.08642-0.79355 0.86705
  -9  -6   2 160.496 72.7920   9 0.01474-0.64183-0.33957-0.16183 0.92760-0.85348
   9   6  -2 -94.043 74.1099   2 0.49465 0.13325 0.36186 0.13955 0.86670-0.94081
  -9  -6   2 -49.535 53.0982   3-0.53972-0.08860-0.30359-0.19786-0.86998 0.94401
   9   6  -2 15.8115 61.9219   5 0.58827 0.04017 0.24057 0.26135 0.86586-0.94119
   9  -6  -2 16.1520 61.1094   8 0.60121 0.02699-0.22016-0.28084 0.86446-0.93854
  -8   6   2 531.637 161.089   7-0.66696 0.11311 0.13539 0.36653-0.84148 0.92865
   8  -6  -2 412.405 131.435   4-0.06181 0.61694-0.29787-0.20400-0.94798 0.85939
  -8   6   2 273.801 93.3800   6-0.29758-0.25665 0.55877-0.05831-0.81530 0.90224
  -8  -6   2 289.143 93.2309   9 0.04525-0.59870-0.27691-0.22438 0.95217-0.86466
   8   6  -2 397.821 137.750   2 0.48963 0.06464 0.35551 0.14595 0.87168-0.95912
  -8  -6   2 347.084 138.357   3-0.53651-0.01795-0.30081-0.20066-0.87261 0.96004
   8   6  -2 357.668 136.331   5 0.58803-0.03322 0.24044 0.26146 0.86604-0.95472
   8  -6  -2 283.919 104.503   8 0.60196-0.04739-0.22052-0.28055 0.86392-0.95133
  -7   6   2 122.113 87.2363   7-0.68082 0.20076 0.13897 0.36286-0.83068 0.93122
   7  -6  -2 140.623 77.6030   4-0.08575 0.56718-0.22936-0.27279-0.96900 0.86709
  -7   6   2 44.4397 35.5364   6-0.29353-0.18699 0.53685-0.03637-0.83116 0.93153
  -7  -6   2 142.780 79.2403   9 0.07383-0.55366-0.21644-0.28475 0.97079-0.86991
   7   6  -2 6.12634 31.9799   2 0.48809-0.00746 0.35356 0.14792 0.87318-0.97396
  -7  -6   2 67.4642 87.2144   3-0.53777 0.05715-0.30190-0.19955-0.87158 0.97240
   7   6  -2 87.4566 77.2491   5 0.59352-0.11235 0.24349 0.25839 0.86195-0.96399
   7  -6  -2 177.822 117.278   8 0.60885-0.12793-0.22386-0.27729 0.85885-0.95960
  -6   6   2 645.634 158.617   7-0.70463 0.29835 0.14514 0.35659-0.81083 0.92471
   6  -6  -2 543.421 153.320   4-0.10732 0.51508-0.16529-0.33714-0.98357 0.86843
  -6   6   2 398.152 105.128   6-0.29061-0.11619 0.52150-0.02101-0.84171 0.95549
  -6  -6   2 534.670 142.421   9 0.10040-0.50661-0.15865-0.34244 0.98417-0.86993
   6   6  -2 675.365 153.521   2 0.49067-0.08369 0.35683 0.14471 0.87065-0.98479
  -6  -6   2 576.263 169.387   3-0.54443 0.13766-0.30769-0.19375-0.86605 0.98024
   6   6  -2 591.923 147.182   5 0.60613-0.19861 0.25053 0.25134 0.85221-0.96765
  -6   6   2 579.459 134.780   1 0.13187-0.53869 0.18868 0.31320 0.98090-0.86687
   6  -6  -2 569.180 159.848   8 0.62338-0.21613-0.23096-0.27028 0.84770-0.96180
  -5   6   2 109.228 65.5156   1 0.14210-0.47528 0.11802 0.38381 0.99225-0.86481
   5  -6  -2 198.762 106.452   4-0.12667 0.46063-0.10583-0.39683-0.99289 0.86435
   5   6  -2 82.7227 48.0145   6-0.20760 0.54140 0.16860 0.33388-0.98527 0.85694
  -5   6   2 189.717 80.8816   6-0.28900-0.04407 0.51320-0.01272-0.84723 0.97441
  -5  -6   2 172.061 82.9544   9 0.12484-0.45745-0.10409-0.39692 0.99300-0.86541
   5   6  -2 113.461 76.4120   2 0.49808-0.16475 0.36622 0.13537 0.86321-0.99070
  -5  -6   2 122.481 64.6504   3-0.55760 0.22465-0.31921-0.18220-0.85462 0.98215
   5   6  -2 139.219 86.9850   5 0.62755-0.29368 0.26255 0.23932 0.83455-0.96340
   5  -6  -2 156.376 83.2696   8 0.64746-0.31389-0.24279-0.25854 0.82784-0.95531
   4  -6  -2 -43.771 55.1078   4-0.14370 0.40385-0.05179-0.45106-0.99793 0.85599
   4   6  -2 -13.297 42.6144   6-0.18097 0.44079 0.07347 0.42912-0.99731 0.85517
   4   6  -2 26.5542 34.7386   2 0.51107-0.25141 0.38286 0.11879 0.84940-0.99024
  -4   6   2 -22.883 33.5795   6-0.28885 0.02951 0.51245-0.01198-0.84772 0.98828
  -4  -6   2 -54.168 29.8431   9 0.14703-0.40605-0.05333-0.44760 0.99799-0.85707
  -4   6   2 -12.605 29.5816   1 0.15039-0.40991 0.05623 0.44557 0.99793-0.85708
  -4  -6   2 -74.326 66.0831   3-0.57854 0.31940-0.33771-0.16367-0.83498 0.97584
   4   6  -2 48.8627 61.9117   5 0.65970-0.39952 0.28080 0.22108 0.80510-0.94739
   3   6  -2 143.154 77.6050   6-0.16060 0.34666 0.00435 0.49843-0.99977 0.84420
   3  -6  -2 -16.143 48.8054   4-0.15840 0.34470-0.00379-0.49922-0.99972 0.84436
   3   6  -2 52.4224 66.5478   2 0.53041-0.34442 0.40798 0.09372 0.82689-0.98110
  -3   6   2 0.35026 29.5519   6-0.29027 0.10466 0.51972-0.01928-0.84291 0.99682
  -3  -6   2 -58.402 62.3845   9 0.16682-0.35226-0.00703-0.49384 0.99987-0.84561
  -3  -6   2 1.59131 30.5118   3-0.60849 0.42311-0.36460-0.13674-0.80342 0.95758
  -3   6   2 54.9127 63.0839   1 0.15696-0.34283 0.00361 0.49819 0.99969-0.84545
   2   6  -2 2396.18 260.901   6-0.14554 0.25776-0.04504 0.54794-0.99833 0.82927
  -2   6   2 2277.57 267.045   6-0.29326 0.18138 0.53545-0.03506-0.83214 0.99939
  -2  -6   2 2184.48 270.242   9 0.18405-0.29590 0.03411-0.53494 0.99941-0.83182
   2  -6  -2 2032.63 256.080   4-0.17074 0.28316 0.03752-0.54066-0.99925 0.83045
  -2   6   2 2153.14 256.961   1 0.16203-0.27421-0.03961 0.54143 0.99903-0.83140
   1   6  -2 721.108 151.973   6-0.13526 0.17364-0.07800 0.58099-0.99588 0.81339
   1  -6  -2 620.398 135.770   4-0.18065 0.21920 0.07148-0.57469-0.99745 0.81523
  -1  -6   2 538.413 133.602   9 0.19851-0.23679 0.06930-0.57010 0.99742-0.81651
  -1   6   2 627.011 137.709   6-0.29779 0.25963 0.55996-0.05962-0.81441 0.99497
  -1   6   2 580.340 143.604   1 0.16576-0.20426-0.07324 0.57507 0.99721-0.81618
  -1  -6   2 569.785 76.8106   8-0.09655 0.05751 0.09604-0.59746 0.95675-0.77607
  -1  -6   2 517.833 128.867   4 0.05571-0.09475-0.59765 0.09717-0.77638 0.95714
   0   6   2 2041.18 257.703   1 0.16830-0.13308-0.09707 0.59892 0.99522-0.80080
   0   6  -2 2414.16 278.254   6-0.12914 0.09369-0.09728 0.60034-0.99389 0.79797
   0   6   2 1556.07 211.389   6-0.30364 0.33917 0.59335-0.09309-0.78826 0.98210
   0  -6   2 2139.23 252.362   9 0.20999-0.17469 0.09767-0.59845 0.99475-0.80050
   0  -6   2 2293.95 269.821   4 0.05292-0.01828-0.59122 0.09081-0.78176 0.97588
   0  -6  -2 1253.63 198.118   4-0.18806 0.15274 0.09735-0.60062-0.99523 0.79959
  -1   6  -2 214.411 104.678   6-0.12671 0.01742-0.10490 0.60800-0.99299 0.78366
  -1  -6  -2 -19.674 64.8828   4-0.19286 0.08367 0.11432-0.61762-0.99338 0.78432
   1  -6   2 422.253 107.027   9 0.21819-0.10931 0.11815-0.61893 0.99221-0.78464
  -1  -6  -2 -18.258 36.1526   9-0.11357 0.00433-0.58186 0.08001 0.77147-0.97950
   1  -6   2 397.563 112.993   4 0.05376 0.05459-0.59318 0.09283-0.78013 0.98759
   1   6   2 397.759 120.908   1 0.16972-0.06077-0.11086 0.61275 0.99380-0.78599
  -3  -6  -2 61.7570 54.5596   4-0.19374-0.06314 0.11746-0.62073-0.99300 0.75718
  -3  -6  -2 -60.391 72.5382   9-0.12087-0.13565-0.59454 0.09263 0.75993-0.99468
   3   6   2 18.4774 42.2474   1 0.16933 0.08714-0.10704 0.60899 0.99421-0.75961
 -10   7   2 271.883 153.745   7-0.69408-0.00736 0.14240 0.44337-0.81983 0.88006
  -9   7   2 187.247 121.509   7-0.69630 0.06869 0.14298 0.44272-0.81796 0.89160
  -9   7   2 4.97412 40.3183   6-0.30178-0.32624 0.58246 0.00157-0.79706 0.87048
   9   7  -2 195.642 137.075   2 0.50407 0.12381 0.37388 0.21112 0.85696-0.93111
  -9  -7   2 -2.3601 70.0593   9 0.00449-0.63159-0.36018-0.22474 0.91828-0.84418
  -9  -7   2 -58.799 78.8555   3-0.55464-0.07363-0.31662-0.26853-0.85724 0.93123
   9   7  -2 -5.1805 73.1980   5 0.61051 0.01800 0.25299 0.33243 0.84871-0.92412
   9  -7  -2 202.119 150.715   8 0.62586 0.00235-0.23216-0.35241 0.84574-0.91986
   9  -7  -2 91.0875 75.6081   4-0.02828 0.65711-0.38944-0.19581-0.91043 0.83501
   8  -7  -2 110.434 108.960   4-0.05166 0.60679-0.32609-0.25945-0.93760 0.84892
  -8   7   2 134.021 102.877   6-0.29727-0.25703 0.55709 0.02697-0.81655 0.90342
   8   7  -2 59.3202 43.1586   2 0.49991 0.05433 0.36856 0.21647 0.86132-0.94881
  -8  -7   2 -49.770 68.5702   9 0.03177-0.58524-0.30482-0.28000 0.94191-0.85442
  -8  -7   2 -61.409 84.8859   3-0.55252-0.00189-0.31476-0.27039-0.85911 0.94650
   8   7  -2 -51.713 55.1844   5 0.61181-0.05692 0.25371 0.33168 0.84767-0.93644
   8  -7  -2 77.2044 78.7047   8 0.62832-0.07376-0.23337-0.35128 0.84377-0.93121
   7   7  -2 1707.50 289.657   2 0.49903-0.01842 0.36743 0.21765 0.86224-0.96306
  -7   7   2 1660.30 264.205   6-0.29362-0.18695 0.53737 0.04672-0.83079 0.93110
  -7  -7   2 1727.33 283.303   3-0.55467 0.07411-0.31664-0.26849-0.85722 0.95799
  -7  -7   2 1699.06 282.696   9 0.05717-0.53702-0.25189-0.33282 0.96046-0.85960
   7   7  -2 1821.06 294.960   5 0.61869-0.13743 0.25757 0.32781 0.84203-0.94417
   7  -7  -2 1821.89 306.806   8 0.63681-0.15591-0.23754-0.34720 0.83684-0.93763
   7  -7  -2 1783.39 290.890   4-0.07292 0.55432-0.26637-0.31943-0.95836 0.85637
  -7   7   2 1893.10 341.142   7-0.72125 0.24124 0.14948 0.43602-0.79592 0.89630
   6  -7  -2 153.810 78.6622   4-0.09209 0.49972-0.21077-0.37527-0.97373 0.85839
  -6   7   2 115.277 72.8071   1 0.12434-0.53124 0.23735 0.34813 0.96998-0.85596
  -6   7   2 220.806 63.1678   6-0.29102-0.11583 0.52363 0.06047-0.84027 0.95399
   6   7  -2 107.534 76.9329   2 0.50195-0.09500 0.37117 0.21397 0.85919-0.97336
  -6  -7   2 122.853 43.4169   9 0.08061-0.48685-0.20185-0.38278 0.97456-0.86034
  -6  -7   2 191.775 98.9501   3-0.56190 0.15518-0.32299-0.26211-0.85073 0.96487
   6   7  -2 261.316 111.891   5 0.63240-0.22479 0.26530 0.32009 0.83034-0.94588
   6  -7  -2 169.446 92.5972   8 0.65267-0.24544-0.24535-0.33948 0.82330-0.93742
   5  -7  -2 396.285 134.415   4-0.10907 0.44298-0.16001-0.42631-0.98456 0.85600
  -5   7   2 435.900 138.327   6-0.28960-0.04351 0.51626 0.06784-0.84521 0.97233
   5   7  -2 412.104 124.846   2 0.50929-0.17599 0.38056 0.20464 0.85135-0.97887
  -5  -7   2 481.158 130.062   9 0.10198-0.43462-0.15516-0.42940 0.98484-0.85726
  -5  -7   2 454.902 139.575   3-0.57515 0.24226-0.33469-0.25037-0.83829 0.96578
   5   7  -2 575.502 168.356   5 0.65435-0.32040 0.27775 0.30765 0.81026-0.93922
  -5   7   2 611.410 149.795   1 0.13369-0.46694 0.17654 0.40890 0.98322-0.85579
  -4   7   2 -30.550 62.3105   1 0.14135-0.40095 0.12344 0.46199 0.99156-0.85073
   4  -7  -2 27.7500 40.4216   4-0.12402 0.38409-0.11410-0.47240-0.99183 0.84985
   4   7  -2 46.5330 46.8042   6-0.20427 0.46435 0.15638 0.42995-0.98739 0.84557
   4   7  -2 56.8077 60.3806   2 0.52163-0.26200 0.39652 0.18873 0.83741-0.97828
  -4   7   2 31.9130 60.0643   6-0.28948 0.03012 0.51564 0.06844-0.84562 0.98613
  -4  -7   2 -2.5861 30.9236   9 0.12119-0.38024-0.11233-0.47215 0.99190-0.85097
  -4  -7   2 41.7702 58.4630   3-0.59542 0.33632-0.35279-0.23223-0.81774 0.95855
   3   7  -2 2206.37 265.579   6-0.18638 0.37246 0.09234 0.49399-0.99572 0.84008
  -3   7   2 2153.74 285.907   6-0.29074 0.10513 0.52215 0.06189-0.84127 0.99513
  -3  -7   2 2494.08 315.034   9 0.13809-0.32355-0.07395-0.51048 0.99634-0.84207
   3  -7  -2 2245.93 300.954   4-0.13681 0.32304-0.07387-0.51279-0.99626 0.84088
  -3   7   2 2101.90 276.250   1 0.14750-0.33343 0.07830 0.50712 0.99635-0.84212
   3   7  -2 2501.45 308.833   2 0.53956-0.35362 0.42006 0.16526 0.81533-0.96955
   2   7  -2 37.9635 41.4220   6-0.17285 0.28509 0.04557 0.54088-0.99893 0.82980
   2  -7  -2 45.2236 31.6009   4-0.14742 0.25978-0.03981-0.54696-0.99862 0.82982
  -2   7   2 28.0374 31.2986   6-0.29340 0.18155 0.53616 0.04783-0.83164 0.99885
  -2  -7   2 22.6365 46.6872   9 0.15250-0.26439-0.04063-0.54375 0.99876-0.83116
  -2   7   2 -24.359 49.8538   1 0.15229-0.26454 0.04136 0.54408 0.99871-0.83109
   1   7  -2 1994.59 269.003   6-0.16323 0.20168 0.01312 0.57351-0.99975 0.81730
  -1   7   2 2235.62 284.429   6-0.29742 0.25930 0.55792 0.02600-0.81593 0.99645
  -1  -7   2 2232.47 284.480   9 0.16425-0.20257-0.01309-0.57126 0.99977-0.81883
  -1  -7   2 1748.71 250.875   4 0.05290-0.09203-0.59116 0.00711-0.78181 0.96255
   1  -7  -2 2115.28 279.337   4-0.15576 0.19426-0.01254-0.57432-0.99958 0.81738
  -1   7   2 2014.19 272.434   1 0.15584-0.19440 0.01284 0.57263 0.99958-0.81857
   0   7  -2 -49.205 50.8504   6-0.15697 0.12156-0.00772 0.59438-0.99966 0.80372
   0  -7  -2 -73.685 50.8329   4-0.16175 0.12638 0.00730-0.59420-0.99978 0.80416
   0  -7   2 -30.702 42.8952   9 0.17310-0.13783 0.00785-0.59219 0.99993-0.80566
   0   7   2 2.76626 43.7648   6-0.30266 0.33824 0.58756-0.00370-0.79298 0.98678
   0  -7  -2 23.1729 47.5399   9-0.11345 0.07781-0.58164-0.00375 0.77167-0.96633
   0  -7   2 6.78240 23.8967   4 0.05053-0.01595-0.58570 0.00169-0.78630 0.98041
   0   7   2 -56.136 58.0679   1 0.15824-0.12308-0.00704 0.59253 0.99970-0.80530
   1   7   2 210.716 87.9399   1 0.15953-0.05064-0.01802 0.60355 0.99960-0.79180
  -1   7  -2 173.972 86.0238   6-0.15387 0.04462-0.01789 0.60461-0.99945 0.79009
  -1  -7  -2 72.2429 43.5655   4-0.16524 0.05600 0.01895-0.60588-0.99969 0.79068
   1  -7   2 220.826 79.3547   9 0.17870-0.06985 0.02123-0.60557 0.99977-0.79215
   1   7   2 -32.365 32.0371   6-0.30880 0.41808 0.62497-0.04118-0.76118 0.96824
  -1  -7  -2 70.8657 33.3256   9-0.11129 0.00202-0.57787-0.00755 0.77502-0.98303
   1  -7   2 227.203 93.1530   4 0.05139 0.05692-0.58768 0.00373-0.78468 0.99215
  -2   7  -2 37.5779 48.1861   6-0.15360-0.02948-0.01877 0.60552-0.99943 0.77667
  -2  -7  -2 24.9924 45.2223   4-0.16600-0.01708 0.02153-0.60845-0.99965 0.77725
   2   7   2 146.742 84.6309   1 0.15974 0.02291-0.01980 0.60536 0.99957-0.77838
   2  -7   2 74.1528 62.0226   9 0.18061 0.00182 0.02585-0.61019 0.99966-0.77870
  -2  -7  -2 -1.6163 29.1500   9-0.11303-0.06987-0.58091-0.00453 0.77232-0.99368
   2  -7   2 77.7936 42.9589   8 0.10923 0.07259 0.00650-0.59131 0.99733-0.77661
   2  -7   2 108.267 85.0685   4 0.05507 0.12696-0.59618 0.01231-0.77762 0.99841
  -4  -7  -2 -44.279 42.2192   4-0.15794-0.17276-0.00534-0.58149-0.99970 0.75059
  -4  -7  -2 -19.793 33.1795   9-0.12609-0.20407-0.60356 0.01805 0.75147-0.99957
   4   7   2 90.5144 54.6376   1 0.15667 0.17355 0.00606 0.57954 0.99967-0.75168
  -8   8   2 70.2168 67.8606   6-0.29840-0.25598 0.56329 0.10439-0.81191 0.89869
  -8  -8   2 73.2884 107.276   9 0.01675-0.57023-0.33550-0.33285 0.92937-0.84191
  -8  -8   2 146.491 94.5644   3-0.57174 0.01738-0.33167-0.33716-0.84157 0.92889
   8   8  -2 39.0123 77.1374   5 0.63939-0.08442 0.26925 0.39964 0.82413-0.91302
   8  -8  -2 46.7932 134.318   8 0.65867-0.10412-0.24832-0.41993 0.81795-0.90544
   8  -8  -2 176.117 157.617   4-0.04028 0.59537-0.35724-0.31195-0.92493 0.83613
   7  -8  -2 78.6433 77.9752   4-0.05939 0.54075-0.30463-0.36482-0.94559 0.84349
   7   8  -2 -45.519 75.2066   2 0.51276-0.03217 0.38503 0.28365 0.84753-0.94838
  -7   8   2 119.947 83.6514   6-0.29515-0.18549 0.54551 0.12220-0.82501 0.92522
  -7  -8   2 -38.051 53.6388   9 0.03953-0.51939-0.28882-0.37943 0.94793-0.84709
  -7  -8   2 -50.038 83.0745   3-0.57482 0.09432-0.33440-0.33440-0.83861 0.93931
   7   8  -2 -34.397 71.2126   5 0.64772-0.16637 0.27397 0.39491 0.81651-0.91878
   6  -8  -2 924.530 221.782   4-0.07655 0.48413-0.25599-0.41369-0.96152 0.84608
   6   8  -2 846.817 210.715   2 0.51610-0.10916 0.38934 0.27940 0.84378-0.95798
  -6   8   2 1022.48 224.710   6-0.29285-0.11404 0.53323 0.13450-0.83369 0.94733
  -6  -8   2 940.696 206.567   9 0.06038-0.46665-0.24511-0.42306 0.96256-0.84836
  -6  -8   2 807.602 204.822   3-0.58269 0.17603-0.34140-0.32737-0.83086 0.94493
   6   8  -2 460.591 190.448   5 0.66255-0.25486 0.28244 0.38647 0.80230-0.91797
   5  -8  -2 50.9135 43.6050   4-0.09175 0.42553-0.21175-0.45813-0.97349 0.84470
  -5   8   2 113.170 84.5676   1 0.12524-0.45856 0.23168 0.43738 0.97138-0.84396
   5   8  -2 -40.795 60.3842   2 0.52346-0.19018 0.39891 0.26990 0.83526-0.96280
  -5   8   2 120.359 62.5377   6-0.29161-0.04151 0.52673 0.14099-0.83816 0.96521
  -5  -8   2 117.933 97.3956   9 0.07924-0.41191-0.20480-0.46329 0.97382-0.84626
  -5  -8   2 73.0093 97.7197   3-0.59611 0.26327-0.35342-0.31530-0.81699 0.94441
   4   8  -2 2813.32 321.289   6-0.22326 0.48329 0.22748 0.44229-0.97265 0.83054
  -4   8   2 2926.16 357.479   6-0.29154 0.03218 0.52634 0.14135-0.83843 0.97885
  -4  -8   2 2835.33 378.464   3-0.61589 0.35685-0.37134-0.29733-0.79491 0.93564
  -4  -8   2 2421.93 344.589   9 0.09598-0.35508-0.16836-0.49967 0.98221-0.84129
  -4   8   2 2620.80 331.425   1 0.13237-0.39204 0.18538 0.48367 0.98155-0.84072
   4  -8  -2 2676.06 356.680   4-0.10495 0.36492-0.17245-0.49764-0.98218 0.84008
   4   8  -2 2926.89 371.176   2 0.53534-0.27573 0.41448 0.25439 0.82074-0.96163
   3  -8  -2 106.497 73.6985   4-0.11610 0.30227-0.13856-0.53175-0.98826 0.83289
   3   8  -2 65.5780 78.2975   6-0.20798 0.39425 0.16998 0.50010-0.98502 0.82964
   3   8  -2 -16.631 23.1005   2 0.55215-0.36623 0.43688 0.23206 0.79838-0.95262
  -3   8   2 129.612 104.358   6-0.29269 0.10709 0.53238 0.13529-0.83428 0.98807
  -3  -8   2 64.1460 69.0902   9 0.11049-0.29599-0.13630-0.53168 0.98823-0.83396
  -3   8   2 23.9893 72.1033   1 0.13813-0.32413 0.14615 0.52290 0.98836-0.83414
  -2   8   2 411.678 130.359   1 0.14263-0.25495 0.11421 0.55486 0.99271-0.82510
   2  -8  -2 565.386 164.137   4-0.12529 0.23758-0.11013-0.56026-0.99235 0.82352
   2   8  -2 474.374 131.366   6-0.19568 0.30798 0.12531 0.54472-0.99201 0.82284
  -2   8   2 497.787 147.069   6-0.29507 0.18324 0.54509 0.12252-0.82531 0.99244
  -2  -8   2 675.364 168.411   9 0.12259-0.23451-0.10919-0.55876 0.99233-0.82473
   1  -8  -2 427.585 146.161   4-0.13231 0.17074-0.08812-0.58235-0.99490 0.81268
   1   8  -2 513.614 161.685   6-0.18670 0.22516 0.09345 0.57670-0.99562 0.81303
  -1   8   2 348.169 127.266   1 0.14596-0.18459 0.08978 0.57931 0.99533-0.81433
  -1  -8   2 508.089 164.148   9 0.13209-0.17043-0.08766-0.58026 0.99495-0.81401
  -1   8   2 492.969 157.160   6-0.29865 0.26056 0.56472 0.10282-0.81083 0.99128
   1  -8  -2 -1.8996 21.9058   9-0.12222 0.16019-0.59688-0.07205 0.75776-0.93909
  -1  -8   2 521.221 153.079   4 0.05445-0.09367-0.59475-0.07290-0.77881 0.95951
   0   8  -2 2448.28 324.360   6-0.18059 0.14522 0.07215 0.59806-0.99740 0.80136
   0   8   2 2843.19 290.125   2 0.24954-0.21487 0.07383 0.59489 0.99477-0.80077
   0   8   2 1782.73 263.368   6-0.30330 0.33895 0.59137 0.07609-0.78988 0.98362
   0  -8   2 2221.37 302.092   9 0.13873-0.10349-0.07248-0.59543 0.99647-0.80219
   0  -8   2 2375.41 320.566   4 0.05227-0.01776-0.58971-0.07791-0.78300 0.97708
   0  -8  -2 2001.42 303.319   4-0.13708 0.10165-0.07299-0.59752-0.99634 0.80072
   0   8   2 2497.38 330.042   1 0.14819-0.11309 0.07309 0.59603 0.99677-0.80237
  -1  -8  -2 29.4683 58.2817   4-0.13946 0.03016-0.06543-0.60510-0.99696 0.78796
  -1   8  -2 114.954 76.9455   6-0.17718 0.06797 0.06041 0.60988-0.99818 0.78872
   1   8   2 -21.243 80.8619   1 0.14933-0.04050 0.06438 0.60478 0.99740-0.78962
   1  -8   2 29.7990 28.2423   9 0.14217-0.03336-0.06455-0.60336 0.99715-0.78953
   1   8   2 -65.371 48.9199   6-0.30881 0.41816 0.62500 0.04238-0.76115 0.96815
   1   8   2 34.3869 57.9612   2 0.23279-0.12445 0.05539 0.61325 0.99705-0.78975
  -1  -8  -2 27.8832 52.9582   9-0.11396 0.00466-0.58253-0.08643 0.77087-0.97888
   1  -8   2 165.771 126.720   4 0.05297 0.05528-0.59134-0.07623-0.78166 0.98909
  -2  -8  -2 73.6906 80.1510   4-0.13920-0.04393-0.06624-0.60426-0.99690 0.77452
  -2   8  -2 -8.8287 54.4788   6-0.17624-0.00681 0.05716 0.61316-0.99836 0.77551
   2   8   2 227.955 130.553   1 0.14938 0.03321 0.06396 0.60523 0.99743-0.77625
   2  -8   2 241.168 103.008   9 0.14198 0.04042-0.06498-0.60295 0.99712-0.77614
   2   8   2 115.574 77.1224   2 0.22526-0.04328 0.04715 0.62141 0.99786-0.77726
  -2  -8  -2 0.37291 51.4271   9-0.11542-0.06750-0.58508-0.08390 0.76858-0.98994
   2  -8   2 291.605 117.026   4 0.05626 0.12574-0.59890-0.06860-0.77532 0.99610
  -3  -8  -2 71.3064 56.3380   4-0.13600-0.12095-0.07644-0.59403-0.99603 0.76028
   3   8   2 -53.658 82.9905   1 0.14831 0.10806 0.07221 0.59699 0.99683-0.76226
   3   8   2 -8.4766 37.7783   2 0.22475 0.03088 0.04660 0.62191 0.99791-0.76401
  -3  -8  -2 -34.022 66.6438   9-0.11997-0.13658-0.59299-0.07603 0.76137-0.99609
  -7   9   2 499.209 232.385   6-0.29768-0.18300 0.55931 0.19203-0.81490 0.91500
  -7  -9   2 361.094 167.940   3-0.59747 0.11702-0.35464-0.39784-0.81554 0.91616
   6  -9  -2 -100.50 69.8176   4-0.06073 0.46823-0.30089-0.45243-0.94692 0.83137
   6   9  -2 19.5578 52.4798   2 0.53234-0.12543 0.41054 0.34181 0.82449-0.93872
  -6   9   2 6.97916 46.6632   6-0.29567-0.11125 0.54832 0.20305-0.82298 0.93651
  -6  -9   2 68.6929 79.1828   3-0.60597 0.19936-0.36231-0.39011-0.80625 0.92023
  -6  -9   2 -15.510 89.8171   9 0.03971-0.44601-0.28843-0.46328 0.94807-0.83389
   5  -9  -2 -28.291 66.4763   4-0.07439 0.40808-0.26218-0.49132-0.95965 0.83077
   5   9  -2 -85.212 35.9944   2 0.53978-0.20653 0.42035 0.33205 0.81504-0.94261
  -5   9   2 -46.361 60.1857   6-0.29461-0.03852 0.54263 0.20874-0.82707 0.95401
  -5  -9   2 17.0685 54.6846   3-0.61959 0.28680-0.37471-0.37766-0.79054 0.91787
  -5  -9   2 4.32503 62.0419   9 0.05645-0.38916-0.25342-0.49822 0.95998-0.83244
   4  -9  -2 449.154 163.803   4-0.08619 0.34606-0.22805-0.52562-0.96935 0.82710
  -4   9   2 379.683 140.481   1 0.12334-0.38307 0.24364 0.50903 0.96837-0.82756
   4   9  -2 125.198 103.890   2 0.55128-0.29170 0.43571 0.31678 0.79959-0.94051
  -4   9   2 317.412 145.267   6-0.29459 0.03523 0.54251 0.20883-0.82716 0.96748
  -4  -9   2 426.344 163.170   9 0.07113-0.33026-0.22223-0.52936 0.96921-0.82832
   3  -9  -2 263.729 127.326   4-0.09609 0.28211-0.19892-0.55488-0.97652 0.82090
   3   9  -2 477.518 158.257   6-0.22627 0.41251 0.23906 0.51445-0.96968 0.81402
  -3   9   2 417.920 128.192   6-0.29565 0.11006 0.54821 0.20309-0.82306 0.97675
  -3  -9   2 370.661 172.320   9 0.08362-0.26917-0.19533-0.55622 0.97617-0.82192
  -3   9   2 330.531 142.127   1 0.12875-0.31482 0.20918 0.54350 0.97661-0.82240
   2  -9  -2 14.8524 68.6653   4-0.10399 0.21618-0.17534-0.57861-0.98160 0.81268
   2   9  -2 143.567 99.6874   6-0.21546 0.32790 0.19782 0.55593-0.97951 0.81052
  -2   9   2 66.6672 72.5299   6-0.29779 0.18598 0.55994 0.19131-0.81443 0.98147
  -2  -9   2 223.520 134.811   9 0.09376-0.20573-0.17323-0.57829 0.98119-0.81359
  -2   9   2 51.5110 47.5385   1 0.13298-0.24537 0.18130 0.57140 0.98233-0.81473
   1  -9  -2 360.611 144.971   4-0.10983 0.14819-0.15769-0.59640-0.98499 0.80277
   1   9  -2 555.291 171.075   6-0.20724 0.24588 0.16726 0.58674-0.98551 0.80324
  -1  -9   2 386.427 133.196   9 0.10136-0.13975-0.15654-0.59496 0.98458-0.80364
  -1   9   2 705.356 192.840   6-0.30098 0.26292 0.57787 0.17329-0.80068 0.98104
  -1   9   2 683.199 189.131   1 0.13610-0.17478 0.16020 0.59252 0.98611-0.80511
   0  -9  -2 136.100 124.389   4-0.11355 0.07805-0.14636-0.60780-0.98697 0.79140
   0   9  -2 89.2664 100.064   6-0.20129 0.16601 0.14551 0.60842-0.98913 0.79320
   0  -9   2 7.00767 53.8751   9 0.10615-0.07096-0.14593-0.60556 0.98655-0.79227
   0   9   2 7.61942 34.3280   6-0.30511 0.34080 0.60212 0.14897-0.78099 0.97463
   0  -9  -2 21.9936 47.0436   9-0.12248 0.08677-0.59735-0.15516 0.75733-0.95201
   0  -9   2 -22.711 52.5692   4 0.05700-0.02256-0.60060-0.15065-0.77388 0.96789
   0   9   2 69.0411 112.505   1 0.13814-0.10310 0.14611 0.60665 0.98837-0.79398
  -1  -9  -2 -36.759 74.1121   4-0.11497 0.00561-0.14203-0.61214-0.98769 0.77874
  -1   9  -2 -77.801 93.5369   6-0.19774 0.08860 0.13268 0.62129-0.99101 0.78162
   1   9   2 38.2184 70.8359   2 0.29561-0.18729 0.12519 0.62709 0.98495-0.77762
   1  -9   2 85.3440 76.2269   9 0.10781 0.00098-0.14225-0.60925 0.98720-0.77957
  -1  -9  -2 -51.730 75.4936   9-0.12031 0.01097-0.59357-0.15895 0.76083-0.96886
   1   9   2 54.7996 69.5092   1 0.13912-0.03034 0.13926 0.61352 0.98939-0.78161
  -2  -9  -2 30.6458 52.4992   4-0.11384-0.06936-0.14546-0.60868-0.98712 0.76480
   2   9   2 -46.719 37.5333   2 0.28385-0.10186 0.11198 0.64023 0.98797-0.76735
  -2  -9  -2 -17.681 45.3157   9-0.12138-0.06156-0.59544-0.15709 0.75910-0.98047
   2   9   2 2.95643 61.8790   1 0.13902 0.04351 0.13995 0.61287 0.98929-0.76812
   5  10  -2 26.2636 47.2284   2 0.55761-0.22438 0.44424 0.39179 0.79062-0.91823
   3 -10  -2 257.464 158.445   4-0.07630 0.26225-0.25669-0.58070-0.96131 0.80558
   3  10  -2 78.6260 55.5505   6-0.24246 0.42874 0.30330 0.53375-0.95026 0.79446
  -3  10   2 84.7726 79.9096   6-0.29928 0.11369 0.56819 0.26676-0.80819 0.96175
  -3 -10   2 145.445 140.665   9 0.05719-0.24278-0.25187-0.58324 0.96047-0.80625
   2 -10  -2 83.6447 109.987   4-0.08320 0.19528-0.23678-0.60070-0.96700 0.79790
  -2  10   2 227.362 119.300   1 0.12325-0.23570 0.24418 0.59215 0.96823-0.80064
   2  10  -2 249.183 118.099   6-0.23270 0.34516 0.26423 0.57302-0.96268 0.79348
  -2  10   2 440.117 176.484   6-0.30120 0.18940 0.57913 0.25575-0.79969 0.96660
  -2 -10   2 242.830 154.224   9 0.06565-0.17766-0.23392-0.60117 0.96590-0.79833
   1 -10  -2 136.517 102.786   4-0.08812 0.12636-0.22241-0.61513-0.97082 0.78834
   1  10  -2 43.1763 47.9609   6-0.22510 0.26372 0.23453 0.60286-0.97086 0.78824
  -1  10   2 140.744 140.417   1 0.12616-0.16490 0.22584 0.61051 0.97279-0.79180
  -1 -10   2 -10.192 44.6160   9 0.07162-0.11005-0.22118-0.61389 0.96950-0.78858
  -1  10   2 22.5523 62.9779   6-0.30403 0.26601 0.59570 0.23910-0.78634 0.96656
   0 -10  -2 139.259 146.952   4-0.09096 0.05535-0.21407-0.62350-0.97292 0.77707
   0  10  -2 5.51526 56.5708   6-0.21959 0.18438 0.21345 0.62408-0.97602 0.78004
   0  10   2 349.568 155.155   1 0.12802-0.09304 0.21391 0.62247 0.97556-0.78118
   0 -10   2 420.075 144.768   9 0.07484-0.03968-0.21428-0.62080 0.97137-0.77709
   0  10   2 -24.878 54.1966   6-0.30769 0.34343 0.61796 0.21676-0.76739 0.96091
  -1 -10  -2 -10.837 41.3339   4-0.09156-0.01788-0.21230-0.62527-0.97335 0.76413
   1  10   2 178.648 115.959   1 0.12884-0.02012 0.20862 0.62780 0.97673-0.76896
   2  10   2 54.7689 93.3216   1 0.12859 0.05389 0.21022 0.62623 0.97638-0.75521
 -12   0   3 140.619 147.856   7-0.70448-0.12653 0.14511-0.14550-0.81096 0.94206
 -11   0   3 223.741 159.433   7-0.69826-0.05895 0.14349-0.14388-0.81630 0.96081
 -10   0   3 86.2486 87.2010   7-0.69662 0.01319 0.14306-0.14345-0.81769 0.97559
  -9   0   3 -43.733 68.6266   7-0.70066 0.09101 0.14411-0.14449-0.81425 0.98551
  -8   0   3 508.473 159.770   7-0.71180 0.17590 0.14701-0.14740-0.80450 0.98909
  -7   0   3 -17.966 37.6611   7-0.73173 0.26955 0.15223-0.15260-0.78605 0.98395
 -12   1   3 385.407 159.044   7-0.69700-0.13406 0.14316-0.05986-0.81737 0.94848
 -12  -1   3 191.397 131.778   7-0.71841-0.11255 0.14873-0.23281-0.79854 0.92961
  12   1  -3 -67.186 141.281   5 0.67576 0.15592 0.29001-0.20532 0.78890-0.92189
 -11   1   3 -2.3148 99.7334   7-0.69036-0.06690 0.14143-0.05815-0.82292 0.96744
 -11  -1   3 -28.259 73.7307   7-0.71312-0.04405 0.14735-0.23141-0.80333 0.94780
  11   1  -3 55.2084 83.5849   5 0.66818 0.08983 0.28566-0.20102 0.79667-0.94298
 -10   1   3 -61.814 62.3160   7-0.68815 0.00469 0.14086-0.05758-0.82475 0.98265
 -10  -1   3 113.942 111.410   7-0.71257 0.02919 0.14721-0.23126-0.80381 0.96167
  10   1  -3 -59.626 82.7866   5 0.66456 0.01977 0.28359-0.19900 0.80030-0.95995
  -9   1   3 65.2687 95.5265   7-0.69146 0.08178 0.14172-0.05845-0.82202 0.99328
  -9  -1   3 32.8214 36.0567   7-0.71795 0.10833 0.14862-0.23264-0.79895 0.97017
   9   1  -3 -26.645 48.1291   5 0.66582-0.05516 0.28430-0.19978 0.79905-0.97205
   8   1  -3 160.255 100.234   5 0.67308-0.13611 0.28847-0.20400 0.79168-0.97804
  -8  -1   3 1971.59 330.847   7-0.73067 0.19478 0.15195-0.23595-0.78706 0.97162
  -7   1   3 207.918 107.515   7-0.72034 0.25817 0.14924-0.06599-0.79676 0.99468
   7  -1  -3 -2.9775 24.6938   4-0.22132 0.68559 0.21906-0.30338-0.97469 0.77513
  -7  -1   3 71.1354 64.1848   9 0.23655-0.69854 0.16492-0.24827 0.98451-0.78659
 -12  -2   3 -170.73 127.814   7-0.73891-0.09198 0.15412-0.32184-0.77905 0.91007
  12   2  -3 170.724 96.3049   5 0.66507 0.16663 0.28388-0.11562 0.79980-0.93277
 -11   2   3 473.206 191.286   7-0.68912-0.06817 0.14111 0.02588-0.82395 0.96845
 -11  -2   3 18.1813 32.0224   7-0.73506-0.02205 0.15311-0.32080-0.78283 0.92725
  11   2  -3 329.163 110.854   5 0.65705 0.10099 0.27929-0.11109 0.80767-0.95396
  11  -2  -3 243.158 138.140   8 0.66328 0.09502-0.25060 0.08378 0.81376-0.95829
 -10   2   3 208.660 127.421   7-0.68686 0.00338 0.14053 0.02645-0.82580 0.98369
 -10  -2   3 10.6455 78.2227   7-0.73617 0.05283 0.15340-0.32106-0.78174 0.93954
 -10  -2   3 84.0966 26.4937   3-0.61980-0.06449-0.37490 0.20839-0.79029 0.94803
  10   2  -3 204.490 115.460   5 0.65279 0.03158 0.27686-0.10872 0.81174-0.97137
  10  -2  -3 212.324 121.616   8 0.65932 0.02536-0.24864 0.08180 0.81737-0.97523
  -9  -2   3 980.167 222.032   3-0.61805 0.00759-0.37330 0.20675-0.79237 0.96350
   9   2  -3 1021.16 228.379   5 0.65317-0.04246 0.27708-0.10898 0.81139-0.98436
   9  -2  -3 928.257 217.892   8 0.66016-0.04911-0.24906 0.08219 0.81661-0.98783
  -9   2   3 1598.62 288.631   7-0.69000 0.08030 0.14134 0.02561-0.82323 0.99448
  -8   2   3 638.810 170.433   7-0.69982 0.16390 0.14389 0.02303-0.81498 0.99958
  -8  -2   3 534.435 140.294   9 0.16253-0.69817-0.01717-0.14977 0.99967-0.81503
  -8  -2   3 228.743 91.1489   3-0.62105 0.08440-0.37606 0.20946-0.78879 0.97329
   8   2  -3 231.337 113.502   5 0.65922-0.12219 0.28053-0.11248 0.80557-0.99191
  -7   2   3 71.1326 68.8982   7-0.71790 0.25573 0.14860 0.01830-0.79900 0.99692
   7  -2  -3 32.2878 28.8957   4-0.19992 0.66417 0.13963-0.30772-0.99001 0.79047
  -7  -2   3 -14.656 59.7259   9 0.21359-0.67559 0.10664-0.27349 0.99370-0.79576
   7   2  -3 41.3699 39.7110   5 0.67218-0.20884 0.28795-0.11996 0.79260-0.99232
  -7   2   3 -19.036 22.6936   1 0.17758-0.63997-0.19304 0.36046 0.98122-0.78344
 -11   3   3 724.855 219.612   7-0.69417-0.06313 0.14242 0.10829-0.81975 0.96421
 -11  -3   3 442.306 165.992   3-0.61514-0.14297-0.37066 0.12052-0.79578 0.94015
  11   3  -3 346.000 165.599   5 0.65235 0.10573 0.27661-0.02487 0.81217-0.95844
  11  -3  -3 307.373 126.463   8 0.66035 0.09791-0.24915-0.00118 0.81643-0.96096
 -10   3   3 336.307 136.296   7-0.69233 0.00883 0.14194 0.10873-0.82129 0.97915
 -10  -3   3 189.541 125.379   3-0.60914-0.07515-0.36519 0.11501-0.80268 0.96047
  10   3  -3 185.374 126.077   5 0.64795 0.03647 0.27410-0.02242 0.81629-0.97591
  10  -3  -3 -19.700 42.9629   8 0.65634 0.02830-0.24716-0.00320 0.82005-0.97790
  -9   3   3 299.800 137.457   7-0.69579 0.08610 0.14284 0.10780-0.81839 0.98962
  -9  -3   3 332.017 142.919   3-0.60683-0.00362-0.36309 0.11289-0.80529 0.97646
   9   3  -3 357.241 155.744   5 0.64797-0.03722 0.27412-0.02248 0.81627-0.98924
   9  -3  -3 225.450 120.893   8 0.65693-0.04593-0.24746-0.00294 0.81951-0.99071
  -8   3   3 109.835 82.2366   7-0.70579 0.16988 0.14545 0.10516-0.80982 0.99438
   8  -3  -3 109.061 78.5285   4-0.14578 0.68371-0.04509-0.20646-0.99833 0.81232
  -8  -3   3 12.3735 72.1306   9 0.14852-0.68417-0.04987-0.20058 0.99822-0.81358
  -8  -3   3 201.876 89.7344   3-0.60897 0.07233-0.36504 0.11481-0.80287 0.98743
   8   3  -3 131.818 76.0138   5 0.65339-0.11630 0.27721-0.02561 0.81118-0.99751
   8  -3  -3 98.8712 61.5559   8 0.66318-0.12582-0.25055 0.00012 0.81386-0.99842
  -7   3   3 534.590 160.249   7-0.72380 0.26164 0.15015 0.10041-0.79355 0.99144
   7  -3  -3 30.6178 30.9748   4-0.18069 0.64493 0.07164-0.32344-0.99744 0.79792
  -7  -3   3 778.046 172.165   9 0.19159-0.65359 0.05237-0.30273 0.99856-0.80061
  -7  -3   3 605.677 161.604   3-0.61642 0.15358-0.37181 0.12157-0.79429 0.99220
   7   3  -3 380.768 157.032   5 0.66534-0.20193 0.28403-0.03248 0.79953-0.99924
 -11   4   3 1818.27 386.588   7-0.70509-0.05221 0.14527 0.18917-0.81042 0.95482
 -11  -4   3 1421.31 313.610   3-0.61061-0.14750-0.36654 0.03271-0.80100 0.94540
  11   4  -3 1199.11 291.314   5 0.65346 0.10465 0.27724 0.05801 0.81111-0.95740
  11  -4  -3 541.764 179.043   8 0.66325 0.09497-0.25058-0.08326 0.81380-0.95833
 -10   4   3 110.201 90.8541   7-0.70405 0.02056 0.14499 0.18940-0.81133 0.96912
  10   4  -3 -13.530 52.6795   2 0.55880 0.12542 0.44584-0.11148 0.78891-0.94673
 -10  -4   3 17.0891 36.5262   3-0.60467-0.07961-0.36114 0.02730-0.80769 0.96551
  10   4  -3 120.397 150.210   5 0.64929 0.03517 0.27487 0.06033 0.81504-0.97466
  10  -4  -3 98.7458 119.373   8 0.65957 0.02503-0.24876-0.08513 0.81714-0.97500
  -9   4   3 78.1455 113.321   7-0.70826 0.09857 0.14609 0.18826-0.80765 0.97881
   9   4  -3 -5.0781 30.2635   2 0.55453 0.05605 0.44008-0.10570 0.79503-0.96619
  -9  -4   3 -24.807 85.0377   9 0.09306-0.70236-0.17475-0.15935 0.98086-0.80956
  -9  -4   3 79.8514 61.1139   3-0.60223-0.00821-0.35894 0.02507-0.81038 0.98160
   9   4  -3 226.911 114.412   5 0.64940-0.03859 0.27493 0.06024 0.81494-0.98792
   9  -4  -3 46.3274 67.4546   8 0.66036-0.04939-0.24916-0.08478 0.81642-0.98763
  -8   4   3 87.2536 59.9655   7-0.71887 0.18296 0.14886 0.18542-0.79811 0.98262
   8  -4  -3 49.6005 79.5465   4-0.13272 0.67065-0.08682-0.24842-0.99503 0.80898
   8   4  -3 53.7253 67.5969   2 0.55356-0.01661 0.43877-0.10436 0.79640-0.98092
  -8  -4   3 -33.239 63.3575   9 0.13294-0.66858-0.08572-0.24827 0.99516-0.81052
  -8  -4   3 123.316 97.2971   3-0.60397 0.06736-0.36051 0.02662-0.80847 0.99305
   8   4  -3 -9.2582 66.1566   5 0.65466-0.11751 0.27792 0.05720 0.80996-0.99631
  -7   4   3 289.038 88.0998   1 0.15921-0.62174-0.01529 0.34996 0.99963-0.80185
  -7   4   3 -37.861 81.6495   7-0.73725 0.27510 0.15369 0.18054-0.78068 0.97851
   7  -4  -3 38.6006 44.6542   4-0.16268 0.62688 0.01040-0.34590-0.99977 0.80026
   7   4  -3 33.3995 46.4665   2 0.55640-0.09311 0.44262-0.10818 0.79235-0.99022
  -7  -4   3 513.740 141.513   9 0.17004-0.63206 0.00058-0.33446 0.99993-0.80197
  -7  -4   3 692.171 191.578   3-0.61067 0.14787-0.36658 0.03268-0.80094 0.99889
   7   4  -3 259.713 128.753   5 0.66612-0.20264 0.28448 0.05062 0.79875-0.99848
  -6   4   3 -19.134 30.4060   1 0.17091-0.55980-0.12255 0.45713 0.99244-0.78123
   6  -4  -3 63.3819 49.1395   4-0.18908 0.57949 0.10092-0.43664-0.99487 0.78186
  -6  -4   3 -63.875 97.7970   3-0.62314 0.23414-0.37798 0.04407-0.78627 0.99755
 -10   5   3 171.903 121.665   7-0.72147 0.03799 0.14954 0.26856-0.79572 0.95341
  10   5  -3 3.15617 32.2768   2 0.55540 0.12877 0.44126-0.02333 0.79379-0.95163
 -10  -5   3 91.3678 98.8962   3-0.60551-0.07876-0.36190-0.05562-0.80676 0.96458
  10   5  -3 -55.888 81.0909   5 0.65611 0.02841 0.27875 0.13995 0.80857-0.96822
  -9   5   3 -69.804 103.985   7-0.72675 0.11707 0.15092 0.26712-0.79079 0.96186
   9   5  -3 54.8994 83.1907   2 0.55126 0.05928 0.43567-0.01772 0.79962-0.97080
  -9  -5   3 9.60853 61.7421   9 0.08125-0.69055-0.20045-0.21718 0.97491-0.80362
  -9  -5   3 -22.739 66.5827   3-0.60326-0.00716-0.35986-0.05768-0.80925 0.98048
   9   5  -3 -58.784 71.1283   5 0.65663-0.04576 0.27905 0.13962 0.80807-0.98107
  -8   5   3 -48.467 66.2805   7-0.73830 0.20240 0.15396 0.26401-0.77966 0.96407
   8  -5  -3 45.4165 43.0506   4-0.11910 0.65704-0.12933-0.28961-0.98968 0.80363
   8   5  -3 170.271 92.8700   2 0.55020-0.01329 0.43424-0.01627 0.80110-0.98562
  -8  -5   3 139.255 102.360   9 0.11618-0.65184-0.12359-0.29392 0.99026-0.80562
  -8  -5   3 205.462 123.490   3-0.60495 0.06837-0.36140-0.05615-0.80738 0.99198
   8   5  -3 96.8257 106.565   5 0.66211-0.12488 0.28218 0.13647 0.80273-0.98912
   7  -5  -3 18.1544 34.5678   4-0.14532 0.60950-0.04656-0.37262-0.99825 0.79872
   7   5  -3 84.4322 63.4574   2 0.55269-0.08942 0.43759-0.01958 0.79763-0.99551
  -7  -5   3 44.6287 60.5192   9 0.14866-0.61070-0.04956-0.36785 0.99824-0.80027
  -7  -5   3 65.6980 67.7515   3-0.61129 0.14853-0.36715-0.05041-0.80023 0.99819
   7   5  -3 -61.755 92.5856   5 0.67345-0.20990 0.28869 0.12993 0.79129-0.99107
  -7   5   3 -50.607 36.3646   1 0.15072-0.61332 0.05370 0.36458 0.99808-0.80029
   6   5  -3 -16.123 35.0031   2 0.55923-0.16962 0.44643-0.02838 0.78828-0.99952
   6  -5  -3 -12.188 23.8750   4-0.16861 0.55899 0.03033-0.44975-0.99946 0.78647
  -6  -5   3 -23.485 43.8547   9 0.17864-0.56707 0.02108-0.43841 0.99977-0.78848
  -6   5   3 38.2021 27.4812   1 0.16174-0.55070-0.03708 0.45529 0.99912-0.78792
  10   6  -3 54.6491 79.2344   2 0.55625 0.12789 0.44240 0.05909 0.79258-0.95045
   9   6  -3 316.059 150.670   2 0.55242 0.05809 0.43723 0.06429 0.79801-0.96921
  -9  -6   3 644.278 195.959   3-0.60901-0.00138-0.36507-0.13615-0.80283 0.97404
  -9  -6   3 812.547 264.651   9 0.06747-0.67678-0.23003-0.27111 0.96702-0.79575
   9   6  -3 275.550 186.417   5 0.66887-0.05793 0.28606 0.21611 0.79597-0.96903
   8  -6  -3 -43.762 45.8181   4-0.10508 0.64295-0.17206-0.33052-0.98226 0.79608
   8   6  -3 66.7630 99.1746   2 0.55148-0.01460 0.43596 0.06559 0.79932-0.98386
  -8  -6   3 70.2286 54.6262   9 0.09849-0.63416-0.16286-0.33818 0.98333-0.79871
  -8  -6   3 163.600 131.286   3-0.61091 0.07435-0.36680-0.13442-0.80067 0.98526
   8   6  -3 44.6142 66.6499   5 0.67481-0.13751 0.28947 0.21269 0.78989-0.97633
  -7   6   3 25.4772 42.3152   1 0.14237-0.60504 0.11613 0.38576 0.99248-0.79471
   7  -6  -3 16.0099 36.0047   4-0.12831 0.59244-0.10068-0.40218-0.99351 0.79394
   7   6  -3 -1.6128 86.8004   2 0.55385-0.09062 0.43916 0.06244 0.79599-0.99389
  -7  -6   3 134.616 96.9327   9 0.12728-0.58934-0.09858-0.40237 0.99369-0.79572
  -7  -6   3 36.7547 65.7518   3-0.61716 0.15443-0.37250-0.12873-0.79342 0.99137
   6   6  -3 23.2984 41.4677   2 0.55995-0.17038 0.44741 0.05423 0.78722-0.99848
   6  -6  -3 -40.136 58.1932   4-0.14906 0.53939-0.03447-0.46863-0.99887 0.78587
  -6  -6   3 -136.07 132.686   9 0.15379-0.54225-0.03764-0.46321 0.99891-0.78761
  -6   6   3 -20.789 31.4679   1 0.15272-0.54175 0.03800 0.46383 0.99886-0.78765
   9  -7  -3 87.3565 65.9813   4-0.06746 0.67893-0.28192-0.30399-0.95339 0.78037
  -9  -7   3 88.6854 158.662   9 0.05217-0.66150-0.26242-0.32226 0.95707-0.78582
   8  -7  -3 -79.617 96.3317   4-0.09063 0.62838-0.21505-0.37115-0.97267 0.78631
   8   7  -3 51.3932 93.9136   2 0.55650-0.01966 0.44273 0.14240 0.79223-0.97680
  -8  -7   3 511.332 180.769   3-0.62094 0.08443-0.37596-0.20894-0.78892 0.97347
  -8  -7   3 830.062 232.686   9 0.08001-0.61571-0.20314-0.38144 0.97424-0.78963
   5  -7  -3 -14.749 24.8784   4-0.14653 0.46297-0.04267-0.54427-0.99847 0.77202
  -5   7   3 -15.472 28.2274   1 0.15167-0.46714 0.04617 0.53926 0.99848-0.77386
   8  -8  -3 74.9047 69.8083   4-0.07568 0.61337-0.25848-0.41136-0.96077 0.77431
   7  -8  -3 -59.092 43.9032   4-0.09460 0.55852-0.20334-0.46676-0.97550 0.77567
  -7   8   3 -32.282 38.8778   1 0.12558-0.58840 0.22954 0.43956 0.97190-0.77415
   6  -8  -3 -4.6853 31.1503   4-0.11140 0.50161-0.15293-0.51748-0.98584 0.77278
  -6   8   3 9.93485 35.3849   1 0.13476-0.52395 0.16929 0.49977 0.98454-0.77336
  -5   8   3 9.33939 30.3334   1 0.14234-0.45788 0.11630 0.55274 0.99246-0.76785
   5  -8  -3 -1.6508 32.8963   4-0.12629 0.44265-0.10703-0.56356-0.99274 0.76625
   0   0   0    0.00    0.00
  -1  -5  -2 -5.7190 33.6087   4-0.22292 0.11374 0.22514-0.64475-0.97321 0.76407
  -1  -5  -2 -15.804 22.0988   9-0.12276 0.01353-0.59782 0.17955 0.75688-0.96493
   1   5   2 59.4672 56.0689   1 0.17978-0.07077-0.21845 0.63671 0.97588-0.76805
   5  -6  -3 3.16327 44.5164   4-0.16736 0.48386 0.02612-0.52941-0.99956 0.77311
  -5   6   3 64.1797 45.7953   1 0.16098-0.47637-0.03043 0.53223 0.99933-0.77471
  -3  -7  -2 41.2229 72.1739   4-0.16373-0.09318 0.01393-0.60082-0.99975 0.76398
  -3  -7  -2 10.5763 45.8435   9-0.11812-0.13842-0.58977 0.00430 0.76433-0.99905
   3   7   2 53.9397 36.6421   1 0.15882 0.09760-0.01196 0.59753 0.99967-0.76509
   2  -3  -2 -1.7704 15.6139   4-0.25412 0.36665 0.35075-0.60274-0.93252 0.76353
   6  -3  -3 -28.404 31.3097   4-0.21093 0.60138 0.17996-0.43194-0.98314 0.77010
   1  -4   0 85.9192 48.2317   8 0.34449-0.27096-0.09933-0.23494 0.98052-0.96710
   1   4   0 209.762 72.6070   6-0.22235 0.29623 0.22396 0.11038-0.97352 0.98668
  -1  -4   0 54.6525 41.5006   4-0.11213 0.03819-0.15069-0.18393-0.98623 0.97287
  -1   4   0 49.0347 24.2372   7-0.43980 0.36619 0.07842 0.25618-0.95958 0.94610
   1   4   0 73.4689 41.4188   2 0.28444-0.21089 0.11264 0.22172 0.98783-0.97452
  -1   4   0 53.8366 33.7021   2 0.41812-0.49195 0.26749 0.06702 0.92949-0.94285
   1  -4   0 87.3164 35.6767   3-0.52548 0.59945-0.29126-0.04314-0.88137 0.89469
   1  -4   0 63.2753 50.3120   9 0.10319-0.02965-0.15248-0.18169 0.98535-0.97197
  -1   4   0 129.087 61.0534   6-0.19736 0.12367 0.13133 0.20323-0.99120 0.97758
  -1  -4   0 58.9520 55.6598   9 0.08430-0.15799-0.19385-0.14040 0.97652-0.98983
   1   4   0 58.2640 44.8581   1 0.13832-0.06485 0.14482 0.18965 0.98856-0.97526
  -1  -4   0 67.0404 38.4406   3-0.30366 0.23005-0.10839-0.22621-0.98594 0.97258
  -6   7   3 72.7922 54.7328   1 0.14375-0.53286 0.10609 0.47936 0.99365-0.78246
   6  -7  -3 -14.848 39.6473   4-0.13007 0.52034-0.09516-0.49159-0.99414 0.78111
  -2  -6  -2 3.23636 27.3051   4-0.19486 0.01180 0.12144-0.62473-0.99250 0.77005
  -2  -6  -2 -32.068 43.1317   9-0.11538-0.06750-0.58500 0.08312 0.76865-0.99003
   2   6   2 63.4979 68.7060   1 0.17008 0.01263-0.11433 0.61625 0.99341-0.77220
  -3  -9  -2 19.6312 71.8132   4-0.10989-0.14714-0.15751-0.59655-0.98502 0.74931
   3   9   2 54.6063 56.2281   2 0.27914-0.02351 0.10669 0.64543 0.98908-0.75516
  -3  -9  -2 -13.241 46.3519   9-0.12534-0.13123-0.60226-0.15029 0.75270-0.98742
   3   9   2 -25.917 78.1629   1 0.13779 0.11853 0.14851 0.60433 0.98799-0.75342
  -3  -9  -2 5.97690 54.0024   3-0.29586 0.03913-0.10221-0.65126-0.98763 0.75248
   4   8   2 -94.595 79.0977   2 0.22972 0.09956 0.05202 0.61642 0.99740-0.75020
  -4  -8  -2 -95.418 74.7960   9-0.12721-0.20295-0.60549-0.06355 0.74963-0.99772
   7  -7  -3 -45.746 66.2391   4-0.11143 0.57551-0.15284-0.43369-0.98586 0.78624
   7   7  -3 -33.026 22.7878   2 0.55891-0.09571 0.44599 0.13919 0.78875-0.98667
  -7   7   3 44.0353 34.0301   1 0.13403-0.59677 0.17429 0.41121 0.98364-0.78587
   3  -3  -2 81.9884 44.4266   4-0.23472 0.42115 0.27117-0.52309-0.96060 0.80511
  -3  -3   2 286.883 78.4685   9 0.26730-0.45266 0.24603-0.49632 0.96466-0.81049
  -3   3   2 54.4315 29.3752   6-0.30523 0.11962 0.60282-0.35302-0.78040 0.93430
  -3  -3   2 246.136 75.0229   3-0.60424 0.41870-0.36076 0.11028-0.80816 0.96236
   3   3  -2 24.3120 31.3355   5 0.67425-0.48805 0.28914-0.03793 0.79047-0.94601
   8   7   1 497.627 132.788   2 0.30926 0.29714 0.14062 0.44409 0.98098-0.77747
  -8   7  -1 113.573 84.2400   6-0.22351-0.38450 0.22843 0.35754-0.97241 0.76721
   8  -7   1 513.894 169.488   8 0.34850 0.25784-0.10116-0.48329 0.97959-0.77596
  -8  -7  -1 136.285 86.3324   3-0.32508-0.28328-0.12544-0.46053-0.98071 0.77600
  -8   7  -1 -23.800 48.4028   7-0.38588-0.22232 0.06525 0.52123-0.97496 0.76992
  -5   5   3 -19.929 16.1223   1 0.17026-0.48558-0.11610 0.53427 0.99321-0.76857
   5  -5  -3 49.5008 35.6442   4-0.18908 0.50561 0.10092-0.52052-0.99487 0.76840
   3  -6   0 91.9981 53.5769   4-0.05305 0.27412-0.32227-0.17918-0.93907 0.97892
   3   6   0 44.7878 36.6058   2 0.32355-0.10272 0.15687 0.34459 0.97628-0.93633
   3   6   0 69.6335 42.0177   1 0.12309 0.09780 0.24519 0.25652 0.96797-0.92796
  -3   6   0 87.3363 47.4094   7-0.47954 0.25851 0.08821 0.41388-0.94555 0.90519
  -3   6   0 82.6314 70.8920   6-0.21697-0.00427 0.20353 0.29837-0.97827 0.93781
  -3  -6   0 8.14879 36.2958   9 0.02829-0.24925-0.31197-0.18947 0.93911-0.97914
  -3  -6   0 6.11060 32.2281   4-0.07259-0.14899-0.26732-0.23450-0.95807 0.91774
   3  -6   0 16.0887 27.4208   9 0.04373 0.17701-0.28008-0.22126 0.95106-0.91101
   3   6   0 64.5478 43.5148   5 0.38405-0.16253 0.13025 0.37098 0.96854-0.92868
  -3  -6   0 11.9664 23.6424   3-0.34984 0.12871-0.14528-0.35669-0.97354 0.93337
   3   6   0 33.6583 26.7627   6-0.26911 0.49056 0.41762 0.08356-0.90233 0.94194
   3  -6   0 66.8591 35.7973   8 0.39797-0.17713-0.12396-0.37735 0.96609-0.92597
  -4   0   2 22462.7 729.275   7-0.70877 0.44980 0.14622-0.14646-0.80720 0.94801
  -8  -1  -1 2343.38 365.864   7-0.16357-0.44488 0.01197-0.09545-0.99977 0.79510
   8   1   1 2405.25 362.408   8 0.16384 0.44234-0.01772 0.10142 0.99969-0.796153
   8   8   1 -24.847 45.7068   5 0.38901 0.21824 0.13287 0.53515 0.96700-0.76308
;
_shelx_hkl_checksum              36440
loop_
_space_group_symop_operation_xyz
'x, y, z'
'-x+1/2, y+1/2, -z'
'-x, -y, -z'
'x-1/2, -y-1/2, z'
loop_
_atom_site_label
_atom_site_type_symbol
_atom_site_fract_x
_atom_site_fract_y
_atom_site_fract_z
_atom_site_U_iso_or_equiv
_atom_site_adp_type
_atom_site_occupancy
_atom_site_site_symmetry_order
_atom_site_calc_flag
_atom_site_refinement_flags_posn
_atom_site_refinement_flags_adp
_atom_site_refinement_flags_occupancy
_atom_site_disorder_assembly
_atom_site_disorder_group
C1 C 0.6992(7) 0.3022(6) 0.783(2) 0.025(6) Uani 1 1 d . U . . .
H1D H 0.611692 0.249895 0.786909 0.030 Uiso 1 1 calc R U . . .
H1E H 0.732704 0.347648 0.903199 0.030 Uiso 1 1 calc R U . . .
C2 C 0.8033(7) 0.1829(6) 0.740(3) 0.021(6) Uani 1 1 d . U . . .
N1 N 0.6770(5) 0.4273(5) 0.646(2) 0.026(7) Uani 1 1 d . U . . .
H1A H 0.642679 0.386285 0.536739 0.031 Uiso 1 1 calc R U . . .
H1B H 0.757446 0.474678 0.641649 0.031 Uiso 1 1 calc R U . . .
H1C H 0.617290 0.497336 0.676336 0.031 Uiso 1 1 calc R U . . .
O1 O 0.4834(7) 0.8653(5) 0.951(2) 0.052(7) Uani 1 1 d D U . . .
H1 H 0.472453 0.961099 0.952185 0.062 Uiso 0.5 1 calc D U P . .
O2 O 0.4675(5) 0.6430(4) 0.7188(17) 0.029(6) Uani 1 1 d . U . . .
O3 O 0.4367(5) 0.9246(5) 0.6057(17) 0.038(7) Uani 1 1 d D U . . .
H3 H 0.495226 0.964511 0.553471 0.045 Uiso 0.5 1 calc D U P . .
O4 O 0.8636(5) 0.1994(5) 0.6163(17) 0.025(7) Uani 1 1 d . U . . .
O5 O 0.8184(5) 0.0634(5) 0.8531(17) 0.033(7) Uani 1 1 d . U . . .
H5 H 0.865937 -0.004479 0.815621 0.040 Uiso 1 1 calc . U . . .
P1 P 0.50817(17) 0.81366(17) 0.7571(8) 0.030(4) Uani 1 1 d . U . . .
H1P H 0.608309 0.821116 0.758790 0.036 Uiso 1 1 calc R U . . .
loop_
_atom_site_aniso_label
_atom_site_aniso_U_11
_atom_site_aniso_U_22
_atom_site_aniso_U_33
_atom_site_aniso_U_23
_atom_site_aniso_U_13
_atom_site_aniso_U_12
C1 0.027(3) 0.026(3) 0.02(2) 0.004(5) 0.004(6) 0.005(2)
C2 0.019(3) 0.017(3) 0.027(19) -0.005(5) 0.000(6) -0.003(2)
N1 0.025(3) 0.021(2) 0.03(2) 0.008(5) -0.003(6) 0.0019(19)
O1 0.084(4) 0.031(3) 0.05(2) -0.018(6) 0.034(7) -0.003(3)
O2 0.036(2) 0.0164(19) 0.033(19) -0.005(4) 0.008(5) -0.0047(16)
O3 0.033(3) 0.032(2) 0.05(2) 0.017(4) 0.012(6) 0.0110(18)
O4 0.034(3) 0.029(2) 0.01(2) 0.006(4) 0.005(6) 0.0079(18)
O5 0.037(3) 0.026(2) 0.04(2) 0.013(4) 0.011(5) 0.0109(18)
P1 0.0242(10) 0.0149(9) 0.049(12) -0.0042(15) 0.004(3) -0.0038(6)
loop_
_atom_type_symbol
_atom_type_description
_atom_type_scat_dispersion_real
_atom_type_scat_dispersion_imag
_atom_type_scat_source
C C 0.0033 0.0016 'International Tables Vol C Tables 4.2.6.8 and 6.1.1.4'
H H 0.0000 0.0000 'International Tables Vol C Tables 4.2.6.8 and 6.1.1.4'
N N 0.0061 0.0033 'International Tables Vol C Tables 4.2.6.8 and 6.1.1.4'
O O 0.0106 0.0060 'International Tables Vol C Tables 4.2.6.8 and 6.1.1.4'
P P 0.1023 0.0942 'International Tables Vol C Tables 4.2.6.8 and 6.1.1.4'
loop_
_geom_angle_atom_site_label_1
_geom_angle_atom_site_label_2
_geom_angle_atom_site_label_3
_geom_angle
_geom_angle_site_symmetry_1
_geom_angle_site_symmetry_3
_geom_angle_publ_flag
N1 C1 C2 111.2(12) . . ?
N1 C1 H1D 109.4 . . ?
C2 C1 H1D 109.4 . . ?
N1 C1 H1E 109.4 . . ?
C2 C1 H1E 109.4 . . ?
H1D C1 H1E 108.0 . . ?
O4 C2 O5 125.0(6) . . ?
O4 C2 C1 122.3(11) . . ?
O5 C2 C1 112.7(13) . . ?
C1 N1 H1A 109.5 . . ?
C1 N1 H1B 109.5 . . ?
H1A N1 H1B 109.5 . . ?
C1 N1 H1C 109.5 . . ?
H1A N1 H1C 109.5 . . ?
H1B N1 H1C 109.5 . . ?
P1 O1 H1 109.5 . . ?
P1 O3 H3 109.5 . . ?
C2 O5 H5 109.5 . . ?
O2 P1 O3 112.3(6) . . ?
O2 P1 O1 111.2(6) . . ?
O3 P1 O1 111.9(4) . . ?
O2 P1 H1P 107.0 . . ?
O3 P1 H1P 107.0 . . ?
O1 P1 H1P 107.0 . . ?
loop_
_geom_bond_atom_site_label_1
_geom_bond_atom_site_label_2
_geom_bond_distance
_geom_bond_site_symmetry_2
_geom_bond_publ_flag
C1 N1 1.458(15) . ?
C1 C2 1.511(11) . ?
C1 H1D 0.9700 . ?
C1 H1E 0.9700 . ?
C2 O4 1.184(17) . ?
C2 O5 1.307(14) . ?
N1 H1A 0.8900 . ?
N1 H1B 0.8900 . ?
N1 H1C 0.8900 . ?
O1 P1 1.560(17) . ?
O1 H1 0.8200 . ?
O2 P1 1.515(4) . ?
O3 P1 1.533(10) . ?
O3 H3 0.8200 . ?
O5 H5 0.8200 . ?
P1 H1P 0.9800 . ?
loop_
_geom_hbond_atom_site_label_D
_geom_hbond_atom_site_label_H
_geom_hbond_atom_site_label_A
_geom_hbond_distance_DH
_geom_hbond_distance_HA
_geom_hbond_distance_DA
_geom_hbond_angle_DHA
_geom_hbond_site_symmetry_A
_geom_hbond_publ_flag
N1 H1A O2 0.89 2.02 2.877(19) 162.2 3_666 yes
N1 H1B O3 0.89 2.01 2.899(6) 174.4 4_675 yes
N1 H1C O2 0.89 1.99 2.871(7) 173.1 . yes
O1 H1 O1 0.82 1.66 2.404(13) 149.3 3_677 yes
O3 H3 O3 0.82 1.73 2.515(16) 158.8 3_676 yes
O5 H5 O2 0.82 1.77 2.591(8) 175.6 4_665 yes
loop_
_geom_torsion_atom_site_label_1
_geom_torsion_atom_site_label_2
_geom_torsion_atom_site_label_3
_geom_torsion_atom_site_label_4
_geom_torsion
_geom_torsion_site_symmetry_1
_geom_torsion_site_symmetry_2
_geom_torsion_site_symmetry_3
_geom_torsion_site_symmetry_4
_geom_torsion_publ_flag
N1 C1 C2 O4 4.8(17) . . . . ?
N1 C1 C2 O5 -175.5(8) . . . . ?

_cod_database_fobs_code 2109027
