#------------------------------------------------------------------------------
#$Date: 2022-09-02 04:49:51 +0300 (Fri, 02 Sep 2022) $
#$Revision: 277573 $
#$URL: file:///home/coder/svn-repositories/cod/cif/2/10/90/2109031.cif $
#------------------------------------------------------------------------------
#
# This file is available in the Crystallography Open Database (COD),
# http://www.crystallography.net/. The original data for this entry
# were provided by IUCr Journals, http://journals.iucr.org/.
#
# The file may be used within the scientific community so long as
# proper attribution is given to the journal article from which the
# data were obtained.
#
data_2109031
loop_
_publ_author_name
'Bogdanov, Nikita E.'
'Korabel'nikov, Dmitry V.'
'Fedorov, Igor A.'
'Zakharov, Boris A.'
'Boldyreva, Elena V.'
_publ_section_title
;
 The effect of hydrostatic compression on the crystal structure of
 glycinium phosphite
;
_journal_issue                   5
_journal_name_full               'Acta Crystallographica Section B'
_journal_page_first
;
;
_journal_paper_doi               10.1107/S2052520622008289
_journal_volume                  78
_journal_year                    2022
_chemical_formula_moiety         'C2 H6 N O2, H2 O3 P'
_chemical_formula_sum            'C2 H8 N O5 P'
_chemical_formula_weight         157.06
_space_group_crystal_system      monoclinic
_space_group_IT_number           14
_space_group_name_Hall           '-P 2yab'
_space_group_name_H-M_alt        'P 1 21/a 1'
_atom_sites_solution_hydrogens   mixed
_atom_sites_solution_primary     direct
_atom_sites_solution_secondary   difmap
_audit_creation_method           SHELXL-2018/3
_cell_angle_alpha                90
_cell_angle_beta                 100.40(3)
_cell_angle_gamma                90
_cell_formula_units_Z            4
_cell_length_a                   9.6118(8)
_cell_length_b                   8.4921(4)
_cell_length_c                   7.251(5)
_cell_measurement_pressure       880000
_cell_measurement_reflns_used    828
_cell_measurement_temperature    293(2)
_cell_measurement_theta_max      26.4470
_cell_measurement_theta_min      3.2110
_cell_volume                     582.1(4)
_computing_cell_refinement       'CrysAlisPro 1.171.40.53 (Rigaku OD, 2019)'
_computing_data_collection       'CrysAlisPro 1.171.40.53 (Rigaku OD, 2019)'
_computing_data_reduction        'CrysAlisPro 1.171.40.53 (Rigaku OD, 2019)'
_computing_structure_refinement  'SHELXL-2018/3 (Sheldrick, 2018)'
_diffrn_ambient_pressure         880000
_diffrn_ambient_temperature      293(2)
_diffrn_detector                 'CCD plate'
_diffrn_detector_area_resol_mean 10.3457
_diffrn_detector_type            Ruby
_diffrn_measured_fraction_theta_full 0.357
_diffrn_measured_fraction_theta_max 0.314
_diffrn_measurement_device       'four-circle diffractometer'
_diffrn_measurement_device_type  'Xcalibur, Ruby, Gemini ultra'
_diffrn_radiation_monochromator  graphite
_diffrn_radiation_probe          x-ray
_diffrn_radiation_type           'Mo K\a'
_diffrn_radiation_wavelength     0.71073
_diffrn_reflns_av_R_equivalents  0.0984
_diffrn_reflns_av_unetI/netI     0.0614
_diffrn_reflns_Laue_measured_fraction_full 0.357
_diffrn_reflns_Laue_measured_fraction_max 0.314
_diffrn_reflns_limit_h_max       12
_diffrn_reflns_limit_h_min       -12
_diffrn_reflns_limit_k_max       11
_diffrn_reflns_limit_k_min       -11
_diffrn_reflns_limit_l_max       3
_diffrn_reflns_limit_l_min       -3
_diffrn_reflns_number            3006
_diffrn_reflns_point_group_measured_fraction_full 0.357
_diffrn_reflns_point_group_measured_fraction_max 0.314
_diffrn_reflns_theta_full        25.242
_diffrn_reflns_theta_max         28.267
_diffrn_reflns_theta_min         3.225
_diffrn_source                   'fine-focus sealed X-ray tube'
_diffrn_source_type              'Enhance (Mo) X-ray Source'
_exptl_absorpt_coefficient_mu    0.426
_exptl_absorpt_correction_T_max  1.00000
_exptl_absorpt_correction_T_min  0.41238
_exptl_absorpt_correction_type   multi-scan
_exptl_absorpt_process_details
;
CrysAlisPro 1.171.40.53 (Rigaku Oxford Diffraction, 2019)
Empirical absorption correction using spherical harmonics,
 implemented in SCALE3 ABSPACK scaling algorithm.
;
_exptl_crystal_colour            white
_exptl_crystal_density_diffrn    1.792
_exptl_crystal_description       plates
_exptl_crystal_F_000             328
_exptl_crystal_size_max          0.21
_exptl_crystal_size_mid          0.10
_exptl_crystal_size_min          0.05
_refine_diff_density_max         0.269
_refine_diff_density_min         -0.302
_refine_diff_density_rms         0.072
_refine_ls_extinction_method     none
_refine_ls_goodness_of_fit_ref   1.078
_refine_ls_hydrogen_treatment    mixed
_refine_ls_matrix_type           full
_refine_ls_number_parameters     88
_refine_ls_number_reflns         453
_refine_ls_number_restraints     2
_refine_ls_restrained_S_all      1.076
_refine_ls_R_factor_all          0.0926
_refine_ls_R_factor_gt           0.0525
_refine_ls_shift/su_max          0.000
_refine_ls_shift/su_mean         0.000
_refine_ls_structure_factor_coef Fsqd
_refine_ls_weighting_details
'w=1/[\s^2^(Fo^2^)+(0.0758P)^2^+0.5580P] where P=(Fo^2^+2Fc^2^)/3'
_refine_ls_weighting_scheme      calc
_refine_ls_wR_factor_gt          0.1197
_refine_ls_wR_factor_ref         0.1476
_reflns_Friedel_coverage         0.000
_reflns_number_gt                307
_reflns_number_total             453
_reflns_threshold_expression     'I > 2\s(I)'
_cod_data_source_file            xk5096sup1.cif
_cod_data_source_block           0.88
_cod_original_sg_symbol_H-M      'P 21/a'
_cod_database_code               2109031
_shelx_shelxl_version_number     2018/3
_shelx_space_group_comment
;
The symmetry employed for this shelxl refinement is uniquely defined
by the following loop, which should always be used as a source of
symmetry information in preference to the above space-group names.
They are only intended as comments.
;
_oxdiff_exptl_absorpt_empirical_full_min 0.783
_oxdiff_exptl_absorpt_empirical_full_max 1.982
_oxdiff_exptl_absorpt_empirical_details
;
Empirical correction (ABSPACK) includes:
- Absorption correction using spherical harmonics
- Frame scaling
;
_shelx_res_file
;
TITL GPI_0 in P2(1)/c
    0.88.res
    created by SHELXL-2018/3 at 17:44:27 on 10-Aug-2022
REM  transformed to space group : P21/a:b3
REM P2(1)/c (#14 in standard setting)
CELL   0.71073  9.6118  8.4921  7.2510   90.000  100.405   90.000
ZERR   4        0.0008  0.0004  0.0052    0.000    0.025    0.000
LATT    1
SYMM   1/2-X,1/2+Y,-Z
SFAC C H N O P
UNIT 8 32 4 20 4
LIST 4 ! automatically inserted. Change 6 to 4 for CHECKCIF!!
PLAN 30
FMAP 2
L.S. 20
BOND
BOND $H
CONF
ACTA
EQIV $1 1-X, 1-Y,1-Z
EQIV $2 1/2+X, 3/2-Y,Z
EQIV $3 1-X, 2-Y, 2-Z
EQIV $4 1-X, 2-Y, 1-Z
EQIV $5 1/2+X, 1/2-Y, Z
HTAB N1 O2_$1
HTAB N1 O3_$2
HTAB N1 O2
HTAB O1 O1_$3
HTAB O3 O3_$4
HTAB O5 O2_$5
DFIX 1.66  H1 O1_$3
DFIX 1.70  H3 O3_$4
WGHT    0.075800    0.558000
FVAR       1.70421
C1    1    0.698152    0.301780    0.793577    11.00000    0.02477    0.02170 =
         0.05841   -0.00756    0.01138    0.00206
AFIX  23
H1D   2    0.608748    0.251379    0.800884    11.00000   -1.20000
H1E   2    0.736440    0.346483    0.915272    11.00000   -1.20000
AFIX   0
C2    1    0.801976    0.181338    0.737011    11.00000    0.01789    0.01286 =
         0.05110    0.00441    0.00232    0.00106
N1    3    0.677001    0.426907    0.648549    11.00000    0.02538    0.01538 =
         0.03646    0.00541    0.01280    0.00120
AFIX 137
H1A   2    0.640105    0.384997    0.538019    11.00000   -1.20000
H1B   2    0.759819    0.471207    0.641641    11.00000   -1.20000
H1C   2    0.618385    0.499615    0.678947    11.00000   -1.20000
AFIX   0
O1    4    0.491414    0.861450    0.954141    11.00000    0.07497    0.02714 =
         0.08634   -0.00554    0.04828   -0.00203
AFIX 147
H1    2    0.486036    0.957687    0.958874    10.50000   -1.20000
AFIX   0
O2    4    0.465996    0.643593    0.719562    11.00000    0.03356    0.01770 =
         0.05179   -0.00325    0.01847   -0.00467
O3    4    0.438247    0.924386    0.608496    11.00000    0.03217    0.02816 =
         0.07744    0.01426    0.01211    0.01052
H3    2    0.462919    0.961046    0.510439    10.50000   -1.20000
O4    4    0.863187    0.196253    0.612220    11.00000    0.03112    0.02569 =
         0.01102   -0.00093    0.01089    0.00396
O5    4    0.815998    0.062663    0.856145    11.00000    0.03845    0.02566 =
         0.07583    0.00169    0.02760    0.00713
AFIX 147
H5    2    0.868858   -0.003617    0.823929    11.00000   -1.20000
AFIX   0
P1    5    0.511891    0.811603    0.757269    11.00000    0.02598    0.01478 =
         0.04930   -0.00067    0.01342   -0.00244
AFIX  13
H1P   2    0.613435    0.816629    0.755037    11.00000   -1.20000
AFIX   0
HKLF 4




REM  GPI_0 in P2(1)/c
REM wR2 = 0.1476, GooF = S = 1.078, Restrained GooF = 1.076 for all data
REM R1 = 0.0525 for 307 Fo > 4sig(Fo) and 0.0926 for all 453 data
REM 88 parameters refined using 2 restraints

END

WGHT      0.0758      0.5576

REM Highest difference peak  0.269,  deepest hole -0.302,  1-sigma level  0.072
Q1    1   1.0000  0.0000  1.0000  10.50000  0.05    0.27
Q2    1   0.5407  0.9193  0.8683  11.00000  0.05    0.25
Q3    1   0.5144  1.0836  0.7285  11.00000  0.05    0.22
Q4    1   0.6163  0.6185  0.6608  11.00000  0.05    0.22
Q5    1   0.7615  0.5012  0.9846  11.00000  0.05    0.22
Q6    1   0.5766  0.6351  0.8772  11.00000  0.05    0.22
Q7    1   0.6666  0.7826  0.7742  11.00000  0.05    0.22
Q8    1   0.4249  0.6245  0.8304  11.00000  0.05    0.21
Q9    1   0.6631  0.8248  0.6575  11.00000  0.05    0.21
Q10   1   0.7265  0.0005  0.9704  11.00000  0.05    0.21
Q11   1   0.3649  1.0194  0.9527  11.00000  0.05    0.20
Q12   1   0.4743  0.6940  0.5677  11.00000  0.05    0.18
Q13   1   0.8735  0.3753  0.9097  11.00000  0.05    0.18
Q14   1   0.9211  0.2472  0.7471  11.00000  0.05    0.18
Q15   1   0.7740  0.4280  0.8233  11.00000  0.05    0.18
Q16   1   0.8196  0.5012  0.5108  11.00000  0.05    0.18
Q17   1   0.4004  0.7184  0.8703  11.00000  0.05    0.18
Q18   1   0.9413  0.2359  0.8018  11.00000  0.05    0.18
Q19   1   0.8055  0.4981  0.4560  11.00000  0.05    0.18
Q20   1   0.9812  0.1490  0.6415  11.00000  0.05    0.17
Q21   1   0.6042  0.1445  0.8975  11.00000  0.05    0.17
Q22   1   0.6414  0.3706  1.0248  11.00000  0.05    0.17
Q23   1   0.3862  0.8521  1.0519  11.00000  0.05    0.17
Q24   1   0.4203  1.0495  0.6141  11.00000  0.05    0.16
Q25   1   0.4010  1.0738  0.6314  11.00000  0.05    0.16
Q26   1   0.9621  0.2481  0.5600  11.00000  0.05    0.16
Q27   1   0.5575  0.4569  0.8892  11.00000  0.05    0.15
Q28   1   0.4570  0.6199  0.6604  11.00000  0.05    0.15
Q29   1   0.3366  0.8070  0.6015  11.00000  0.05    0.15
Q30   1   0.7033  0.0726  0.7158  11.00000  0.05    0.15
;
_shelx_res_checksum              97117
_shelx_hkl_file
;
   1   0   0 4.87323 5.02579   8 0.03748 0.03749 0.04046-0.04044 0.98886-0.97534
  -1   0   0 1.80958 3.98305   7-0.03751-0.03752-0.01369 0.01370-0.98958 0.97604
  -2   0   0 8309.96 124.540   6-0.07503-0.07503-0.30795 0.30796-0.94640 0.91932
  -2   0   0 7291.72 181.572   7-0.07503-0.07503-0.00657 0.00659-0.99434 0.96727
   2   0   0 7819.08 180.412   8 0.07497 0.07497 0.02586-0.02582 0.99402-0.96698
  -2   0   0 8505.90 124.814   4-0.07500-0.07499-0.30812 0.30802-0.94634 0.91932
   2   0   0 8522.03 125.509   9 0.07500 0.07500-0.31948 0.31949 0.94267-0.91561
  -3   0   0 -5.6814 13.2141   7-0.11254-0.11255 0.00058-0.00055-0.99765 0.95704
  -3   0   0 0.64288 7.74307   6-0.11254-0.11254-0.21507 0.21510-0.97447 0.93386
  -3   0   0 2.07412 5.58172   4-0.11252-0.11249-0.21523 0.21510-0.97443 0.93387
   3   0   0 -6.0938 11.0480   8 0.11245 0.11244 0.01116-0.01111 0.99758-0.95702
   3   0   0 5.67617 6.36142   9 0.11250 0.11250-0.23415 0.23416 0.97014-0.92955
  -4   0   0 5216.72 220.053   7-0.15004-0.15007 0.00776-0.00772-0.99950 0.94536
  -4   0   0 5315.21 132.546   4-0.15005-0.15000-0.11684 0.11669-0.99271 0.93861
   4   0   0 5361.67 103.275   1 0.14998 0.15002 0.22085-0.22089 0.97494-0.92081
  -4   0   0 4909.15 129.853   6-0.15003-0.15003-0.11675 0.11679-0.99271 0.93858
   4   0   0 5085.69 206.153   8 0.14994 0.14993-0.00362 0.00369 0.99952-0.94543
   5   0   0 -1.0064 7.05935   1 0.18757 0.18764 0.01695-0.01692 0.99983-0.93214
  -5   0   0 -13.954 12.1671   6-0.18752-0.18753-0.01231 0.01235-0.99990 0.93224
   5   0   0 -22.984 27.7851   8 0.18742 0.18740-0.01850 0.01858 0.99980-0.93219
  -5   0   0 -35.041 34.5969   7-0.18755-0.18760 0.01497-0.01493-0.99986 0.93219
  -6   0   0 7905.59 334.907   7-0.22505-0.22512 0.02222-0.02217-0.99871 0.91750
   6   0   0 8751.63 337.376   8 0.22491 0.22489-0.03347 0.03356 0.99840-0.91727
  -6   0   0 9691.65 210.660   6-0.22500-0.22501 0.09940-0.09935-0.99397 0.91280
   7   0   0 -29.552 41.1868   8 0.26239 0.26236-0.04853 0.04863 0.99527-0.90061
   7   0   0 -2.6589 24.9777   2 0.26243 0.26244 0.05083-0.05080 0.99514-0.90046
  -7   0   0 -9.9972 37.4256   7-0.26255-0.26265 0.02950-0.02945-0.99601 0.90125
  -8   0   0 53.7747 49.2858   3-0.30035-0.30015-0.08251 0.08223-0.98884 0.88061
   8   0   0 7.17068 50.8268   8 0.29988 0.29984-0.06370 0.06381 0.99033-0.88216
   8   0   0 -31.635 43.9461   2 0.29992 0.29992 0.09646-0.09643 0.98760-0.87940
  -8   0   0 45.3648 47.5089   7-0.30005-0.30018 0.03682-0.03675-0.99170 0.88340
  -9   0   0 -80.855 73.0212   7-0.33756-0.33770 0.04416-0.04409-0.98574 0.86388
  -9   0   0 7.83835 32.2656   3-0.33790-0.33764-0.11533 0.11499-0.97971 0.85799
   9   0   0 48.0323 64.2890   8 0.33737 0.33732-0.07897 0.07910 0.98353-0.86184
  10   0   0 485.951 118.352   8 0.37486 0.37480-0.09434 0.09449 0.97476-0.83955
 -10   0   0 580.799 125.587   7-0.37505-0.37523 0.05155-0.05148-0.97804 0.84264
 -10   0   0 524.433 118.802   3-0.37544-0.37513-0.14866 0.14826-0.96755 0.83235
  11   0   0 85.0383 57.5846   8 0.41234 0.41227-0.10983 0.10999 0.96393-0.81521
  11   0   0 42.3439 53.5076   5 0.41263 0.41258 0.13613-0.13637 0.96032-0.81145
 -11   0   0 6.65085 62.0329   7-0.41254-0.41276 0.05898-0.05890-0.96853 0.81958
  12   0   0 -16.307 70.9337   8 0.44983 0.44975-0.12545 0.12562 0.95090-0.78865
  12   0   0 -9.7881 58.8241   5 0.45015 0.45010 0.15865-0.15890 0.94552-0.78312
   0  -1   0 4.18502 1.89486   9 0.19026-0.19026-0.04175-0.04175 0.99908-0.99907
   0   1   0 2.31580 2.97398   6-0.20599 0.20601 0.04175 0.04175-0.99879 0.99878
   0  -1   0 7.29552 4.15862   1 0.19687-0.19684-0.04173-0.04172 0.99899-0.99898
   0   1   0 1.23838 2.57543   4-0.20605 0.20605 0.04177 0.04177-0.99878 0.99878
  -1   1   0 346.394 31.7219   1 0.15181-0.22682 0.21188-0.12849 0.97697-0.99049
  -1   1   0 396.900 32.7071   7-0.08849 0.01344-0.00401 0.08755-0.99569 0.98215
   1  -1   0 388.364 33.5827   8 0.10127-0.02632 0.01555-0.09902 0.99669-0.98316
   1   1   0 384.539 26.1653   4-0.29671 0.37182 0.34206-0.25843-0.93052 0.94407
  -1  -1   0 364.114 33.7329   9 0.13017-0.20515-0.19233 0.10883 0.98020-0.99372
  -1   1   0 382.115 34.7408   4-0.16587 0.09085-0.07355 0.15703-0.99719 0.98365
  -1   1   0 345.127 33.7198   6-0.16584 0.09083-0.07352 0.15705-0.99719 0.98365
  -1  -1   0 413.723 26.8028   7-0.07712 0.00210-0.00618-0.07734-0.99456 0.98103
  -1   1   0 392.925 34.3357   8-0.01590-0.05905 0.06111 0.02236 0.97876-0.99229
  -1  -1   0 347.732 23.6777   4-0.23722 0.16213 0.13755-0.22115-0.98869 0.97515
   1  -1   0 416.292 33.7910   7 0.05035 0.02469-0.03025-0.05328-0.97282 0.98636
   1   1   0 405.929 26.7276   6-0.29662 0.37162 0.34185-0.25841-0.93061 0.94412
  -1   1   0 410.338 27.3538   9 0.32608-0.40106 0.36828-0.28478 0.91517-0.92871
   1   1   0 410.185 27.1588   7 0.13532-0.06029-0.04609 0.12962-0.94908 0.96261
   1   1   0 380.856 28.3726   1 0.20690-0.13188-0.11052 0.19407 0.99348-0.97994
  -1  -1   0 384.734 25.3719   6-0.23721 0.16220 0.13766-0.22112-0.98868 0.97516
   1  -1   0 383.953 25.4447   9 0.26242-0.18743 0.16026-0.24376 0.98327-0.96974
   1  -1   0 396.760 34.3761   1 0.17629-0.10127 0.08304-0.16646 0.99653-0.98300
   2  -1   0 207.109 29.7788   4-0.07428 0.22429-0.30985 0.22647-0.94571 0.97274
  -2  -1   0 217.450 29.3907   7-0.09693-0.05312-0.00240-0.08111-0.99645 0.96939
   2  -1   0 205.076 32.8171   8 0.10585 0.04407 0.01376-0.09721 0.99707-0.97002
  -2   1   0 199.711 32.0039   7-0.09936-0.05071-0.00194 0.08550-0.99665 0.96957
   2   1   0 231.280 27.8636   8 0.08630 0.06366 0.02142 0.06209 0.99527-0.96822
   2   1   0 214.273 20.7273   1 0.22101-0.07089-0.22062 0.30426 0.97429-0.94717
   2  -1   0 195.564 27.1290   1 0.16845-0.01844 0.12629-0.20970 0.99193-0.96487
  -2   1   0 191.744 28.2483   6-0.15531 0.00526-0.10247 0.18601-0.99443 0.96736
  -2  -1   0 206.642 29.6399   9 0.07707-0.22704-0.31488 0.23137 0.94440-0.97145
   3  -1   0 19770.3 325.075   4-0.02743 0.25244-0.41867 0.33537-0.89776 0.93826
  -3  -1   0 19388.2 358.625   7-0.12943-0.09563 0.00381-0.08731-0.99866 0.95807
  -3   1   0 18761.4 371.646   7-0.12681-0.09828 0.00331 0.08026-0.99853 0.95791
   3   1   0 17959.2 308.277   8 0.12577 0.09915 0.00592 0.07760 0.99846-0.95789
   3  -1   0 18765.4 367.886   8 0.12957 0.09532 0.00442-0.08785 0.99867-0.95810
  -3   1   0 18531.3 305.222   6-0.16064-0.06442-0.08788 0.17143-0.99594 0.95533
  -3  -1   0 19449.1 318.758   9 0.02800-0.25298-0.42031 0.33678 0.89715-0.93774
  -4   1   0 1034.04 101.093   7-0.15903-0.14110 0.00949 0.07409-0.99972 0.94557
  -4  -1   0 1044.65 86.4938   9-0.01859-0.28138-0.51384 0.43029 0.84029-0.89443
   4   1   0 1084.52 90.4190   8 0.16415 0.13573-0.00925 0.09279 0.99982-0.94573
   4  -1   0 1105.13 101.918   8 0.15948 0.14037-0.00740-0.07602 0.99975-0.94566
  -4  -1   0 1134.14 101.358   7-0.16459-0.13550 0.01055-0.09405-0.99982 0.94569
   4  -1   0 1100.62 88.3834   4 0.01777 0.28221-0.51657 0.43335-0.83878 0.89274
  -4   1   0 1026.25 77.7748   6-0.17500-0.12507-0.04795 0.13150-0.99883 0.94470
   5  -1   0 446.936 71.4880   8 0.19216 0.18266-0.02039-0.06302 0.99972-0.93211
   5  -1   0 450.466 30.1498   9 0.18362 0.19135-0.05908-0.02442 0.99825-0.93060
   5   1   0 505.007 70.8082   8 0.20217 0.17268-0.02438 0.10793 0.99946-0.93185
  -5  -1   0 576.159 82.8804   7-0.20074-0.17439 0.01752-0.10101-0.99963 0.93196
  -5   1   0 461.679 56.6008   6-0.19484-0.18022 0.00889 0.07466-0.99985 0.93219
  -5  -1   0 23.0388 16.7185   9-0.06360-0.31137-0.59813 0.51456 0.77433-0.84201
  -5   1   0 486.382 79.1223   7-0.19328-0.18189 0.01608 0.06751-0.99979 0.93209
   6   1   0 428.358 72.7352   8 0.24001 0.20980-0.03953 0.12308 0.99735-0.91622
  -6   1   0 410.762 56.4681   6-0.21819-0.23185 0.07850 0.00504-0.99615 0.91496
  -6   1   0 344.735 72.0784   7-0.22856-0.22163 0.02290 0.06069-0.99853 0.91729
   6  -1   0 446.620 31.3305   9 0.26249 0.18746 0.16045-0.24398 0.98323-0.90205
   6  -1   0 385.112 74.3629   8 0.22632 0.22346-0.03403-0.04935 0.99832-0.91718
  -6  -1   0 454.552 82.7073   7-0.23736-0.21279 0.02460-0.10809-0.99800 0.91679
   7   1   0 53.1297 34.3138   8 0.27776 0.24702-0.05474 0.13831 0.99346-0.89881
  -7   1   0 84.0791 34.1536   6-0.24385-0.28116 0.15893-0.07540-0.98500 0.89029
   7   1   0 68.7036 37.7462   2 0.26122 0.26366 0.04937 0.03416 0.99532-0.90064
   7  -1   0 138.276 59.8880   8 0.26136 0.26339-0.04812-0.03525 0.99537-0.90072
  -7  -1   0 46.9878 48.1553   7-0.27424-0.25094 0.03178-0.11526-0.99484 0.90010
   7  -1   0 105.393 33.2456   2 0.28067 0.24419 0.07290-0.15636 0.99196-0.89728
  -7   1   0 125.686 57.4551   7-0.26446-0.26076 0.02987 0.05373-0.99583 0.90106
   8  -1   0 106.582 48.5200   8 0.29697 0.30274-0.06252-0.02084 0.99078-0.88261
   8   1   0 264.770 66.1329   2 0.29342 0.30644 0.08848-0.00494 0.98919-0.88099
  -8   1   0 248.285 82.1710   7-0.30073-0.29952 0.03695 0.04666-0.99161 0.88329
  -8  -1   0 227.012 75.5176   3-0.29533-0.30523-0.07815-0.00562-0.98984 0.88159
   8   1   0 183.898 83.4847   8 0.31545 0.28428-0.07003 0.15362 0.98774-0.87956
  -8   1   0 135.739 59.0217   3-0.31999-0.28048-0.09961 0.18279-0.98443 0.87624
  -8  -1   0 277.267 90.1812   7-0.31129-0.28892 0.03901-0.12249-0.99009 0.88180
  -9   1   0 258.916 89.4022   7-0.33728-0.33801 0.04410 0.03950-0.98579 0.86392
  -9   1   0 255.767 74.7882   3-0.35967-0.31583-0.13459 0.21770-0.97305 0.85137
   9   1   0 163.447 70.8943   8 0.35312 0.32158-0.08541 0.16901 0.98009-0.85840
   9  -1   0 245.003 91.3221   8 0.33297 0.34171-0.07717-0.00617 0.98443-0.86273
  -9  -1   0 156.771 62.1719   3-0.32973-0.34586-0.10814 0.02432-0.98195 0.86020
   9   1   0 293.213 82.1194   2 0.32655 0.34828 0.12950-0.04597 0.97980-0.85808
  -9  -1   0 142.203 101.839   7-0.34843-0.32678 0.04630-0.12977-0.98369 0.86185
 -10   1   0 376.684 106.864   7-0.37399-0.37631 0.05134 0.03227-0.97828 0.84287
 -10  -1   0 304.643 86.9179   3-0.36465-0.38597-0.13902 0.05515-0.97137 0.83613
  10  -1   0 426.014 117.681   8 0.36924 0.38041-0.09203 0.00871 0.97621-0.84099
  10   1   0 205.898 73.4954   8 0.39076 0.35890-0.10090 0.18451 0.97043-0.83522
 -10  -1   0 429.044 120.969   7-0.38566-0.36458 0.05365-0.13712-0.97554 0.84016
  11  -1   0 57.9284 85.4104   8 0.40571 0.41890-0.10708 0.02378 0.96601-0.81727
  11  -1   0 64.8211 65.1285   5 0.43182 0.39347 0.14762-0.23138 0.95309-0.80416
  11   1   0 31.2249 66.4041   8 0.42839 0.39624-0.11650 0.20012 0.95863-0.80991
 -11  -1   0 -81.313 55.0330   7-0.42293-0.40233 0.06104-0.14451-0.96557 0.81663
 -11  -1   0 77.3135 61.0957   3-0.39997-0.42569-0.17073 0.08681-0.95785 0.80913
 -11   1   0 -10.521 98.5329   7-0.41085-0.41448 0.05864 0.02498-0.96900 0.82003
  12  -1   0 -9.4818 68.0477   8 0.44233 0.45723-0.12231 0.03901 0.95369-0.79145
 -12  -1   0 110.466 83.0916   7-0.46025-0.44003 0.06849-0.15196-0.95365 0.79115
  12   1   0 211.524 83.8087   8 0.46600 0.43359-0.13222 0.21585 0.94456-0.78233
  12   1   0 3.22398 57.2616   5 0.43986 0.46031 0.15245-0.06918 0.94985-0.78750
   0  -2   0 4512.67 142.533   9 0.17414-0.17414-0.08350-0.08350 0.99650-0.99649
   0  -2   0 4586.81 87.7337   8 0.34841-0.34845-0.08348-0.08348 0.98115-0.98114
   0   2   0 4520.38 143.422   6-0.21983 0.21985 0.08349 0.08351-0.99567 0.99566
   0  -2   0 4598.80 113.768   3-0.30155 0.30155-0.08354-0.08356-0.98859 0.98860
   0   2   0 4709.42 91.7083   8-0.07427 0.07429 0.08348 0.08347 0.96404-0.96404
   0   2   0 4685.56 125.402   2 0.28936-0.28937 0.08350 0.08350 0.99012-0.99013
   1   2   0 345.329 36.6521   6-0.26173 0.33676 0.21787-0.05092-0.97203 0.98554
  -1  -2   0 343.840 36.8554   4-0.18597 0.11089-0.01690-0.15023-0.99984 0.98631
  -1   2   0 378.354 30.2352   2 0.46235-0.53735 0.30792-0.14094 0.90126-0.91478
  -1   2   0 336.487 32.5351   7-0.18937 0.11434 0.01532 0.15174-0.99984 0.98630
   1   2   0 332.537 38.9898   1 0.18773-0.11274 0.01595 0.15106 0.99984-0.98631
   1  -2   0 341.302 35.4125   8 0.18464-0.10970-0.01739-0.14956 0.99984-0.98631
  -1  -2   0 366.445 44.3740   9 0.14188-0.21686-0.16405-0.00295 0.98579-0.99930
   1  -2   0 387.692 36.5022   7 0.12512-0.05005-0.04420-0.12286-0.95233 0.96588
   1  -2   0 338.282 36.2275   9 0.20246-0.12746-0.00942-0.15757 0.99970-0.98617
  -1   2   0 376.318 45.1880   6-0.19602 0.12101 0.01231 0.15473-0.99980 0.98625
   2   2   0 2135.70 92.9841   6-0.32119 0.47118 0.43932-0.27243-0.88315 0.91016
   2  -2   0 1814.38 107.783   4-0.10181 0.25186-0.24226 0.07534-0.96738 0.99443
  -2  -2   0 2078.55 84.5119   6-0.20234 0.05234 0.03090-0.19785-0.99927 0.97223
  -2   2   0 2023.64 105.234   7-0.15774 0.00767 0.00924 0.15785-0.99969 0.97261
   2   2   0 2090.52 89.4653   7 0.24103-0.09097-0.06558 0.23264-0.90893 0.93599
   2   2   0 1918.05 64.7784   8 0.18947-0.03950-0.01931 0.18630 0.99977-0.97273
   2  -2   0 1924.47 78.6810   9 0.22452-0.07454 0.05080-0.21779 0.99768-0.97061
  -2   2   0 1860.40 109.386   6-0.18613 0.03611-0.01630 0.18336-0.99985 0.97277
   2  -2   0 2048.32 110.042   8 0.15960-0.00970-0.00745-0.15948 0.99975-0.97270
  -2  -2   0 1808.02 105.416   9 0.10700-0.25696-0.24695 0.07994 0.96662-0.99367
  -2  -2   0 1935.74 79.2215   4-0.20231 0.05217 0.03071-0.19788-0.99928 0.97220
   2   2   0 1979.92 92.5973   1 0.19405-0.04399-0.02351 0.19057 0.99963-0.97255
  -2  -2   0 1986.49 83.7059   7-0.18385 0.03383 0.01426-0.18128-0.99989 0.97284
  -3   2   0 89.8789 29.2698   7-0.16644-0.05865 0.01091 0.15619-0.99984 0.95922
   3   2   0 107.186 21.9187   1 0.19462 0.03052-0.02717 0.19426 0.99953-0.95890
  -3   2   0 93.8304 26.8015   6-0.18628-0.03877-0.01587 0.18294-0.99985 0.95924
   3  -2   0 89.9975 15.7163   9 0.23587-0.01090 0.08273-0.24973 0.99492-0.95432
  -3  -2   0 72.3346 15.7269   6-0.20645-0.01854 0.04312-0.21005-0.99871 0.95815
   3  -2   0 105.169 30.6067   8 0.16676 0.05812-0.01029-0.15663 0.99985-0.95928
   3  -2   0 113.516 32.2760   4-0.06754 0.29260-0.32597 0.15914-0.93966 0.98020
  -3  -2   0 69.8861 15.1496   4-0.20637-0.01882 0.04275-0.20993-0.99873 0.95812
  -3  -2   0 86.7133 26.0721   9 0.07033-0.29528-0.32980 0.16278 0.93869-0.97927
  -3  -2   0 87.9144 25.4499   7-0.18528-0.03976 0.01454-0.18155-0.99988 0.95930
   3   2   0 95.2530 22.7813   8 0.18852 0.03642-0.01894 0.18593 0.99979-0.95922
   4  -2   0 1223.66 110.008   4-0.03154 0.33158-0.40943 0.24270-0.90250 0.95652
  -4  -2   0 1109.42 46.9486   6-0.18399-0.11602-0.02244-0.14451-0.99974 0.94564
   4   2   0 1310.11 99.4155   8 0.21227 0.08763-0.02841 0.19542 0.99907-0.94498
   4   2   0 1221.97 70.3117   1 0.18778 0.11243 0.01567 0.15139 0.99985-0.94568
  -4   2   0 1225.53 122.372   7-0.18815-0.11198 0.01509 0.15202-0.99986 0.94570
   4  -2   0 1155.19 116.081   8 0.18633 0.11352-0.01806-0.14884 0.99982-0.94573
   4  -2   0 1239.66 49.3826   9 0.22410 0.07585 0.04966-0.21667 0.99776-0.94363
  -4  -2   0 1260.67 109.342   9 0.03240-0.33235-0.41114 0.24410 0.90192-0.95604
  -4   2   0 1232.39 108.154   6-0.19359-0.10648 0.00524 0.16182-0.99990 0.94575
  -4  -2   0 1265.45 106.116   7-0.20692-0.09315 0.01871-0.18573-0.99946 0.94534
  -4  -2   0 1140.20 46.3611   4-0.18383-0.11637-0.02300-0.14419-0.99973 0.94558
   5  -2   0 433.354 70.5996   4 0.00578 0.36925-0.49128 0.32464-0.85562 0.92309
   5   2   0 418.979 37.2563   1 0.16843 0.20679 0.12637 0.04057 0.99192-0.92421
   5  -2   0 379.782 73.1311   8 0.21197 0.16283-0.02829-0.13859 0.99908-0.93147
  -5   2   0 414.074 63.4156   6-0.20605-0.16903 0.04191 0.12515-0.99878 0.93110
   5   2   0 399.784 62.4448   8 0.24274 0.13213-0.04062 0.20763 0.99713-0.92952
  -5   2   0 484.995 79.2014   7-0.21567-0.15950 0.02040 0.14672-0.99914 0.93144
  -5  -2   0 439.710 71.4216   7-0.23551-0.13959 0.02425-0.19125-0.99812 0.93046
  -5  -2   0 468.645 75.4630   9-0.00643-0.36851-0.49005 0.32299 0.85624-0.92390
   6   2   0 1004.34 113.796   2 0.24490 0.20503 0.02980 0.13724 0.99737-0.91622
   6  -2   0 1229.61 126.257   4 0.04412 0.40587-0.57049 0.40393-0.79867 0.87956
  -6  -2   0 1231.47 133.845   9-0.04598-0.40396-0.56585 0.39878 0.80146-0.88267
   6   2   0 989.738 110.821   8 0.27598 0.17385-0.05402 0.22105 0.99369-0.91256
  -6   2   0 993.875 87.2417   3-0.28039-0.16996-0.06526 0.23202-0.99253 0.91137
   6  -2   0 1003.80 127.875   8 0.24104 0.20874-0.03994-0.12692 0.99727-0.91613
   6  -2   0 1181.04 76.6976   2 0.28490 0.16497 0.07806-0.24502 0.99109-0.90994
  -6   2   0 1064.22 105.034   6-0.22226-0.22781 0.09094 0.07611-0.99491 0.91371
  -6  -2   0 1009.78 124.202   7-0.26731-0.18281 0.03043-0.19744-0.99555 0.91436
  -6   2   0 1047.68 129.856   7-0.24629-0.20391 0.02634 0.14079-0.99737 0.91613
  -7   2   0 399.109 85.7720   7-0.27875-0.24648 0.03266 0.13448-0.99435 0.89956
  -7   2   0 311.443 55.2721   3-0.32135-0.20405-0.10081 0.26749-0.98409 0.88944
   7   2   0 499.721 85.6426   8 0.31065 0.21415-0.06807 0.23511 0.98857-0.89392
  -7  -2   0 176.447 80.7879   7-0.30085-0.22429 0.03697-0.20397-0.99159 0.89686
   7  -2   0 364.994 91.5989   8 0.27222 0.25253-0.05250-0.11434 0.99415-0.89949
  -7   2   0 411.981 70.4841   6-0.24121-0.28384 0.15043 0.01660-0.98654 0.89180
   7   2   0 467.586 88.7928   2 0.26995 0.25494 0.05990 0.10713 0.99394-0.89926
   8  -2   0 961.227 143.133   8 0.30480 0.29491-0.06569-0.10113 0.98955-0.88137
  -8   2   0 955.015 153.354   7-0.31240-0.28786 0.03923 0.12792-0.98993 0.88159
  -8  -2   0 1231.04 158.134   3-0.30064-0.29998-0.08275-0.08452-0.98878 0.88050
   8   2   0 969.671 142.299   8 0.34614 0.25362-0.08255 0.24960 0.98166-0.87349
   8   2   0 1135.68 135.290   2 0.29724 0.30263 0.09317 0.07387 0.98827-0.88007
  -8  -2   0 1250.17 159.933   7-0.33545-0.26471 0.04374-0.21075-0.98612 0.87785
   9  -2   0 421.944 115.552   8 0.33835 0.33632-0.07937-0.08744 0.98332-0.86163
  -9  -2   0 283.951 104.310   7-0.37072-0.30445 0.05069-0.21770-0.97902 0.85720
   9   2   0 355.760 100.002   8 0.38216 0.29257-0.09735 0.26440 0.97282-0.85113
  -9   2   0 295.747 92.6302   7-0.34685-0.32843 0.04599 0.12116-0.98399 0.86211
   9   2   0 442.937 104.250   2 0.32616 0.34869 0.12900 0.03803 0.97994-0.85821
  -9  -2   0 474.211 108.011   3-0.33150-0.34416-0.10970-0.05762-0.98148 0.85969
 -10  -2   0 282.197 99.7201   7-0.40648-0.34372 0.05777-0.22477-0.97020 0.83483
  10   2   0 354.162 89.8073   2 0.35629 0.39353 0.16707-0.00003 0.96850-0.83325
  10   2   0 316.178 113.180   8 0.41852 0.33116-0.11240 0.27947 0.96194-0.82674
  10  -2   0 321.250 111.832   8 0.37261 0.37703-0.09342-0.07338 0.97535-0.84013
 -10  -2   0 334.469 100.308   3-0.36341-0.38728-0.13791-0.02944-0.97180 0.83652
 -10   2   0 279.113 95.7134   7-0.38188-0.36843 0.05290 0.11426-0.97645 0.84101
 -11   2   0 309.985 125.352   7-0.41733-0.40800 0.05993 0.10724-0.96718 0.81819
 -11  -2   0 192.238 76.6331   3-0.39612-0.42961-0.16725-0.00016-0.95947 0.81071
 -11  -2   0 124.120 86.4125   7-0.44256-0.38265 0.06496-0.23196-0.95955 0.81062
  11  -2   0 93.4777 69.0366   8 0.40739 0.41721-0.10778-0.05900 0.96549-0.81676
  11   2   0 243.529 108.813   8 0.45514 0.36951-0.12766 0.29474 0.94887-0.80016
 -12  -2   0 -20.359 60.5388   3-0.42945-0.47132-0.19759 0.03014-0.94421 0.78197
 -12  -2   0 -55.419 67.3267   7-0.47890-0.42134 0.07222-0.23922-0.94693 0.78445
   0  -3   0 0.78385 5.48006   8 0.44930-0.44936-0.12522-0.12523 0.95110-0.95107
   0  -3   0 -1.9412 9.26801   3-0.34922 0.34924-0.12532-0.12536-0.97638 0.97638
   0   3   0 4.64182 12.6839   2 0.32314-0.32317 0.12524 0.12526 0.98092-0.98093
   0   3   0 -10.640 14.1343   6-0.23328 0.23331 0.12523 0.12527-0.99058 0.99056
   0  -3   0 -8.4982 14.2666   9 0.15761-0.15761-0.12525-0.12525 0.99190-0.99188
   0  -3   0 19.5898 19.2924   4-0.14691 0.14687-0.12528-0.12533-0.99158 0.99159
  -1  -3   0 948.582 78.5394   4-0.16045 0.08535-0.08852-0.16214-0.99588 0.98235
   1   3   0 957.219 78.9865   2 0.26716-0.19218 0.05651 0.19402 0.99440-0.98089
   1  -3   0 1081.54 59.4687   3-0.53418 0.60940-0.29658 0.04598-0.87500 0.88847
  -1  -3   0 962.501 87.3094   9 0.13641-0.21139-0.17732-0.07319 0.98328-0.99680
   1   3   0 899.513 81.4129   1 0.17618-0.10122 0.08362 0.16685 0.99649-0.98295
   1  -3   0 952.620 68.5469   8 0.27569-0.20078-0.05390-0.19654 0.99372-0.98018
   1  -3   0 851.671 73.7904   9 0.17377-0.09878-0.08445-0.16604 0.99641-0.98287
  -1   3   0 1016.37 59.4114   7-0.31993 0.24493 0.04071 0.20986-0.98875 0.97520
  -1   3   0 920.785 83.9347   6-0.21599 0.14101 0.07180 0.17873-0.99674 0.98319
   1   3   0 872.754 74.8094   6-0.26073 0.33578 0.21451 0.03593-0.97288 0.98638
  -1   3   0 972.682 63.9174   2 0.43145-0.50646 0.26560-0.01513 0.92582-0.93934
  -2  -3   0 2448.11 118.030   4-0.16706 0.01691-0.07024-0.18045-0.99744 0.97037
  -2  -3   0 2190.79 79.8221   7-0.36786 0.21786 0.05013-0.30062-0.97966 0.95261
   2   3   0 2551.47 132.094   1 0.17992-0.02988 0.06232 0.18819 0.99805-0.97098
   2  -3   0 2443.69 147.046   4-0.10541 0.25546-0.23323-0.01724-0.96983 0.99689
  -2   3   0 2373.30 144.614   6-0.20741 0.05739 0.04597 0.20460-0.99856 0.97147
  -2   3   0 2377.34 119.151   7-0.24173 0.09169 0.02545 0.22516-0.99770 0.97061
  -2  -3   0 2431.27 145.416   9 0.11135-0.26131-0.23682-0.01368 0.96942-0.99646
   2   3   0 2538.64 123.628   6-0.29846 0.44851 0.34884-0.09846-0.92767 0.95468
   2  -3   0 2305.60 126.958   8 0.22686-0.07698-0.03425-0.21617 0.99828-0.97122
   2  -3   0 2420.35 116.619   9 0.18305-0.03307-0.06055-0.18995 0.99816-0.97109
  -3   3   0 6398.97 231.336   7-0.22689 0.00180 0.02258 0.22806-0.99862 0.95799
  -3  -3   0 5857.42 173.029   4-0.16377-0.06142-0.07937-0.17133-0.99671 0.95610
   3   3   0 6216.04 203.434   1 0.17945 0.04567 0.06504 0.18549 0.99788-0.95726
  -3  -3   0 6412.14 245.415   9 0.08326-0.30821-0.30106 0.05055 0.94942-0.98999
   3  -3   0 6132.91 237.698   8 0.21776 0.00710-0.03061-0.21979 0.99880-0.95823
  -3   3   0 6227.28 245.364   6-0.20588-0.01916 0.04140 0.20918-0.99880 0.95818
   3  -3   0 5772.68 236.429   4-0.07939 0.30447-0.29751 0.04713-0.95011 0.99067
   3   3   0 8428.67 246.885   6-0.34208 0.56708 0.53348-0.28317-0.82260 0.86307
   3  -3   0 6418.68 175.024   9 0.18227 0.04270-0.06257-0.18793 0.99804-0.95744
   3   3   0 5930.08 136.792   8 0.34199-0.11701-0.08085 0.33132 0.98256-0.94200
  -3  -3   0 6200.09 182.168   7-0.29094 0.06594 0.03504-0.28554-0.99290 0.95232
  -4  -3   0 2148.57 95.9844   4-0.14431-0.15588-0.13227-0.11842-0.99059 0.93646
  -4   3   0 2072.03 57.4658   3-0.38845 0.08813-0.16033 0.41060-0.96259 0.90853
  -4   3   0 2072.75 151.901   7-0.23457-0.06556 0.02406 0.22659-0.99817 0.94400
   4   3   0 1966.17 103.598   8 0.31183-0.01189-0.06855 0.31902 0.98837-0.93429
   4   3   0 2001.83 114.003   1 0.17387 0.12633 0.09662 0.15389 0.99530-0.94113
   4  -3   0 2207.85 157.708   4-0.05073 0.35082-0.36550 0.11522-0.92331 0.97736
   4  -3   0 2104.45 91.6594   9 0.16458 0.13539-0.10776-0.14274 0.99407-0.93994
  -4  -3   0 2076.23 151.909   9 0.05275-0.35269-0.36804 0.11752 0.92262-0.97673
  -4  -3   0 2021.14 127.700   7-0.28246-0.01758 0.03338-0.28389-0.99393 0.93982
  -4   3   0 2047.58 148.412   6-0.20993-0.09013 0.05351 0.19706-0.99811 0.94396
   4  -3   0 1904.68 149.975   8 0.22611 0.07371-0.03395-0.21643 0.99833-0.94423
   5   3   0 1226.46 96.7251   8 0.31886 0.05604-0.07141 0.32190 0.98713-0.91952
  -5  -3   0 1154.49 122.385   9 0.02028-0.39520-0.43626 0.18572 0.88852-0.95616
   5   3   0 1246.34 126.074   2 0.24843 0.12651 0.03402 0.21653 0.99698-0.92936
  -5  -3   0 1268.20 121.416   7-0.29512-0.07993 0.03585-0.28637-0.99236 0.92472
   5  -3   0 1185.35 121.327   4-0.01989 0.39498-0.43548 0.18531-0.88878 0.95628
   5  -3   0 1214.34 130.615   8 0.24365 0.13115-0.04099-0.20938 0.99705-0.92944
  -5   3   0 1263.80 66.3969   3-0.36328-0.01206-0.13780 0.38802-0.97184 0.90425
   5   3   0 1198.12 83.8427   1 0.16118 0.21406 0.16461 0.08580 0.98620-0.91848
  -5  -3   0 1189.74 61.4961   4-0.09025-0.28486-0.27099 0.02035-0.95889 0.89125
   5  -3   0 1200.70 56.0561   9 0.10845 0.26655-0.24356-0.00694 0.96757-0.89991
  -5   3   0 1200.45 118.924   6-0.21837-0.15670 0.07905 0.17151-0.99610 0.92841
  -5   3   0 1134.22 126.617   7-0.25280-0.12235 0.02761 0.22306-0.99686 0.92915
  -6  -3   0 188.372 64.3553   7-0.31707-0.13299 0.04015-0.29067-0.98920 0.90802
  -6  -3   0 296.332 75.4029   9-0.01382-0.43610-0.50457 0.25402 0.84664-0.92782
   6   3   0 245.063 65.6596   2 0.26480 0.18511 0.05369 0.19686 0.99478-0.91363
   6  -3   0 283.358 74.7994   8 0.26661 0.18316-0.05023-0.20012 0.99480-0.91366
   6   3   0 230.123 54.6878   8 0.33903 0.11082-0.07965 0.33013 0.98318-0.90206
  -6   3   0 223.968 36.3695   3-0.37972-0.07067-0.15249 0.40265-0.96597 0.88488
  -6   3   0 219.062 66.9552   7-0.27684-0.17336 0.03228 0.21840-0.99456 0.91330
   6  -3   0 269.352 76.2675   4 0.01279 0.43728-0.50614 0.25606-0.84587 0.92682
  -6   3   0 203.316 60.2763   6-0.23027-0.21981 0.11580 0.13475-0.99191 0.91069
  -7  -3   0 1914.12 194.782   9-0.04931-0.47560-0.57203 0.32144 0.79646-0.89120
  -7   3   0 1722.08 185.428   7-0.30438-0.22085 0.03766 0.21304-0.99110 0.89630
   7   3   0 1702.48 148.296   8 0.36538 0.15944-0.09044 0.34094 0.97717-0.88253
  -7   3   0 1636.72 151.611   6-0.24487-0.28021 0.16220 0.08833-0.98439 0.88964
   7  -3   0 1818.43 179.016   4 0.04706 0.47800-0.57635 0.32636-0.79394 0.88831
  -7  -3   0 1672.60 168.504   7-0.34394-0.18115 0.04542-0.29594-0.98455 0.88983
   7   3   0 1481.58 160.663   2 0.28495 0.23996 0.07811 0.17244 0.99108-0.89640
   7  -3   0 1562.45 179.391   8 0.29303 0.23170-0.06092-0.18940 0.99137-0.89671
  -7  -3   0 1358.91 162.821   3-0.28829-0.23734-0.07207-0.17870-0.99116 0.89639
  -8  -3   0 140.691 92.2425   7-0.37371-0.22640 0.05128-0.30180-0.97835 0.87009
   8  -3   0 394.431 98.8811   8 0.32180 0.27790-0.07261-0.17770 0.98659-0.87841
   8   3   0 491.887 91.7083   8 0.39512 0.20467-0.10270 0.35321 0.96917-0.86101
   8   3   0 243.067 81.3934   2 0.30787 0.29201 0.10626 0.14429 0.98550-0.87729
  -8  -3   0 441.805 106.186   3-0.31353-0.28715-0.09396-0.15682-0.98597 0.87768
  -8   3   0 597.085 99.9882   6-0.26156-0.33850 0.21728 0.03323-0.97218 0.86389
  -8   3   0 348.471 99.1066   7-0.33421-0.26605 0.04350 0.20720-0.98634 0.87798
   9  -3   0 374.128 103.493   8 0.35223 0.32243-0.08505-0.16524 0.98029-0.85860
   9   3   0 438.290 105.953   8 0.42693 0.24782-0.11589 0.36641 0.95913-0.83745
  -9   3   0 403.229 103.539   7-0.36562-0.30967 0.04969 0.20102-0.98015 0.85824
  -9  -3   0 445.137 121.364   7-0.40534-0.26979 0.05755-0.30807-0.97051 0.84870
   9   3   0 412.141 106.081   2 0.33289 0.34197 0.13745 0.11309 0.97763-0.85590
  -9  -3   0 329.217 94.2677   3-0.34077-0.33496-0.11785-0.13297-0.97889 0.85709
  10   3   0 -109.69 65.3805   2 0.35954 0.39029 0.17123 0.07932 0.96708-0.83183
 -10   3   0 127.621 97.0878   7-0.39816-0.35216 0.05612 0.19459-0.97240 0.83694
 -10  -3   0 116.129 73.9989   3-0.36952-0.38124-0.14336-0.10750-0.96968 0.83438
  10  -3   0 -6.3226 76.3238   8 0.38388 0.36575-0.09806-0.15222 0.97235-0.83714
 -10  -3   0 148.341 100.273   7-0.43823-0.31191 0.06409-0.31461-0.96092 0.82556
 -11   3   0 316.538 86.8703   7-0.43154-0.39380 0.06276 0.18797-0.96299 0.81397
  11   3   0 366.069 106.490   2 0.38748 0.43734 0.20728 0.04326 0.95342-0.80464
  11   3   0 575.638 138.603   5 0.40977 0.41522 0.13442 0.11582 0.96134-0.81263
 -11  -3   0 372.221 121.675   3-0.39944-0.42635-0.17025-0.08064-0.95808 0.80928
 -11  -3   0 325.279 150.017   7-0.47203-0.35313 0.07084-0.32137-0.94946 0.80056
  11  -3   0 470.713 131.655   8 0.41644 0.40815-0.11154-0.13872 0.96262-0.81388
 -12  -3   0 29.5483 101.022   7-0.50649-0.39369 0.07777-0.32830-0.93601 0.77355
   0  -4   0 3049.55 170.220   4-0.13117 0.13112-0.16703-0.16711-0.98481 0.98481
   0  -4   0 3329.40 108.753   8 0.54797-0.54806-0.16697-0.16697 0.90507-0.90501
   0   4   0 3280.18 120.476   5 0.46401-0.46387 0.16704 0.16695 0.93936-0.93944
   0   4   0 3044.29 177.282   1 0.16074-0.16085 0.16686 0.16701 0.98582-0.98582
   0  -4   0 3075.15 169.070   9 0.14067-0.14065-0.16700-0.16699 0.98525-0.98523
   0   4   0 2957.21 164.890   6-0.24634 0.24639 0.16697 0.16703-0.98348 0.98344
   0  -4   0 3064.17 137.329   3-0.39595 0.39599-0.16709-0.16716-0.95954 0.95954
   0   4   0 2959.96 145.301   2 0.35624-0.35626 0.16699 0.16701 0.96852-0.96853
  -2   4   0 2621.92 173.943   6-0.22507 0.07506 0.09960 0.23447-0.99394 0.96685
   2   4   0 2749.59 152.311   6-0.29419 0.44426 0.33274 0.00113-0.93434 0.96134
   2  -4   0 2650.07 142.972   8 0.30251-0.15264-0.06476-0.26915 0.98992-0.96285
  -2  -4   0 2776.81 153.221   4-0.14263-0.00754-0.13674-0.19748-0.98993 0.96285
  -2  -4   0 2016.03 90.6517   7-0.71608 0.56608 0.12097-0.45488-0.80536 0.77834
   2   4   0 2644.02 161.011   1 0.16873-0.01869 0.12476 0.20922 0.99212-0.96504
  -2  -4   0 2765.84 177.815   9 0.10635-0.25631-0.24843-0.08557 0.96620-0.99323
  -2   4   0 2184.78 114.978   2 0.56032-0.71032 0.45222-0.11828 0.78359-0.81061
   2  -4   0 2726.84 148.479   9 0.15533-0.00535-0.13092-0.20308 0.99111-0.96404
  -2  -4   0 2676.44 158.971   3-0.28773 0.13746-0.07159-0.26271-0.99126 0.96418
  -2   4   0 2343.51 122.390   7-0.34522 0.19521 0.04567 0.28845-0.98431 0.95720
   3   4   0 690.172 77.6079   6-0.32667 0.55170 0.46275-0.12895-0.86954 0.91002
  -3   4   0 632.542 90.4012   6-0.22282-0.00221 0.09268 0.24139-0.99472 0.95409
  -3  -4   0 689.844 58.4016   7-0.46275 0.23776 0.06899-0.40295-0.95278 0.91221
   3  -4   0 624.880 80.7733   8 0.27854-0.05370-0.05505-0.27883 0.99336-0.95278
  -3  -4   0 701.821 98.0884   9 0.08402-0.30896-0.29937-0.03464 0.95001-0.99058
  -3   4   0 637.335 77.7370   7-0.30453 0.07948 0.03769 0.29647-0.99108 0.95044
   3  -4   0 634.642 70.1290   9 0.15133 0.07364-0.14083-0.19317 0.98966-0.94905
   3  -4   0 593.476 85.7564   4-0.07982 0.30491-0.29646-0.03747-0.95047 0.99104
   3   4   0 582.419 74.9706   1 0.16783 0.05728 0.12960 0.20440 0.99150-0.95086
  -3  -4   0 575.799 68.2104   4-0.13753-0.08767-0.15028-0.18394-0.98777 0.94716
  -4  -4   0 910.588 82.0246   7-0.39843 0.09845 0.05618-0.39017-0.97233 0.91823
   4   4   0 872.274 60.2227   8 0.49836-0.19837-0.14586 0.47980 0.93050-0.87645
   4  -4   0 1015.25 83.1144   9 0.13517 0.16482-0.18032-0.15369 0.98269-0.92856
  -4  -4   0 920.579 112.150   9 0.05895-0.35888-0.35466 0.02064 0.92848-0.98258
   4   4   0 962.656 95.8791   1 0.16299 0.13722 0.15522 0.17874 0.98775-0.93356
  -4   4   0 999.581 120.403   6-0.22506-0.07500 0.09959 0.23449-0.99395 0.93978
   4   4   0 886.055 111.477   2 0.26965 0.03029 0.05954 0.27452 0.99399-0.93989
  -4  -4   0 875.291 79.4082   4-0.12116-0.17904-0.19306-0.14113-0.97955 0.92541
   4  -4   0 991.688 118.122   4-0.05641 0.35652-0.35225 0.01842-0.92903 0.98309
  -4   4   0 785.710 99.3767   7-0.29592-0.00418 0.03601 0.29818-0.99226 0.93807
   4  -4   0 908.134 111.518   8 0.27574 0.02406-0.05392-0.27995 0.99372-0.93961
   5   4   0 3068.57 163.901   1 0.15310 0.22217 0.20552 0.12836 0.97835-0.91060
  -5   4   0 2963.84 209.378   6-0.23102-0.14406 0.11815 0.21593-0.99159 0.92388
  -5  -4   0 3002.64 174.840   7-0.38365 0.00864 0.05325-0.38725-0.97603 0.90839
   5   4   0 2867.76 134.311   8 0.44691-0.07196-0.12422 0.45817 0.95200-0.88442
  -5   4   0 2934.89 206.910   7-0.30302-0.07212 0.03740 0.29681-0.99129 0.92356
   5  -4   0 3194.33 115.212   5 0.51050-0.13530 0.19547-0.52988 0.91570-0.84785
   5  -4   0 2820.95 208.703   8 0.28479 0.08998-0.05758-0.27627 0.99254-0.92492
  -5  -4   0 2910.79 211.561   9 0.03155-0.40647-0.41292 0.07889 0.90101-0.96864
  -5  -4   0 3008.37 218.222   3-0.27931-0.09625-0.06433-0.26997-0.99271 0.92499
   5  -4   0 2818.55 209.806   4-0.03057 0.40570-0.41162 0.07789-0.90139 0.96892
   5  -4   0 2904.05 122.639   9 0.09816 0.27684-0.26729-0.06673 0.96060-0.89293
  -5  -4   0 3306.42 140.609   4-0.08624-0.28893-0.28084-0.05331-0.95573 0.88807
   5   4   0 2710.68 203.206   2 0.27617 0.09877 0.06744 0.26662 0.99282-0.92520
  -6  -4   0 218.093 83.8994   3-0.29291-0.15772-0.07606-0.25824-0.99031 0.90905
   6   4   0 125.416 38.1167   8 0.43858 0.01133-0.12075 0.45470 0.95505-0.87395
  -6  -4   0 113.078 66.1237   9 0.00214-0.45205-0.47300 0.13896 0.86702-0.94820
   6  -4   0 135.306 60.9155   8 0.30112 0.14862-0.06420-0.26963 0.99014-0.90899
  -6   4   0 245.958 73.8935   7-0.31896-0.13121 0.04052 0.29371-0.98891 0.90763
   6   4   0 142.585 64.4030   2 0.28810 0.16183 0.08196 0.25210 0.99040-0.90925
  -6  -4   0 124.418 51.2572   7-0.38928-0.06074 0.05436-0.38838-0.97465 0.89348
  -6   4   0 82.3593 40.2221   6-0.24005-0.21004 0.14673 0.18734-0.98718 0.90594
   6  -4   0 120.177 49.0650   4-0.00259 0.45272-0.47334 0.13972-0.86687 0.94785
   7  -4   0 971.551 145.617   8 0.32225 0.20247-0.07279-0.26102 0.98650-0.89184
   7   4   0 841.664 137.480   2 0.30408 0.22083 0.10159 0.23247 0.98652-0.89185
   7  -4   0 969.924 141.955   4 0.02729 0.49784-0.53633 0.20281-0.82477 0.91918
  -7   4   0 939.426 131.884   6-0.25159-0.27349 0.18412 0.14992-0.97997 0.88519
  -7  -4   0 897.713 127.127   7-0.40534-0.11970 0.05755-0.39156-0.97051 0.87580
  -7  -4   0 682.049 125.198   3-0.31089-0.21481-0.09166-0.24265-0.98657 0.89178
  -7  -4   0 900.664 145.313   9-0.02903-0.49585-0.53395 0.19988 0.82595-0.92068
  -7   4   0 801.292 134.636   7-0.34037-0.18484 0.04471 0.28951-0.98522 0.89039
   8   4   0 -109.00 61.5365   2 0.32317 0.27672 0.12527 0.20878 0.98091-0.87271
  -8   4   0 33.6522 51.8094   6-0.26517-0.33491 0.22953 0.10451-0.96897 0.86066
  -8  -4   0 2.62941 60.8130   7-0.42742-0.17264 0.06194-0.39595-0.96424 0.85599
  -8   4   0 4.46534 53.9706   7-0.36540-0.23484 0.04965 0.28460-0.98019 0.87181
  -8  -4   0 44.3105 41.9941   9-0.06180-0.53809-0.59487 0.26079 0.77719-0.88546
   8  -4   0 -21.276 54.5379   8 0.34669 0.25301-0.08278-0.25102 0.98154-0.87335
  -8  -4   0 35.6130 40.8507   3-0.33211-0.26863-0.11024-0.22410-0.98131 0.87300
   9  -4   0 210.421 85.0024   8 0.37351 0.30114-0.09379-0.23999 0.97511-0.85341
  -9  -4   0 96.2316 75.5689   7-0.45331-0.22175 0.06710-0.40113-0.95602 0.83422
   9   4   0 91.8974 66.1332   2 0.34469 0.33018 0.15232 0.18173 0.97325-0.85152
  -9   4   0 110.090 51.9328   7-0.39295-0.28232 0.05509 0.27916-0.97373 0.85180
  -9  -4   0 18.2293 79.8018   3-0.35580-0.31999-0.13115-0.20321-0.97431 0.85249
  10   4   0 -13.579 46.4524   2 0.36812 0.38172 0.18223 0.15183 0.96318-0.82792
 -10  -4   0 2.45530 51.2501   3-0.38140-0.36943-0.15399-0.18038-0.96533 0.83001
  10  -4   0 23.7272 57.1772   8 0.40212 0.34750-0.10560-0.22816 0.96710-0.83188
 -10  -4   0 92.0231 86.2195   7-0.48176-0.26832 0.07279-0.40683-0.94585 0.81051
 -10   4   0 -68.057 96.8495   7-0.42232-0.32800 0.06092 0.27334-0.96574 0.83025
  11   4   0 58.8237 49.5407   2 0.39311 0.43172 0.21463 0.11942 0.95032-0.80154
 -11   4   0 98.3258 86.7771   7-0.45303-0.37231 0.06705 0.26723-0.95611 0.80705
 -11  -4   0 205.739 104.626   3-0.40851-0.41736-0.17847-0.15593-0.95413 0.80531
  11   4   0 272.077 114.636   5 0.42262 0.40232 0.14211 0.19160 0.95664-0.80798
   0  -5   0 1.14676 26.4523   9 0.12328-0.12327-0.20875-0.20874 0.97650-0.97648
   0  -5   0 -8.6805 23.5310   3-0.44170 0.44176-0.20886-0.20897-0.93786 0.93784
   0   5   0 11.5253 22.9678   2 0.38860-0.38863 0.20874 0.20878 0.95281-0.95282
   0   5   0 -35.734 36.6662   1 0.15248-0.15261 0.20855 0.20878 0.97770-0.97768
   0  -5   0 18.1561 18.6927   8 0.64400-0.64410-0.20871-0.20872 0.84011-0.84001
   0   5   0 7.92467 12.6790   5 0.53205-0.53184 0.20880 0.20867 0.90306-0.90321
   0   5   0 15.1816 25.4652   6-0.25900 0.25907 0.20870 0.20879-0.97432 0.97427
  -1   5   0 332.058 40.8559   7-0.62825 0.55332 0.10261 0.31494-0.87189 0.85828
   1  -5   0 341.637 54.5258   3-0.55290 0.62817-0.31497-0.10278-0.85848 0.87192
  -1   5   0 -1.0929 15.8096   1 0.14570-0.22087 0.24147 0.17577 0.96994-0.98345
   1  -5   0 284.079 46.5592   8 0.46518-0.39031-0.13188-0.28555 0.94490-0.93131
   1  -5   0 223.002 58.1121   4-0.10497 0.17994-0.23433-0.18330-0.96954 0.98306
   1  -5   0 249.452 53.1733   9 0.13027-0.05527-0.19209-0.22541 0.98025-0.96670
   1   5   0 287.058 64.4564   1 0.15678-0.08183 0.18712 0.23027 0.98211-0.96855
  -1   5   0 232.630 56.8678   6-0.24757 0.17261 0.17098 0.24656-0.98269 0.96911
  -1  -5   0 332.476 73.8924   9 0.11188-0.18685-0.23558-0.18190 0.96975-0.98326
   1   5   0 266.269 44.2511   5 0.41937-0.34425 0.14015 0.27721 0.95786-0.94442
   1   5   0 337.062 65.2227   6-0.27541 0.35050 0.26491 0.15254-0.95864 0.97211
  -1  -5   0 256.100 51.7540   3-0.37498 0.29986-0.14824-0.26964-0.96772 0.95418
  -1   5   0 247.452 50.5088   2 0.45453-0.52956 0.29710 0.12039 0.90792-0.92144
  -2   5   0 28.1404 17.8227   7-0.46357 0.31360 0.06916 0.34847-0.95249 0.92536
   2   5   0 20.7511 24.5179   1 0.15846-0.00844 0.17857 0.23887 0.98373-0.95662
   2  -5   0 22.0855 18.0556   8 0.38342-0.23358-0.09787-0.31952 0.97248-0.94539
  -2  -5   0 38.1529 28.7659   3-0.33719 0.18691-0.11470-0.30318-0.97991 0.95283
   2   5   0 12.4826 20.4371   2 0.31964-0.16968 0.12087 0.29667 0.98203-0.95499
   2   5   0 123.160 42.1242   6-0.29672 0.44681 0.34222 0.07515-0.93046 0.95743
   2  -5   0 39.0720 24.6906   9 0.13184 0.01816-0.18834-0.22917 0.98104-0.95396
  -2   5   0 19.3231 25.5187   6-0.24081 0.09082 0.14916 0.26841-0.98676 0.95965
   2  -5   0 49.8911 41.0737   4-0.09128 0.24131-0.26844-0.14912-0.95968 0.98673
  -2   5   0 30.6695 22.0863   2 0.54763-0.69764 0.43235-0.01491 0.80337-0.83039
  -2  -5   0 53.2511 42.9124   9 0.09678-0.24673-0.27047-0.14703 0.95961-0.98665
  -3   5   0 2914.44 166.742   7-0.39641 0.17139 0.05578 0.36189-0.97285 0.93219
  -3  -5   0 2819.32 192.975   3-0.31823 0.09284-0.09807-0.31981-0.98486 0.94422
   3   5   0 2641.01 192.370   2 0.30630-0.08135 0.10433 0.31323 0.98592-0.94536
   3  -5   0 3031.34 174.572   9 0.12644 0.09855-0.20124-0.21627 0.97823-0.93762
  -3  -5   0 2988.10 180.328   4-0.11568-0.10955-0.20716-0.21056-0.97636 0.93574
   3   5   0 2976.12 181.923   6-0.32201 0.54710 0.44281-0.02552-0.88118 0.92164
   3   5   0 2711.53 184.564   1 0.15731 0.06781 0.18442 0.23304 0.98263-0.94197
   3  -5   0 2883.27 210.755   4-0.07446 0.29955-0.30941-0.10807-0.94587 0.98643
  -3  -5   0 2802.37 205.221   9 0.07851-0.30345-0.31168-0.10582 0.94558-0.98615
   3  -5   0 2707.74 176.436   8 0.34634-0.12152-0.08264-0.33474 0.98161-0.94101
  -3  -5   0 18.7965 13.0509   7-0.72941 0.50444 0.12380-0.54119-0.79332 0.75278
  -3   5   0 3064.43 216.422   6-0.23824 0.01322 0.14097 0.27662-0.98814 0.94749
  -4   5   0 -34.718 38.2700   6-0.23936-0.06069 0.14453 0.27307-0.98755 0.93337
  -4   5   0 -8.4599 24.9920   7-0.37018 0.07012 0.05059 0.36712-0.97914 0.92494
  -4  -5   0 4.33482 37.2759   3-0.31200 0.01148-0.09262-0.32526-0.98632 0.93214
   4   5   0 -9.5881 24.9895   1 0.15290 0.14732 0.20649 0.21094 0.97814-0.92392
  -4  -5   0 -0.8221 19.7294   7-0.56522 0.26525 0.08968-0.50710-0.90856 0.85448
   4   5   0 1.63068 36.6213   2 0.30227-0.00232 0.09935 0.31822 0.98700-0.93290
   4   5   0 -7.0891 30.7598   6-0.34873 0.64878 0.56698-0.14975-0.79696 0.85089
   4  -5   0 9.51517 19.8629   9 0.11154 0.18846-0.23639-0.18113 0.96953-0.91540
  -4  -5   0 -52.415 32.2042   9 0.05748-0.35742-0.35783-0.05968 0.92712-0.98122
   4  -5   0 -24.012 38.5478   4-0.05489 0.35501-0.35582-0.06157-0.92752 0.98157
   4  -5   0 -23.017 36.9350   8 0.33296-0.03316-0.07716-0.34020 0.98443-0.93031
  -4  -5   0 54.0411 38.5880   4-0.10112-0.19912-0.24401-0.17368-0.96689 0.91274
  -5  -5   0 1468.01 117.454   7-0.50640 0.13144 0.07775-0.49522-0.93605 0.86842
  -5   5   0 1429.70 150.769   7-0.36484-0.01027 0.04953 0.36820-0.98031 0.91257
   5   5   0 1319.45 155.873   2 0.30523 0.06971 0.10301 0.31456 0.98621-0.91859
  -5  -5   0 1478.39 116.709   4-0.07380-0.30141-0.31100-0.10664-0.94529 0.87761
   5  -5   0 1489.02 112.795   9 0.08228 0.29272-0.30325-0.11428 0.94864-0.88096
   5  -5   0 1365.62 161.072   4-0.03286 0.40801-0.40646-0.01083-0.90400 0.97154
  -5  -5   0 1347.18 163.883   9 0.03404-0.40896-0.40773-0.00980 0.90367-0.97130
  -5  -5   0 1457.22 164.032   3-0.31464-0.06096-0.09493-0.32295-0.98571 0.91798
  -5   5   0 1211.30 150.347   6-0.24366-0.13142 0.15829 0.25929-0.98512 0.91740
   5  -5   0 1444.67 158.002   8 0.33355 0.04122-0.07740-0.33993 0.98431-0.91668
  -6  -5   0 -16.873 48.9539   3-0.32371-0.12697-0.10287-0.31502-0.98351 0.90224
  -6   5   0 -21.000 37.6736   6-0.25066-0.19943 0.18108 0.23650-0.98061 0.89936
   6   5   0 4.07493 45.8109   2 0.31355 0.13639 0.11329 0.30428 0.98388-0.90272
  -6  -5   0 -12.793 37.2162   9 0.00844-0.45834-0.46035 0.04282 0.87469-0.95586
   6  -5   0 108.724 66.8565   4-0.00861 0.45879-0.46027 0.04309-0.87470 0.95570
   6  -5   0 38.2136 61.4891   8 0.34306 0.10668-0.08129-0.33603 0.98233-0.90117
  -6   5   0 2.16646 46.4892   7-0.37156-0.07859 0.05086 0.36689-0.97883 0.89754
  -6  -5   0 8.97372 40.8149   7-0.48716 0.03718 0.07388-0.49136-0.94379 0.86263
   7  -5   0 1161.75 165.270   8 0.35859 0.16612-0.08766-0.32965 0.97881-0.88414
  -7   5   0 1322.34 178.317   7-0.38589-0.13930 0.05369 0.36408-0.97548 0.88064
  -7   5   0 1167.51 158.376   6-0.25996-0.26514 0.21191 0.20565-0.97353 0.87873
   7  -5   0 1200.03 170.155   4 0.01764 0.50755-0.51630 0.09923-0.83897 0.93340
  -7  -5   0 1218.98 175.017   9-0.01909-0.50579-0.51481 0.09726 0.83962-0.93433
   7   5   0 1258.35 172.443   2 0.32601 0.19890 0.12883 0.28873 0.97998-0.88530
  -7  -5   0 1086.92 166.148   3-0.33755-0.18820-0.11502-0.30286-0.97981 0.88502
   8   5   0 -90.020 69.6998   2 0.34177 0.25813 0.14864 0.26893 0.97437-0.86616
   8  -5   0 74.7119 75.8667   8 0.37838 0.22130-0.09579-0.32149 0.97384-0.86565
  -8  -5   0 11.5714 47.5771   3-0.35503-0.24577-0.13047-0.28742-0.97455 0.86624
  -8  -5   0 59.1780 69.6026   9-0.04840-0.55148-0.57032 0.15276 0.79785-0.90612
  -8   5   0 -92.147 77.5666   6-0.27117-0.32893 0.25012 0.16742-0.96315 0.85481
   8  -5   0 38.3943 62.8506   4 0.04573 0.55445-0.57372 0.15675-0.79608 0.90392
  -8   5   0 -139.58 90.1733   7-0.40530-0.19492 0.05754 0.36025-0.97052 0.86212
   9  -5   0 266.373 90.8586   8 0.40128 0.27336-0.10525-0.31201 0.96735-0.84565
  -9  -5   0 56.7114 84.1284   3-0.37533-0.30052-0.14856-0.26934-0.96759 0.84576
   9   5   0 57.2465 59.4536   2 0.36016 0.31473 0.17201 0.24556 0.96681-0.84507
  -9   5   0 28.8382 57.7707   7-0.42828-0.24698 0.06211 0.35569-0.96398 0.84202
  10   5   0 -6.2866 70.7817   5 0.41473 0.33516 0.13738 0.27977 0.95956-0.82447
 -10  -5   0 -37.275 59.5541   3-0.39787-0.35303-0.16883-0.24908-0.95874 0.82339
  10   5   0 127.206 72.6202   2 0.38066 0.36920 0.19841 0.21914 0.95702-0.82175
 -10   5   0 -16.994 64.8608   7-0.45386-0.29643 0.06721 0.35061-0.95583 0.82031
   0   6   0 1115.04 130.723   6-0.27126 0.27135 0.25043 0.25056-0.96306 0.96298
   0  -6   0 1085.94 131.213   9 0.10546-0.10544-0.25050-0.25049 0.96561-0.96558
   0  -6   0 1412.66 125.287   3-0.48638 0.48647-0.25063-0.25078-0.91102 0.91097
   0  -6   0 1075.63 135.478   4-0.09851 0.09840-0.25052-0.25070-0.96504 0.96502
   0   6   0 1411.05 111.884   5 0.59830-0.59802 0.25058 0.25040 0.85651-0.85676
   1  -6   0 230.702 63.1958   9 0.11014-0.03514-0.23963-0.26136 0.96865-0.95510
  -1   6   0 258.344 58.0738   2 0.47626-0.55130 0.32736 0.17362 0.88860-0.90211
  -1  -6   0 190.017 64.9964   4-0.10239 0.02721-0.24084-0.26040-0.96777 0.95421
   1   6   0 177.478 42.0370   5 0.48989-0.41470 0.18281 0.31805 0.92678-0.91340
   1  -6   0 211.644 63.5620   4-0.09078 0.16573-0.26968-0.23149-0.95930 0.97280
   1   6   0 238.758 55.1753   6-0.28491 0.36002 0.29869 0.20226-0.94730 0.96075
   1  -6   0 286.159 53.5881   8 0.56017-0.48533-0.17221-0.32870 0.89804-0.88443
   1   6   0 228.525 68.6474   1 0.14731-0.07236 0.23381 0.26706 0.97185-0.95826
  -1   6   0 261.765 75.7955   6-0.26145 0.18650 0.21692 0.28412-0.97227 0.95867
   1   6   0 209.331 56.8328   2 0.38115-0.30620 0.19906 0.30198 0.95676-0.94324
   1  -6   0 288.161 59.9740   3-0.58120 0.65650-0.34329-0.15804-0.83052 0.84391
  -1  -6   0 103.445 47.7204   9 0.09672-0.17168-0.27060-0.23039 0.95957-0.97308
  -1  -6   0 298.865 62.6886   3-0.42417 0.34907-0.19275-0.30872-0.94682 0.93325
   2   6   0 1588.92 152.909   6-0.30227 0.45239 0.36336 0.13752-0.92134 0.94830
  -2  -6   0 1668.88 170.137   9 0.08451-0.23447-0.29826-0.20273 0.95040-0.97744
   2  -6   0 1701.25 175.567   4-0.07970 0.22971-0.29675-0.20436-0.95037 0.97740
  -2   6   0 1974.57 150.773   2 0.55120-0.70122 0.43789 0.06305 0.79799-0.82499
  -2   6   0 1587.02 168.804   6-0.25533 0.10535 0.19647 0.30461-0.97722 0.95009
   2   6   0 1556.32 150.826   2 0.35580-0.20586 0.16644 0.33461 0.96871-0.94166
   2  -6   0 1635.01 151.359   9 0.10997 0.04003-0.24003-0.26097 0.96855-0.94146
  -2  -6   0 1721.10 164.537   4-0.10169-0.04855-0.24258-0.25866-0.96729 0.94018
  -2   6   0 1933.26 126.644   7-0.59308 0.44316 0.09537 0.40573-0.89335 0.86617
   2   6   0 1496.41 154.230   1 0.14846 0.00158 0.22825 0.27266 0.97320-0.94606
   2  -6   0 1690.12 132.247   8 0.46759-0.31777-0.13290-0.36800 0.94392-0.91680
  -2  -6   0 1465.02 144.510   3-0.38552 0.23525-0.15769-0.34379-0.96374 0.93664
  -3  -6   0 49.6524 41.8278   9 0.06927-0.29421-0.33213-0.16887 0.93777-0.97833
   3   6   0 60.3871 49.2916   2 0.34114-0.11620 0.14783 0.35323 0.97461-0.93405
   3   6   0 59.7040 35.2318   6-0.32272 0.54784 0.44583 0.05496-0.87946 0.91990
  -3  -6   0 55.2174 30.5075   4-0.09539-0.12987-0.25828-0.24294-0.96277 0.92213
   3  -6   0 77.5901 46.0151   8 0.41918-0.19439-0.11267-0.38820 0.96172-0.92110
   3  -6   0 63.4160 37.4237   9 0.10376 0.12124-0.25444-0.24658 0.96447-0.92385
  -3   6   0 88.8247 53.7205   6-0.25263 0.02762 0.18753 0.31356-0.97923 0.93856
   3  -6   0 79.7767 56.3571   4-0.06567 0.29075-0.33041-0.17062-0.93793 0.97848
  -3   6   0 52.0717 41.9310   7-0.50003 0.27506 0.07647 0.42470-0.93867 0.89798
   3   6   0 35.3559 38.7505   1 0.14712 0.07801 0.23470 0.26622 0.97163-0.93094
  -3  -6   0 33.4622 42.5832   3-0.36349 0.13808-0.13799-0.36349-0.97177 0.93113
  -4  -6   0 1700.65 188.543   9 0.05134-0.35127-0.37106-0.12994 0.92126-0.97536
  -4   6   0 1527.14 173.360   6-0.25301-0.04704 0.18878 0.31231-0.97895 0.92475
   4   6   0 1385.13 164.195   2 0.33480-0.03486 0.13985 0.36122 0.97695-0.92286
  -4   6   0 1917.66 159.821   7-0.45557 0.15555 0.06756 0.43367-0.95525 0.90102
   4   6   0 2081.48 179.393   6-0.34473 0.64483 0.54660-0.04588-0.81284 0.86675
   4  -6   0 1781.50 167.760   8 0.39601-0.09623-0.10307-0.39779 0.96891-0.91478
   4  -6   0 1691.95 145.350   9 0.08967 0.21033-0.28663-0.21439 0.95438-0.90023
   4  -6   0 1712.63 186.902   4-0.04900 0.34913-0.36950-0.13145-0.92153 0.97557
  -4  -6   0 1860.64 184.763   3-0.35338 0.05285-0.12900-0.37248-0.97508 0.92089
   5  -6   0 179.247 69.1354   4-0.02994 0.40511-0.41304-0.08781-0.90066 0.96819
   5   6   0 3.06959 47.6200   2 0.33500 0.03994 0.14010 0.36098 0.97688-0.90925
  -5   6   0 81.0284 50.1490   7-0.43695 0.06189 0.06384 0.43742-0.96132 0.89354
   5  -6   0 32.5108 39.1900   8 0.38844-0.01368-0.09994-0.40090 0.97108-0.90344
  -5  -6   0 173.690 76.5288   9 0.03101-0.40592-0.41405-0.08696 0.90042-0.96805
  -5   6   0 167.956 77.6267   6-0.25613-0.11895 0.19910 0.30200-0.97661 0.90887
  -5  -6   0 136.156 71.6435   3-0.35197-0.02366-0.12776-0.37371-0.97552 0.90779
   6  -6   0 673.385 128.422   8 0.39115 0.05857-0.10106-0.39975 0.97032-0.88915
  -6   6   0 625.760 125.147   6-0.26164-0.18846 0.21755 0.28354-0.97211 0.89083
  -6  -6   0 523.849 119.020   3-0.35711-0.09362-0.13231-0.36914-0.97389 0.89261
   6   6   0 417.409 112.330   2 0.34037 0.10955 0.14686 0.35421 0.97490-0.89375
  -6  -6   0 431.001 110.903   9 0.00850-0.45840-0.46023-0.04080 0.87476-0.95593
  -6   6   0 641.643 114.340   7-0.43363-0.01649 0.06317 0.43812-0.96235 0.88102
   6  -6   0 628.522 136.811   4-0.00868 0.45889-0.46011-0.04063-0.87479 0.95578
   7   6   0 -125.14 71.4956   2 0.34988 0.17504 0.15890 0.34217 0.97118-0.87649
  -7  -6   0 61.4098 58.4680   9-0.01599-0.50888-0.50880 0.00776 0.84376-0.93848
  -7   6   0 -39.639 73.8846   6-0.26922-0.25588 0.24340 0.25766-0.96511 0.87028
   7  -6   0 -18.081 58.9502   8 0.40099 0.12371-0.10513-0.39567 0.96744-0.87276
  -7  -6   0 14.3365 53.8548   3-0.36724-0.15856-0.14133-0.36012-0.97048 0.87568
   7  -6   0 0.94256 52.0308   4 0.01459 0.51063-0.50993 0.00929-0.84332 0.93776
  -7   6   0 63.7590 62.8188   7-0.44011-0.08505 0.06447 0.43685-0.96033 0.86545
  -8  -6   0 1329.07 213.792   9-0.04234-0.55752-0.55906 0.05801 0.80686-0.91512
  -8  -6   0 860.353 176.849   3-0.38128-0.21958-0.15389-0.34757-0.96537 0.85704
   8   6   0 596.011 139.629   2 0.36273 0.23717 0.17531 0.32577 0.96566-0.85745
   8  -6   0 847.282 170.310   8 0.41596 0.18371-0.11133-0.38945 0.96277-0.85458
   8  -6   0 877.182 170.048   4 0.03976 0.56047-0.56173 0.06121-0.80560 0.91346
  -8   6   0 796.782 162.928   6-0.27858-0.32152 0.27607 0.22497-0.95506 0.84669
  -8   6   0 794.740 161.731   7-0.45323-0.14697 0.06709 0.43424-0.95604 0.84761
   9  -6   0 3.90232 73.6442   8 0.43474 0.23990-0.11915-0.38161 0.95642-0.83471
   9   6   0 6.52417 67.5997   5 0.41937 0.25549 0.14015 0.36045 0.95786-0.83633
  -9   6   0 16.2870 64.3761   6-0.28944-0.38568 0.31515 0.18586-0.94123 0.81932
  -9   6   0 18.5728 103.647   7-0.47106-0.20417 0.07065 0.43069-0.94982 0.82782
  -9  -6   0 -120.86 69.2423   9-0.07041-0.60444-0.61034 0.10927 0.76340-0.88521
   9   6   0 52.4562 66.4066   2 0.37833 0.29655 0.19540 0.30567 0.95820-0.83646
  -9  -6   0 -45.077 80.5441   3-0.39841-0.27751-0.16931-0.33214-0.95851 0.83666
  10  -6   0 294.507 108.458   8 0.45643 0.29319-0.12822-0.37253 0.94837-0.81314
 -10   6   0 211.369 106.898   7-0.49235-0.25792 0.07492 0.42644-0.94176 0.80619
  10   6   0 269.886 129.570   2 0.39618 0.35368 0.21866 0.28241 0.94858-0.81331
   0   7   0 -4.8211 28.6315   2 0.45099-0.45106 0.29223 0.29229 0.91083-0.91082
   0  -7   0 -34.081 36.9438   4-0.08156 0.08141-0.29225-0.29250-0.95192 0.95187
   0  -7   0 -85.687 51.3426   9 0.08718-0.08716-0.29226-0.29224 0.95248-0.95245
   0  -7   0 5.76580 35.4787   3-0.52990 0.53004-0.29241-0.29261-0.87856 0.87846
   0   7   0 -33.152 38.8508   6-0.28310 0.28320 0.29216 0.29233-0.94961 0.94951
  -1   7   0 148.518 63.9760   6-0.27452 0.19959 0.26177 0.32278-0.95962 0.94600
  -1   7   0 163.605 58.4591   2 0.49994-0.57499 0.36117 0.22333 0.86441-0.87791
   1   7   0 172.990 58.4098   2 0.41518-0.34024 0.24379 0.34075 0.93697-0.92344
   1  -7   0 192.288 70.1529   9 0.09017-0.01516-0.28550-0.29900 0.95476-0.94120
   1  -7   0 134.922 68.8682   4-0.07558 0.15050-0.30672-0.27799-0.94684 0.96032
  -1  -7   0 144.946 62.5787   4-0.08400 0.00878-0.28631-0.29845-0.95393 0.94033
   1   7   0 47.1371 43.7563   6-0.29474 0.36986 0.33478 0.24966-0.93352 0.94694
  -1  -7   0 124.184 47.7760   3-0.47160 0.39653-0.23671-0.34835-0.92057 0.90698
  -1  -7   0 210.688 72.7396   9 0.08043-0.15541-0.30739-0.27710 0.94715-0.96065
   2  -7   0 789.122 124.896   9 0.08874 0.06126-0.28874-0.29577 0.95367-0.92659
  -2  -7   0 780.009 128.368   4-0.08231-0.06796-0.29043-0.29432-0.95254 0.92541
   2   7   0 678.653 115.907   6-0.30928 0.45943 0.39075 0.19362-0.90857 0.93550
  -2   7   0 664.653 128.541   6-0.26894 0.11897 0.24242 0.34216-0.96539 0.93823
   2   7   0 720.511 100.792   5 0.49334-0.34314 0.18491 0.39933 0.92499-0.89814
   2  -7   0 801.520 104.571   8 0.55356-0.40376-0.16937-0.41501 0.90189-0.87475
  -2  -7   0 582.983 115.256   9 0.07043-0.22039-0.32958-0.25492 0.93878-0.96581
   2   7   0 656.340 113.398   2 0.39054-0.24060 0.21128 0.37328 0.95175-0.92470
  -2  -7   0 726.500 118.044   3-0.43275 0.28250-0.20062-0.38445-0.94254 0.91542
   2  -7   0 495.939 110.951   4-0.06648 0.21647-0.32848-0.25618-0.93869 0.96569
   3  -7   0 3319.00 220.174   8 0.49560-0.27082-0.14469-0.43968 0.93177-0.89113
   3   7   0 2649.51 225.948   2 0.37507-0.15014 0.19119 0.39339 0.95983-0.91926
  -3  -7   0 2899.51 257.077   9 0.05754-0.28248-0.35771-0.22678 0.92717-0.96773
   3   7   0 3206.89 235.308   6-0.32626 0.55140 0.46100 0.12329-0.87059 0.91100
   3  -7   0 3348.06 276.574   4-0.05462 0.27966-0.35646-0.22813-0.92724 0.96776
   3   7   0 2967.81 209.836   5 0.45381-0.22870 0.16085 0.42331 0.94393-0.90354
   3  -7   0 3360.63 233.569   9 0.08194 0.14306-0.30402-0.28050 0.94836-0.90774
  -3  -7   0 2894.39 232.108   3-0.40856 0.18315-0.17851-0.40657-0.95411 0.91345
  -3   7   0 3021.12 259.325   6-0.26620 0.04119 0.23302 0.35157-0.96802 0.92732
  -3  -7   0 3314.40 242.575   4-0.07567-0.14963-0.30650-0.27823-0.94692 0.90625
  -4  -7   0 -18.915 41.2743   4-0.06287-0.23745-0.33705-0.24764-0.93530 0.88108
   4   7   0 29.0032 54.2639   6-0.34461 0.64473 0.54594 0.03827-0.81334 0.86722
  -4   7   0 -69.399 70.9231   6-0.26608-0.03396 0.23261 0.35199-0.96813 0.91390
  -4  -7   0 90.3891 80.6022   9 0.04206-0.34199-0.39084-0.19366 0.91203-0.96612
   4  -7   0 -8.3320 37.3878   9 0.06834 0.23165-0.33418-0.25037 0.93696-0.88281
   4   7   0 46.5057 41.3983   5 0.43178-0.13173 0.14759 0.43653 0.95310-0.89918
   4  -7   0 -1.4305 56.7481   4-0.04022 0.34034-0.38971-0.19480-0.91220 0.96622
   4   7   0 0.48277 48.1837   2 0.36705-0.06713 0.18086 0.40373 0.96368-0.90958
   4  -7   0 13.2486 36.8808   8 0.46356-0.16379-0.13120-0.45315 0.94555-0.89140
  -4  -7   0 -91.056 64.0932   3-0.39539 0.09485-0.16659-0.41849-0.95977 0.90557
  -5  -7   0 38.4213 56.5311   3-0.39063 0.01496-0.16229-0.42277-0.96172 0.89398
   5  -7   0 47.0778 51.8217   4-0.02352 0.39869-0.42741-0.15701-0.89315 0.96065
   5   7   0 62.0678 72.4710   2 0.36508 0.00984 0.17832 0.40627 0.96459-0.89696
   5   7   0 125.371 63.0338   5 0.42202-0.04704 0.14174 0.44235 0.95686-0.88943
  -5   7   0 304.248 102.412   6-0.26833-0.10674 0.24033 0.34428-0.96598 0.89821
  -5  -7   0 107.981 56.7083   9 0.02424-0.39915-0.42810-0.15640 0.89299-0.96062
   5  -7   0 35.9416 48.7422   8 0.44827-0.07354-0.12479-0.45954 0.95149-0.88383
   6  -7   0 124.855 64.5548   8 0.44437 0.00533-0.12317-0.46114 0.95294-0.87177
  -6   7   0 221.696 105.847   6-0.27271-0.17738 0.25545 0.32914-0.96155 0.88024
  -6  -7   0 499.387 136.573   3-0.39236-0.05840-0.16385-0.42119-0.96102 0.87973
   6   7   0 97.0636 78.6550   5 0.42113 0.02882 0.14121 0.44286 0.95720-0.87626
   6  -7   0 137.907 62.8500   4-0.00469 0.45490-0.46879-0.11552-0.86962 0.95059
   6   7   0 133.821 69.0168   2 0.36804 0.08188 0.18212 0.40247 0.96322-0.88206
  -6  -7   0 54.7844 57.1634   9 0.00427-0.45415-0.46876-0.11576 0.86962-0.95079
  -7   7   0 -12.244 64.3550   7-0.50229-0.02283 0.07692 0.50791-0.93775 0.84284
  -7   7   0 -48.483 86.5655   6-0.27896-0.24615 0.27739 0.30718-0.95462 0.85977
   7  -7   0 110.096 92.1199   8 0.44855 0.07614-0.12491-0.45938 0.95139-0.85669
   7   7   0 -0.1692 75.4350   2 0.37504 0.14987 0.19114 0.39345 0.95985-0.86516
  -7  -7   0 23.6419 60.2946   3-0.39920-0.12665-0.17003-0.41501-0.95818 0.86336
  -7  -7   0 36.6441 86.4956   9-0.01770-0.50717-0.51212-0.07240 0.84148-0.93619
   7   7   0 -122.93 77.6304   5 0.42682 0.09809 0.14462 0.43944 0.95504-0.86059
   7  -7   0 14.6261 55.7111   4 0.01614 0.50911-0.51317-0.07103-0.84112 0.93553
  -8   7   0 407.107 127.762   7-0.50859-0.09156 0.07819 0.50666-0.93513 0.82666
  -8  -7   0 131.983 97.3962   3-0.41010-0.19082-0.17991-0.40511-0.95342 0.84507
   8  -7   0 44.4002 56.8838   4 0.03885 0.56142-0.55989-0.02420-0.80704 0.91488
   8  -7   0 224.399 99.0186   8 0.45864 0.14102-0.12913-0.45514 0.94751-0.83930
  -8   7   0 84.1937 98.0751   6-0.28684-0.31329 0.30567 0.27889-0.94477 0.83637
  -8  -7   0 172.214 85.1699   9-0.04154-0.55832-0.55756-0.02698 0.80804-0.91629
   8   7   0 254.640 93.3075   5 0.43753 0.16236 0.15104 0.43301 0.95080-0.84285
   8   7   0 94.3499 82.4725   2 0.38538 0.21452 0.20455 0.38003 0.95454-0.84632
  -9   7   0 67.6948 81.3665   6-0.29611-0.37901 0.33992 0.24460-0.93141 0.80946
  -9  -7   0 -18.078 64.4598   9-0.06713-0.60771-0.60448 0.01992 0.76870-0.89051
  -9   7   0 47.4541 91.1003   7-0.52078-0.15441 0.08066 0.50423-0.92987 0.80783
   9  -7   0 -150.51 114.008   8 0.47319 0.20144-0.13525-0.44902 0.94160-0.81988
   9   7   0 -21.721 60.4227   5 0.45213 0.22273 0.15984 0.42419 0.94467-0.82321
   0   8   0 5112.56 348.021   6-0.29450 0.29462 0.33389 0.33411-0.93388 0.93374
   0  -8   0 5449.57 352.487   9 0.06841-0.06840-0.33402-0.33399 0.93702-0.93699
   0  -8   0 5242.89 351.452   4-0.06417 0.06398-0.33398-0.33430-0.93652 0.93643
   0   8   0 6553.36 357.186   2 0.48094-0.48100 0.33397 0.33405 0.88409-0.88407
   1   8   0 11.1162 60.2346   6-0.30458 0.37973 0.37228 0.29566-0.91730 0.93068
  -1   8   0 -8.6235 50.1060   6-0.28690 0.21199 0.30590 0.36215-0.94468 0.93102
  -1  -8   0 54.7824 51.4176   3-0.51742 0.44237-0.28030-0.38835-0.88858 0.87494
   1   8   0 -1.8423 38.6379   2 0.44785-0.37293 0.28792 0.38013 0.91336-0.89983
  -1  -8   0 15.6725 45.0077   4-0.06548-0.00977-0.33086-0.33741-0.93776 0.92412
  -1  -8   0 -101.56 77.3248   9 0.06325-0.13822-0.34533-0.32267 0.93242-0.94592
  -1   8   0 102.837 51.3920   2 0.52436-0.59943 0.39703 0.27096 0.83547-0.84896
   1  -8   0 -98.658 68.8764   9 0.07008 0.00493-0.33036-0.33764 0.93847-0.92491
   1  -8   0 -45.497 51.1363   4-0.05956 0.13445-0.34483-0.32340-0.93213 0.94557
   2  -8   0 -20.836 48.6680   9 0.06766 0.08233-0.33567-0.33235 0.93636-0.90927
   2   8   0 14.4100 64.6747   6-0.31699 0.46716 0.42188 0.24599-0.89270 0.91959
  -2   8   0 -214.17 86.2909   6-0.28179 0.13184 0.28747 0.38060-0.95123 0.92404
   2  -8   0 -9.5668 67.0889   4-0.05205 0.20201-0.36243-0.30577-0.92466 0.95162
   2   8   0 44.4412 61.4838   2 0.42403-0.27411 0.25563 0.41244 0.93104-0.90398
  -2  -8   0 -11.743 49.1031   9 0.05499-0.20496-0.36320-0.30478 0.92477-0.95180
  -2  -8   0 66.0285 40.8678   3-0.47884 0.32861-0.24352-0.42516-0.91598 0.88882
  -2  -8   0 -41.925 48.1679   4-0.06301-0.08730-0.33672-0.33154-0.93543 0.90826
  -3   8   0 295.636 105.799   6-0.27908 0.05409 0.27781 0.39029-0.95448 0.91376
   3  -8   0 199.161 75.3166   4-0.04190 0.26693-0.38587-0.28228-0.91402 0.95450
  -3  -8   0 226.850 78.9184   4-0.05607-0.16928-0.35305-0.31518-0.92869 0.88798
  -3  -8   0 223.145 92.4511   9 0.04400-0.26894-0.38673-0.28126 0.91400-0.95456
   3   8   0 201.194 75.9742   6-0.33133 0.55651 0.48333 0.18447-0.85682 0.89719
   3  -8   0 351.114 99.9670   9 0.06038 0.16462-0.35157-0.31645 0.92980-0.88918
   3   8   0 219.567 66.2854   5 0.51521-0.29004 0.19837 0.46927 0.91304-0.87273
  -3  -8   0 260.514 86.3490   3-0.45317 0.22777-0.21949-0.44919-0.93154 0.89086
   3   8   0 241.066 91.8507   2 0.40814-0.18321 0.23443 0.43365 0.94144-0.90086
  -4  -8   0 203.804 94.9061   9 0.03052-0.33044-0.41508-0.25291 0.89989-0.95399
  -4   8   0 326.313 104.468   6-0.27861-0.02142 0.27616 0.39195-0.95503 0.90076
   4   8   0 306.939 87.1507   5 0.48852-0.18842 0.18197 0.48561 0.92748-0.87364
   4  -8   0 253.770 107.113   4-0.02935 0.32945-0.41436-0.25372-0.89999 0.95397
   4   8   0 108.539 74.3116   2 0.39890-0.09897 0.22223 0.44586 0.94701-0.89290
  -4  -8   0 330.391 97.4862   3-0.43763 0.13709-0.20512-0.46356-0.94001 0.88579
   5  -8   0 40.8105 49.8401   8 0.51205-0.13733-0.15166-0.51617 0.92396-0.85628
  -5   8   0 196.188 81.3582   6-0.28022-0.09484 0.28187 0.38624-0.95313 0.88533
   5   8   0 96.0727 75.0637   2 0.39521-0.02029 0.21739 0.45070 0.94913-0.88149
  -5  -8   0 26.4906 83.2620   9 0.01476-0.38966-0.44755-0.22045 0.88216-0.94979
   5   8   0 -37.394 43.2596   5 0.47403-0.09900 0.17312 0.49441 0.93466-0.86730
   5  -8   0 -37.450 91.1411   4-0.01458 0.38974-0.44720-0.22078-0.88225 0.94972
  -5  -8   0 74.0076 59.5158   3-0.43009 0.05441-0.19818-0.47048-0.94389 0.87613
   6   8   0 1286.27 186.597   5 0.46864-0.01866 0.16984 0.49767 0.93721-0.85634
  -6  -8   0 1282.38 214.391   9-0.00311-0.44677-0.48348-0.18453 0.86046-0.94163
  -6   8   0 1529.79 226.682   6-0.28371-0.16638 0.29436 0.37374-0.94883 0.86748
   6  -8   0 1264.36 184.959   8 0.50184-0.05215-0.14733-0.52048 0.92887-0.84767
   6   8   0 1057.70 189.588   2 0.39619 0.05373 0.21867 0.44943 0.94857-0.86741
   6  -8   0 1095.55 202.431   4 0.00226 0.44796-0.48375-0.18414-0.86041 0.94135
  -6  -8   0 1322.56 200.867   3-0.42890-0.02189-0.19709-0.47156-0.94448 0.86318
  -7   8   0 13.8043 81.6085   6-0.28889-0.23623 0.31316 0.35493-0.94198 0.84709
   7  -8   0 -49.063 83.9182   8 0.50048 0.02419-0.14676-0.52103 0.92951-0.83480
  -7  -8   0 -105.38 124.828   9-0.02295-0.50192-0.52227-0.14574 0.83438-0.92909
  -7  -8   0 111.976 72.1477   3-0.43282-0.09307-0.20068-0.46794-0.94251 0.84767
   7  -8   0 -19.074 76.3052   4 0.02104 0.50422-0.52340-0.14438-0.83403 0.92841
   7   8   0 -152.35 80.6377   5 0.47016 0.05478 0.17077 0.49673 0.93650-0.84212
   7   8   0 24.5741 68.1982   2 0.40106 0.12385 0.22508 0.44302 0.94573-0.85104
  -8   8   0 -3.9410 65.8842   6-0.29556-0.30456 0.33788 0.33019-0.93225 0.82381
   8  -8   0 114.762 97.0975   4 0.04167 0.55862-0.56560-0.10208-0.80257 0.91039
  -8  -8   0 32.3566 71.9283   9-0.04465-0.55521-0.56336-0.10467 0.80345-0.91171
   8  -8   0 -8.8184 65.7492   8 0.50571 0.09393-0.14898-0.51880 0.92703-0.81881
   8   8   0 -35.316 68.3931   5 0.47704 0.12286 0.17495 0.49253 0.93320-0.82532
   0  -9   0 -58.755 67.7153   4-0.04632 0.04609-0.37570-0.37609-0.91873 0.91859
   0   9   0 -17.291 57.7150   6-0.30544 0.30557 0.37561 0.37588-0.91576 0.91558
   0  -9   0 -63.354 82.4385   9 0.04914-0.04913-0.37577-0.37573 0.91912-0.91908
  -1  -9   0 105.216 55.2313   4-0.04671-0.02859-0.37481-0.37698-0.91914 0.90546
   1   9   0 -63.891 63.4105   6-0.31425 0.38943 0.41071 0.34073-0.89857 0.91190
   1  -9   0 95.7293 58.9174   4-0.04285 0.11770-0.38368-0.36809-0.91505 0.92844
  -1  -9   0 151.196 77.2698   9 0.04527-0.12025-0.38403-0.36747 0.91527-0.92877
   1  -9   0 67.7173 58.9852   9 0.04971 0.02529-0.37455-0.37696 0.91967-0.90611
  -1   9   0 62.2423 77.4749   6-0.29866 0.22377 0.34956 0.40198-0.92736 0.91366
   1   9   0 121.743 74.1948   2 0.47930-0.40437 0.33164 0.41991 0.88569-0.87214
  -2  -9   0 55.8105 68.3028   4-0.04358-0.10678-0.38202-0.36975-0.91582 0.88860
  -2  -9   0 7.05748 64.1940   9 0.03847-0.18843-0.39842-0.35307 0.90833-0.93536
  -2   9   0 -1.3793 60.7419   6-0.29397 0.14404 0.33193 0.41965-0.93467 0.90744
   2   9   0 -17.947 60.2273   6-0.32497 0.47515 0.45542 0.29595-0.87390 0.90074
   2  -9   0 34.9343 57.4754   4-0.03662 0.18654-0.39791-0.35383-0.90824 0.93516
   2  -9   0 125.437 61.7577   9 0.04647 0.10352-0.38147-0.37006 0.91648-0.88938
   2   9   0 131.762 69.1606   2 0.45636-0.30645 0.29962 0.45194 0.90639-0.87932
   3  -9   0 581.924 152.588   4-0.02790 0.25289-0.41762-0.33407-0.89831 0.93873
  -3   9   0 717.839 150.688   6-0.29132 0.06635 0.32210 0.42950-0.93856 0.89780
  -3  -9   0 730.627 155.851   9 0.02904-0.25399-0.41815-0.33335 0.89829-0.93885
   3   9   0 562.888 133.557   6-0.33721 0.56241 0.51020 0.24109-0.83907 0.87939
  -3  -9   0 782.993 146.591   3-0.49713 0.27175-0.26085-0.49144-0.90362 0.86290
   3   9   0 376.568 102.071   2 0.44031-0.21538 0.27760 0.47398 0.91926-0.87866
   3  -9   0 474.815 111.787   9 0.03874 0.18625-0.39786-0.35368 0.90861-0.86798
  -3  -9   0 729.427 160.700   4-0.03634-0.18906-0.39857-0.35316-0.90792 0.86715
  -4  -9   0 175.966 88.8506   9 0.01722-0.31714-0.44252-0.30897 0.88502-0.93912
  -4   9   0 308.666 102.483   6-0.29062-0.00939 0.31951 0.43211-0.93956 0.88526
  -4  -9   0 169.898 90.7347   3-0.47977 0.17924-0.24441-0.50788-0.91537 0.86111
   4  -9   0 220.986 113.490   4-0.01688 0.31695-0.44215-0.30947-0.88509 0.93902
   4   9   0 122.922 85.5313   2 0.43019-0.13027 0.26390 0.48769 0.92673-0.87261
   5  -9   0 25.8887 62.6465   4-0.00372 0.37886-0.47090-0.28064-0.86835 0.93576
  -5  -9   0 12.1041 64.4553   9 0.00319-0.37809-0.47092-0.28057 0.86830-0.93594
  -5  -9   0 12.6468 67.4597   3-0.46996 0.09428-0.23517-0.51710-0.92159 0.85380
  -5   9   0 145.578 90.9524   6-0.29174-0.08332 0.32362 0.42799-0.93797 0.87012
   5   9   0 1.74346 63.0349   2 0.42517-0.05026 0.25715 0.49446 0.93026-0.86261
  -6   9   0 -1.3248 73.1876   6-0.29453-0.15555 0.33401 0.41761-0.93383 0.85244
  -6  -9   0 28.0613 99.3245   3-0.46628 0.01547-0.23172-0.52053-0.92384 0.84252
  -6  -9   0 7.00731 87.8881   9-0.01290-0.43698-0.50277-0.24873 0.84785-0.92903
   6   9   0 67.3708 72.2033   5 0.51816-0.06813 0.20020 0.55076 0.91134-0.83056
   6   9   0 38.3071 81.6550   2 0.42452 0.02539 0.25627 0.49534 0.93071-0.84954
   6  -9   0 91.5619 107.148   4 0.01145 0.43876-0.50331-0.24815-0.84776 0.92865
   7   9   0 133.499 84.0026   5 0.51583 0.00914 0.19876 0.55218 0.91268-0.81839
   0 -10   0 194.733 101.346   9 0.02934-0.02933-0.41753-0.41748 0.89861-0.89858
   0  10   0 376.760 127.845   6-0.31588 0.31605 0.41733 0.41766-0.89511 0.89488
   0 -10   0 327.565 135.178   4-0.02799 0.02771-0.41742-0.41789-0.89841 0.89820
  -1 -10   0 61.4198 57.7286   4-0.02758-0.04777-0.41834-0.41697-0.89793 0.88419
   1 -10   0 142.242 95.2686   4-0.02548 0.10027-0.42304-0.41226-0.89547 0.90879
   1  10   0 -22.481 61.5417   6-0.32364 0.39884 0.44976 0.38518-0.87720 0.89047
   1 -10   0 50.9080 75.8399   9 0.02897 0.04603-0.41829-0.41672 0.89821-0.88465
  -1 -10   0 -9.5538 71.6459   9 0.02657-0.10155-0.42328-0.41171 0.89557-0.90908
  -1  10   0 44.5856 57.7165   6-0.30982 0.23495 0.39289 0.44215-0.90753 0.89378
   2  10   0 3.03937 85.2777   6-0.33294 0.48315 0.49059 0.34428-0.85215 0.87893
   2 -10   0 -110.81 93.4602   9 0.02501 0.12498-0.42651-0.40852 0.89385-0.86675
   2  10   0 -25.891 69.5519   2 0.48755-0.33765 0.34337 0.49170 0.87750-0.85040
  -2  10   0 199.155 104.140   6-0.30552 0.15560 0.37594 0.45913-0.91561 0.88833
  -2 -10   0 105.508 73.8488   9 0.02100-0.17096-0.43477-0.40022 0.88934-0.91638
  -2 -10   0 51.7528 54.5097   4-0.02386-0.12654-0.42665-0.40862-0.89355 0.86626
   2 -10   0 17.2492 70.6730   4-0.02035 0.17022-0.43448-0.40080-0.88933 0.91618
   3 -10   0 121.160 100.398   4-0.01282 0.23778-0.45107-0.38416-0.88004 0.92040
  -3 -10   0 -39.834 80.7784   9 0.01290-0.23785-0.45132-0.38367 0.87999-0.92056
  -3  10   0 -50.432 83.5510   6-0.30297 0.07800 0.36604 0.46907-0.92014 0.87932
   3  10   0 96.5635 93.5885   2 0.47155-0.24664 0.32074 0.51435 0.89301-0.85240
  -4 -10   0 192.898 102.603   9 0.00249-0.30242-0.47231-0.36268 0.86745-0.92155
  -4  10   0 -33.366 101.595   6-0.30210 0.00210 0.36272 0.47240-0.92163 0.86727
  -4 -10   0 90.9515 107.054   3-0.52157 0.22104-0.28432-0.55158-0.88531 0.83101
   4  10   0 -7.9774 62.9736   2 0.46084-0.16094 0.30582 0.52928 0.90257-0.84844
  -5 -10   0 -64.093 80.2085   3-0.50991 0.13423-0.27308-0.56281-0.89431 0.82648
   0  11   0 58.4988 107.339   6-0.32581 0.32599 0.45905 0.45943-0.87175 0.87145
   0 -11   0 28.4013 103.006   9 0.00897-0.00896-0.45928-0.45922 0.87532-0.87529
   0 -11   0 -74.180 93.1045   4-0.00913 0.00880-0.45913-0.45970-0.87537 0.87508
  -1 -11   0 446.158 126.461   4-0.00801-0.06739-0.46157-0.45725-0.87394 0.86011
   1 -11   0 283.232 95.6501   9 0.00777 0.06723-0.46171-0.45681 0.87388-0.86031
   1  11   0 636.127 179.697   6-0.33265 0.40786 0.48927 0.42917-0.85301 0.86622
  12   0  -1 300.749 108.737   5 0.53700 0.34545 0.21188-0.21196 0.90000-0.83687
  12   0  -1 51.1728 63.4046   8 0.53815 0.34353-0.16277 0.16296 0.91050-0.84777
 -12   0   1 220.106 126.990   7-0.53925-0.34297 0.08440-0.08439-0.92144 0.85834
  11   0  -1 54.9538 58.8670   8 0.51195 0.29477-0.15162 0.15179 0.92401-0.87480
  11   0  -1 24.7955 51.9969   5 0.51086 0.29655 0.19568-0.19575 0.91550-0.86590
 -11   0   1 -91.286 63.6052   7-0.51293-0.29426 0.07907-0.07907-0.93329 0.88375
 -10   0   1 126.247 60.9333   3-0.48501-0.24786-0.24934 0.24898-0.91193 0.87617
  10   0  -1 83.3002 54.4340   5 0.48666 0.24572 0.18083-0.18086 0.92843-0.89236
 -10   0   1 109.119 83.1720   7-0.48860-0.24357 0.07417-0.07417-0.94323 0.90725
  10   0  -1 -10.737 45.1227   8 0.48772 0.24404-0.14137 0.14152 0.93533-0.89964
   9   0  -1 3.22241 52.0361   8 0.46612 0.19067-0.13227 0.13242 0.94452-0.92234
  -9   0   1 -7.2635 47.2741   7-0.46691-0.19023 0.06981-0.06983-0.95131 0.92888
   9   0  -1 57.1213 36.5216   5 0.46505 0.19228 0.16767-0.16769 0.93888-0.91635
  -9   0   1 -67.234 53.4780   3-0.46361-0.19423-0.22922 0.22892-0.92545 0.90318
   8   0  -1 -1.7873 38.1975   8 0.44813 0.13370-0.12473 0.12488 0.95154-0.94289
   8   0  -1 -1.8928 32.0995   5 0.44702 0.13529 0.15676-0.15676 0.94686-0.93787
   8   0  -1 17.7914 31.9249   2 0.44229 0.13960 0.28030-0.28029 0.91774-0.90893
  -8   0   1 25.7130 31.4699   3-0.44570-0.13711-0.21257 0.21232-0.93570 0.92692
  -8   0   1 1.28481 49.9572   7-0.44885-0.13325 0.06621-0.06621-0.95750 0.94862
  -7   0   1 -21.607 31.6433   3-0.43276-0.07500-0.20063 0.20043-0.94254 0.94727
   7   0  -1 5.03548 29.4883   5 0.43405 0.07322 0.14896-0.14894 0.95220-0.95674
   7   0  -1 -11.274 37.1430   8 0.43527 0.07159-0.11937 0.11950 0.95623-0.96110
   7   0  -1 3.54069 25.2534   2 0.42949 0.07741 0.26297-0.26296 0.92722-0.93194
  -7   0   1 40.2763 34.4269   7-0.43596-0.07111 0.06364-0.06365-0.96163 0.96628
   6   0  -1 714.520 83.5958   2 0.42373 0.00820 0.25522-0.25521 0.93125-0.94950
  -6   0   1 919.849 75.5579   9-0.03821-0.39375-0.55133 0.55127 0.81288-0.79456
   6   0  -1 723.701 100.619   8 0.42999 0.00190-0.11717 0.11728 0.95808-0.97647
   6   0  -1 764.675 94.3164   5 0.42858 0.00367 0.14567-0.14563 0.95436-0.97243
   6   0  -1 629.458 56.1256   4 0.03977 0.39237-0.56174 0.56196-0.80559 0.78698
  -6   0   1 -141.71 48.4625   7-0.43073-0.00132 0.06259-0.06262-0.96324 0.98143
   5   0  -1 -5.8101 11.9135   4-0.06648 0.42374-0.32848 0.32858-0.93869 0.90665
   5   0  -1 -1.8365 14.1016   6-0.06604 0.42322-0.32945 0.32950-0.93830 0.90646
  -5   0   1 9.16626 23.5678   7-0.43741 0.08039 0.06393-0.06395-0.96118 0.99290
   5   0  -1 -10.020 23.7957   8 0.43651-0.07958-0.11988 0.11998 0.95580-0.98771
  -5   0   1 -12.605 11.4236   9 0.06527-0.42221-0.34090 0.34088 0.93424-0.90236
   5   0  -1 -1.7884 16.5485   2 0.42867-0.07171 0.26185-0.26186 0.92781-0.95957
   5   0  -1 -16.414 22.1278   5 0.43470-0.07748 0.14935-0.14929 0.95194-0.98355
  -5   0   1 -20.169 23.1372   3-0.43278 0.07511-0.20064 0.20054-0.94253 0.97432
   4   0  -1 5996.21 134.602   6-0.18285 0.46493-0.02567 0.02575-0.99967 0.95432
  -4   0   1 5506.78 130.749   9 0.18266-0.46459-0.06157 0.06157 0.99810-0.95270
   4   0  -1 5655.65 129.106   4-0.18318 0.46558-0.02486 0.02484-0.99969 0.95412
  -4   0   1 5412.01 197.697   3-0.45665 0.17405-0.22273 0.22266-0.92954 0.97488
   4   0  -1 5918.79 211.051   5 0.45991-0.17770 0.16456-0.16447 0.94122-0.98637
  -4   0   1 5709.29 224.283   7-0.46396 0.18196 0.06923-0.06926-0.95235 0.99760
   4   0  -1 5681.39 215.292   8 0.46251-0.18054-0.13077 0.13085 0.94597-0.99141
   4   0  -1 6017.36 192.569   2 0.45048-0.16851 0.29152-0.29154 0.91125-0.95653
  -3   0   1 0.14559 5.13119   9 0.30294-0.50988 0.28816-0.28812 0.94813-0.88922
   3   0  -1 2.37068 6.59636   6-0.29558 0.50257 0.33793-0.33784-0.93223 0.87341
   3   0  -1 -7.3479 5.71906   4-0.29578 0.50322 0.33854-0.33865-0.93198 0.87279
   3   0  -1 -14.057 18.5835   8 0.52303-0.31602-0.15632 0.15639 0.91847-0.97744
  -3   0   1 11.0008 14.2326   3-0.51121 0.30370-0.27432 0.27429-0.89334 0.95223
   3   0  -1 -1.9747 10.2470   5 0.51841-0.31123 0.20035-0.20025 0.91119-0.96989
  -3   0   1 11.2098 15.5759   7-0.52612 0.31914 0.08174-0.08178-0.92750 0.98626
   3   0  -1 -3.7430 11.5830   2 0.49894-0.29194 0.35971-0.35972 0.86551-0.92431
  -2   0   1 3988.33 144.921   3-0.61469 0.48229-0.37775 0.37777-0.79193 0.86438
   2   0  -1 4097.94 158.530   8 0.64645-0.51442-0.20980 0.20986 0.83813-0.91063
  -2   0   1 4018.08 132.534   2 0.48998-0.62201 0.34684-0.34681 0.87501-0.80268
   2   0  -1 3828.44 139.905   5 0.63541-0.50325 0.27457-0.27446 0.82447-0.89672
  -2   0   1 3636.24 144.650   7-0.65537 0.52339 0.10824-0.10828-0.85347 0.92574
   5   0   1 21.8300 23.8759   8-0.03985 0.43259 0.07031-0.07025 0.97319-0.80607
  -5   0  -1 -29.117 22.4684   7 0.03970-0.43295-0.02825 0.02836-0.97527 0.80809
  -6   0  -1 123.559 49.0251   7-0.03558-0.43270-0.01406 0.01418-0.98929 0.80859
   6   0   1 85.3173 44.1908   8 0.03512 0.43258 0.04138-0.04131 0.98848-0.80784
   7   0   1 25.6786 45.8971   8 0.10073 0.44193 0.01576-0.01568 0.99664-0.80248
  -7   0  -1 -13.678 49.5440   7-0.10131-0.44201-0.00157 0.00169-0.99681 0.80256
  -8   0  -1 122.232 61.1340   7-0.16073-0.45761 0.00981-0.00968-0.99975 0.79197
   8   0   1 149.010 58.3154   8 0.16015 0.45748-0.00767 0.00777 0.99976-0.79208
   9   0   1 187.621 88.6380   8 0.21528 0.47732-0.02961 0.02973 0.99893-0.77773
  -9   0  -1 12.7874 53.2817   7-0.21580-0.47756 0.02043-0.02030-0.99914 0.77782
  12  -1  -1 373.348 119.778   8 0.52791 0.35375-0.15840 0.07512 0.91595-0.85322
 -12  -1   1 414.287 149.625   7-0.55056-0.33163 0.08670-0.17022-0.91598 0.85290
  12   1  -1 383.562 140.032   8 0.55673 0.32496-0.17073 0.25438 0.90006-0.83733
  12   1  -1 254.146 102.784   5 0.52296 0.35941 0.20316-0.11971 0.90854-0.84545
 -11   1   1 241.576 109.932   7-0.50942-0.29780 0.07836 0.00518-0.93478 0.88524
 -11  -1   1 253.653 88.0274   3-0.48925-0.31869-0.25335 0.16948-0.90908 0.85979
  11   1  -1 178.624 91.1925   8 0.53119 0.27553-0.15980 0.24344 0.91422-0.86502
  11  -1  -1 223.581 98.9952   8 0.50183 0.30487-0.14733 0.06403 0.92888-0.87966
  11  -1  -1 253.593 95.0217   5 0.53471 0.27277 0.21045-0.29407 0.90143-0.85179
  11   1  -1 117.434 78.1662   5 0.49704 0.31029 0.18718-0.10372 0.92305-0.87349
 -11  -1   1 263.816 110.176   7-0.52477-0.28238 0.08147-0.16500-0.92810 0.87858
 -10  -1   1 103.336 80.3130   7-0.50111-0.23102 0.07669-0.16022-0.93823 0.90226
  10   1  -1 49.4041 51.4974   8 0.50784 0.22393-0.14988 0.23349 0.92601-0.89033
  10  -1  -1 74.7778 63.9243   5 0.51139 0.22105 0.19601-0.27960 0.91521-0.87911
  10  -1  -1 76.7488 75.2854   8 0.47766 0.25408-0.13713 0.05381 0.93971-0.90402
 -10  -1   1 96.8126 51.4254   3-0.46560-0.26731-0.23108 0.14727-0.92425 0.88844
  10   1  -1 28.2098 46.6513   5 0.47298 0.25931 0.17248-0.08901 0.93516-0.89913
 -10   1   1 55.1901 72.1503   7-0.48524-0.24695 0.07349 0.01004-0.94453 0.90854
   9   1  -1 -35.414 46.6336   5 0.45140 0.20589 0.15939-0.07590 0.94498-0.92248
   9  -1  -1 -7.8102 41.8912   5 0.49105 0.16634 0.18352-0.26709 0.92618-0.90362
   9   1  -1 -33.836 48.7814   8 0.48744 0.16937-0.14125 0.22486 0.93545-0.91328
   9  -1  -1 16.6371 46.6384   8 0.45601 0.20076-0.12803 0.04472 0.94853-0.92636
  -9   1   1 51.3278 48.4438   3-0.49780-0.16002-0.26148 0.34463-0.90315 0.88094
  -9  -1   1 83.2529 61.5513   3-0.44429-0.21358-0.21127 0.12750-0.93646 0.91415
   9   1  -1 -100.04 59.5968   2 0.43459 0.22229 0.26985-0.18636 0.92353-0.90120
  -9   1   1 138.202 95.5510   7-0.46368-0.19347 0.06917 0.01436-0.95245 0.93001
  -9  -1   1 -4.6429 60.7475   7-0.48031-0.17680 0.07250-0.15604-0.94640 0.92398
   8   1  -1 1472.58 160.889   5 0.43312 0.14913 0.14840-0.06487 0.95257-0.94360
   8   1  -1 1515.73 148.996   2 0.41685 0.16504 0.24602-0.16253 0.93587-0.92707
  -8  -1   1 1459.50 161.164   3-0.42614-0.15669-0.19456 0.11084-0.94585 0.93704
   8  -1  -1 1571.86 157.110   5 0.47491 0.10745 0.17366-0.25720 0.93423-0.92521
  -8   1   1 1640.20 153.584   3-0.48218-0.10061-0.24666 0.32987-0.91380 0.90509
  -8  -1   1 1513.81 175.516   7-0.46345-0.11863 0.06912-0.15266-0.95253 0.94365
   8  -1  -1 1450.74 169.093   8 0.43779 0.14402-0.12042 0.03709 0.95534-0.94668
   8   1  -1 1359.67 163.847   8 0.47116 0.11069-0.13440 0.21799 0.94245-0.93380
  -8   1   1 1591.30 188.279   7-0.44571-0.13641 0.06558 0.01794-0.95853 0.94964
  -7   1   1 150.506 55.5775   6-0.33767-0.16921 0.51242-0.42906-0.83754 0.84224
   7  -1  -1 159.212 71.4207   8 0.42434 0.08250-0.11482 0.03147 0.96001-0.96487
   7  -1  -1 169.962 60.5481   5 0.46485 0.04248 0.16754-0.25107 0.93897-0.94350
  -7  -1   1 100.056 36.5360   9-0.01948-0.48744-0.51558 0.43202 0.83908-0.83429
   7  -1  -1 72.9531 20.1391   2 0.48109 0.02580 0.33419-0.41768 0.88394-0.88865
   7   1  -1 69.5386 38.7837   8 0.46081 0.04608-0.13005 0.21364 0.94665-0.95152
   7   1  -1 139.477 61.9850   5 0.41946 0.08777 0.14020-0.05667 0.95782-0.96238
  -7  -1   1 70.1557 34.0900   3-0.41235-0.09544-0.18196 0.09829-0.95239 0.95710
   7  -1  -1 106.180 34.8331   4 0.01924 0.48796-0.51967 0.43648-0.83663 0.83149
  -7   1   1 22.4809 36.5649   7-0.43278-0.07431 0.06300 0.02051-0.96261 0.96726
   7   1  -1 72.7754 36.5292   2 0.40316 0.10376 0.22785-0.14436 0.94448-0.94920
  -7  -1   1 106.126 52.4853   7-0.45225-0.05480 0.06689-0.15042-0.95637 0.96103
   6  -1  -1 1588.02 112.042   4-0.04706 0.47936-0.37399 0.29068-0.91951 0.90095
   6  -1  -1 1615.90 111.039   2 0.48313-0.05122 0.33709-0.42058 0.88193-0.90017
  -6   1   1 1526.70 119.000   3-0.47336 0.04065-0.23835 0.32166-0.91947 0.93778
   6  -1  -1 1655.29 132.206   5 0.46400-0.03172 0.16704-0.25054 0.93936-0.95742
   6   1  -1 1654.12 132.593   2 0.39512 0.03683 0.21727-0.13378 0.94918-0.96743
  -6   1   1 1841.15 122.516   6-0.32890-0.10303 0.47251-0.38915-0.86359 0.88182
   6   1  -1 1592.89 139.417   5 0.41243 0.01979 0.13601-0.05245 0.96039-0.97848
   6   1  -1 1102.81 117.300   8 0.45939-0.02747-0.12946 0.21303 0.94721-0.96561
   6  -1  -1 1456.41 140.212   8 0.41782 0.01406-0.11211 0.02875 0.96217-0.98056
  -6  -1   1 1644.26 116.847   9 0.04756-0.47948-0.37915 0.29561 0.91755-0.89922
  -6   1   1 1665.34 157.334   7-0.42722-0.00484 0.06190 0.02161-0.96430 0.98248
  -6  -1   1 1550.26 149.340   7-0.44947 0.01744 0.06633-0.14986-0.95730 0.97549
   5  -1  -1 183.837 45.7619   8 0.42179-0.06488-0.11375 0.03038 0.96086-0.99277
  -5  -1   1 151.112 40.5676   3-0.40617 0.04851-0.17635 0.09275-0.95517 0.98694
  -5   1   1 174.300 38.0050   3-0.48959 0.13193-0.25368 0.33704-0.90885 0.94069
  -5   1   1 191.577 38.2776   6-0.32396-0.03298 0.45110-0.36774-0.87642 0.90817
   5   1  -1 219.362 50.8954   2 0.39521-0.03825 0.21739-0.13390 0.94913-0.98090
   5  -1  -1 198.424 33.6725   2 0.50165-0.14471 0.36362-0.44711 0.86253-0.89429
   5  -1  -1 144.250 32.6287   4-0.11398 0.47136-0.21150 0.12804-0.97533 0.94330
  -5  -1   1 122.986 32.7547   9 0.11629-0.47320-0.22526 0.14176 0.97246-0.94058
   5   1  -1 150.306 41.4536   8 0.47220-0.11523-0.13482 0.21840 0.94201-0.97394
   5  -1  -1 213.073 45.7051   5 0.47799-0.12074 0.17554-0.25903 0.93274-0.96434
   5   1  -1 155.374 47.3725   5 0.41531-0.05810 0.13773-0.05415 0.95935-0.99097
  -5  -1   1 188.897 46.4677   7-0.45997 0.10297 0.06844-0.15197-0.95374 0.98547
  -5   1   1 140.938 39.8290   7-0.43303 0.07600 0.06305 0.02044-0.96254 0.99425
   4  -1  -1 9248.00 287.823   8 0.44257-0.16062-0.12241 0.03902 0.95361-0.99904
   4  -1  -1 11384.8 239.006   2 0.54678-0.26480 0.43104-0.51453 0.80463-0.84992
  -4  -1   1 9294.70 277.894   3-0.42149 0.13888-0.19029 0.10673-0.94812 0.99344
   4   1  -1 9566.65 275.376   2 0.40732-0.12533 0.23334-0.14987 0.94195-0.98724
   4   1  -1 9629.72 285.312   5 0.43380-0.15161 0.14881-0.06520 0.95230-0.99745
  -4   1   1 9872.17 247.745   6-0.32433 0.04238 0.45270-0.36934-0.87549 0.92076
   4  -1  -1 9743.92 256.632   5 0.51736-0.23515 0.19970-0.28318 0.91180-0.95694
  -4  -1   1 9476.77 228.377   9 0.18595-0.46789-0.05301-0.03048 0.99858-0.95317
  -4   1   1 10200.8 245.080   3-0.53271 0.25011-0.29513 0.37854-0.87623 0.92163
   4   1  -1 9700.61 272.676   8 0.50920-0.22720-0.15045 0.23401 0.92535-0.97080
   4  -1  -1 9360.87 226.212   4-0.18051 0.46293-0.03246-0.05113-0.99947 0.95391
  -4  -1   1 8976.71 277.796   7-0.49288 0.21090 0.07503-0.15857-0.94155 0.98679
  -4   1   1 9424.07 298.052   7-0.45742 0.17542 0.06792 0.01556-0.95462 0.99987
  -4   1   1 9565.00 195.875   1 0.18301-0.46504 0.04425 0.03941 0.99901-0.95379
  -3   1   1 133.956 31.8474   7-0.51442 0.30744 0.07937 0.00409-0.93265 0.99141
  -3  -1   1 127.821 28.9078   7-0.56635 0.35938 0.08992-0.17344-0.90797 0.96673
   3  -1  -1 169.069 32.1991   5 0.60227-0.39509 0.25313-0.33660 0.85330-0.91198
   3  -1  -1 174.374 38.4686   8 0.49197-0.28499-0.14316 0.05975 0.93342-0.99238
   3  -1  -1 117.625 25.8784   4-0.24426 0.45166 0.16009-0.24379-0.98479 0.92564
  -3   1   1 120.679 28.0220   6-0.33133 0.12435 0.48333-0.39998-0.85682 0.91561
  -3  -1   1 182.355 31.8159   9 0.25435-0.46129 0.13625-0.21971 0.98763-0.92871
  -3   1   1 213.899 33.1476   3-0.62095 0.41343-0.38431 0.46777-0.78396 0.84293
  -3  -1   1 144.805 31.1689   3-0.45879 0.25127-0.22472 0.14119-0.92830 0.98717
  -3   1   1 159.084 21.2564   2 0.35863-0.56564 0.17004-0.08653 0.96749-0.90867
   3   1  -1 173.829 33.5671   8 0.58997-0.38295-0.18508 0.26863 0.87946-0.93844
   3   1  -1 166.947 34.0612   2 0.43749-0.23049 0.27378-0.19031 0.92138-0.98020
  -3   1   1 129.706 24.5728   1 0.22007-0.42722-0.21266 0.29638 0.97611-0.91726
   2   1  -1 34010.1 441.084   2 0.49403-0.36200 0.35264-0.26917 0.87078-0.94311
  -2  -1   1 33066.5 422.285   9 0.31686-0.44882 0.33559-0.41905 0.92970-0.85726
   2  -1  -1 32766.2 441.911   8 0.59241-0.46040-0.18613 0.10270 0.87785-0.95034
  -2   1   1 33825.2 451.696   7-0.63176 0.49979 0.10334-0.01989-0.86961 0.94187
  -3   1  -1 56.0455 30.1752   7 0.21556-0.45876-0.06091 0.14455-0.91972 0.77958
   4  -1   1 4751.82 228.832   8-0.09624 0.41401 0.09185-0.17529 0.95749-0.80389
  -4  -1  -1 4709.14 223.283   7 0.13130-0.44950-0.04535-0.03810-0.95037 0.79675
  -4   1  -1 4779.70 238.611   7 0.10937-0.42762-0.04127 0.12493-0.95712 0.80345
   5  -1   1 111.039 41.3746   8-0.01811 0.41085 0.06196-0.14538 0.97828-0.81115
   5   1   1 96.2391 35.6474   8-0.04632 0.43907 0.07280 0.01073 0.97157-0.80446
  -5  -1  -1 155.033 53.1505   7 0.03677-0.43000-0.02769-0.05574-0.97592 0.80877
  -5   1  -1 88.6073 39.5448   7 0.02549-0.41878-0.02558 0.10924-0.97836 0.81116
  -6   1  -1 21.8736 29.5785   6-0.09634-0.37183-0.25584 0.33954-0.96349 0.78272
  -6   1  -1 1.28695 35.0273   7-0.04531-0.42300-0.01221 0.09589-0.99069 0.80996
   6   1   1 -10.025 25.7656   8 0.03520 0.43251 0.04135 0.04219 0.98849-0.80786
   6  -1   1 -10.480 36.6641   8 0.04906 0.41865 0.03596-0.11937 0.99062-0.80998
  -6  -1  -1 -3.5129 28.7824   7-0.04072-0.42754-0.01308-0.07034-0.99004 0.80936
  -7   1  -1 919.532 103.122   6-0.13476-0.40838-0.15748 0.24118-0.98654 0.79226
   7  -1   1 1327.00 156.767   8 0.10921 0.43345 0.01244-0.09583 0.99734-0.80317
   7   1   1 1082.81 133.856   8 0.10508 0.43760 0.01406 0.06950 0.99701-0.80285
  -7  -1  -1 1119.03 151.698   7-0.10779-0.43551-0.00033-0.08309-0.99731 0.80309
  -7   1  -1 949.947 142.830   7-0.10792-0.43541-0.00031 0.08398-0.99732 0.80306
   8  -1   1 1205.60 157.207   8 0.16462 0.45301-0.00944-0.07393 0.99983-0.79214
   8   1   1 1048.48 140.524   8 0.16743 0.45021-0.01055 0.09412 0.99986-0.79218
  -8   1  -1 1039.10 157.546   7-0.16506-0.45330 0.01064 0.07304-0.99982 0.79202
  -8  -1  -1 784.897 145.381   7-0.16806-0.45025 0.01122-0.09464-0.99986 0.79210
  12   2  -1 -27.496 73.8701   5 0.51682 0.36548 0.19937-0.03241 0.91211-0.84907
 -12  -2   1 33.6961 58.2789   3-0.50348-0.37953-0.26691 0.09953-0.89907 0.83625
 -12  -2   1 -67.592 99.2615   7-0.56985-0.31229 0.09063-0.25768-0.90613 0.84306
 -11   2   1 350.785 123.028   7-0.51376-0.29347 0.07924 0.08785-0.93293 0.88337
  11   2  -1 306.767 103.219   8 0.56063 0.24612-0.17241 0.33951 0.89777-0.84857
 -11  -2   1 439.402 130.293   7-0.54537-0.26174 0.08564-0.25269-0.91851 0.86899
  11   2  -1 365.264 122.709   5 0.49175 0.31551 0.18394-0.01698 0.92582-0.87629
  11  -2  -1 166.391 95.1182   8 0.49985 0.30684-0.14649-0.02028 0.92980-0.88059
 -11  -2   1 329.806 112.010   3-0.47908-0.32891-0.24374 0.07640-0.91582 0.86649
 -10  -2   1 95.0124 80.9633   7-0.52333-0.20877 0.08117-0.24822-0.92875 0.89278
 -10  -2   1 -17.898 45.8156   3-0.45646-0.27649-0.22255 0.05527-0.92965 0.89381
  10  -2  -1 82.8371 77.5080   8 0.47649 0.25524-0.13664-0.03015 0.94021-0.90451
  10   2  -1 13.0368 56.8073   5 0.46859 0.26365 0.16982-0.00283 0.93724-0.90123
  10   2  -1 37.0388 45.5031   8 0.53934 0.19246-0.16328 0.33036 0.90985-0.87417
  10   2  -1 116.988 63.9179   2 0.44163 0.29023 0.27941-0.11242 0.91824-0.88238
 -10   2   1 61.1905 83.1595   7-0.49049-0.24171 0.07455 0.09253-0.94249 0.90648
  -9  -2   1 87.0321 77.8300   7-0.50456-0.15252 0.07738-0.24443-0.93681 0.91439
  -9   2   1 284.362 104.477   7-0.46998-0.18718 0.07043 0.09664-0.95021 0.92775
   9   2  -1 60.8590 59.8528   5 0.44790 0.20931 0.15729 0.00970 0.94649-0.92401
   9  -2  -1 114.254 64.0334   8 0.45570 0.20107-0.12790-0.03889 0.94865-0.92648
   9   2  -1 203.146 73.1337   8 0.52162 0.13521-0.15573 0.32280 0.91919-0.89702
  -9  -2   1 161.801 65.7112   3-0.43617-0.22174-0.20377 0.03652-0.94078 0.91844
   9  -2  -1 233.657 78.1837   5 0.53213 0.12532 0.20885-0.37600 0.90301-0.88041
   9   2  -1 214.057 75.9717   2 0.42214 0.23474 0.25309-0.08610 0.93234-0.91001
   8  -2  -1 316.906 66.1446   5 0.52028 0.06213 0.20151-0.36863 0.91010-0.90105
  -8  -2   1 386.954 90.3305   9-0.02812-0.55377-0.53220 0.36514 0.82723-0.83597
   8  -2  -1 160.692 63.7724   8 0.43833 0.14346-0.12065-0.04616 0.95514-0.94648
   8   2  -1 305.031 83.1941   8 0.50894 0.07293-0.15034 0.31741 0.92548-0.91684
   8   2  -1 233.843 77.8509   5 0.43051 0.15170 0.14683 0.02019 0.95360-0.94465
  -8  -2   1 347.200 83.5009   3-0.41894-0.16394-0.18797 0.02076-0.94933 0.94050
   8   2  -1 122.445 54.9725   2 0.40546 0.17646 0.23088-0.06389 0.94309-0.93429
  -8   2   1 209.477 71.7676   7-0.45318-0.12894 0.06708 0.09999-0.95606 0.94715
  -8  -2   1 63.2065 59.1386   7-0.49034-0.09171 0.07452-0.24157-0.94255 0.93367
   7   2  -1 158.055 53.6936   2 0.39248 0.11446 0.21381-0.04682 0.95067-0.95540
  -7  -2   1 -12.927 34.0961   9 0.02476-0.53166-0.42703 0.25998 0.89357-0.88876
  -7   2   1 25.5248 42.5824   6-0.31639-0.19056 0.41940-0.25258-0.89402 0.89871
   7  -2  -1 60.1845 61.2010   8 0.42570 0.08113-0.11538-0.05144 0.95955-0.96441
   7  -2  -1 151.959 78.5273   4-0.02441 0.53174-0.42543 0.25869-0.89420 0.88911
  -7   2   1 -9.7435 36.2847   3-0.54194 0.03418-0.30417 0.47086-0.86833 0.87322
   7  -2  -1 -6.9046 26.6930   5 0.51643-0.00906 0.19913-0.36623 0.91234-0.91683
   7   2  -1 -3.9542 40.2986   8 0.50365 0.00327-0.14810 0.31515 0.92802-0.93290
   7   2  -1 47.9438 33.8404   5 0.41757 0.08961 0.13908 0.02795 0.95852-0.96309
  -7  -2   1 -35.734 27.7855   3-0.40580-0.10201-0.17602 0.00884-0.95533 0.96003
  -7   2   1 23.5009 55.4672   7-0.44159-0.06550 0.06476 0.10229-0.95986 0.96449
  -7  -2   1 16.2700 32.6525   7-0.48268-0.02435 0.07298-0.24003-0.94550 0.95016
   6  -2  -1 1202.98 110.004   4-0.07482 0.50720-0.30855 0.14168-0.94618 0.92764
  -6  -2   1 1349.50 135.478   3-0.39829-0.03447-0.16921 0.00207-0.95856 0.97679
   6   2  -1 1251.88 124.859   2 0.38448 0.04747 0.20337-0.03639 0.95502-0.97327
  -6   2   1 1096.26 108.763   6-0.30771-0.12426 0.38453-0.21770-0.91157 0.92980
   6   2  -1 1350.77 122.998   8 0.50965-0.07770-0.15065 0.31769 0.92513-0.94354
  -6   2   1 1309.34 104.428   3-0.55628 0.12356-0.31831 0.48506-0.85535 0.87377
   6  -2  -1 1171.43 132.280   8 0.41978 0.01208-0.11292-0.05392 0.96153-0.97991
   6   2  -1 1333.52 132.382   5 0.41090 0.02129 0.13509 0.03196 0.96094-0.97903
  -6  -2   1 1265.06 115.925   9 0.07689-0.50879-0.31528 0.14827 0.94425-0.92590
  -6   2   1 1420.44 148.101   7-0.43752 0.00545 0.06395 0.10309-0.96114 0.97932
   6  -2  -1 1304.93 112.880   5 0.52507-0.09274 0.20447-0.37156 0.90728-0.92532
  -6  -2   1 1343.21 132.532   7-0.48485 0.05285 0.07341-0.24046-0.94468 0.96287
   5   2  -1 4997.96 231.353   2 0.38332-0.02635 0.20186-0.03489 0.95563-0.98741
  -5   2   1 5060.78 217.737   6-0.30231-0.05467 0.36349-0.19667-0.92128 0.95304
  -5  -2   1 4702.98 203.675   9 0.12798-0.48489-0.19757 0.03058 0.97905-0.94717
  -5   2   1 5536.16 187.642   3-0.59536 0.23769-0.35772 0.52453-0.81500 0.84698
   5  -2  -1 5307.76 203.627   5 0.55435-0.19708 0.22273-0.38981 0.88875-0.92033
  -5  -2   1 4896.67 228.004   7-0.50263 0.14564 0.07699-0.24403-0.93761 0.96933
   5  -2  -1 4731.15 243.386   8 0.42377-0.06688-0.11458-0.05227 0.96020-0.99211
   5   2  -1 4765.15 208.404   8 0.53402-0.17703-0.16101 0.32805 0.91272-0.94466
   5  -2  -1 4678.70 206.172   4-0.12362 0.48104-0.18672 0.01970-0.98091 0.94887
  -5   2   1 5055.58 249.464   7-0.44484 0.08781 0.06541 0.10161-0.95881 0.99052
  -4  -2   1 136.460 48.6595   7-0.54682 0.26485 0.08594-0.25296-0.91781 0.96304
   4   2  -1 110.177 49.9528   2 0.39170-0.10971 0.21279-0.04582 0.95111-0.99641
  -4   2   1 55.4917 30.0917   1 0.17752-0.45961 0.07607 0.09106 0.99710-0.95186
  -4  -2   1 90.3889 24.1275   1 0.21099-0.49286-0.14049-0.02625 0.98954-0.94435
   4  -2  -1 117.688 41.3579   4-0.17027 0.45270-0.06131-0.10585-0.99807 0.95250
  -4   2   1 68.0551 37.4102   6-0.30115 0.01916 0.35904-0.19222-0.92325 0.96854
  -4  -2   1 51.5327 30.8834   9 0.17753-0.45945-0.07481-0.09216 0.99720-0.95179
   4  -2  -1 49.1348 31.7948   5 0.61957-0.33736 0.26428-0.43136 0.83874-0.88383
   4  -2  -1 68.2670 49.6874   8 0.44312-0.16120-0.12264-0.04423 0.95340-0.99883
   4   2  -1 58.9897 39.2200   8 0.59002-0.30799-0.18510 0.35213 0.87943-0.92490
  -4  -2   1 90.0493 39.5619   3-0.41061 0.12799-0.18037 0.01329-0.95319 0.99851
  -4   2   1 126.481 52.6030   7-0.47041 0.18841 0.07052 0.09648-0.95005 0.99529
   3  -2  -1 378.581 58.4351   8 0.48755-0.28060-0.14130-0.02560 0.93541-0.99436
   3   2  -1 454.335 36.9945   6-0.12974 0.33687-0.17066 0.33782-0.98412 0.92519
  -3   2   1 428.711 54.3823   1 0.20250-0.40966-0.07954 0.24677 0.99657-0.93773
  -3   2   1 457.380 59.3750   6-0.30522 0.09822 0.37476-0.20795-0.91616 0.97496
  -3  -2   1 400.924 55.0548   9 0.22473-0.43167 0.05138-0.21834 0.99764-0.93870
  -3   2   1 435.039 33.9530   9 0.14790-0.35488-0.14928 0.31627 0.98832-0.92939
   3   2  -1 365.553 54.9674   2 0.41356-0.20656 0.24163-0.07467 0.93801-0.99683
   3   2  -1 609.883 75.7868   8 0.70156-0.49451-0.23445 0.40148 0.78846-0.84747
   3  -2  -1 454.257 32.6747   3-0.34097 0.54858-0.11803-0.04911-0.97884 0.91992
   3   2  -1 441.461 37.4768   4-0.12929 0.33652-0.17196 0.33893-0.98388 0.92484
  -3   2   1 402.350 57.9038   7-0.52707 0.32009 0.08193 0.08505-0.92707 0.98582
  -3  -2   1 528.535 62.7236   7-0.63831 0.43133 0.10470-0.27171-0.86526 0.92401
   3  -2  -1 484.621 61.6167   4-0.21398 0.42137 0.06560-0.23286-0.99725 0.93812
  -2   2   1 201.220 36.0137   7-0.63905 0.50708 0.10485 0.06211-0.86477 0.93702
  -2  -2   1 296.528 34.8693   8 0.60737-0.73943-0.19264 0.02561 0.86763-0.79509
   2   2  -1 271.566 36.3797   6-0.06330 0.19541-0.33595 0.50315-0.93573 0.86323
  -2   2   1 288.200 45.6656   1 0.22065-0.35281-0.21755 0.38489 0.97500-0.90254
  -2  -2   1 233.236 43.7284   9 0.26841-0.40038 0.17838-0.34533 0.97952-0.90707
   2  -2  -1 241.089 43.4654   4-0.25371 0.38603 0.19097-0.35833-0.97846 0.90575
  -2   2   1 224.342 40.7993   6-0.31528 0.18328 0.41489-0.24809-0.89639 0.96871
   2  -2  -1 200.934 38.4001   8 0.57462-0.44264-0.17843 0.01152 0.88929-0.96176
   2   2  -1 234.562 38.1975   5 0.53967-0.40745 0.21354-0.04636 0.89832-0.97058
  -1  -2   1 7597.32 232.321   9 0.30713-0.36412 0.30220-0.46914 0.94299-0.85702
  -1   2   1 6877.93 216.119   6-0.33132 0.27431 0.48328-0.31650-0.85685 0.94267
  -1  -2   1 7858.14 223.380   3-0.58682 0.52956-0.34899 0.18202-0.82449 0.91043
   1   2  -1 7625.40 208.001   6-0.03476 0.09183-0.40206 0.56929-0.90619 0.82012
   1   2  -1 7698.92 215.798   5 0.66604-0.60883 0.29477-0.12753 0.79409-0.87996
   0   2  -1 47.3228 18.4770   6-0.02646 0.00848-0.42077 0.58801-0.89665 0.79704
   0   2   1 38.8594 18.5352   6-0.35136 0.36931 0.58088-0.41410-0.78562 0.88493
   0  -2  -1 29.6255 16.2541   9-0.05507 0.03708-0.58262 0.41559 0.78768-0.88723
  -1   2  -1 7402.17 245.264   6-0.03030-0.06271-0.41213 0.57937-0.90113 0.78797
  -1  -2  -1 6817.02 236.523   9-0.05513-0.03785-0.58272 0.41569 0.78759-0.90067
  -2   2  -1 598.428 76.1033   6-0.04205-0.12601-0.38545 0.55270-0.91421 0.78752
  -2  -2  -1 13.0827 16.2168   9-0.06441-0.10358-0.59958 0.43253 0.77305-0.89967
  -3   2  -1 3409.21 193.468   6-0.05920-0.18390-0.34561 0.51286-0.93180 0.79158
   3  -2   1 3339.55 182.800   8-0.12775 0.37055 0.10379-0.27074 0.94713-0.80705
  -3   2  -1 3326.78 185.532   7 0.16258-0.40580-0.05114 0.21834-0.93988 0.79972
  -4   2  -1 1119.92 116.285   6-0.08025-0.23788-0.29534 0.46260-0.95086 0.79711
   4  -2   1 1182.18 120.505   8-0.05001 0.36777 0.07421-0.24113 0.97063-0.81702
  -4   2  -1 1233.80 124.822   7 0.07057-0.38883-0.03404 0.20124-0.96784 0.81416
  -4  -2  -1 1163.58 109.811   7 0.10904-0.42721-0.04121-0.12578-0.95722 0.80362
  -5   2  -1 2358.57 177.351   6-0.10417-0.28897-0.23625 0.40350-0.96902 0.80176
   5  -2   1 2170.61 176.779   8 0.01589 0.37684 0.04884-0.21574 0.98516-0.81804
  -5  -2  -1 2193.81 168.182   7 0.01443-0.40764-0.02350-0.14347-0.98062 0.81349
   5   2   1 2002.37 141.546   8-0.03326 0.42601 0.06779 0.09922 0.97479-0.80767
  -5   2  -1 2004.08 173.388   7-0.00410-0.38919-0.02001 0.18723-0.98413 0.81692
  -6   2  -1 368.820 78.4259   6-0.13029-0.33786-0.16923 0.33648-0.98439 0.80362
   6   2   1 255.296 63.8950   8 0.05272 0.41500 0.03453 0.13248 0.99115-0.81051
  -6  -2  -1 297.782 75.4004   7-0.06242-0.40581-0.00897-0.15799-0.99290 0.81224
  -6   2  -1 284.134 71.7917   7-0.06856-0.39976-0.00780 0.17502-0.99362 0.81288
   6  -2   1 355.248 89.2267   8 0.07453 0.39316 0.02603-0.19291 0.99397-0.81333
   7  -2   1 495.979 90.5674   8 0.12844 0.41421 0.00487-0.17174 0.99861-0.80444
  -7   2  -1 595.069 121.927   7-0.12654-0.41680 0.00326 0.16397-0.99851 0.80423
  -7  -2  -1 671.288 119.360   7-0.12864-0.41460 0.00366-0.17062-0.99862 0.80443
  -7   2  -1 766.807 108.422   6-0.15814-0.38501-0.09474 0.26197-0.99526 0.80097
   7   2   1 394.365 90.9415   8 0.12501 0.41768 0.00622 0.16079 0.99841-0.80425
  -8   2  -1 31.2443 49.5817   7-0.18021-0.43817 0.01356 0.15368-0.99991 0.79209
   8  -2   1 61.3480 59.5612   8 0.17911 0.43851-0.01519-0.15166 0.99988-0.79220
   8   2   1 -9.5818 36.3904   8 0.18871 0.42894-0.01901 0.18604 0.99978-0.79211
  -8  -2  -1 -70.121 69.5349   7-0.18811-0.43016 0.01508-0.18203-0.99986 0.79212
   9   2   1 56.7380 41.8917   8 0.24673 0.44589-0.04223 0.20926 0.99679-0.77559
  -9  -2  -1 10.6773 56.3990   7-0.24300-0.45029 0.02570-0.19265-0.99761 0.77634
   9  -2   1 -94.850 74.8211   8 0.22747 0.46511-0.03450-0.13234 0.99824-0.77704
 -12  -3   1 321.264 153.288   7-0.59749-0.28460 0.09628-0.34685-0.89080 0.82773
 -12  -3   1 67.3184 73.6998   3-0.49950-0.38357-0.26310 0.01224-0.90194 0.83909
 -11  -3   1 376.963 157.719   7-0.57516-0.23190 0.09170-0.34228-0.90330 0.85379
  11   3  -1 317.124 98.3119   2 0.45658 0.35027 0.29993-0.04943 0.90620-0.85682
 -11   3   1 355.292 136.883   7-0.52552-0.28171 0.08162 0.16902-0.92776 0.87817
  11  -3  -1 187.499 77.7596   8 0.50514 0.30153-0.14873-0.10151 0.92730-0.87809
  11   3  -1 309.459 108.475   5 0.49377 0.31345 0.18517 0.06528 0.92477-0.87529
 -11  -3   1 299.425 104.310   3-0.47650-0.33155-0.24131-0.00950-0.91748 0.86811
 -10   3   1 360.638 110.245   7-0.50383-0.22838 0.07724 0.17339-0.93712 0.90109
 -10  -3   1 397.854 112.270   7-0.55575-0.17630 0.08775-0.33831-0.91340 0.87743
  10   3  -1 310.342 100.510   2 0.43657 0.29531 0.27253-0.02204 0.92207-0.88621
  10  -3  -1 303.708 108.498   8 0.48317 0.24855-0.13945-0.11081 0.93733-0.90164
 -10  -3   1 426.246 115.913   3-0.45537-0.27764-0.22154-0.02924-0.93028 0.89441
  10   3  -1 510.178 124.249   5 0.47202 0.26017 0.17190 0.07857 0.93562-0.89965
  -9  -3   1 544.673 129.298   7-0.54028-0.11674 0.08461-0.33517-0.92095 0.89852
   9   3  -1 659.094 119.478   5 0.45285 0.20432 0.16027 0.09019 0.94435-0.92190
   9  -3  -1 650.863 140.231   8 0.46391 0.19284-0.13135-0.11892 0.94541-0.92323
   9   3  -1 569.568 119.815   8 0.57047 0.08640-0.17664 0.42718 0.89185-0.86971
  -9  -3   1 789.603 146.130   3-0.43662-0.22134-0.20419-0.04656-0.94054 0.91818
   9   3  -1 599.296 122.617   2 0.41870 0.23819 0.24849 0.00200 0.93465-0.91232
  -9   3   1 725.957 144.656   7-0.48513-0.17203 0.07347 0.17714-0.94457 0.92210
  -8  -3   1 20.1676 58.4028   7-0.53031-0.05170 0.08259-0.33314-0.92559 0.91671
   8   3  -1 -5.3859 47.3880   8 0.56382 0.01809-0.17378 0.42431 0.89588-0.88725
  -8   3   1 19.7626 37.0419   6-0.31612-0.26585 0.41829-0.16799-0.89460 0.88575
   8   3  -1 26.1086 54.4743   5 0.43706 0.14511 0.15076 0.09973 0.95099-0.94206
  -8  -3   1 114.217 67.9220   9 0.00008-0.58196-0.47713 0.22659 0.86446-0.87319
   8  -3  -1 -59.565 73.4289   8 0.44824 0.13354-0.12478-0.12551 0.95150-0.94284
  -8  -3   1 10.2359 48.4655   3-0.42095-0.16198-0.18980-0.06092-0.94838 0.93954
   8   3  -1 -56.760 54.1640   2 0.40359 0.17833 0.22842 0.02207 0.94422-0.93542
  -8   3   1 26.1904 60.8607   7-0.47047-0.11167 0.07053 0.18007-0.95003 0.94111
   8  -3  -1 -27.302 43.4744   4-0.00043 0.58279-0.47799 0.22783-0.86400 0.87235
   7  -3  -1 100.457 36.6754   5 0.59476-0.08737 0.24833-0.49905 0.85931-0.86375
  -7   3   1 129.034 54.1682   6-0.30620-0.20079 0.37860-0.12828-0.91437 0.91906
  -7  -3   1 267.446 148.003   9 0.04407-0.55096-0.38658 0.13606 0.91407-0.90925
   7  -3  -1 130.268 59.1858   4-0.04288 0.55030-0.38362 0.13331-0.91508 0.90999
   7  -3  -1 32.5100 36.2382   8 0.43743 0.06939-0.12027-0.13004 0.95547-0.96033
  -7   3   1 59.4936 43.3232   7-0.46136-0.04574 0.06871 0.18188-0.95326 0.95788
   6  -3  -1 516.791 68.8389   5 0.61999-0.18767 0.26455-0.51527 0.83837-0.85634
   6   3  -1 475.327 87.0446   2 0.38502 0.04694 0.20408 0.04640 0.95474-0.97299
   6  -3  -1 470.083 78.2593   4-0.08339 0.51583-0.28780 0.03735-0.95343 0.93488
  -6   3   1 504.213 80.7931   6-0.29848-0.13352 0.34887-0.09855-0.92766 0.94588
  -6  -3   1 383.431 74.2495   9 0.08645-0.51834-0.29389 0.04340 0.95192-0.93357
  -6  -3   1 638.986 97.8112   7-0.53816 0.10619 0.08418-0.33471-0.92195 0.94014
   6  -3  -1 507.435 94.6959   8 0.43337-0.00152-0.11857-0.13175 0.95691-0.97529
   6   3  -1 361.824 57.4188   8 0.58496-0.15298-0.18290 0.43342 0.88274-0.90117
   6   3  -1 549.801 107.176   5 0.42058 0.01159 0.14087 0.10965 0.95741-0.97552
  -6  -3   1 441.580 90.8284   3-0.40290-0.02990-0.17338-0.07729-0.95660 0.97482
  -6   3   1 501.320 94.1625   7-0.46020 0.02815 0.06848 0.18210-0.95367 0.97182
  -5  -3   1 91.6172 34.8918   7-0.56702 0.21005 0.09005-0.34057-0.90762 0.93933
   5   3  -1 102.177 47.0567   2 0.38408-0.02711 0.20285 0.04762 0.95523-0.98701
   5  -3  -1 112.649 39.0550   4-0.12171 0.47916-0.19164-0.05894-0.97986 0.94781
  -5   3   1 83.8298 33.1576   1 0.14730-0.50435 0.23386 0.01661 0.97184-0.94015
  -5  -3   1 149.976 48.7935   3-0.40379 0.04607-0.17419-0.07646-0.95621 0.98798
   5  -3  -1 83.2569 25.0465   5 0.67491-0.31765 0.30069-0.55140 0.78453-0.81601
  -5   3   1 127.480 39.4498   6-0.29358-0.06343 0.33048-0.08016-0.93525 0.96701
   5   3  -1 151.227 50.0367   5 0.42404-0.06686 0.14295 0.10760 0.95610-0.98774
   5  -3  -1 110.281 45.5513   8 0.43905-0.08217-0.12094-0.12939 0.95489-0.98679
   5   3  -1 134.675 38.1204   8 0.62755-0.27052-0.20147 0.45198 0.85293-0.88490
  -5  -3   1 86.6838 34.1360   9 0.12697-0.48387-0.19999-0.05049 0.97851-0.94663
  -5   3   1 120.874 44.1765   7-0.47090 0.11387 0.07061 0.17993-0.94988 0.98157
   4   3  -1 603.181 85.7749   2 0.39120-0.10921 0.21214 0.03833 0.95138-0.99669
   4   3  -1 572.258 49.2757   6-0.26869 0.55079 0.24157 0.00896-0.96563 0.92025
  -4  -3   1 587.862 79.4129   9 0.16529-0.44722-0.10597-0.14449 0.99427-0.94886
  -4   3   1 563.500 76.1961   1 0.17077-0.45292 0.11365 0.13694 0.99348-0.94823
   4  -3  -1 372.000 68.6627   8 0.45934-0.17743-0.12944-0.12093 0.94723-0.99265
   4   3  -1 454.016 73.3272   8 0.71109-0.42903-0.23877 0.48928 0.77875-0.82426
  -4   3   1 741.858 93.5270   6-0.29217 0.01017 0.32524-0.07493-0.93733 0.98262
  -4   3   1 574.846 84.1053   7-0.50011 0.21812 0.07649 0.17404-0.93864 0.98386
  -4  -3   1 722.850 85.1059   7-0.62758 0.34561 0.10247-0.35298-0.87233 0.91756
   4  -3  -1 654.925 84.3345   4-0.15755 0.43999-0.09643-0.15429-0.99508 0.94951
   3   3  -1 740.124 62.4555   6-0.19442 0.40154 0.00764 0.24299-0.99987 0.94095
  -3   3   1 766.769 87.4759   6-0.29491 0.08790 0.33543-0.08512-0.93326 0.99207
  -3  -3   1 828.011 92.5325   9 0.20103-0.40797-0.01323-0.23723 0.99969-0.94075
   3  -3  -1 206.618 40.9351   9-0.06138 0.26841-0.59412 0.34359 0.77784-0.83679
   3  -3  -1 813.273 86.5049   8 0.50248-0.29555-0.14761-0.10278 0.92857-0.98751
   3   3  -1 703.547 80.8753   5 0.47487-0.26765 0.17363 0.07699 0.93425-0.99296
  -3   3   1 786.668 82.8680   7-0.55978 0.35282 0.08857 0.16192-0.91136 0.97009
  -3  -3   1 727.421 88.9194   3-0.44000 0.23248-0.20731-0.04330-0.93876 0.99764
  -3  -3   1 1260.33 115.181   7-0.74186 0.53488 0.12645-0.37694-0.78154 0.84029
   3  -3  -1 782.889 89.1040   4-0.19053 0.39790-0.00375-0.24708-0.99994 0.94082
  -3   3   1 760.096 84.1743   1 0.18972-0.39691 0.00374 0.24698 0.99995-0.94111
  -2  -3   1 8085.52 274.765   9 0.23367-0.36564 0.07651-0.32696 0.99555-0.92308
  -2   3   1 7814.31 263.951   1 0.20447-0.33665-0.09319 0.34403 0.99533-0.92290
  -2   3   1 8008.77 270.687   6-0.30236 0.17036 0.36371-0.11342-0.92118 0.99351
   2   3  -1 8122.97 231.075   6-0.14633 0.27844-0.12673 0.37744-0.99138 0.91890
   2  -3  -1 7172.36 234.736   8 0.58247-0.45052-0.18183-0.06856 0.88433-0.95679
  -2  -3   1 9243.09 163.956   8 0.59503-0.72712-0.18727-0.06325 0.87610-0.80353
   2   3  -1 7940.46 246.568   5 0.53862-0.40638 0.21290 0.03778 0.89898-0.97125
  -2  -3   1 8020.51 261.853   3-0.48570 0.35330-0.24999-0.00058-0.91147 0.98389
   2  -3  -1 8225.16 244.442   9-0.02411 0.15612-0.52450 0.27398 0.83279-0.90527
  -2  -3   1 8159.05 246.666   4 0.02102-0.15322-0.52336 0.27307-0.83406 0.90648
  -2   3   1 8594.74 251.782   7-0.67083 0.53889 0.11145 0.13900-0.84217 0.91440
   2  -3  -1 8095.49 278.843   4-0.22021 0.35251 0.08454-0.33546-0.99557 0.92289
   1  -3  -1 1002.14 90.2307   9-0.00779 0.06480-0.49273 0.24220 0.85450-0.94051
   1   3  -1 806.524 80.9775   2 0.49207-0.43504 0.34983-0.09939 0.87284-0.95870
   1   3  -1 912.522 83.5609   6-0.11768 0.17475-0.20194 0.45269-0.97757 0.89153
  -1   3   1 993.989 91.7769   6-0.31477 0.25778 0.41280-0.16254-0.89748 0.98332
   1   3  -1 1011.19 83.9678   5 0.64503-0.58777 0.28088-0.03013 0.81534-0.90123
  -1  -3   1 990.478 94.6820   9 0.26271-0.31969 0.16112-0.41157 0.98310-0.89711
  -1  -3   1 950.097 87.4247   4 0.00639-0.06361-0.49259 0.24233-0.85478 0.94074
  -1  -3   1 907.306 83.1646   3-0.55947 0.50223-0.32149 0.07096-0.85233 0.93827
   1  -3  -1 214.177 45.5661   8 0.71849-0.66151-0.24214-0.00828 0.77095-0.85691
   0  -3  -1 -5.3165 13.2432   4-0.26796 0.25006 0.23893-0.48996-0.96637 0.86654
   0   3   1 18.3625 21.3364   6-0.33163 0.34962 0.48469-0.23446-0.85595 0.95528
   0   3  -1 6.59118 16.3880   6-0.10296 0.08499-0.23930 0.49007-0.96819 0.86860
   0   3  -1 19.3615 22.0188   2 0.56195-0.57990 0.45479-0.20437 0.78093-0.88030
   0  -3   1 8.49716 21.0793   9 0.28760-0.26960 0.23814-0.48860 0.96432-0.86480
   0  -3  -1 13.5723 13.2638   9-0.00450-0.01349-0.48622 0.23569 0.85871-0.95824
   0  -3   1 21.2910 20.9131   4 0.00347 0.01430-0.48635 0.23614-0.85877 0.95824
   1   3   1 7479.19 250.652   1 0.22820-0.13512-0.28614 0.53725 0.95653-0.84328
   1   3   1 8357.70 285.816   6-0.35102 0.44397 0.57906-0.32885-0.78713 0.89994
  -1  -3  -1 7967.00 277.034   9-0.00998-0.08300-0.49705 0.24651 0.85166-0.96473
  -1   3  -1 7743.58 277.257   6-0.09835 0.00533-0.25084 0.50163-0.96495 0.85181
   1  -3   1 7589.70 251.592   9 0.30791-0.21494 0.30485-0.55531 0.94199-0.82895
  -1  -3  -1 7677.78 250.553   4-0.28530 0.19228 0.29995-0.55099-0.94684 0.83345
  -2   3  -1 1213.01 118.430   6-0.10120-0.06685-0.24371 0.49451-0.96697 0.84029
   2  -3   1 1466.88 108.940   9 0.32332-0.15537 0.35836-0.60884 0.91974-0.79316
   2  -3   1 1667.17 123.446   8-0.12375 0.29156 0.10228-0.35273 0.94851-0.82194
   2  -3   1 1540.74 131.746   4 0.01982 0.14796-0.52087 0.27076-0.83580 0.96228
  -2   3  -1 1618.44 118.850   7 0.18795-0.35613-0.05583 0.30657-0.93060 0.80398
  -2  -3  -1 1490.09 108.758   4-0.29791 0.12977 0.34657-0.59761-0.92863 0.80168
  -2  -3  -1 1272.21 121.082   9-0.02172-0.14626-0.51989 0.26935 0.83606-0.96266
  -3   3  -1 2693.11 184.288   6-0.10968-0.13341-0.22234 0.47314-0.97266 0.83245
  -3  -3  -1 2679.79 183.738   9-0.03808-0.20489-0.55108 0.30053 0.81307-0.95320
   3  -3   1 2749.18 173.561   8-0.05331 0.29610 0.07547-0.32590 0.96977-0.82968
   3  -3   1 2676.41 183.288   4 0.03545 0.20733-0.55301 0.30297-0.81234 0.95230
  -3  -3  -1 1930.50 122.354   7 0.18098-0.42408-0.05454-0.19599-0.93322 0.79318
  -3   3  -1 2725.02 171.477   7 0.09088-0.33409-0.03783 0.28858-0.96243 0.82228
   4  -3   1 39.8829 35.8225   8 0.00639 0.31137 0.05251-0.30292 0.98337-0.82976
  -4   3  -1 44.5522 37.3270   6-0.12248-0.19563-0.18956 0.44035-0.98030 0.82656
   4   3   1 6.91731 14.9433   8-0.10802 0.42581 0.09632 0.15413 0.95375-0.80017
  -4  -3  -1 35.7267 29.3998   9-0.05799-0.25997-0.58794 0.33737 0.78317-0.93683
  -4  -3  -1 -0.4786 21.6537   7 0.05911-0.37724-0.03189-0.21862-0.97071 0.81715
  -4   3  -1 12.8802 27.7334   7 0.01571-0.33396-0.02374 0.27450-0.98036 0.82668
  -5   3  -1 1093.41 131.086   6-0.13866-0.25447-0.14718 0.39797-0.98828 0.82102
   5  -3   1 979.418 125.286   8 0.05994 0.33278 0.03172-0.28211 0.99214-0.82501
   5   3   1 889.642 88.9270   1 0.22623 0.16736-0.26733 0.51858 0.96213-0.79458
   5   3   1 1093.22 101.117   8 0.00598 0.38678 0.05267 0.19780 0.98329-0.81618
  -5  -3  -1 1061.12 120.107   7-0.03035-0.36281-0.01505-0.23545-0.98851 0.82141
  -5   3  -1 1117.04 137.121   7-0.04772-0.34556-0.01176 0.26253-0.99102 0.82380
  -6  -3  -1 1718.66 166.277   7-0.10286-0.36533-0.00127-0.24923-0.99693 0.81630
   6   3   1 1318.37 128.053   8 0.09271 0.37503 0.01891 0.23156 0.99591-0.81527
  -6   3  -1 1739.90 167.989   6-0.15753-0.31062-0.09640 0.34716-0.99509 0.81430
   6   3   1 1746.19 122.050   1 0.21840 0.25028-0.19873 0.44995 0.97914-0.79809
   6  -3   1 1669.45 179.855   8 0.10966 0.35802 0.01226-0.26262 0.99737-0.81672
  -6   3  -1 1644.50 184.423   7-0.10423-0.36409-0.00101 0.25179-0.99704 0.81628
  -7   3  -1 1574.32 168.936   6-0.17855-0.36460-0.03794 0.28869-0.99928 0.80498
   7   3   1 1780.70 166.416   8 0.16439 0.37831-0.00935 0.25982 0.99983-0.80567
   7  -3   1 1760.61 191.991   8 0.15684 0.38581-0.00636-0.24399 0.99970-0.80553
  -7   3  -1 1385.56 179.697   7-0.15631-0.38704 0.00896 0.24181-0.99966 0.80537
  -7  -3  -1 1468.59 181.804   7-0.16556-0.37764 0.01074-0.26123-0.99983 0.80567
  -8   3  -1 204.802 75.9358   6-0.20129-0.41683 0.02783 0.22291-0.99939 0.79157
  -8  -3  -1 135.695 72.8075   7-0.22214-0.39608 0.02166-0.27214-0.99886 0.79115
   8  -3   1 147.363 59.6222   8 0.20226 0.41537-0.02441-0.22592 0.99945-0.79176
   8   3   1 92.6574 55.0080   8 0.22707 0.39059-0.03433 0.28482 0.99827-0.79060
  -8   3  -1 189.875 86.9789   7-0.20542-0.41295 0.01842 0.23236-0.99950 0.79167
 -11   4   1 312.362 137.082   7-0.54426-0.26298 0.08542 0.24878-0.91905 0.86943
  11   4  -1 107.028 76.9113   5 0.50202 0.30513 0.19024 0.14368 0.92038-0.87093
  11  -4  -1 469.848 154.011   8 0.51693 0.28974-0.15373-0.17999 0.92155-0.87234
 -11  -4   1 109.846 88.3925   3-0.48006-0.32805-0.24466-0.08966-0.91519 0.86581
  11   4  -1 106.818 54.5905   2 0.45611 0.35074 0.29928 0.03472 0.90660-0.85721
  -9   4   1 1527.63 206.807   7-0.50848-0.14868 0.07817 0.25599-0.93518 0.91268
   9   4  -1 1550.56 191.783   2 0.42178 0.23513 0.25260 0.08139 0.93258-0.91026
   9  -4  -1 1655.73 222.524   8 0.47957 0.17717-0.13793-0.19583 0.93889-0.91671
   9   4  -1 1622.88 204.767   5 0.46481 0.19233 0.16752 0.16642 0.93899-0.91657
  -9  -4   1 1630.75 215.705   3-0.44374-0.21428-0.21076-0.12351-0.93676 0.91440
  -9  -4   1 1770.37 217.165   7-0.58806-0.06893 0.09434-0.42840-0.89620 0.87377
   8  -4  -1 377.059 99.9839   4-0.01339 0.59583-0.44983 0.11609-0.88076 0.88911
  -8  -4   1 524.851 116.185   7-0.58404 0.00208 0.09352-0.42756-0.89844 0.88956
  -8   4   1 485.547 105.838   6-0.31124-0.27078 0.39854-0.06474-0.90474 0.89587
  -8  -4   1 393.324 100.175   9 0.01348-0.59534-0.45016 0.11612 0.88066-0.88939
   8  -4  -1 339.156 90.9496   8 0.46618 0.11559-0.13230-0.20148 0.94449-0.93583
   8   4  -1 235.023 94.7238   5 0.45108 0.13106 0.15921 0.17475 0.94512-0.93622
  -8  -4   1 316.056 100.802   3-0.42992-0.15305-0.19802-0.13623-0.94397 0.93513
   8   4  -1 396.727 108.596   2 0.40842 0.17351 0.23481 0.09918 0.94126-0.93246
  -8   4   1 399.699 104.671   7-0.49672-0.08541 0.07580 0.25835-0.94001 0.93106
   7   4  -1 1850.45 187.810   5 0.44194 0.06520 0.15370 0.18027 0.94899-0.95360
   7   4  -1 1816.98 186.801   2 0.39848 0.10847 0.22169 0.11231 0.94725-0.95198
  -7   4   1 1886.57 184.028   6-0.30259-0.20444 0.36457-0.03076-0.92080 0.92547
  -7  -4   1 1918.29 187.658   9 0.05098-0.55787-0.37183 0.03782 0.92092-0.91610
  -7  -4   1 1888.41 201.591   3-0.42006-0.08785-0.18900-0.14524-0.94880 0.95349
   7  -4  -1 1756.48 188.451   8 0.45787 0.04894-0.12882-0.20498 0.94781-0.95267
   7  -4  -1 2140.13 201.383   4-0.04930 0.55676-0.36883 0.03495-0.92184 0.91675
  -7   4   1 1807.04 192.744   7-0.49104-0.01604 0.07466 0.25947-0.94227 0.94687
  -7  -4   1 2150.20 188.641   7-0.58984 0.08289 0.09471-0.42874-0.89519 0.89984
   6   4  -1 1327.71 130.648   8 0.68907-0.25705-0.22881 0.56280 0.80065-0.81912
  -6  -4   1 1100.86 146.189   3-0.41535-0.01748-0.18470-0.14952-0.95101 0.96924
  -6  -4   1 918.324 119.667   9 0.08657-0.51845-0.29362-0.04038 0.95201-0.93366
   6   4  -1 963.250 131.754   2 0.39285 0.03911 0.21430 0.11970 0.95046-0.96872
  -6   4   1 755.776 111.213   6-0.29594-0.13608 0.33929-0.00547-0.93167 0.94989
   6  -4  -1 831.403 125.454   8 0.45650-0.02467-0.12824-0.20556 0.94834-0.96672
   6   4  -1 956.528 123.554   5 0.43893-0.00678 0.15189 0.18210 0.95023-0.96836
   6  -4  -1 928.198 127.204   4-0.08308 0.51554-0.28856-0.04546-0.95317 0.93462
  -6  -4   1 1067.52 120.484   7-0.61036 0.17841 0.09892-0.43293-0.88313 0.90131
  -6   4   1 905.978 123.851   7-0.49393 0.06188 0.07524 0.25886-0.94113 0.95927
  -5   4   1 32.5677 42.5833   7-0.50935 0.15235 0.07835 0.25573-0.93481 0.96648
   5   4  -1 -3.4717 27.4031   2 0.39271-0.03573 0.21411 0.11988 0.95055-0.98232
  -5  -4   1 5.31621 22.6471   7-0.65398 0.29702 0.10795-0.44193-0.85446 0.88616
   5  -4  -1 16.6636 40.8973   4-0.11456 0.47202-0.21001-0.12414-0.97569 0.94364
  -5   4   1 22.7946 36.2201   6-0.29177-0.06526 0.32372 0.01010-0.93793 0.96968
   5   4  -1 18.9808 20.8649   6-0.33357 0.69065 0.49345-0.15957-0.85029 0.81838
   5  -4  -1 -14.212 30.9169   8 0.46491-0.10804-0.13176-0.20207 0.94501-0.97690
   5   4  -1 26.6604 29.4028   5 0.44432-0.08713 0.15513 0.17889 0.94800-0.97966
  -5  -4   1 -27.305 38.3306   9 0.12004-0.47694-0.21643-0.11755 0.97466-0.94278
  -5  -4   1 -32.316 30.4297   3-0.41742 0.05967-0.18659-0.14761-0.95005 0.98182
  -4  -4   1 1083.37 123.117   3-0.42858 0.14593-0.19680-0.13739-0.94464 0.98997
   4   4  -1 1389.62 137.976   2 0.39961-0.11763 0.22318 0.11080 0.94659-0.99189
   4   4  -1 1195.86 91.3597   6-0.27430 0.55643 0.26098 0.07303-0.95986 0.91447
  -4   4   1 1296.06 134.650   6-0.29052 0.00850 0.31915 0.01468-0.93970 0.98499
  -4  -4   1 1221.01 129.431   9 0.15117-0.43309-0.14124-0.19272 0.98959-0.94417
   4  -4  -1 815.041 83.9404   9-0.05650 0.33854-0.58523 0.25120 0.78547-0.83088
   4   4  -1 1206.69 120.812   5 0.46147-0.17927 0.16550 0.16855 0.94052-0.98570
   4  -4  -1 1188.76 125.339   8 0.48752-0.20563-0.14128-0.19257 0.93542-0.98084
  -4  -4   1 1234.32 103.166   4 0.04902-0.33121-0.58026 0.24643-0.79074 0.83611
   4  -4  -1 1241.71 132.879   4-0.14356 0.42598-0.13426-0.20002-0.99030 0.94472
  -4   4   1 1241.99 121.709   7-0.54387 0.26190 0.08534 0.24871-0.91924 0.96443
  -4  -4   1 1858.42 153.589   7-0.73461 0.45264 0.12491-0.45887-0.78847 0.83369
  -3   4   1 148.275 40.8047   7-0.60854 0.40161 0.09855 0.23545-0.88424 0.94294
  -3  -4   1 102.108 34.1683   9 0.17969-0.38664-0.06923-0.26472 0.99760-0.93866
   3  -4  -1 145.938 46.6101   4-0.16983 0.37719-0.06254-0.27184-0.99798 0.93887
   3   4  -1 148.474 36.4502   6-0.22576 0.43290 0.10175 0.23238-0.99369 0.93476
  -3   4   1 136.492 44.5693   6-0.29267 0.08567 0.32709 0.00671-0.93660 0.99541
  -3  -4   1 163.442 48.0715   3-0.45206 0.24454-0.21848-0.11570-0.93216 0.99104
   3  -4  -1 171.411 41.6053   9-0.01535 0.22237-0.50755 0.17352 0.84462-0.90356
  -3  -4   1 163.769 20.8447   8-0.03489-0.17218 0.06841-0.40245 0.97440-0.91539
   3  -4  -1 232.231 52.5770   8 0.53145-0.32454-0.15991-0.17395 0.91409-0.97302
  -3   4   1 192.878 24.1792   2 0.42048-0.62754 0.25086 0.08315 0.93346-0.87463
   3   4  -1 102.381 36.0034   2 0.41557-0.20858 0.24431 0.08966 0.93671-0.99554
  -3  -4   1 134.058 36.0176   4 0.01291-0.22014-0.50638 0.17258-0.84571 0.90461
   2  -4  -1 986.734 97.0881   9 0.00639 0.12563-0.46449 0.13047 0.87221-0.94468
   2   4  -1 860.518 87.2249   6-0.19010 0.32223-0.00487 0.33908-0.99994 0.92746
  -2   4   1 885.905 103.711   6-0.29860 0.16661 0.34935-0.01557-0.92745 0.99978
  -2  -4   1 791.888 90.4074   3-0.49232 0.35992-0.25627-0.07787-0.90698 0.97940
  -2  -4   1 946.310 109.789   9 0.20533-0.33729-0.00172-0.33223 0.99968-0.92720
   2   4  -1 843.201 89.1282   5 0.55431-0.42202 0.22271 0.11145 0.88878-0.96108
   2  -4  -1 904.701 92.2031   8 0.60793-0.47600-0.19289-0.14100 0.86724-0.93968
  -2  -4   1 830.205 90.2149   4-0.00667-0.12559-0.46450 0.13071-0.87220 0.94464
   2   4  -1 905.637 52.4098   7-0.26429 0.39631 0.02984 0.30427-0.99584 0.92349
  -2   4   1 1132.67 99.2579   7-0.72082 0.58889 0.12197 0.21199-0.80114 0.87333
  -1  -4   1 7370.28 262.425   3-0.55461 0.49738-0.31665-0.01744-0.85691 0.94285
   1   4  -1 7167.54 266.223   2 0.48471-0.42769 0.33931-0.00537 0.88037-0.96623
   1   4  -1 6975.83 267.185   6-0.16588 0.22298-0.07340 0.40765-0.99720 0.91117
  -1   4   1 6896.04 274.927   6-0.30852 0.25154 0.38775-0.05400-0.91002 0.99586
  -1  -4   1 7327.91 287.639   9 0.22774-0.28472 0.05978-0.39373 0.99702-0.91102
   1   4  -1 8544.08 271.641   5 0.64751-0.59021 0.28251 0.05174 0.81293-0.89884
  -1  -4   1 7668.55 282.010   4-0.01512-0.04214-0.44602 0.11226-0.88292 0.96889
   1  -4  -1 7170.59 271.791   9 0.01557 0.04144-0.44590 0.11186 0.88310-0.96910
   1   4   1 -11.555 33.3697   6-0.33894 0.43193 0.51837-0.18468-0.83341 0.94624
   1  -4   1 21.8598 20.9948   8-0.06405 0.15689 0.07958-0.41354 0.96689-0.85383
   1   4   1 -28.526 27.0967   1 0.21190-0.11887-0.14737 0.48200 0.98850-0.87530
  -1   4  -1 -26.519 45.3945   6-0.14402 0.05103-0.13291 0.46722-0.99049 0.87737
  -1  -4  -1 -17.685 34.6145   9 0.00979-0.10276-0.45764 0.12360 0.87629-0.98935
  -1  -4  -1 -47.284 43.3189   4-0.24231 0.14930 0.15384-0.48845-0.98593 0.87258
   1  -4   1 -20.152 28.0291   9 0.26154-0.16856 0.15762-0.49158 0.98378-0.87073
  -1   4  -1 23.5692 16.0257   7 0.15793-0.25105-0.05028 0.38457-0.94150 0.82842
   2  -4   1 -16.357 18.9596   9 0.27214-0.10418 0.18978-0.52374 0.97696-0.85038
  -2   4  -1 -7.6851 30.1495   6-0.14309-0.02494-0.13541 0.46972-0.99012 0.86346
   2  -4   1 -8.3873 19.3301   8-0.01589 0.18370 0.06111-0.39505 0.97876-0.85218
  -2  -4  -1 6.92908 21.0215   4-0.25071 0.08259 0.18109-0.51571-0.98061 0.85371
   2   4   1 17.6065 19.5918   6-0.35655 0.52452 0.60994-0.27628-0.76044 0.88674
  -2  -4  -1 13.1596 25.5743   9-0.00138-0.16659-0.48004 0.14599 0.86263-0.98922
  -2  -4  -1 -2.4455 12.6396   7 0.25156-0.41958-0.06750-0.26657-0.90427 0.77779
  -2   4  -1 -26.591 23.0410   7 0.06852-0.23668-0.03365 0.36794-0.96836 0.84176
   2   4   1 18.5116 18.3566   1 0.21429-0.04615-0.16580 0.50049 0.98547-0.85869
   3   4   1 2258.39 157.786   1 0.21456 0.02873-0.16779 0.50252 0.98512-0.84476
  -3   4  -1 2542.91 192.702   6-0.14713-0.09594-0.12458 0.45890-0.99168 0.85147
   3  -4   1 2435.09 150.936   9 0.27781-0.03487 0.20731-0.54128 0.97271-0.83259
   3  -4   1 2275.50 166.063   8 0.02853 0.21425 0.04394-0.37785 0.98739-0.84729
  -3  -4  -1 2492.58 192.603   9-0.01652-0.22643-0.50984 0.17578 0.84305-0.98317
   3  -4   1 2604.43 196.038   4 0.01494 0.22786-0.51066 0.17710-0.84283 0.98284
  -3  -4  -1 2518.16 136.122   7 0.07900-0.32206-0.03561-0.29843-0.96565 0.82564
  -3   4  -1 2527.12 171.786   7 0.00212-0.24533-0.02118 0.35548-0.98299 0.84284
  -3  -4  -1 2322.83 148.251   4-0.25427 0.01108 0.19284-0.52746-0.97804 0.83761
  -4   4  -1 -34.223 37.5104   6-0.15522-0.16288-0.10270 0.43702-0.99440 0.84066
  -4  -4  -1 45.9007 25.2620   4-0.25201-0.06627 0.18536-0.51995-0.97970 0.82573
  -4  -4  -1 52.2719 46.7238   9-0.03488-0.28306-0.54505 0.21099 0.81768-0.97133
   4   4   1 56.2214 25.5274   8-0.02623 0.34405 0.06508 0.26883 0.97644-0.82285
   4   4   1 57.2329 35.0214   1 0.21250 0.10591-0.15186 0.48661 0.98779-0.83388
   4  -4   1 48.8311 30.2405   9 0.27757 0.04036 0.20656-0.54054 0.97290-0.81925
   4  -4   1 82.4567 42.3104   8 0.07101 0.24674 0.02740-0.36130 0.99355-0.83993
  -4  -4  -1 80.8263 38.5015   7-0.02539-0.29269-0.01599-0.31804-0.98773 0.83420
  -4   4  -1 25.5561 28.3227   7-0.05385-0.26440-0.01060 0.34490-0.99183 0.83814
   4  -4   1 39.8351 44.7728   4 0.03240 0.28541-0.54682 0.21333-0.81702 0.97051
   5   4   1 5687.43 249.663   1 0.20763 0.18589-0.11573 0.45046 0.99286-0.82540
  -5   4  -1 5664.83 320.279   6-0.16661-0.22652-0.07139 0.40569-0.99735 0.83008
   5  -4   1 5489.81 214.732   9 0.26953 0.12339 0.18180-0.51581 0.97877-0.81158
   5   4   1 5347.92 214.558   8 0.08290 0.30989 0.02275 0.31116 0.99491-0.82780
   5  -4   1 5247.57 302.593   8 0.11235 0.28036 0.01120-0.34509 0.99757-0.83043
   5  -4   1 5399.85 312.422   4 0.05250 0.34031-0.58715 0.25374-0.78501 0.95195
  -5  -4  -1 3793.39 272.970   9-0.05590-0.33703-0.58413 0.25005 0.78641-0.95360
  -5  -4  -1 6321.78 282.460   7-0.10195-0.29116-0.00145-0.33257-0.99686 0.82980
  -5   4  -1 5601.96 311.942   7-0.10427-0.28901-0.00100 0.33532-0.99704 0.82982
  -5  -4  -1 5914.88 226.639   4-0.24196-0.15135 0.15272-0.48728-0.98613 0.81865
   6  -4   1 38.4430 44.1637   8 0.15298 0.31470-0.00483-0.32903 0.99960-0.81895
   6   4   1 150.509 49.5406   8 0.16320 0.30456-0.00888 0.34280 0.99981-0.81918
  -6   4  -1 42.9224 35.6805   6-0.18072-0.28743-0.03178 0.36607-0.99949 0.81870
   6   4   1 158.667 47.0952   1 0.19896 0.26966-0.05556 0.39021 0.99827-0.81729
  -6   4  -1 186.995 78.1610   7-0.15140-0.31689 0.00802 0.32630-0.99954 0.81878
  -6  -4  -1 100.708 50.6299   7-0.16501-0.30311 0.01063-0.34464-0.99982 0.81923
  -7   4  -1 574.775 121.835   6-0.19706-0.34609 0.01537 0.31890-0.99974 0.80542
   7  -4   1 649.075 155.197   8 0.19313 0.34952-0.02077-0.31307 0.99970-0.80552
  -7   4  -1 594.075 133.865   7-0.19646-0.34688 0.01669 0.31764-0.99973 0.80542
  -7  -4  -1 661.152 123.260   7-0.22065-0.32250 0.02137-0.35536-0.99893 0.80479
  -8   4  -1 57.1325 46.6972   6-0.21526-0.40288 0.06958 0.26465-0.99693 0.78909
   8  -4   1 -42.621 65.2482   8 0.23294 0.38467-0.03669-0.29714 0.99788-0.79018
  -8   4  -1 4.26259 52.2625   7-0.24009-0.37828 0.02513 0.30921-0.99782 0.78996
  -8  -4  -1 64.2199 59.8968   7-0.27179-0.34637 0.03130-0.36530-0.99510 0.78742
  11   5  -1 302.935 113.749   2 0.46041 0.34647 0.30522 0.11228 0.90294-0.85355
 -10   5   1 202.662 116.842   7-0.55256-0.17963 0.08711 0.33062-0.91499 0.87889
  10   5  -1 133.792 63.5843   5 0.49768 0.23442 0.18758 0.22980 0.92271-0.88682
  10  -5  -1 118.527 95.0270   8 0.51652 0.21518-0.15356-0.26367 0.92175-0.88605
  10   5  -1 -44.057 83.5154   2 0.44394 0.28797 0.28255 0.13495 0.91646-0.88060
 -10  -5   1 55.8785 74.6008   3-0.47107-0.26205-0.23621-0.18161-0.92090 0.88501
  -9   5   1 277.309 108.053   7-0.53939-0.11776 0.08443 0.33328-0.92137 0.89884
  -9  -5   1 411.587 111.927   9-0.01640-0.64044-0.50960 0.09206 0.84322-0.86549
   9  -5  -1 351.421 131.816   8 0.50172 0.15501-0.14728-0.26996 0.92893-0.90675
   9   5  -1 315.775 106.768   5 0.48262 0.17449 0.17836 0.23904 0.93046-0.90808
  -9  -5   1 393.147 127.633   3-0.45609-0.20199-0.22221-0.19559-0.92987 0.90749
   9   5  -1 469.523 125.673   2 0.42966 0.22726 0.26319 0.15432 0.92710-0.90477
  -8   5   1 6.92153 48.1925   7-0.53116-0.05095 0.08276 0.33493-0.92521 0.91622
   8  -5  -1 75.4917 68.6047   4-0.01783 0.60032-0.44005 0.02275-0.88626 0.89461
   8   5  -1 -32.528 43.6350   5 0.47123 0.11090 0.17142 0.24599 0.93599-0.92713
  -8  -5   1 15.1601 47.6180   9 0.01812-0.59998-0.44067 0.02315 0.88606-0.89479
  -8   5   1 58.3749 44.9751   6-0.31046-0.27159 0.39543 0.02187-0.90628 0.89739
   8  -5  -1 16.7470 63.0385   8 0.49100 0.09076-0.14275-0.27452 0.93386-0.92520
  -8  -5   1 -15.880 72.9952   3-0.44426-0.13877-0.21123-0.20656-0.93648 0.92764
   8   5  -1 36.7920 61.1139   2 0.41807 0.16386 0.24765 0.16985 0.93507-0.92626
  -7   5   1 191.940 74.0835   7-0.52963 0.02256 0.08245 0.33522-0.92591 0.93047
   7  -5  -1 190.401 72.1234   4-0.04889 0.55639-0.36977-0.04767-0.92141 0.91631
  -7   5   1 237.456 79.0413   6-0.30298-0.20407 0.36611 0.05121-0.92011 0.92477
  -7  -5   1 159.644 64.7278   9 0.05073-0.55761-0.37235-0.04514 0.92068-0.91586
   7  -5  -1 148.191 48.9308   8 0.48564 0.02115-0.14049-0.27680 0.93625-0.94111
   7   5  -1 131.631 47.7953   5 0.46454 0.04259 0.16736 0.25007 0.93911-0.94376
  -7  -5   1 216.575 87.6621   3-0.43637-0.07159-0.20395-0.21383-0.94068 0.94537
   7   5  -1 158.289 75.0202   2 0.40979 0.09716 0.23663 0.18087 0.94041-0.94513
  -6   5   1 426.699 100.131   7-0.53738 0.10535 0.08402 0.33362-0.92232 0.94042
  -6  -5   1 382.754 80.9454   7-0.70160 0.26967 0.11791-0.53538-0.81778 0.83595
   6  -5  -1 374.195 85.0396   4-0.07780 0.51029-0.30136-0.11623-0.94876 0.93019
  -6   5   1 388.023 95.1640   6-0.29733-0.13471 0.34453 0.07280-0.92949 0.94769
  -6  -5   1 432.929 100.413   9 0.08133-0.51321-0.30538-0.11210 0.94788-0.92952
   6  -5  -1 457.182 100.613   8 0.48747-0.05565-0.14126-0.27604 0.93544-0.95382
   6   5  -1 268.507 84.1513   5 0.46403-0.03187 0.16705 0.25040 0.93935-0.95751
  -6  -5   1 418.039 91.6764   3-0.43348 0.00061-0.20130-0.21648-0.94216 0.96040
   6   5  -1 252.249 83.6475   2 0.40559 0.02637 0.23107 0.18643 0.94301-0.96126
  -5   5   1 485.503 88.8483   7-0.55845 0.20146 0.08830 0.32931-0.91203 0.94367
  -5  -5   1 -10.366 22.3917   7-0.76236 0.40540 0.13085-0.54829-0.76092 0.79262
   5  -5  -1 528.788 102.920   4-0.10446 0.46191-0.23562-0.18209-0.96919 0.93712
  -5   5   1 418.313 90.4963   6-0.29385-0.06319 0.33148 0.08585-0.93485 0.96659
   5   5  -1 494.776 74.5932   6-0.32537 0.68250 0.45715-0.03977-0.87287 0.84095
   5  -5  -1 389.168 86.4920   8 0.49917-0.14234-0.14621-0.27112 0.93012-0.96201
   5   5  -1 458.417 91.7911   5 0.47175-0.11455 0.17173 0.24574 0.93575-0.96743
  -5  -5   1 431.665 95.9391   9 0.10975-0.46665-0.24054-0.17692 0.96841-0.93652
  -5  -5   1 488.636 98.8757   3-0.43702 0.07924-0.20455-0.21322-0.94034 0.97212
   5   5  -1 351.100 78.9244   2 0.40644-0.04946 0.23219 0.18530 0.94249-0.97427
   4   5  -1 1158.33 138.314   2 0.41355-0.13157 0.24163 0.17586 0.93802-0.98332
   4   5  -1 1123.58 106.092   6-0.28331 0.56547 0.29290 0.12460-0.94935 0.90392
  -4   5   1 1167.08 141.116   6-0.29289 0.01087 0.32790 0.08942-0.93628 0.98155
  -4  -5   1 1006.01 131.167   9 0.13584-0.41776-0.17870-0.23875 0.98301-0.93759
   4  -5  -1 1208.63 115.448   9-0.02859 0.31063-0.53309 0.11554 0.82658-0.87199
   4  -5  -1 1134.75 129.437   8 0.52482-0.24295-0.15709-0.26026 0.91755-0.96295
  -4   5   1 1192.95 140.822   1 0.15547-0.43771 0.19373 0.22378 0.98080-0.93550
  -4  -5   1 1121.32 134.114   3-0.44887 0.16620-0.21550-0.20226-0.93395 0.97929
  -4  -5   1 1239.95 118.951   4 0.02464-0.30691-0.53087 0.11357-0.82872 0.87407
   4   5  -1 1031.55 122.048   5 0.49065-0.20841 0.18327 0.23425 0.92639-0.97160
   4  -5  -1 1110.60 142.860   4-0.12870 0.41111-0.17349-0.24434-0.98358 0.93799
  -4   5   1 1376.43 136.256   7-0.59920 0.31725 0.09663 0.32093-0.88980 0.93496
   3  -5  -1 1102.31 118.259   8 0.57054-0.36365-0.17668-0.24068 0.89181-0.95073
  -3   5   1 1314.93 82.2975   2 0.45947-0.66653 0.30392 0.11359 0.90375-0.84492
   3   5  -1 958.664 118.964   2 0.42845-0.22146 0.26156 0.15591 0.92796-0.98679
   3   5  -1 1090.51 108.387   6-0.24755 0.45471 0.17090 0.24671-0.98270 0.92376
  -3   5   1 989.872 122.314   6-0.29477 0.08777 0.33491 0.08241-0.93347 0.99227
  -3  -5   1 1093.80 123.604   3-0.47158 0.26405-0.23669-0.18106-0.92058 0.97946
  -3  -5   1 914.839 120.547   9 0.15938-0.36633-0.12081-0.29663 0.99248-0.93353
   3  -5  -1 1132.13 114.841   9-0.00019 0.20721-0.47768 0.06013 0.86412-0.92306
   3   5  -1 1105.06 118.473   5 0.52501-0.31773 0.20443 0.21314 0.90732-0.96608
  -3   5   1 1041.65 126.825   1 0.16846-0.37572 0.12623 0.29142 0.99194-0.93308
  -3  -5   1 1198.15 119.963   4-0.00073-0.20657-0.47734 0.06003-0.86441 0.92330
   3  -5  -1 1036.15 132.487   4-0.15038 0.35771-0.11595-0.30199-0.99282 0.93370
  -3   5   1 1326.46 124.156   7-0.66968 0.46276 0.11121 0.30630-0.84303 0.90170
  -2   5   1 -8.0487 29.4066   1 0.17895-0.31118 0.06792 0.34987 0.99769-0.92526
   2   5  -1 6.04142 26.7372   6-0.21962 0.35177 0.08286 0.33483-0.99574 0.92325
  -2   5   1 17.5001 22.3912   2 0.32117-0.45324 0.12276 0.29479 0.98155-0.90921
  -2   5   1 -37.183 40.1172   6-0.29975 0.16777 0.35373 0.06356-0.92557 0.99790
   2  -5  -1 8.46677 19.6618   8 0.64530-0.51339-0.20929-0.20809 0.83906-0.91148
  -2  -5   1 45.3531 47.0372   9 0.18019-0.31215-0.06797-0.34948 0.99769-0.92521
   2  -5  -1 36.3617 35.5431   9 0.01549 0.11652-0.44606 0.02852 0.88301-0.95548
   2   5  -1 20.6963 19.4326   5 0.58077-0.44845 0.23941 0.17823 0.87005-0.94239
  -2  -5   1 23.7441 32.4092   3-0.50843 0.37605-0.27165-0.14607-0.89543 0.96785
   2   5  -1 14.5610 33.2962   2 0.45289-0.32090 0.29483 0.12263 0.90928-0.98163
   2  -5  -1 11.3853 24.1030   4-0.16928 0.30153-0.06408-0.35394-0.99788 0.92522
   2  -5  -1 -17.909 17.3255   3-0.36943 0.50195-0.14328-0.27469-0.96972 0.89722
  -1  -5   1 55.9974 30.3776   9 0.19798-0.25496-0.02136-0.39608 0.99961-0.91361
   1   5  -1 63.7947 40.1062   6-0.19928 0.25638 0.02187 0.39588-0.99958 0.91354
   1  -5  -1 53.2502 33.8306   4-0.18520 0.24235-0.01912-0.39896-0.99980 0.91359
  -1   5   1 43.4750 29.1741   6-0.30799 0.25102 0.38564 0.03161-0.91104 0.99687
   1  -5  -1 34.9770 25.1156   9 0.02211 0.03489-0.43248 0.01494 0.89060-0.97660
   1   5  -1 112.372 41.5590   5 0.66480-0.60744 0.29393 0.12378 0.79540-0.88137
  -1  -5   1 97.5863 45.9691   3-0.56306 0.50586-0.32506-0.09261-0.84888 0.93481
  -1   5   1 37.1837 24.3657   2 0.24577-0.30283 0.03084 0.38676 0.99728-0.91140
  -1  -5   1 44.3740 15.4819   8 0.19152-0.24866-0.02013-0.39736 0.99973-0.91367
  -1   5   1 72.8187 41.0550   1 0.18711-0.24428 0.01976 0.39815 0.99978-0.91378
   0   5  -1 4035.15 221.224   2 0.53666-0.55463 0.41554 0.00188 0.81912-0.91849
   0   5  -1 3083.34 203.854   6-0.18572 0.16779-0.01749 0.43528-0.99983 0.90025
   0   5   1 3765.92 222.177   6-0.31939 0.33742 0.43180-0.01458-0.88733 0.98667
   0  -5   1 3400.17 214.159   9 0.21247-0.19447 0.01763-0.43508 0.99931-0.89977
   0  -5   1 3669.39 140.077   8 0.09760-0.07976 0.01699-0.43447 0.99636-0.89679
   0  -5  -1 3737.56 224.715   9 0.02191-0.03990-0.43290 0.01536 0.89037-0.98990
   0  -5   1 3516.24 224.258   4-0.02108 0.03881-0.43283 0.01558-0.89022 0.98974
   0   5  -1 3732.27 111.426   7-0.03232 0.01427-0.01468 0.43245-0.98881 0.88931
   0  -5  -1 3680.83 101.968   7-0.20015 0.18216 0.01740-0.43484-0.99965 0.90031
   0  -5  -1 3522.91 217.068   4-0.19787 0.17994 0.01761-0.43574-0.99969 0.89992
   0   5   1 3138.68 208.280   1 0.19309-0.17518-0.01735 0.43538 0.99977-0.90018
   1   5   1 941.195 114.893   1 0.19699-0.10399-0.04257 0.46066 0.99895-0.88579
  -1   5  -1 1147.44 133.877   6-0.17805 0.08507-0.03935 0.45717-0.99922 0.88610
   1   5   1 1150.03 123.634   6-0.33345 0.42648 0.49291-0.07573-0.85064 0.96347
  -1  -5  -1 1129.76 130.720   9 0.01636-0.10933-0.44429 0.02675 0.88402-0.99707
   1  -5   1 1127.20 120.130   9 0.22332-0.13033 0.04745-0.46490 0.99790-0.88484
   1  -5   1 1130.77 96.5648   8 0.08483 0.00798 0.02200-0.43945 0.99511-0.88203
   1   5   1 1127.03 58.7009   8 0.28375-0.19074-0.05716 0.47452 0.99268-0.87967
   1  -5   1 1112.29 128.766   4-0.01598 0.10874-0.44413 0.02692-0.88398 0.99702
  -1   5  -1 1203.80 86.0103   7-0.04265-0.05044-0.01272 0.43051-0.99032 0.87727
   2   5   1 2193.24 171.816   1 0.19888-0.03076-0.05502 0.47318 0.99831-0.87156
  -2   5  -1 2316.52 193.090   6-0.17539 0.00737-0.04685 0.46469-0.99889 0.87222
   2   5   1 2366.26 184.970   6-0.34906 0.51707 0.56871-0.15158-0.79557 0.92187
  -2  -5  -1 2449.48 200.022   9 0.00647-0.17444-0.46432 0.04678 0.87231-0.99889
   2  -5   1 2081.21 159.842   9 0.23002-0.06206 0.06620-0.48366 0.99649-0.86990
   2  -5   1 2089.83 149.216   8 0.09538 0.07241 0.01787-0.43530 0.99616-0.86956
   2   5   1 2466.04 74.3167   8 0.50453-0.33654-0.14848 0.56585 0.92759-0.80109
   2  -5   1 1973.61 177.311   4-0.00676 0.17456-0.46429 0.04713-0.87232 0.99887
  -2  -5  -1 2532.45 93.8615   7 0.00405-0.17204-0.02154-0.39599-0.98263 0.85619
  -2   5  -1 2096.66 137.593   7-0.06992-0.09821-0.00754 0.42536-0.99377 0.86718
  -3   5  -1 243.244 76.5479   6-0.17698-0.06607-0.04235 0.46019-0.99909 0.85889
   3  -5   1 214.258 52.3242   9 0.23191 0.01104 0.07152-0.48899 0.99602-0.85589
   3   5   1 198.079 56.2392   1 0.19868 0.04457-0.05371 0.47191 0.99838-0.85807
  -3  -5  -1 337.493 80.9570   9-0.00698-0.23597-0.49115 0.07359 0.85553-0.99564
   3   5   1 260.556 27.9105   8 0.00838 0.23451 0.05174 0.36561 0.98375-0.84369
   3  -5   1 162.404 47.3491   8 0.11613 0.12663 0.00971-0.42712 0.99784-0.85773
  -3  -5  -1 304.382 46.0951   7-0.09439-0.14863-0.00289-0.41462-0.99623 0.85627
  -3   5  -1 271.637 64.5750   7-0.10232-0.14086-0.00138 0.41920-0.99689 0.85675
   3  -5   1 198.692 61.1341   4 0.00589 0.23693-0.49151 0.07442-0.85547 0.99552
  -4  -5  -1 161.984 76.2097   9-0.02345-0.29449-0.52324 0.10568 0.83369-0.98734
  -4   5  -1 216.079 78.3833   6-0.18217-0.13591-0.02761 0.44545-0.99962 0.84587
   4   5   1 263.267 63.8556   1 0.19620 0.12217-0.03737 0.45558 0.99917-0.84530
  -4  -5  -1 232.520 59.6601   4-0.20729-0.11096 0.04547-0.46360-0.99859 0.84467
   4  -5   1 186.979 52.4469   9 0.22785 0.09009 0.06012-0.47760 0.99699-0.84333
   4  -5   1 140.789 56.5152   8 0.14232 0.17541-0.00061-0.41678 0.99926-0.84562
  -4   5  -1 202.155 62.4036   7-0.13695-0.18125 0.00525 0.41259-0.99902 0.84534
  -4  -5  -1 192.040 40.0208   7-0.15623-0.16181 0.00895-0.42645-0.99966 0.84616
   4  -5   1 194.055 67.9930   4 0.02147 0.29637-0.52430 0.10728-0.83340 0.98692
  -5   5  -1 23.8182 47.7473   6-0.19042-0.20269-0.00396 0.42178-0.99994 0.83266
  -5  -5  -1 48.4141 34.7402   4-0.19445-0.19882 0.00761-0.42570-0.99987 0.83244
  -5  -5  -1 32.8604 37.2449   9-0.04249-0.35044-0.55933 0.14176 0.80665-0.97383
   5  -5   1 19.9445 33.7482   9 0.21587 0.17709 0.02690-0.44440 0.99898-0.83178
   5  -5   1 49.1623 49.6426   8 0.17175 0.22095-0.01227-0.40511 0.99989-0.83274
   5   5   1 58.2360 42.2462   1 0.19100 0.20249-0.00423 0.42240 0.99993-0.83251
  -5   5  -1 185.693 69.3799   7-0.17279-0.22045 0.01213 0.40572-0.99990 0.83267
  -5  -5  -1 29.4758 28.8764   7-0.20703-0.18603 0.01873-0.43623-0.99946 0.83243
   5  -5   1 46.5285 41.8051   4 0.03959 0.35328-0.56138 0.14443-0.80587 0.97286
  -6   5  -1 1353.98 173.974   6-0.20123-0.26690 0.02764 0.39017-0.99939 0.81859
   6  -5   1 1537.86 185.084   8 0.20328 0.26439-0.02482-0.39254 0.99942-0.81875
  -6  -5  -1 62.5186 34.5173   9-0.06374-0.40418-0.59837 0.18079 0.77412-0.95484
  -6  -5  -1 1840.68 168.485   7-0.25312-0.21494 0.02767-0.44516-0.99684 0.81627
  -6   5  -1 1231.44 170.411   7-0.20933-0.25895 0.01918 0.39868-0.99938 0.81861
  -7   5  -1 261.005 100.831   6-0.21424-0.32892 0.06647 0.35132-0.99718 0.80284
   7   5   1 195.845 88.8867   2 0.24407 0.29881 0.02882 0.38881 0.99745-0.80335
   7  -5   1 308.117 105.361   8 0.23625 0.30639-0.03801-0.37932 0.99764-0.80345
  -7   5  -1 288.475 129.533   7-0.24634-0.29698 0.02635 0.39153-0.99737 0.80304
  -8   5  -1 125.237 76.4097   6-0.22907-0.38908 0.11205 0.30571-0.99241 0.78454
   8   5   1 8.64970 63.7242   2 0.26724 0.35061 0.05663 0.36099 0.99439-0.78676
   8  -5   1 180.240 99.4799   8 0.27025 0.34736-0.05170-0.36562 0.99438-0.78668
  -8   5  -1 75.1659 60.2556   7-0.28366-0.33469 0.03361 0.38428-0.99379 0.78591
  -9  -5  -1 5.92932 61.3318   3-0.29735-0.39629-0.07990-0.33807-0.98944 0.76816
   9   5   1 133.864 90.7478   2 0.29226 0.40058 0.08706 0.33056 0.98946-0.76830
 -10   6   1 73.3158 78.8700   7-0.58690-0.14526 0.09410 0.40716-0.89685 0.86071
  10  -6  -1 101.849 106.944   8 0.54164 0.19005-0.16426-0.33646 0.90859-0.87289
  10   6  -1 -0.8021 75.3687   2 0.45366 0.27825 0.29589 0.20512 0.90865-0.87278
  -9   6   1 151.655 72.7389   7-0.57720-0.07992 0.09212 0.40912-0.90220 0.87962
  -9   6   1 206.140 65.4139   6-0.32017-0.33690 0.43506 0.06573-0.88553 0.86306
  -9  -6   1 508.597 144.582   9-0.01364-0.64320-0.50421 0.00318 0.84688-0.86916
   9   6  -1 466.335 135.411   5 0.50531 0.15179 0.19227 0.30857 0.91858-0.89625
   9  -6  -1 326.190 111.143   8 0.52950 0.12722-0.15908-0.34166 0.91511-0.89293
  -9  -6   1 301.199 118.475   3-0.47256-0.18557-0.23761-0.26374-0.91997 0.89759
   9   6  -1 232.026 128.068   2 0.44113 0.21580 0.27872 0.22229 0.91863-0.89629
   9  -6  -1 366.195 108.897   4 0.01253 0.64499-0.50560 0.00486-0.84624 0.86798
   8  -6  -1 -120.00 89.0361   4-0.01683 0.59936-0.44226-0.05861-0.88503 0.89335
  -8   6   1 18.8279 63.0072   7-0.57300-0.00908 0.09126 0.40995-0.90446 0.89544
  -8   6   1 -65.764 70.0302   6-0.31236-0.26972 0.40301 0.09780-0.90250 0.89359
  -8  -6   1 38.8080 69.9108   9 0.01710-0.59895-0.44278-0.05823 0.88488-0.89360
   8   6  -1 -66.767 61.3763   5 0.49639 0.08573 0.18678 0.31407 0.92339-0.91457
   8  -6  -1 47.0425 83.8018   8 0.52171 0.06003-0.15577-0.34499 0.91914-0.91047
  -8  -6   1 68.9771 56.4994   3-0.46273-0.12033-0.22840-0.27294-0.92598 0.91713
   8   6  -1 6.75011 48.5126   2 0.43125 0.15069 0.26533 0.23568 0.92597-0.91716
  -7   6   1 129.950 74.0053   7-0.57613 0.06910 0.09190 0.40928-0.90278 0.90730
   7  -6  -1 236.505 86.1330   4-0.04415 0.55168-0.38069-0.12032-0.91644 0.91131
  -7   6   1 257.340 86.7246   6-0.30592-0.20115 0.37748 0.12335-0.91489 0.91953
  -7  -6   1 244.996 99.1170   9 0.04589-0.55276-0.38271-0.11827 0.91589-0.91107
   7  -6  -1 135.731 68.0307   8 0.51957-0.01279-0.15485-0.34592 0.92023-0.92507
   7   6  -1 155.074 75.4498   5 0.49229 0.01485 0.18427 0.31660 0.92554-0.93023
  -7  -6   1 110.739 79.9293   3-0.45682-0.05117-0.22289-0.27846-0.92945 0.93414
   7   6  -1 151.884 78.2839   2 0.42456 0.08239 0.25634 0.24468 0.93068-0.93540
  -6   6   1 9.67792 39.0270   7-0.58928 0.15729 0.09459 0.40656-0.89551 0.91357
   6  -6  -1 37.7277 47.6984   4-0.06939 0.50188-0.32157-0.17958-0.94135 0.92275
  -6   6   1 -3.8127 49.5609   6-0.30113-0.13093 0.35896 0.14188-0.92329 0.94147
   6   6  -1 54.7745 66.5468   5 0.49439-0.06221 0.18556 0.31534 0.92444-0.94264
   6  -6  -1 91.3718 76.7010   8 0.52484-0.09305-0.15710-0.34369 0.91753-0.93590
  -6  -6   1 52.5942 82.8287   3-0.45577 0.02286-0.22191-0.27944-0.93005 0.94829
  -6  -6   1 138.703 89.2963   9 0.07266-0.50454-0.32467-0.17631 0.94069-0.92233
   6   6  -1 8.62163 51.4872   2 0.42173 0.01023 0.25254 0.24846 0.93262-0.95087
   5   6  -1 2267.66 220.066   2 0.42357-0.06660 0.25500 0.24600 0.93136-0.96314
  -5   6   1 2134.45 215.072   6-0.29827-0.05877 0.34807 0.15277-0.92800 0.95972
   5   6  -1 2004.14 194.537   5 0.50456-0.14735 0.19180 0.30913 0.91900-0.95072
  -5  -6   1 2209.96 213.623   3-0.46081 0.10301-0.22661-0.27475-0.92711 0.95890
  -5  -6   1 2365.64 224.647   9 0.09727-0.45417-0.26934-0.23162 0.95997-0.92808
   5  -6  -1 2592.30 223.113   8 0.54011-0.18328-0.16361-0.33721 0.90943-0.94131
   5  -6  -1 2320.24 234.412   4-0.09244 0.44987-0.26560-0.23567-0.96056 0.92847
  -5   6   1 2448.04 206.702   7-0.61648 0.25953 0.10018 0.40094-0.87937 0.91096
  -4   6   1 64.4109 34.4578   7-0.66376 0.38183 0.10997 0.39109-0.84742 0.89252
   4  -6  -1 38.5092 43.5096   4-0.11318 0.39556-0.21355-0.28783-0.97484 0.92923
  -4   6   1 34.4072 45.4166   1 0.14712-0.42941 0.23474 0.26623 0.97162-0.92629
   4   6  -1 98.4926 49.6521   6-0.29326 0.57545 0.32927 0.17172-0.93574 0.89028
   4  -6  -1 86.8024 45.4517   9-0.02088 0.30291-0.51828 0.01723 0.83719-0.88260
  -4   6   1 65.4110 48.9102   6-0.29759 0.01557 0.34551 0.15533-0.92908 0.97434
   4   6  -1 71.1942 35.2957   5 0.52540-0.24313 0.20467 0.29630 0.90709-0.95235
   4  -6  -1 85.3385 42.4777   8 0.56902-0.28717-0.17602-0.32481 0.89274-0.93813
  -4  -6   1 22.0997 41.6784   3-0.47352 0.19084-0.23850-0.26284-0.91937 0.96470
  -4  -6   1 12.0349 35.0010   9 0.11961-0.40153-0.21745-0.28350 0.97441-0.92899
   4   6  -1 20.7815 42.6887   2 0.43104-0.14906 0.26506 0.23594 0.92611-0.97142
   3  -6  -1 501.490 93.4948   9 0.00151 0.20550-0.47427-0.02678 0.86624-0.92517
  -3   6   1 678.544 102.372   7-0.73968 0.53277 0.12599 0.37504-0.78365 0.84225
   3  -6  -1 408.008 103.963   4-0.13147 0.33879-0.16624-0.33524-0.98496 0.92582
   3   6  -1 471.650 83.2182   6-0.26520 0.47238 0.22960 0.27150-0.96895 0.90998
  -3  -6   1 433.781 100.920   9 0.13950-0.34644-0.16983-0.33112 0.98472-0.92577
   3   6  -1 541.595 94.5549   5 0.56042-0.35309 0.22654 0.27449 0.88463-0.94345
  -3   6   1 476.164 95.1566   1 0.15842-0.36570 0.17880 0.32232 0.98368-0.92480
  -3  -6   1 555.859 102.983   3-0.49591 0.28838-0.25969-0.24164-0.90448 0.96336
   3  -6  -1 442.332 84.1377   8 0.61687-0.41000-0.19679-0.30406 0.86085-0.91975
   3   6  -1 411.359 87.5563   2 0.44532-0.23833 0.28443 0.21655 0.91538-0.97421
  -3   6   1 489.541 92.5335   6-0.29933 0.09234 0.35211 0.14871-0.92627 0.98506
  -3  -6   1 543.655 95.7491   4-0.00228-0.20508-0.47401-0.02680-0.86646 0.92534
  -2  -6   1 335.171 82.5004   4-0.01403-0.11832-0.44843-0.05239-0.88155 0.95399
  -2   6   1 341.898 57.0923   2 0.38413-0.51621 0.20291 0.29814 0.95521-0.88286
  -2  -6   1 375.986 88.1293   9 0.15676-0.28873-0.12737-0.37357 0.99161-0.91912
   2  -6  -1 422.173 92.2210   4-0.14718 0.27940-0.12457-0.37699-0.99168 0.91901
   2   6  -1 451.262 84.4532   6-0.24244 0.37460 0.15437 0.34681-0.98583 0.91333
  -2   6   1 467.109 97.8508   6-0.30367 0.17169 0.36877 0.13202-0.91891 0.99121
   2  -6  -1 376.469 76.1993   9 0.01437 0.11764-0.44834-0.05270 0.88171-0.95417
  -2  -6   1 298.288 74.2517   3-0.53044 0.39808-0.29292-0.20839-0.87812 0.95053
   2   6  -1 411.882 87.1231   2 0.46765-0.33565 0.31529 0.18568 0.89656-0.96891
   2  -6  -1 477.715 86.3251   8 0.69055-0.55866-0.22948-0.27140 0.79924-0.87164
   2  -6  -1 530.091 61.9918   3-0.47091 0.60349-0.23606-0.26545-0.92100 0.84842
  -2   6   1 414.737 90.2422   1 0.16758-0.29984 0.13095 0.37031 0.99132-0.91887
   1   6  -1 4811.29 270.951   2 0.49925-0.44225 0.36016 0.14079 0.86517-0.95102
   1   6  -1 4556.79 265.012   6-0.22511 0.28224 0.09975 0.40150-0.99393 0.90788
  -1   6   1 4507.18 271.926   6-0.31071 0.25375 0.39642 0.10434-0.90579 0.99162
  -1   6   1 4621.63 220.092   2 0.31524-0.37232 0.11539 0.38570 0.98338-0.89750
  -1  -6   1 4928.33 287.927   9 0.17117-0.22815-0.09108-0.40986 0.99581-0.90980
  -1  -6   1 4792.04 265.086   3-0.57960 0.52242-0.34167-0.15959-0.83221 0.91812
   1  -6  -1 4681.28 275.883   9 0.02002 0.03699-0.43680-0.06424 0.88822-0.97421
  -1  -6   1 4873.51 282.136   4-0.01928-0.03805-0.43684-0.06397-0.88803 0.97401
   1  -6  -1 5561.16 219.111   3-0.34449 0.40183-0.12114-0.38047-0.97780 0.89177
  -1   6   1 3988.28 263.244   1 0.17471-0.23191 0.09191 0.40947 0.99575-0.90974
   1  -6  -1 4532.98 280.049   4-0.16007 0.21722-0.08953-0.41209-0.99578 0.90956
   0  -6   1 209.012 65.0076   4-0.01932 0.03701-0.43676-0.06402-0.88807 0.98758
   0  -6  -1 177.175 63.3373   9 0.01998-0.03797-0.43686-0.06418 0.88819-0.98770
   0  -6  -1 212.942 65.0098   4-0.16994 0.15199-0.06222-0.43942-0.99801 0.89825
   0   6  -1 243.978 69.4552   6-0.21290 0.19499 0.06243 0.43886-0.99749 0.89790
   0   6   1 257.990 68.5551   1 0.17991-0.16202 0.06238 0.43910 0.99805-0.89847
   0   6  -1 260.570 73.2426   2 0.54069-0.55868 0.42169 0.07924 0.81347-0.91283
   0   6   1 193.627 63.2892   6-0.32037 0.33842 0.43588 0.06484-0.88507 0.98440
   0  -6   1 142.054 58.2215   9 0.18246-0.16445-0.06209-0.43885 0.99807-0.89853
   0  -6   1 262.710 41.2146   8 0.29954-0.28174-0.06356-0.43740 0.99038-0.89078
  -1   6  -1 3747.81 257.452   6-0.20532 0.11237 0.03973 0.46159-0.99889 0.88576
   1   6   1 3726.93 244.558   6-0.33231 0.42537 0.48774 0.01293-0.85399 0.96681
   1   6   1 3270.31 208.449   2 0.24820-0.15529 0.03375 0.46738 0.99701-0.88408
   1  -6   1 3287.12 223.220   9 0.19027-0.09729-0.04172-0.45924 0.99908-0.88601
  -1  -6  -1 3909.72 264.895   9 0.01532-0.10829-0.44640-0.05464 0.88282-0.99586
   1  -6   1 3466.85 173.624   8 0.23070-0.13791-0.03579-0.46516 0.99803-0.88493
   1  -6   1 3537.83 249.176   4-0.01503 0.10776-0.44622-0.05452-0.88280 0.99584
  -1   6  -1 4049.81 150.622   7-0.26988 0.17686 0.03093 0.47035-0.99529 0.88227
  -1  -6  -1 3324.62 230.483   4-0.17646 0.08342-0.04394-0.45774-0.99902 0.88572
   1   6   1 2918.63 217.785   1 0.18321-0.09022 0.04307 0.45850 0.99907-0.88591
   2  -6   1 78.4055 44.7243   4-0.00709 0.17487-0.46358-0.03712-0.87275 0.99930
   2  -6   1 73.1028 42.8564   9 0.19414-0.02616-0.03154-0.46942 0.99941-0.87280
  -2   6  -1 106.340 58.9384   6-0.20186 0.03387 0.02948 0.47185-0.99933 0.87265
  -2  -6  -1 133.788 49.3340   4-0.17920 0.01108-0.03620-0.46548-0.99934 0.87250
   2   6   1 166.100 61.5367   6-0.34582 0.51387 0.55205-0.05143-0.80868 0.93497
  -2  -6  -1 156.145 60.6099   9 0.00680-0.17476-0.46366-0.03738 0.87271-0.99928
   2   6   1 151.285 56.2766   1 0.18462-0.01651 0.03471 0.46691 0.99939-0.87265
   2  -6   1 121.635 44.6783   8 0.20888-0.04111-0.02706-0.47387 0.99921-0.87259
  -2   6  -1 101.702 31.4512   7-0.22630 0.05823 0.02246 0.47885-0.99865 0.87207
  -3   6  -1 32.5326 48.7655   6-0.20202-0.04102 0.02996 0.47139-0.99931 0.85909
  -3  -6  -1 62.1997 40.7444   4-0.17752-0.06567-0.04094-0.46072-0.99916 0.85878
   3  -6   1 30.5283 40.7083   9 0.19336 0.04961-0.03360-0.46738 0.99935-0.85921
  -3  -6  -1 12.0650 33.3618   9-0.00500-0.23795-0.48722-0.01382 0.85807-0.99817
   3   6   1 115.724 45.5109   1 0.18404 0.05919 0.03814 0.46352 0.99926-0.85896
   3  -6   1 39.0063 33.5594   8 0.20823 0.03450-0.02680-0.47411 0.99924-0.85911
  -3   6  -1 13.2134 30.2256   7-0.22141-0.02172 0.02151 0.47983-0.99889 0.85876
   3  -6   1 42.6716 58.3972   4 0.00398 0.23884-0.48745-0.01319-0.85807 0.99813
  -4  -6  -1 631.656 107.077   4-0.17045-0.14779-0.06081-0.44081-0.99810 0.84420
  -4   6  -1 792.670 141.137   6-0.20534-0.11273 0.03981 0.46155-0.99888 0.84513
   4  -6   1 690.823 103.817   9 0.18685 0.13110-0.05066-0.45032 0.99870-0.84502
  -4  -6  -1 647.456 127.763   9-0.01964-0.29829-0.51588 0.01483 0.83887-0.99251
   4   6   1 559.827 99.4977   1 0.18128 0.13708 0.05440 0.44724 0.99852-0.84465
   4  -6   1 649.752 106.180   8 0.21912 0.09859-0.03115-0.46973 0.99873-0.84508
  -4   6  -1 715.931 106.180   7-0.23274-0.08542 0.02371 0.47766-0.99829 0.84460
   4  -6   1 573.801 114.928   4 0.01780 0.30005-0.51665 0.01608-0.83873 0.99226
  -5   6  -1 1833.17 214.192   6-0.21141-0.18170 0.05796 0.44339-0.99781 0.83052
   5  -6   1 1818.69 194.289   8 0.23704 0.15564-0.03834-0.46253 0.99758-0.83041
   5  -6   1 1456.70 193.703   4 0.03404 0.35885-0.55015 0.04967-0.81451 0.98151
   5   6   1 2204.97 205.631   1 0.17596 0.21753 0.08491 0.41669 0.99638-0.82895
  -5   6  -1 2031.82 197.367   7-0.25255-0.14065 0.02756 0.47384-0.99688 0.82965
  -5  -6  -1 1881.77 204.764   9-0.03676-0.35615-0.54860 0.04754 0.81498-0.98216
   6  -6   1 76.9732 76.5999   8 0.25958 0.20807-0.04740-0.45345 0.99556-0.81488
  -6   6  -1 84.7075 59.8176   6-0.21986-0.24827 0.08358 0.41774-0.99566 0.81484
  -6  -6  -1 100.592 73.2873   9-0.05608-0.41182-0.58446 0.08338 0.78613-0.96685
   6   6   1 -25.601 51.5846   2 0.25984 0.20806 0.04769 0.45345 0.99552-0.81494
   6  -6   1 68.3309 63.2604   4 0.05245 0.41546-0.58704 0.08663-0.78511 0.96556
  -6   6  -1 -51.006 69.1616   7-0.27737-0.19088 0.03239 0.46902-0.99450 0.81371
   7  -6   1 194.727 76.3824   8 0.28532 0.25730-0.05780-0.44303 0.99246-0.79826
  -7  -6  -1 148.642 78.2865   3-0.27978-0.26381-0.06474-0.43680-0.99263 0.79834
  -7   6  -1 161.108 85.0710   6-0.23036-0.31279 0.11608 0.38522-0.99187 0.79751
   7   6   1 137.772 94.4174   2 0.27636 0.26652 0.06766 0.43348 0.99279-0.79868
  -7   6  -1 207.904 93.4416   7-0.30542-0.23786 0.03787 0.46355-0.99095 0.79661
  -8  -6  -1 9.23961 56.4117   3-0.30208-0.31658-0.08400-0.41754-0.98848 0.78068
   8   6   1 -106.08 73.3141   2 0.29551 0.32235 0.09103 0.41011 0.98869-0.78106
  -9   7   1 11.0520 66.0781   7-0.62129-0.03580 0.10117 0.48361-0.87635 0.85372
  -9   7   1 4.44953 80.3071   6-0.32282-0.33427 0.44626 0.13804-0.87921 0.85672
  -9  -7   1 -28.604 60.4243   9-0.01555-0.64128-0.50794-0.07657 0.84435-0.86663
   9   7  -1 210.025 98.8836   5 0.53207 0.12502 0.20882 0.37546 0.90305-0.88078
   9  -7  -1 175.324 106.691   8 0.56214 0.09457-0.17306-0.41118 0.89688-0.87468
  -9  -7   1 84.9327 89.1225   3-0.49230-0.16588-0.25625-0.32867-0.90699 0.88461
   9   7  -1 77.5518 60.6713   2 0.45529 0.20163 0.29815 0.28638 0.90729-0.88494
   9  -7  -1 267.540 119.344   4 0.01428 0.64329-0.50927-0.07504-0.84377 0.86548
   8  -7  -1 690.365 161.732   4-0.01207 0.59462-0.45271-0.13173-0.87910 0.88739
  -8   7   1 782.086 160.626   7-0.62145 0.03940 0.10121 0.48354-0.87625 0.86717
  -8   7   1 941.958 179.421   6-0.31601-0.26607 0.41786 0.16645-0.89483 0.88589
  -8  -7   1 700.385 165.176   9 0.01211-0.59396-0.45293-0.13156 0.87905-0.88778
   8   7  -1 930.579 171.315   5 0.52565 0.05648 0.20483 0.37947 0.90694-0.89817
   8  -7  -1 654.579 152.268   8 0.55743 0.02430-0.17103-0.41322 0.89965-0.89097
  -8  -7   1 940.182 181.058   3-0.48441-0.09870-0.24878-0.33615-0.91233 0.90348
   8   7  -1 398.006 124.754   2 0.44701 0.13493 0.28675 0.29777 0.91404-0.90523
   7  -7  -1 98.7659 90.8255   4-0.03645 0.54397-0.39832-0.18626-0.90804 0.90288
  -7   7   1 261.284 110.744   7-0.62958 0.12257 0.10289 0.48183-0.87103 0.87550
  -7   7   1 171.552 82.1974   6-0.31047-0.19660 0.39548 0.18885-0.90626 0.91087
  -7  -7   1 82.2247 63.6059   9 0.03784-0.54471-0.39975-0.18473 0.90767-0.90285
   7   7  -1 220.971 90.9046   5 0.52414-0.01698 0.20390 0.38042 0.90784-0.91258
   7  -7  -1 305.393 106.156   8 0.55862-0.05186-0.17154-0.41273 0.89895-0.90379
  -7  -7   1 247.810 101.755   3-0.48040-0.02763-0.24498-0.33995-0.91497 0.91965
   7   7  -1 92.3363 79.4398   2 0.44179 0.06516 0.27963 0.30489 0.91812-0.92284
  -6  -7   1 643.236 139.204   3-0.48110 0.04817-0.24564-0.33929-0.91451 0.93275
   6  -7  -1 646.043 146.079   4-0.05878 0.49127-0.34668-0.23803-0.93137 0.91273
  -6   7   1 385.414 100.945   6-0.30643-0.12564 0.37951 0.20484-0.91394 0.93210
  -6  -7   1 590.563 134.152   9 0.06158-0.49346-0.34896-0.23550 0.93090-0.91254
   6   7  -1 432.789 115.048   5 0.52883-0.09663 0.20680 0.37754 0.90502-0.92328
   6  -7  -1 698.635 147.358   8 0.56742-0.13564-0.17533-0.40895 0.89371-0.91206
   6   7  -1 426.632 133.785   2 0.44023-0.00826 0.27749 0.30702 0.91932-0.93756
   5  -7  -1 13.6679 57.6961   4-0.07902 0.43645-0.29840-0.28643-0.94980 0.91767
  -5   7   1 -13.823 46.0077   6-0.30410-0.05294 0.37041 0.21393-0.91815 0.94985
  -5  -7   1 -92.016 59.8112   9 0.08321-0.44011-0.30118-0.28328 0.94938-0.91748
   5   7  -1 -36.858 51.2417   5 0.54141-0.18416 0.21464 0.36974 0.89721-0.92900
  -5  -7   1 -22.150 55.2852   3-0.48757 0.12975-0.25176-0.33317-0.91022 0.94200
   5  -7  -1 -1.2474 48.5565   8 0.58624-0.22944-0.18346-0.40085 0.88190-0.91376
   5   7  -1 0.95905 47.0707   2 0.44297-0.08600 0.28124 0.30327 0.91720-0.94898
   4  -7  -1 1120.71 170.135   4-0.09706 0.37941-0.25414-0.33079-0.96399 0.91836
   4   7  -1 1226.81 146.538   6-0.30341 0.58562 0.36774 0.21674-0.91937 0.87388
  -4  -7   1 1025.24 160.006   9 0.10263-0.38455-0.25704-0.32741 0.96370-0.91828
   4  -7  -1 1109.27 144.773   9-0.02301 0.30503-0.52238-0.06218 0.83430-0.87970
   4  -7  -1 1239.63 163.449   8 0.61837-0.33654-0.19745-0.38688 0.85975-0.90513
  -4   7   1 1035.24 154.531   6-0.30368 0.02166 0.36879 0.21556-0.91890 0.96413
   4   7  -1 952.869 132.610   5 0.56413-0.28181 0.22888 0.35555 0.88206-0.92740
  -4  -7   1 1027.96 152.200   3-0.50113 0.21846-0.26467-0.32027-0.90077 0.94610
   4   7  -1 976.097 156.231   2 0.45082-0.16885 0.29199 0.29251 0.91097-0.95627
  -4  -7   1 1175.79 151.670   4 0.01990-0.30230-0.52104-0.06327-0.83568 0.88098
  -3  -7   1 247.035 81.6678   9 0.11970-0.32664-0.21723-0.36721 0.97447-0.91551
   3  -7  -1 258.048 89.9150   4-0.11277 0.32005-0.21459-0.37043-0.97459 0.91543
   3   7  -1 235.853 71.4969   6-0.28053 0.48774 0.28297 0.30161-0.95276 0.89376
  -3   7   1 154.864 72.7769   1 0.14838-0.35569 0.22865 0.35592 0.97310-0.91418
  -3   7   1 157.759 60.5589   6-0.30534 0.09834 0.37523 0.20910-0.91594 0.97470
   3  -7  -1 203.056 64.4768   9-0.00387 0.21089-0.48499-0.09957 0.85950-0.91843
   3   7  -1 187.156 66.5425   5 0.59987-0.39249 0.25159 0.33291 0.85525-0.91415
  -3  -7   1 196.775 72.6431   3-0.52339 0.31587-0.28607-0.29886-0.88387 0.94273
   3   7  -1 138.020 59.1193   2 0.46467-0.25769 0.31112 0.27336 0.89923-0.95805
   3  -7  -1 240.422 71.5666   8 0.66818-0.46133-0.21946-0.36490 0.81978-0.87865
  -3  -7   1 196.433 63.2804   4 0.00264-0.21005-0.48457-0.09975-0.85989 0.91875
   2   7  -1 1831.06 189.674   2 0.48542-0.35344 0.34033 0.24414 0.87965-0.95199
   2   7  -1 1954.77 194.467   6-0.26149 0.39368 0.21704 0.36763-0.97224 0.89971
  -2   7   1 1981.07 203.572   6-0.30920 0.17724 0.39043 0.19387-0.90873 0.98102
  -2  -7   1 1943.75 202.081   9 0.13425-0.26621-0.18254-0.40191 0.98224-0.90975
   2  -7  -1 1858.15 187.955   9 0.00752 0.12449-0.46221-0.12234 0.87358-0.94604
  -2  -7   1 2095.90 202.651   3-0.55615 0.42381-0.31818-0.26671-0.85547 0.92786
   2   7  -1 2512.26 214.787   5 0.65204-0.51962 0.28549 0.29909 0.80846-0.88095
  -2   7   1 1941.98 210.461   1 0.15651-0.28879 0.18847 0.39624 0.98184-0.90936
  -2  -7   1 2216.21 211.171   4-0.00776-0.12463-0.46212-0.12222-0.87361 0.94602
   2  -7  -1 1933.76 212.742   4-0.12601 0.25821-0.18050-0.40459-0.98219 0.90950
   0  -7   1 515.233 134.947   4-0.01306 0.03072-0.45054-0.13377-0.88034 0.97984
   0  -7  -1 50.9763 39.8550   4-0.14435 0.12636-0.13215-0.45303-0.99061 0.89084
   0   7  -1 147.869 125.630   6-0.23555 0.21766 0.13239 0.45239-0.98951 0.88990
   0   7   1 214.002 65.4230   2 0.33040-0.31251 0.13433 0.45028 0.97850-0.87909
   0   7  -1 217.965 85.3882   2 0.55034-0.56834 0.43656 0.14787 0.79929-0.89865
   0   7   1 95.1892 49.1074   6-0.32364 0.34172 0.44975 0.13447-0.87720 0.97651
   0  -7   1 197.401 95.9272   9 0.15491-0.13691-0.13197-0.45248 0.99096-0.89142
   0  -7  -1 115.974 56.3073   9 0.01323-0.03121-0.45066-0.13387 0.88037-0.97988
   0   7   1 89.1114 55.6116   1 0.16736-0.14948 0.13212 0.45283 0.99116-0.89155
   0  -7  -1 139.798 54.4785   3-0.36077 0.34295-0.13556-0.44967-0.97268 0.87309
   1  -7   1 632.642 123.752   4-0.00960 0.10232-0.45811-0.12618-0.87597 0.98900
  -1  -7  -1 563.562 94.6131   3-0.32000 0.22699-0.09961-0.48562-0.98443 0.87131
   1   7   1 327.035 77.7253   1 0.17015-0.07716 0.11709 0.46793 0.99307-0.87990
  -1  -7  -1 624.588 120.986   4-0.14891 0.05584-0.11988-0.46529-0.99231 0.87900
  -1   7  -1 505.837 120.263   6-0.22831 0.13538 0.10968 0.47514-0.99271 0.87956
   1   7   1 490.435 112.674   6-0.33390 0.42698 0.49496 0.08922-0.84930 0.96210
  -1  -7  -1 584.481 109.789   9 0.00949-0.10246-0.45825-0.12629 0.87593-0.98898
   1   7   1 369.961 79.6022   2 0.30370-0.21080 0.10111 0.48352 0.98662-0.87369
   1  -7   1 535.754 99.5909   9 0.16043-0.06745-0.11819-0.46626 0.99282-0.87974
  -2   7  -1 2928.10 252.716   6-0.22451 0.05653 0.09787 0.48697-0.99414 0.86746
   2   7   1 3231.21 254.286   6-0.34557 0.51364 0.55077 0.03335-0.80966 0.93594
   2   7   1 3089.34 231.479   2 0.28830-0.12039 0.08220 0.50245 0.99036-0.86389
   2  -7   1 3217.20 242.021   9 0.16218 0.00579-0.11380-0.47066 0.99336-0.86675
  -2  -7  -1 3575.24 290.441   9 0.00223-0.17019-0.47284-0.11170 0.86712-0.99369
  -2  -7  -1 3410.25 237.253   3-0.29767 0.12953-0.08019-0.50504-0.98938 0.86272
   2  -7   1 3489.73 206.429   8 0.32382-0.15609-0.07344-0.51098 0.98621-0.85956
   2  -7   1 3085.42 265.151   4-0.00284 0.17060-0.47279-0.11145-0.86720 0.99374
   2   7   1 2932.79 243.080   1 0.17114-0.00304 0.11165 0.47342 0.99371-0.86696
  -2  -7  -1 3220.38 248.453   4-0.14990-0.01825-0.11724-0.46795-0.99265 0.86581
  -3  -7  -1 506.482 103.659   3-0.28798 0.04470-0.07181-0.51340-0.99122 0.85102
   3   7   1 571.465 109.332   1 0.17025 0.07298 0.11652 0.46859 0.99314-0.85282
  -3  -7  -1 437.791 108.762   9-0.00808-0.23486-0.49331-0.09123 0.85412-0.99422
  -3  -7  -1 452.488 98.0033   4-0.14672-0.09649-0.12580-0.45936-0.99151 0.85113
  -3   7  -1 502.530 116.475   6-0.22379-0.01923 0.09566 0.48919-0.99439 0.85417
   3  -7   1 585.725 106.483   9 0.15950 0.08347-0.12053-0.46395 0.99252-0.85237
   3   7   1 361.732 84.0520   2 0.28152-0.03862 0.07394 0.51072 0.99179-0.85179
   3   7   1 -23.828 25.0535   6-0.35771 0.60076 0.61670-0.03264-0.75428 0.89403
   3  -7   1 543.010 93.7108   8 0.30385-0.06114-0.06531-0.51909 0.98970-0.84954
   3  -7   1 477.996 119.115   4 0.00683 0.23598-0.49353-0.09066-0.85417 0.99422
  -4  -7  -1 775.424 133.963   3-0.28730-0.03109-0.07122-0.51397-0.99134 0.83761
  -4  -7  -1 950.268 136.775   4-0.13848-0.17977-0.14776-0.43735-0.98819 0.83429
  -4   7  -1 566.415 111.728   6-0.22585-0.09221 0.10201 0.48284-0.99366 0.83989
   4  -7   1 671.212 111.121   9 0.15138 0.16658-0.14070-0.44379 0.98968-0.83600
  -4  -7  -1 853.574 165.143   9-0.02108-0.29685-0.51866-0.06589 0.83693-0.99056
   4   7   1 620.514 135.286   2 0.28143 0.03647 0.07383 0.51083 0.99180-0.83827
   4  -7   1 777.454 127.093   8 0.30045 0.01724-0.06393-0.52045 0.99024-0.83657
   4   7   1 832.997 135.890   1 0.16728 0.15108 0.13255 0.45254 0.99110-0.83721
   4  -7   1 638.914 134.286   4 0.01908 0.29877-0.51934-0.06478-0.83687 0.99040
  -5  -7  -1 216.098 87.4331   3-0.29328-0.10021-0.07638-0.50878-0.99024 0.82297
  -5   7  -1 343.098 110.603   6-0.23035-0.16274 0.11605 0.46879-0.99187 0.82456
   5   7   1 324.128 112.632   2 0.28663 0.10626 0.08017 0.50448 0.99072-0.82367
  -5  -7  -1 356.453 126.062   9-0.03646-0.35645-0.54804-0.03652 0.81541-0.98258
   5  -7   1 264.750 86.0056   8 0.30734 0.08534-0.06673-0.51763 0.98913-0.82195
   5   7   1 324.871 84.7679   1 0.16191 0.23159 0.16089 0.42415 0.98683-0.81937
   5  -7   1 242.404 97.6394   4 0.03366 0.35925-0.54938-0.03468-0.81510 0.98210
  -6  -7  -1 95.3309 63.3091   3-0.30432-0.16427-0.08594-0.49920-0.98801 0.80722
  -6   7  -1 145.499 71.9179   6-0.23704-0.23109 0.13711 0.44772-0.98877 0.80792
   6   7   1 140.467 87.1484   2 0.29606 0.17183 0.09172 0.49294 0.98856-0.80797
  -6  -7  -1 180.052 110.855   9-0.05400-0.41390-0.58065-0.00391 0.78933-0.97004
   6  -7   1 183.690 100.163   8 0.32108 0.14657-0.07232-0.51203 0.98672-0.80602
   6  -7   1 98.5693 62.2825   4 0.05034 0.41760-0.58287-0.00111-0.78859 0.96905
  -7  -7  -1 -6.6942 64.3310   3-0.31928-0.22438-0.09899-0.48614-0.98460 0.79029
  -7  -7  -1 -163.85 77.5613   9-0.07348-0.46940-0.61581 0.03125 0.75837-0.95263
   7  -7   1 6.24217 55.8220   8 0.33963 0.20298-0.07989-0.50444 0.98306-0.78884
  -7   7  -1 -38.982 56.2586   6-0.24563-0.29752 0.16465 0.42015-0.98393 0.78954
   7   7   1 9.38863 82.2374   2 0.30893 0.23395 0.10758 0.47708 0.98520-0.79109
  -7   7  -1 70.6224 57.6408   7-0.37323-0.17000 0.05119 0.53376-0.97846 0.78409
  -9   8   1 -2.1894 75.8323   6-0.32678-0.33034 0.46324 0.20457-0.86924 0.84671
   9  -8  -1 45.2811 114.130   4 0.01932 0.63826-0.51983-0.14806-0.83652 0.85819
   8  -8  -1 357.085 122.749   8 0.59738-0.01566-0.18829-0.47945 0.87452-0.86583
  -8   8   1 379.357 131.110   6-0.32085-0.26126 0.43791 0.22993-0.88394 0.87496
  -8  -8   1 430.257 144.296   9 0.00419-0.58604-0.46891-0.19908 0.86953-0.87826
   8   8  -1 567.627 146.286   5 0.55824 0.02390 0.22517 0.44256 0.88613-0.87743
  -8  -8   1 488.429 142.382   3-0.50856-0.07458-0.27178-0.39673-0.89533 0.88646
   8  -8  -1 489.553 164.510   4-0.00457 0.58713-0.46906-0.19897-0.86946 0.87771
   7  -8  -1 -43.235 75.2275   4-0.02653 0.53406-0.42067-0.24748-0.89671 0.89150
  -7   8   1 136.706 105.742   6-0.31608-0.19101 0.41815 0.24970-0.89468 0.89925
  -7  -8   1 -11.357 52.2111   9 0.02741-0.53428-0.42153-0.24644 0.89650-0.89169
   7   8  -1 46.9465 61.7331   5 0.55925-0.05206 0.22580 0.44195 0.88544-0.89026
   7   8  -1 -0.7664 68.2513   2 0.46078 0.04618 0.30573 0.36231 0.90263-0.90734
  -7  -8   1 19.5812 60.1518   3-0.50632-0.00173-0.26963-0.39889-0.89699 0.90167
   7  -8  -1 138.062 90.1619   8 0.60189-0.09515-0.19025-0.47752 0.87144-0.87626
   6  -8  -1 319.783 135.877   4-0.04654 0.47901-0.37520-0.29308-0.91896 0.90028
  -6   8   1 303.433 130.254   6-0.31268-0.11940 0.40429 0.26357-0.90185 0.91997
  -6  -8   1 280.103 104.610   9 0.04867-0.48056-0.37677-0.29119 0.91865-0.90030
   6   8  -1 178.747 85.3119   5 0.56640-0.13416 0.23032 0.43748 0.88047-0.89881
  -6  -8   1 224.854 89.4407   3-0.50863 0.07569-0.27184-0.39668-0.89528 0.91350
   6   8  -1 317.803 113.366   2 0.46033-0.02837 0.30511 0.36292 0.90301-0.92125
   6  -8  -1 529.565 129.477   8 0.61414-0.18238-0.19560-0.47219 0.86282-0.88115
   5  -8  -1 46.7783 74.8796   4-0.06452 0.42192-0.33315-0.33524-0.93685 0.90468
  -5  -8   1 66.4278 56.0655   9 0.06790-0.42480-0.33514-0.33282 0.93657-0.90468
   5   8  -1 42.4435 56.0306   5 0.58122-0.22393 0.23969 0.42813 0.86971-0.90159
   5   8  -1 -8.0648 66.1630   2 0.46389-0.10692 0.31005 0.35798 0.89991-0.93168
  -5  -8   1 53.3586 83.2562   3-0.51640 0.15858-0.27932-0.38922-0.88937 0.92114
   5  -8  -1 98.9776 102.188   8 0.63634-0.27956-0.20534-0.46246 0.84617-0.87801
   4  -8  -1 183.985 86.7505   4-0.08039 0.36271-0.29510-0.37338-0.95095 0.90527
  -4   8   1 233.648 106.749   6-0.31058 0.02857 0.39591 0.27195-0.90605 0.95125
  -4  -8   1 42.2642 61.4141   9 0.08498-0.36690-0.29719-0.37075 0.95078-0.90535
   4   8  -1 286.801 93.0913   5 0.60562-0.32326 0.25528 0.41260 0.85056-0.89599
  -4  -8   1 140.946 77.0208   3-0.53073 0.24805-0.29320-0.37534-0.87788 0.92320
   4   8  -1 35.4182 52.1892   2 0.47207-0.19010 0.32148 0.34653 0.89253-0.93782
  -3  -8   1 75.5175 51.2655   9 0.09979-0.30673-0.26356-0.40439 0.96175-0.90279
   3  -8  -1 70.8132 74.1832   4-0.09404 0.30128-0.26164-0.40692-0.96176 0.90257
   3   8  -1 -43.182 53.5227   6-0.29433 0.50156 0.33328 0.33479-0.93413 0.87508
  -3   8   1 16.0286 64.0035   6-0.31218 0.10519 0.40230 0.26553-0.90285 0.96158
   3  -8  -1 159.156 68.1619   9-0.01356 0.22057-0.50405-0.16402 0.84699-0.90591
   3   8  -1 101.553 83.5528   5 0.64191-0.43448 0.27883 0.38913 0.81835-0.87735
  -3  -8   1 59.8736 46.1940   3-0.55286 0.34536-0.31493-0.35360-0.85852 0.91736
   3   8  -1 91.5060 93.6382   2 0.48556-0.27859 0.34054 0.32746 0.87951-0.93832
  -3  -8   1 142.778 67.1528   4 0.01149-0.21896-0.50341-0.16443-0.84770 0.90652
   2  -8  -1 -0.7743 45.1167   4-0.10534 0.23749-0.23342-0.43520-0.96978 0.89706
   2   8  -1 51.0701 47.2221   6-0.27810 0.41032 0.27438 0.39377-0.95561 0.88305
  -2   8   1 -15.943 48.8957   6-0.31566 0.18371 0.41644 0.25136-0.89558 0.96783
  -2  -8   1 69.1400 69.9156   9 0.11218-0.24414-0.23488-0.43307 0.96994-0.89745
   2  -8  -1 20.9637 49.5883   9-0.00295 0.13496-0.48315-0.18490 0.86067-0.93312
   2   8  -1 53.4971 46.4235   2 0.50504-0.37306 0.36854 0.29943 0.85873-0.93106
  -2  -8   1 -3.8148 50.6569   3-0.58413 0.45182-0.34626-0.32224-0.82740 0.89975
  -2  -8   1 73.5659 67.8729   4 0.00184-0.13429-0.48286-0.18499-0.86097 0.93334
   1  -8  -1 412.288 104.842   4-0.11412 0.17118-0.21115-0.45751-0.97542 0.88916
  -1  -8   1 588.465 124.775   3-0.62557 0.56844-0.38918-0.27927-0.77790 0.86373
   1   8  -1 323.908 82.6605   6-0.26505 0.32221 0.22908 0.43914-0.96909 0.88299
  -1   8   1 439.871 118.540   6-0.32108 0.26414 0.43885 0.22892-0.88341 0.96919
  -1   8   1 357.035 94.2141   1 0.15114-0.20836 0.21517 0.45313 0.97624-0.89015
  -1  -8   1 385.620 103.201   9 0.12195-0.17893-0.21191-0.45604 0.97576-0.88973
   1  -8  -1 425.092 114.096   9 0.00235 0.05466-0.47259-0.19545 0.86728-0.95326
   1   8  -1 405.029 98.8270   2 0.53098-0.47400 0.40696 0.26100 0.82683-0.91267
  -1  -8   1 404.655 110.914   4-0.00301-0.05440-0.47243-0.19543-0.86742 0.95334
   0   8   1 265.380 86.1211   2 0.38115-0.36327 0.19904 0.46906 0.95676-0.85734
   0  -8  -1 138.523 67.2401   4-0.12016 0.10214-0.19564-0.47305-0.97898 0.87919
   0   8  -1 147.437 73.8567   2 0.56344-0.58145 0.45716 0.21077 0.77846-0.87781
   0   8  -1 242.798 86.0667   6-0.25517 0.23730 0.19592 0.47236-0.97735 0.87771
   0  -8   1 330.137 96.8069   9 0.12886-0.11085-0.19547-0.47249 0.97952-0.87996
   0   8   1 278.684 83.9879   6-0.32832 0.34641 0.46997 0.19776-0.86516 0.96443
   0   8   1 264.766 85.2711   1 0.15513-0.13725 0.19540 0.47300 0.98046-0.88081
   0  -8  -1 178.270 79.2393   9 0.00323-0.02121-0.47083-0.19721 0.86836-0.96787
   0  -8   1 273.217 83.2030   4-0.00382 0.02144-0.47069-0.19716-0.86848 0.96794
  -1  -8  -1 194.069 95.5084   4-0.12320 0.03009-0.18781-0.48089-0.98068 0.86735
   1   8   1 201.081 71.3908   2 0.35363-0.26073 0.16367 0.50446 0.96963-0.85668
  -1   8  -1 101.701 45.5562   6-0.24836 0.15545 0.17356 0.49476-0.98217 0.86900
  -1  -8  -1 319.268 106.999   9 0.00036-0.09333-0.47657-0.19147 0.86481-0.97785
   1  -8   1 211.460 78.7234   9 0.13259-0.03960-0.18653-0.48144 0.98142-0.86834
   1   8   1 116.379 52.8134   1 0.15747-0.06449 0.18361 0.48486 0.98278-0.86957
   1   8   1 185.836 78.9964   6-0.33720 0.43030 0.51017 0.15751-0.83909 0.95187
  -1  -8  -1 87.2880 37.0404   3-0.38922 0.29626-0.16102-0.50781-0.96228 0.84912
   1  -8   1 236.684 82.2734   4-0.00113 0.09381-0.47648-0.19135-0.86494 0.97794
  -2  -8  -1 189.821 84.7979   4-0.12283-0.04535-0.18876-0.47993-0.98048 0.85361
   2   8   1 123.436 52.4465   2 0.33613-0.16825 0.14153 0.52661 0.97647-0.85000
  -2   8  -1 146.751 78.8603   6-0.24444 0.07649 0.16083 0.50751-0.98465 0.85793
   2  -8   1 144.532 69.3649   9 0.13270 0.03528-0.18626-0.48172 0.98148-0.85486
   2   8   1 188.098 88.6489   6-0.34729 0.51540 0.55952 0.10809-0.80288 0.92913
  -2  -8  -1 207.098 101.115   9-0.00577-0.16219-0.48874-0.17930 0.85709-0.98366
   2   8   1 44.6196 59.6277   1 0.15811 0.00999 0.18036 0.48817 0.98339-0.85660
  -2  -8  -1 124.733 59.0402   3-0.36195 0.19382-0.13662-0.53222-0.97229 0.84559
   2  -8   1 186.613 83.0380   4 0.00460 0.16314-0.48876-0.17903-0.85723 0.98375
  -3  -8  -1 54.3381 50.9313   4-0.11852-0.12472-0.19986-0.46879-0.97804 0.83765
  -3   8  -1 46.2411 54.5609   6-0.24318 0.00018 0.15677 0.51158-0.98540 0.84515
   3   8   1 94.7186 66.4645   2 0.32661-0.08372 0.12957 0.53859 0.97979-0.83978
   3  -8   1 176.513 74.3733   9 0.12859 0.11439-0.19613-0.47186 0.97937-0.83922
   3   8   1 -22.256 41.6114   6-0.35788 0.60097 0.61775 0.04981-0.75332 0.89303
  -3  -8  -1 171.610 102.019   9-0.01476-0.22819-0.50639-0.16164 0.84541-0.98551
   3   8   1 49.1574 62.4929   1 0.15695 0.08628 0.18624 0.48230 0.98228-0.84191
   3  -8   1 36.4506 48.3784   4 0.01305 0.22975-0.50667-0.16107-0.84552 0.98554
  -3  -8  -1 187.349 81.6194   3-0.34704 0.10375-0.12339-0.54543-0.97704 0.83682
  -4   8  -1 299.559 108.794   6-0.24435-0.07370 0.16054 0.50781-0.98470 0.83091
   4   8   1 150.047 82.9579   2 0.32346-0.00558 0.12564 0.54252 0.98082-0.82729
   4   8   1 354.249 104.244   1 0.15380 0.16456 0.20201 0.46652 0.97910-0.82516
  -4  -8  -1 526.811 152.913   9-0.02630-0.29162-0.52870-0.13933 0.82977-0.98340
   4  -8   1 226.044 97.9633   4 0.02393 0.29392-0.52940-0.13828-0.82977 0.98329
  -4  -8  -1 291.481 100.760   3-0.34127 0.02286-0.11830-0.55050-0.97875 0.82499
   5  -8   1 37.2950 59.2408   8 0.38187 0.01078-0.09723-0.57063 0.97290-0.80569
  -5   8  -1 -11.698 83.3463   6-0.24772-0.14537 0.17145 0.49691-0.98259 0.81526
   5   8   1 -67.303 63.9759   2 0.32549 0.06738 0.12818 0.53998 0.98015-0.81310
   5   8   1 9.14110 67.1614   1 0.14839 0.24511 0.22858 0.43989 0.97312-0.80560
  -5  -8  -1 4.11678 73.0437   9-0.04015-0.35276-0.55496-0.11308 0.81007-0.97724
   5  -8   1 96.0888 68.9471   4 0.03704 0.35587-0.55624-0.11137-0.80986 0.97685
  -5  -8  -1 -21.150 53.8452   3-0.34245-0.05108-0.11934-0.54944-0.97840 0.81111
   6   8   1 238.240 98.2172   2 0.33177 0.13610 0.13604 0.53212 0.97802-0.79743
  -6   8  -1 62.2026 68.9076   6-0.25305-0.21507 0.18891 0.47943-0.97892 0.79804
  -6  -8  -1 103.628 97.3262   9-0.05609-0.41180-0.58448-0.08357 0.78611-0.96682
   6  -8   1 185.212 60.5118   8 0.38705 0.08057-0.09937-0.56846 0.97147-0.79076
   6  -8   1 200.167 100.065   4 0.05218 0.41577-0.58652-0.08102-0.78555 0.96600
  -6  -8  -1 267.248 101.457   3-0.34903-0.11960-0.12515-0.54360-0.97643 0.79562
   7   8   1 -239.89 102.538   2 0.34156 0.20131 0.14836 0.51979 0.97446-0.78034
  -7  -8  -1 -30.611 63.2085   9-0.07395-0.46893-0.61664-0.05142 0.75760-0.95186
  -7  -8  -1 186.686 131.877   3-0.35989-0.18382-0.13478-0.53395-0.97297 0.77863
   7   9  -1 78.0729 79.5922   5 0.59686-0.08965 0.24967 0.50153 0.85765-0.86257
   6  -9  -1 101.986 97.4662   4-0.03298 0.46542-0.40617-0.34566-0.90415 0.88541
  -6   9   1 118.465 90.3037   6-0.31948-0.11260 0.43216 0.31921-0.88713 0.90521
  -6  -9   1 83.1740 85.3045   9 0.03432-0.46621-0.40713-0.34433 0.90397-0.88563
   6   9  -1 79.6630 79.2617   5 0.60629-0.17402 0.25571 0.49552 0.85001-0.86845
  -6  -9   1 291.043 111.781   3-0.53773 0.10477-0.30003-0.45210-0.87198 0.89019
   6   9  -1 162.619 106.574   2 0.48152-0.04957 0.33480 0.41674 0.88352-0.90175
   5  -9  -1 146.625 101.415   4-0.04910 0.40647-0.36928-0.38265-0.92163 0.88941
  -5   9   1 48.5883 78.1475   6-0.31796-0.03908 0.42589 0.32548-0.89055 0.92217
  -5  -9   1 -14.524 87.9938   9 0.05155-0.40846-0.37061-0.38084 0.92147-0.88958
  -5  -9   1 -28.300 59.3365   3-0.54662 0.18881-0.30877-0.44338-0.86419 0.89594
   5   9  -1 79.1889 80.3545   2 0.48575-0.12880 0.34081 0.41072 0.87932-0.91107
   4  -9  -1 730.446 162.758   4-0.06318 0.34548-0.33631-0.41571-0.93559 0.88987
  -4   9   1 985.719 184.241   6-0.31793 0.03592 0.42575 0.32561-0.89062 0.93578
  -4  -9   1 425.098 123.682   9 0.06671-0.34862-0.33777-0.41369 0.93552-0.89009
  -4  -9   1 459.915 135.186   3-0.56155 0.27890-0.32356-0.42858-0.85034 0.89561
   4   9  -1 647.744 140.537   2 0.49420-0.21224 0.35288 0.39865 0.87060-0.91588
   3  -9  -1 -52.848 75.3999   4-0.07514 0.28234-0.30777-0.44432-0.94647 0.88722
  -3  -9   1 59.1421 53.7225   9 0.07966-0.28659-0.30912-0.44232 0.94652-0.88757
   3   9  -1 -63.120 74.3327   6-0.30698 0.51424 0.38167 0.36989-0.91293 0.85383
   3   9  -1 17.0526 53.0649   2 0.50736-0.30039 0.37193 0.37958 0.85609-0.91489
   3  -9  -1 -28.935 60.6544   9-0.02615 0.23317-0.52843-0.22314 0.82997-0.88889
  -3  -9   1 22.9835 49.8328   3-0.58350 0.37602-0.34562-0.40651-0.82807 0.88687
  -3   9   1 51.4308 66.0112   6-0.31947 0.11250 0.43215 0.31919-0.88713 0.94583
  -3  -9   1 -48.124 61.7038   4 0.02303-0.23056-0.52755-0.22381-0.83110 0.88987
   2   9  -1 1418.58 207.908   2 0.52569-0.39373 0.39902 0.35247 0.83377-0.90608
   2  -9  -1 1280.41 198.729   4-0.08484 0.21695-0.28425-0.46790-0.95461 0.88185
   2   9  -1 1531.47 213.513   6-0.29299 0.42522 0.32827 0.42337-0.93613 0.86352
  -2   9   1 1481.84 223.825   6-0.32264 0.19070 0.44548 0.30583-0.87966 0.95187
   2  -9  -1 1563.69 218.888   9-0.01594 0.14795-0.50870-0.24286 0.84383-0.91628
  -2  -9   1 1546.93 209.630   9 0.09027-0.22222-0.28528-0.46617 0.95483-0.88234
  -2  -9   1 1280.46 195.530   4 0.01378-0.14628-0.50823-0.24315-0.84447 0.91679
  -1  -9   1 241.437 91.9347   9 0.09835-0.15533-0.26687-0.48459 0.96073-0.87471
   1  -9  -1 54.6538 47.6950   4-0.09213 0.14915-0.26634-0.48583-0.96033 0.87404
   1   9  -1 102.503 85.9003   6-0.28150 0.33869 0.28642 0.46528-0.95159 0.86545
   1   9  -1 180.627 80.7507   2 0.54951-0.49253 0.43526 0.31620 0.80055-0.88638
  -1   9   1 139.056 89.7471   6-0.32745 0.27053 0.46615 0.28513-0.86749 0.95322
   1  -9  -1 159.782 63.8742   9-0.01051 0.06752-0.49808-0.25347 0.85098-0.93696
  -1  -9   1 69.4775 45.3363   4 0.00885-0.06632-0.49781-0.25358-0.85139 0.93726
   0  -9  -1 4.54435 61.8755   4-0.09681 0.07874-0.25476-0.49743-0.96381 0.86398
   0   9   1 114.939 79.3680   6-0.33380 0.35191 0.49451 0.25673-0.84960 0.94884
   0  -9  -1 -92.601 74.0596   9-0.00911-0.00887-0.49533-0.25622 0.85280-0.95231
   0  -9   1 -45.041 82.3484   9 0.10368-0.08568-0.25461-0.49685 0.96441-0.86486
   0  -9   1 -23.502 50.8787   4 0.00760 0.00998-0.49517-0.25621-0.85311 0.95253
  -1  -9  -1 -15.716 51.1188   4-0.09860 0.00544-0.25031-0.50189-0.96510 0.85174
  -1   9  -1 4.89934 57.3309   6-0.26625 0.17336 0.23320 0.51860-0.96797 0.85476
   1   9   1 -38.746 63.0398   6-0.34153 0.43465 0.53079 0.22038-0.82455 0.93729
  -1  -9  -1 111.456 86.8891   9-0.01118-0.08179-0.49939-0.25215 0.85011-0.96315
   1  -9   1 54.2114 56.9350   9 0.10595-0.01295-0.24938-0.50209 0.96593-0.85284
   1  -9   1 163.922 99.3477   4 0.00957 0.08307-0.49935-0.25202-0.85038 0.96333
   1   9   1 93.9693 55.0042   2 0.39933-0.30645 0.22280 0.52883 0.94675-0.83379
   2   9   1 886.953 155.731   2 0.38061-0.21274 0.19836 0.55329 0.95704-0.83056
  -2  -9  -1 1149.10 182.955   4-0.09714-0.07108-0.25393-0.49824-0.96405 0.83716
  -2   9  -1 1092.58 190.855   6-0.26235 0.09442 0.21997 0.53186-0.97149 0.84474
   2  -9   1 1129.61 173.596   9 0.10474 0.06325-0.25217-0.49931 0.96512-0.83850
   2   9   1 1191.09 192.651   6-0.35028 0.51841 0.57511 0.17601-0.79038 0.91660
  -2  -9  -1 1436.76 221.211   9-0.01629-0.15167-0.50938-0.24215 0.84336-0.96993
   2  -9   1 941.162 183.546   4 0.01439 0.15331-0.50951-0.24183-0.84361 0.97008
  -3  -9  -1 23.9396 61.6674   4-0.09194-0.15134-0.26683-0.48531-0.96018 0.81975
   3   9   1 52.2013 51.9958   2 0.36916-0.12628 0.18356 0.56811 0.96269-0.82268
  -3   9  -1 -1.4962 72.6838   6-0.26076 0.01778 0.21459 0.53726-0.97286 0.83257
   3  -9   1 -53.845 75.1155   9 0.09948 0.14350-0.26429-0.48721 0.96152-0.82137
  -3  -9  -1 -140.89 124.684   9-0.02412-0.21882-0.52451-0.22702 0.83278-0.97288
  -3  -9  -1 -38.613 56.0051   3-0.40394 0.16067-0.17433-0.57811-0.95614 0.81588
   3  -9   1 -5.5180 71.2711   4 0.02176 0.22101-0.52491-0.22639-0.83297 0.97295
   4   9   1 135.452 76.2424   2 0.36370-0.04583 0.17655 0.57513 0.96522-0.81168
  -4   9  -1 397.004 127.938   6-0.26130-0.05673 0.21641 0.53545-0.97240 0.81857
  -4  -9  -1 511.788 162.006   9-0.03438-0.28354-0.54410-0.20744 0.81840-0.97203
  -4  -9  -1 303.072 112.419   3-0.39410 0.07568-0.16542-0.58699-0.96031 0.80651
   4  -9   1 452.952 140.853   4 0.03145 0.28638-0.54488-0.20637-0.81847 0.97195
   5   9   1 10.7514 50.6567   2 0.36322 0.02966 0.17593 0.57574 0.96544-0.79838
  -5   9  -1 -246.05 128.870   6-0.26380-0.12927 0.22485 0.52700-0.97022 0.80285
  -5  -9  -1 133.482 108.971   9-0.04687-0.34604-0.56750-0.18403 0.80014-0.96731
  -5  -9  -1 -82.143 80.8222   3-0.39127-0.00227-0.16287-0.58952-0.96146 0.79413
   5  -9   1 -79.136 61.1430   4 0.04328 0.34962-0.56881-0.18237-0.80001 0.96697
   6   9   1 56.3228 69.8489   2 0.36690 0.10097 0.18065 0.57103 0.96376-0.78316
  -6   9  -1 74.2135 82.2361   6-0.26807-0.20002 0.23944 0.51240-0.96623 0.78532
  -6  -9  -1 -34.675 64.6431   9-0.06139-0.40650-0.59413-0.15742 0.77783-0.95854
   6   9   1 -32.210 62.1844   5 0.42788 0.03990 0.14525 0.60544 0.95463-0.77469
  -6  -9  -1 -91.947 75.3818   3-0.39402-0.07463-0.16535-0.58701-0.96034 0.77948
   7   9   1 -53.730 73.8501   5 0.43408 0.10865 0.14897 0.60172 0.95219-0.75875
  -5 -10   1 1271.85 241.223   3-0.57768 0.21987-0.33973-0.49602-0.83421 0.86592
  -4  10   1 -42.264 87.1993   6-0.32547 0.04347 0.45759 0.37727-0.87261 0.91773
   4  10  -1 67.9863 87.5419   2 0.51676-0.23482 0.38574 0.44929 0.84496-0.89022
  -4 -10   1 1.59996 82.8282   9 0.04780-0.32973-0.37864-0.45630 0.91779-0.87237
  -4 -10   1 124.397 85.6755   3-0.59305 0.31040-0.35535-0.48040-0.81761 0.86285
   3 -10  -1 64.1258 63.0669   4-0.05598 0.26314-0.35326-0.48236-0.92861 0.86930
   3  10  -1 127.389 76.8968   2 0.52956-0.32261 0.40481 0.43021 0.82872-0.88750
  -3 -10   1 67.4765 70.6439   9 0.05919-0.26613-0.35415-0.48080 0.92870-0.86974
  -3  10   1 86.6468 68.2956   6-0.32696 0.11998 0.46401 0.37084-0.86878 0.92743
   2 -10  -1 168.108 70.3989   4-0.06434 0.19640-0.33358-0.50209-0.93668 0.86386
   2  10  -1 23.1205 68.9770   6-0.30651 0.43876 0.37983 0.45530-0.91379 0.84113
   2  10  -1 63.4958 64.6083   2 0.54684-0.41489 0.43115 0.40385 0.80453-0.87682
  -2  10   1 151.325 98.1851   6-0.32984 0.19791 0.47670 0.35813-0.86100 0.93317
   2 -10  -1 42.5163 74.9350   9-0.03085 0.16287-0.53741-0.29766 0.82340-0.89585
  -2 -10   1 90.6314 88.3218   9 0.06830-0.20025-0.33427-0.50068 0.93692-0.86443
  -2 -10   1 66.6461 85.7094   4 0.02750-0.16005-0.53676-0.29814-0.82446 0.89672
   1 -10  -1 879.163 187.742   4-0.07037 0.12734-0.31922-0.51648-0.94224 0.85589
  -1  10   1 572.060 167.869   6-0.33413 0.27723 0.49597 0.33882-0.84864 0.93432
  -1 -10   1 860.562 170.012   9 0.07496-0.13194-0.31956-0.51539 0.94264-0.85662
   1  10  -1 693.455 174.583   6-0.29636 0.35358 0.34085 0.49433-0.93102 0.84484
   1 -10  -1 976.617 192.742   9-0.02519 0.08220-0.52658-0.30847 0.83130-0.91728
  -1 -10   1 662.414 157.000   4 0.02239-0.07990-0.52622-0.30871-0.83204 0.91785
   0 -10  -1 71.9601 89.8351   4-0.07389 0.05577-0.31079-0.52491-0.94537 0.84549
   0 -10   1 112.219 88.3699   9 0.07896-0.06095-0.31068-0.52428 0.94595-0.84639
   0  10  -1 78.8293 91.8010   6-0.28833 0.27050 0.31110 0.52416-0.94276 0.84304
   0 -10  -1 24.9357 81.3427   9-0.02326 0.00529-0.52288-0.31217 0.83395-0.93346
   0  10   1 164.002 120.133   6-0.33972 0.35785 0.52209 0.31266-0.83079 0.92998
   0 -10   1 -20.930 69.0726   4 0.02070-0.00316-0.52271-0.31221-0.83451 0.93387
  -1 -10  -1 840.065 185.828   4-0.07463-0.01857-0.30901-0.52668-0.94602 0.83260
  -1  10  -1 1271.91 211.405   6-0.28244 0.18957 0.28981 0.54549-0.95042 0.83717
   1 -10   1 1053.77 196.662   9 0.07999 0.01301-0.30838-0.52659 0.94679-0.83370
   1  10   1 1171.57 206.574   6-0.34645 0.43960 0.55524 0.27945-0.80621 0.91889
  -1 -10  -1 1135.94 210.880   9-0.02459-0.06838-0.52544-0.30961 0.83212-0.94516
   1 -10   1 1319.70 214.476   4 0.02202 0.07058-0.52545-0.30948-0.83259 0.94548
  -2 -10  -1 125.047 109.393   4-0.07225-0.09602-0.31473-0.52095-0.94392 0.81697
  -2  10  -1 83.9595 71.7338   6-0.27865 0.11073 0.27631 0.55902-0.95498 0.82819
   2  10   1 13.0613 59.7263   6-0.35402 0.52218 0.59550 0.23913-0.77321 0.89937
   2 -10   1 31.2295 57.3984   9 0.07766 0.09032-0.31356-0.52142 0.94489-0.81826
  -2 -10  -1 -52.739 64.6545   9-0.02880-0.13915-0.53350-0.30154 0.82628-0.95286
   2  10   1 -12.376 85.6932   2 0.42230-0.25444 0.25331 0.58185 0.93223-0.80573
   2 -10   1 27.3948 81.8671   4 0.02602 0.14165-0.53372-0.30117-0.82667 0.95309
  -3  10  -1 -197.18 104.648   6-0.27686 0.03390 0.26997 0.56537-0.95703 0.81670
  -3 -10  -1 -56.919 64.0817   9-0.03559-0.20735-0.54639-0.28864 0.81666-0.95677
   3 -10   1 41.0225 92.5648   4 0.03244 0.21030-0.54690-0.28796-0.81696 0.95689
   3  10   1 3.70995 60.8249   2 0.40952-0.16666 0.23628 0.59888 0.94057-0.80055
   4  10   1 143.488 99.5724   2 0.40233-0.08446 0.22675 0.60843 0.94498-0.79143
  -5 -10  -1 85.3795 120.983   3-0.43961 0.04605-0.20694-0.62906-0.93897 0.77161
   1  11  -1 -33.278 88.6472   6-0.30990 0.36714 0.39321 0.52548-0.90737 0.82112
   1 -11  -1 161.908 102.400   9-0.04137 0.09838-0.55725-0.36131 0.80828-0.89426
  -1 -11   1 43.4341 62.2977   4 0.03732-0.09488-0.55680-0.36165-0.80943 0.89517
   0 -11   1 -17.247 81.5333   9 0.05438-0.03639-0.36451-0.55396 0.92419-0.82464
   0 -11  -1 105.905 92.3468   9-0.03892 0.02094-0.55267-0.36589 0.81185-0.91136
  -1 -11  -1 3.08594 77.9644   4-0.05096-0.04229-0.36497-0.55422-0.92355 0.81006
   1 -11   1 3.48731 83.5543   9 0.05434 0.03865-0.36461-0.55387 0.92415-0.81106
   1  11   1 117.571 112.630   6-0.35165 0.44482 0.58247 0.33573-0.78430 0.89691
 -12   0   2 307.989 131.737   7-0.62847-0.23565 0.10266-0.10271-0.87175 0.90804
  12   0  -2 189.330 90.3490   5 0.62099 0.24362 0.26520-0.26511 0.83749-0.87367
  12   0  -2 212.577 115.538   8 0.62514 0.23864-0.20041 0.20062 0.85474-0.89154
 -11   0   2 112.257 94.8899   7-0.61285-0.17624 0.09943-0.09950-0.88161 0.93146
  11   0  -2 -52.553 67.6376   5 0.60543 0.18414 0.25516-0.25506 0.85072-0.90043
  11   0  -2 96.8381 96.8219   8 0.60958 0.17923-0.19361 0.19381 0.86607-0.91639
 -10   0   2 2288.50 232.576   3-0.58507-0.13007-0.34722 0.34691-0.82638 0.89012
  10   0  -2 2145.59 234.324   5 0.59334 0.12120 0.24742-0.24729 0.86043-0.92369
  10   0  -2 2705.95 282.281   8 0.59761 0.11625-0.18839 0.18858 0.87436-0.93820
 -10   0   2 2701.53 278.698   7-0.60090-0.11317 0.09697-0.09705-0.88880 0.95220
  -9   0   2 -63.174 62.2974   7-0.59372-0.04531 0.09550-0.09557-0.89298 0.96991
  -9   0   2 129.939 67.6281   3-0.57723-0.06288-0.33927 0.33902-0.83469 0.91191
   9   0  -2 -24.205 45.5455   5 0.58576 0.05375 0.24258-0.24244 0.86629-0.94308
   9   0  -2 15.8547 51.5273   8 0.59029 0.04859-0.18522 0.18539 0.87925-0.95661
  -8   0   2 95.3068 59.2190   7-0.59290 0.02890 0.09533-0.09541-0.89345 0.98392
   8   0  -2 53.5137 47.6502   2 0.55793 0.00599 0.44845-0.44847 0.78745-0.87801
  -8   0   2 22.6682 32.8802   3-0.57486 0.00979-0.33689 0.33670-0.83712 0.92786
   8   0  -2 89.2540 63.6675   5 0.58414-0.01966 0.24155-0.24139 0.86752-0.95785
   8   0  -2 85.6003 69.6582   8 0.58915-0.02523-0.18472 0.18488 0.88000-0.97088
  -7   0   2 -43.279 37.1032   7-0.60068 0.11169 0.09693-0.09701-0.88893 0.99293
   7   0  -2 3.02429 25.3984   2 0.56073-0.07177 0.45286-0.45288 0.78293-0.88702
  -7   0   2 19.1033 31.4540   3-0.57972 0.08970-0.34179 0.34165-0.83208 0.93635
   7   0  -2 56.9260 37.2192   5 0.59048-0.10103 0.24558-0.24541 0.86267-0.96654
   7   0  -2 -10.355 34.7425   8 0.59631-0.10734-0.18783 0.18797 0.87524-0.97965
  -7   0   2 0.69407 14.8467   9 0.10067-0.58957-0.26154 0.26152 0.96236-0.85804
  -6   0   2 2222.84 82.8952   1 0.20602-0.62000-0.10416 0.10457 0.99420-0.87669
  -6   0   2 2125.67 108.085   9 0.20916-0.62305 0.00864-0.00861 0.99953-0.88169
   6   0  -2 2523.23 190.634   5 0.60753-0.19312 0.25651-0.25631 0.84898-0.96639
   6   0  -2 2382.76 189.140   8 0.61476-0.20075-0.19587 0.19600 0.86237-0.98031
  -6   0   2 2342.70 191.293   7-0.62026 0.20630 0.10096-0.10104-0.87700 0.99451
   6   0  -2 2440.80 116.246   4-0.20848 0.62323 0.04905-0.04918-0.99838 0.88011
  -5   0   2 25.9919 37.8215   7-0.65623 0.31726 0.10841-0.10849-0.85286 0.98389
   5   0  -2 -7.5540 21.2331   4-0.29267 0.63245 0.32697-0.32719-0.93664 0.80469
  -5   0   2 17.4169 17.5075   9 0.30052-0.63942 0.28010-0.28006 0.95096-0.81961
  -5   0   2 -6.2362 15.3307   3-0.62048 0.28058-0.38381 0.38378-0.78457 0.91592
   5   0  -2 35.0323 36.7149   5 0.63894-0.29956 0.27689-0.27666 0.82116-0.95212
   5   0  -2 17.7752 28.9304   8 0.64860-0.30957-0.21075 0.21087 0.83638-0.96784
   4   0  -2 17206.8 497.700   8 0.70276-0.43871-0.23499 0.23509 0.78726-0.93225
  -4   0   2 18086.5 473.249   7-0.71439 0.45044 0.12061-0.12070-0.80683 0.95136
 -12   1   2 62.3032 77.2357   7-0.62361-0.24054 0.10165-0.01817-0.87488 0.91116
 -12  -1   2 120.786 77.2137   7-0.64036-0.22374 0.10512-0.18870-0.86388 0.90018
  12   1  -2 83.0350 61.9910   5 0.60437 0.26017 0.25448-0.17086 0.85159-0.88780
  12  -1  -2 -75.816 96.1372   8 0.61288 0.25088-0.19504 0.11179 0.86373-0.90052
  12   1  -2 147.180 106.259   8 0.64503 0.21876-0.20917 0.29284 0.83928-0.87609
 -11   1   2 -14.164 85.4240   7-0.60785-0.18126 0.09841-0.01493-0.88466 0.93450
 -11  -1   2 58.5352 99.5055   7-0.62549-0.16357 0.10204-0.18563-0.87367 0.92352
 -11  -1   2 -23.768 69.7400   3-0.57353-0.21666-0.33555 0.25174-0.83848 0.88866
  11  -1  -2 4.14307 57.9232   5 0.63171 0.15793 0.27216-0.35562 0.82789-0.87757
  11   1  -2 120.342 58.6504   5 0.58825 0.20127 0.24416-0.16051 0.86439-0.91413
  11  -1  -2 99.9174 84.0894   8 0.59687 0.19193-0.18807 0.10480 0.87486-0.92518
  11   1  -2 17.0289 67.7127   8 0.63063 0.15821-0.20282 0.28649 0.85059-0.90091
 -10   1   2 42.1008 54.6511   7-0.59567-0.11841 0.09590-0.01244-0.89185 0.95524
 -10  -1   2 343.659 120.641   7-0.61448-0.09956 0.09977-0.18336-0.88061 0.94400
 -10  -1   2 195.811 81.8990   3-0.56047-0.15470-0.32248 0.23872-0.85138 0.91504
  10  -1  -2 247.501 98.1442   5 0.62137 0.09323 0.26544-0.34889 0.83716-0.90038
  10   1  -2 348.795 107.747   5 0.57534 0.13916 0.23596-0.15230 0.87406-0.93733
  10  -1  -2 218.462 100.538   8 0.58424 0.12959-0.18259 0.09931 0.88320-0.94703
  10   1  -2 138.450 76.8171   8 0.62013 0.09375-0.19822 0.28186 0.85846-0.92231
  -9   1   2 129.581 82.3981   7-0.58814-0.05091 0.09436-0.01090-0.89615 0.97308
  -9  -1   2 8.38008 53.4798   7-0.60851-0.03050 0.09854-0.18213-0.88426 0.96119
   9   1  -2 -52.751 54.1174   2 0.52984 0.10908 0.40524-0.32177 0.82835-0.90539
  -9   1   2 2.39715 30.5369   3-0.61615-0.02394-0.37927 0.46246-0.79010 0.86743
  -9  -1   2 8.44625 36.8392   3-0.55116-0.08898-0.31323 0.22954-0.86009 0.93726
   9  -1  -2 16.2906 44.2126   5 0.61611 0.02344 0.26204-0.34546 0.84173-0.91850
   9   1  -2 82.8675 66.5470   5 0.56657 0.07289 0.23043-0.14674 0.88035-0.95715
   9  -1  -2 30.8475 48.8267   8 0.57599 0.06287-0.17903 0.09572 0.88843-0.96579
   9   1  -2 142.793 69.1263   8 0.61474 0.02417-0.19586 0.27950 0.86239-0.93976
  -8   1   2 292.638 88.9452   7-0.58676 0.02275 0.09408-0.01063-0.89693 0.98739
  -8  -1   2 141.299 87.4611   7-0.60925 0.04527 0.09869-0.18228-0.88381 0.97427
   8   1  -2 397.503 92.2459   2 0.52438 0.03956 0.39706-0.31360 0.83545-0.92601
  -8   1   2 195.482 64.7827   3-0.61748 0.05242-0.38067 0.46392-0.78841 0.87925
   8  -1  -2 214.087 84.4921   5 0.61758-0.05307 0.26299-0.34640 0.84047-0.93077
  -8  -1   2 157.927 54.2048   3-0.54667-0.01842-0.30881 0.22516-0.86415 0.95483
   8   1  -2 259.957 84.3002   5 0.56322 0.00122 0.22830-0.14460 0.88270-0.97303
   8  -1  -2 204.891 87.9451   8 0.57348-0.00958-0.17794 0.09463 0.89000-0.98087
   8   1  -2 265.454 94.0464   8 0.61615-0.05221-0.19648 0.28010 0.86137-0.95226
   7   1  -2 1825.69 164.253   2 0.52421-0.03525 0.39680-0.31335 0.83567-0.93976
  -7  -1   2 1831.87 129.515   9 0.13121-0.62008-0.18986 0.10636 0.98072-0.87640
  -7  -1   2 1785.64 169.918   3-0.54849 0.05846-0.31061 0.22701-0.86251 0.96672
   7  -1  -2 1857.97 173.977   5 0.62810-0.13863 0.26980-0.35320 0.83117-0.93503
   7   1  -2 1584.55 164.364   5 0.56702-0.07760 0.23070-0.14697 0.88003-0.98391
   7  -1  -2 1524.99 166.228   8 0.57863-0.08970-0.18017 0.09684 0.88677-0.99118
   7   1  -2 1981.72 186.983   8 0.62674-0.13775-0.20111 0.28473 0.85354-0.95796
   7  -1  -2 1828.11 127.932   4-0.12939 0.61909-0.17169 0.08812-0.98393 0.87923
  -7   1   2 1712.41 180.941   7-0.59366 0.10467 0.09549-0.01205-0.89301 0.99700
  -7  -1   2 1515.13 170.424   7-0.61910 0.13013 0.10072-0.18431-0.87773 0.98172
  -6   1   2 119.438 30.2892   1 0.19503-0.60905-0.02980 0.11371 0.99945-0.88193
  -6   1   2 56.2574 38.1551   7-0.61189 0.19792 0.09924-0.01581-0.88220 0.99972
  -6  -1   2 17.1932 34.5424   7-0.64144 0.22749 0.10534-0.18893-0.86315 0.98065
   6  -1  -2 81.9943 36.7236   4-0.19797 0.61273 0.01791-0.10163-0.99968 0.88140
   6   1  -2 92.6974 17.9208   4-0.21108 0.62578 0.05681 0.02662-0.99789 0.87963
   6   1  -2 42.2841 28.2724   2 0.53075-0.11676 0.40660-0.32315 0.82714-0.94475
  -6   1   2 103.981 17.3786   9 0.19695-0.61085-0.02408 0.10759 0.99957-0.88173
  -6  -1   2 85.4526 30.2634   9 0.20298-0.61687-0.00802-0.07545 0.99970-0.88186
   6  -1  -2 141.872 46.7304   5 0.65075-0.23633 0.28464-0.36802 0.80974-0.92714
  -6  -1   2 117.160 44.3782   3-0.55854 0.14357-0.32057 0.23700-0.85321 0.97096
   6   1  -2 137.181 53.4885   5 0.58037-0.16596 0.23915-0.15540 0.87035-0.98776
   6  -1  -2 98.0685 46.1681   8 0.59413-0.18016-0.18688 0.10354 0.87671-0.99463
   6   1  -2 115.238 56.0958   8 0.64980-0.23578-0.21128 0.29489 0.83539-0.95334
  -5   1   2 296.141 64.8457   7-0.64574 0.30679 0.10624-0.02282-0.86021 0.99124
  -5  -1   2 318.932 63.9909   7-0.68102 0.34207 0.11358-0.19717-0.83438 0.96540
  -5   1   2 533.435 65.1173   1 0.22846-0.56764-0.28871 0.37262 0.95573-0.82449
  -5  -1   2 424.947 59.9425   9 0.26754-0.60645 0.17575-0.25919 0.98009-0.84874
   5  -1  -2 528.671 73.2466   4-0.25807 0.59783 0.20544-0.28928-0.97511 0.84320
   5   1  -2 450.606 78.5401   2 0.54557-0.20655 0.42918-0.34574 0.80641-0.93754
   5  -1  -2 33.5350 29.4089   5 0.68928-0.34992 0.31035-0.39373 0.76823-0.89917
   5   1  -2 489.614 80.6168   5 0.60650-0.26712 0.25584-0.17207 0.84984-0.98080
   5  -1  -2 410.319 79.4632   8 0.62370-0.28469-0.19978 0.11643 0.85582-0.98727
   5   1  -2 483.227 88.3280   8 0.68967-0.35061-0.22908 0.31267 0.80008-0.93156
  -4  -1   2 699.134 81.5464   9 0.32188-0.58581 0.35325-0.43668 0.92204-0.77718
  -4  -1   2 521.317 77.2873   3-0.61315 0.34834-0.37613 0.29266-0.79386 0.93872
   4   1  -2 678.349 91.5437   5 0.64932-0.38497 0.28370-0.19991 0.81115-0.95567
   4  -1  -2 620.471 91.6205   8 0.67208-0.40804-0.22118 0.13781 0.81633-0.96131
  -4   1   2 636.830 91.1604   7-0.70087 0.43692 0.11776-0.03435-0.81839 0.96291
  -4  -1   2 676.786 96.4707   7-0.74351 0.47954 0.12681-0.21038-0.77994 0.92446
 -12  -2   2 159.729 109.983   7-0.65951-0.20454 0.10910-0.27620-0.85050 0.88680
 -12  -2   2 18.0272 56.2748   3-0.57474-0.29051-0.33677 0.16945-0.83724 0.87389
  12   2  -2 21.7532 60.7299   5 0.59513 0.26935 0.24856-0.08141 0.85902-0.89526
 -11   2   2 65.5196 90.1692   7-0.61013-0.17900 0.09888 0.06814-0.88327 0.93310
 -11  -2   2 144.966 70.4348   7-0.64605-0.14297 0.10630-0.27340-0.86000 0.90984
 -11  -2   2 149.641 82.3161   3-0.55876-0.23147-0.32078 0.15351-0.85301 0.90313
  11   2  -2 153.126 95.2327   5 0.57907 0.21039 0.23833-0.07116 0.87131-0.92107
  11  -2  -2 -0.1952 72.1125   8 0.59176 0.19702-0.18585 0.01911 0.87828-0.92860
  11   2  -2 90.0294 106.246   8 0.66068 0.12818-0.21611 0.38323 0.82627-0.87662
 -10   2   2 438.421 131.317   7-0.59839-0.11571 0.09646 0.07054-0.89027 0.95365
 -10  -2   2 561.007 144.152   7-0.63675-0.07725 0.10437-0.27147-0.86630 0.92969
  10   2  -2 445.381 114.103   2 0.51996 0.19394 0.39048-0.22352 0.84102-0.90454
 -10  -2   2 504.440 117.929   3-0.54550-0.16970-0.30766 0.14044-0.86519 0.92882
  10   2  -2 451.532 112.066   5 0.56608 0.14836 0.23011-0.06293 0.88069-0.94398
  10  -2  -2 368.559 123.004   8 0.57917 0.13464-0.18040 0.01365 0.88643-0.95026
  10   2  -2 403.752 120.594   8 0.65262 0.06128-0.21254 0.37964 0.83307-0.89693
  -9   2   2 221.510 80.8266   7-0.59128-0.04778 0.09500 0.07198-0.89437 0.97130
  -9  -2   2 201.641 90.9990   7-0.63290-0.00609 0.10357-0.27067-0.86886 0.94578
   9   2  -2 106.476 65.5687   2 0.50986 0.12908 0.37558-0.20863 0.85319-0.93024
   9  -2  -2 198.459 77.7244   5 0.65908-0.01949 0.29014-0.45717 0.80134-0.87807
  -9  -2   2 193.464 65.9654   3-0.53569-0.10448-0.29804 0.13086-0.87372 0.95085
   9   2  -2 167.213 79.1854   5 0.55702 0.08241 0.22440-0.05720 0.88696-0.96377
   9  -2  -2 103.617 79.9564   8 0.57081 0.06805-0.17679 0.01002 0.89164-0.96899
   9   2  -2 195.127 94.7261   8 0.65028-0.01134-0.21149 0.37860 0.83500-0.91238
  -8   2   2 332.268 89.9976   7-0.59025 0.02622 0.09479 0.07218-0.89496 0.98542
  -8  -2   2 207.707 93.1141   7-0.63627 0.07232 0.10427-0.27136-0.86662 0.95707
  -8  -2   2 370.811 75.7077   9 0.07979-0.64365-0.30883 0.14182 0.94663-0.85584
   8   2  -2 382.272 87.1122   2 0.50344 0.06052 0.36622-0.19929 0.86053-0.95110
   8  -2  -2 385.915 89.6592   5 0.66522-0.10070 0.29423-0.46124 0.79495-0.88522
  -8  -2   2 317.291 85.1584   3-0.53028-0.03484-0.29277 0.12564-0.87825 0.96891
   8   2  -2 535.812 104.097   5 0.55300 0.01141 0.22188-0.05466 0.88966-0.98000
   8  -2  -2 400.731 97.2395   8 0.56792-0.00403-0.17555 0.00876 0.89341-0.98428
   8   2  -2 226.581 81.9559   8 0.65558-0.09160-0.21384 0.38094 0.83060-0.92151
  -7   2   2 613.348 110.464   7-0.59734 0.10835 0.09625 0.07072-0.89088 0.99487
  -7  -2   2 452.426 103.347   7-0.64944 0.16048 0.10700-0.27408-0.85765 0.96163
  -7  -2   2 601.170 86.5959   9 0.13770-0.62657-0.17419 0.00721 0.98389-0.87957
   7   2  -2 672.465 111.754   2 0.50170-0.01272 0.36370-0.19676 0.86247-0.96657
   7  -2  -2 280.630 71.7057   5 0.68168-0.19221 0.30523-0.47223 0.77698-0.88080
  -7   2   2 722.307 79.9559   1 0.14929-0.63818 0.22424-0.05695 0.97415-0.87030
  -7  -2   2 683.762 113.135   3-0.53052 0.04046-0.29301 0.12591-0.87806 0.98225
   7   2  -2 777.979 123.572   5 0.55556-0.06616 0.22349-0.05624 0.88794-0.99181
   7  -2  -2 753.702 131.125   8 0.57225-0.08334-0.17741 0.01061 0.89076-0.99515
   7   2  -2 779.637 122.420   8 0.67113-0.18212-0.22077 0.38785 0.81717-0.92160
   7  -2  -2 714.188 97.3036   4-0.13385 0.62360-0.15999-0.00714-0.98609 0.88137
  -6   2   2 597.643 103.546   7-0.61545 0.20148 0.09997 0.06698-0.88000 0.99751
  -6  -2   2 658.912 103.651   7-0.67592 0.26198 0.11252-0.27960-0.83831 0.95581
  -6  -2   2 507.796 76.8387   9 0.19192-0.60580-0.03739-0.12957 0.99923-0.88138
   6   2  -2 507.903 91.6165   2 0.50581-0.09181 0.36966-0.20273 0.85786-0.97548
  -6  -2   2 688.760 104.364   3-0.53802 0.12303-0.30032 0.13326-0.87173 0.98947
   6   2  -2 549.628 98.3921   5 0.56680-0.15240 0.23057-0.06330 0.88019-0.99760
   6  -2  -2 561.755 99.7687   8 0.58623-0.17228-0.18346 0.01664 0.88191-0.99983
   6   2  -2 711.803 114.287   8 0.70042-0.28637-0.23393 0.40101 0.78960-0.90757
   6  -2  -2 665.300 89.1298   4-0.18519 0.59996-0.01913-0.14817-0.99980 0.88152
  -6   2   2 621.545 76.3117   1 0.18637-0.60046 0.02420 0.14317 0.99969-0.88215
  -5   2   2 -26.247 33.4603   7-0.64863 0.30968 0.10684 0.06010-0.85821 0.98923
  -5  -2   2 26.5280 22.3722   7-0.72046 0.38150 0.12190-0.28896-0.80146 0.93247
   5  -2  -2 -3.4466 25.2671   4-0.23144 0.57118 0.11932-0.28674-0.99142 0.85954
  -5  -2   2 14.3370 22.4227   9 0.24157-0.58048 0.09903-0.26596 0.99305-0.86169
   5   2  -2 -19.370 27.8204   2 0.51715-0.17814 0.38632-0.21939 0.84448-0.97562
  -5  -2   2 39.5880 30.3992   3-0.55482 0.21491-0.31687 0.14984-0.85671 0.98800
   5   2  -2 -48.465 35.0259   5 0.58951-0.25012 0.24497-0.07767 0.86342-0.99438
   5  -2  -2 18.8324 27.1213   8 0.61319-0.27421-0.19518 0.02835 0.86350-0.99495
  -5   2   2 -4.7798 20.0401   1 0.21283-0.55203-0.15447 0.32191 0.98738-0.85615
  -4   2   2 60.7619 32.9474   7-0.70211 0.43816 0.11802 0.04889-0.81735 0.96188
   4  -2  -2 153.407 49.7633   4-0.27174 0.53642 0.25196-0.41947-0.96260 0.81710
   4   2  -2 57.8255 29.1599   2 0.53713-0.27309 0.41627-0.24934 0.81846-0.96312
  -4  -2   2 63.9364 33.9566   9 0.28559-0.54952 0.23176-0.39869 0.96615-0.82127
   4  -2  -2 176.138 58.9361   8 0.65741-0.39340-0.21465 0.04780 0.82906-0.97403
   3   2  -2 39.4883 31.4450   2 0.56657-0.37751 0.46216-0.29524 0.77319-0.93136
   3  -2  -2 -33.767 23.6403   8 0.72316-0.53413-0.24427 0.07740 0.76590-0.92439
 -12  -3   2 158.173 138.132   7-0.68610-0.17792 0.11465-0.36527-0.83040 0.86668
 -12  -3   2 249.478 106.059   3-0.56685-0.29846-0.32884 0.07806-0.84518 0.88178
 -11   3   2 65.1195 82.8085   7-0.61931-0.16983 0.10077 0.14979-0.87760 0.92740
 -11  -3   2 104.797 106.172   7-0.67474-0.11425 0.11227-0.36287-0.83921 0.88905
  11   3  -2 -189.00 88.3704   2 0.52146 0.26743 0.39271-0.14226 0.83915-0.88914
 -11  -3   2 0.36908 61.7471   3-0.55134-0.23893-0.31342 0.06268-0.85992 0.91001
  11   3  -2 108.712 86.1875   5 0.57690 0.21251 0.23695 0.01371 0.87292-0.92271
  11  -3  -2 72.0124 76.7367   8 0.59353 0.19524-0.18662-0.06360 0.87711-0.92742
 -10   3   2 187.983 94.2336   7-0.60858-0.10552 0.09856 0.15199-0.88421 0.94757
 -10  -3   2 122.105 98.4624   7-0.66795-0.04603 0.11086-0.36146-0.84432 0.90770
  10   3  -2 300.448 107.346   2 0.50878 0.20514 0.37401-0.12356 0.85444-0.91796
 -10  -3   2 180.936 88.0744   3-0.53845-0.17679-0.30074 0.05004-0.87136 0.93496
  10   3  -2 454.221 120.890   5 0.56439 0.15000 0.22905 0.02163 0.88188-0.94518
  10  -3  -2 58.0142 90.4642   8 0.58155 0.13224-0.18143-0.06881 0.88492-0.94875
  -9   3   2 67.5204 68.1288   7-0.60255-0.03651 0.09732 0.15321-0.88782 0.96473
  -9  -3   2 143.109 95.6470   7-0.66712 0.02817 0.11068-0.36127-0.84494 0.92185
   9   3  -2 144.190 59.6192   2 0.49882 0.14011 0.35954-0.10910 0.86564-0.94268
   9   3  -2 258.561 97.0741   5 0.55568 0.08370 0.22357 0.02713 0.88786-0.96469
  -9  -3   2 260.108 98.1221   3-0.52884-0.11136-0.29136 0.04069-0.87944 0.95657
   9  -3  -2 334.145 115.655   8 0.57373 0.06510-0.17805-0.07220 0.88984-0.96719
   9   3  -2 274.802 109.103   8 0.69758-0.05861-0.23265 0.48321 0.79241-0.86981
  -8   3   2 533.837 121.771   7-0.60265 0.03863 0.09734 0.15318-0.88777 0.97820
  -8  -3   2 293.008 113.547   7-0.67419 0.11025 0.11215-0.36274-0.83964 0.93007
   8  -3  -2 402.184 87.3339   4-0.08549 0.65023-0.28268 0.03213-0.95513 0.86390
  -8   3   2 70.8926 32.1124   6-0.35460-0.20935 0.59875-0.34859-0.77038 0.86087
   8   3  -2 292.502 93.6924   2 0.49226 0.07170 0.35010-0.09966 0.87264-0.96322
   8   3  -2 411.002 103.188   5 0.55178 0.01260 0.22112 0.02960 0.89047-0.98082
  -8  -3   2 217.201 78.3418   3-0.52332-0.04184-0.28600 0.03537-0.88392 0.97457
   8  -3  -2 420.817 108.186   8 0.57124-0.00737-0.17698-0.07329 0.89138-0.98225
   8   3  -2 319.873 89.5077   8 0.70809-0.14408-0.23740 0.48796 0.78185-0.87279
  -8  -3   2 345.695 78.9594   9 0.08810-0.65196-0.29017 0.03967 0.95319-0.86240
  -7   3   2 841.776 130.779   7-0.61085 0.12185 0.09902 0.15147-0.88284 0.98680
  -7  -3   2 654.895 129.318   7-0.69182 0.20288 0.11585-0.36642-0.82582 0.92978
  -7   3   2 845.220 124.106   6-0.35001-0.13895 0.57370-0.32356-0.79153 0.89555
  -7  -3   2 850.370 112.741   9 0.13492-0.62378-0.18092-0.06955 0.98257-0.87824
   7   3  -2 713.225 115.879   2 0.48991-0.00093 0.34673-0.09630 0.87509-0.97919
   7   3  -2 870.722 129.756   5 0.55408-0.06470 0.22256 0.02818 0.88893-0.99282
  -7  -3   2 817.878 126.234   3-0.52297 0.03288-0.28566 0.03506-0.88420 0.98839
   7  -3  -2 898.235 149.258   8 0.57569-0.08679-0.17890-0.07139 0.88862-0.99302
   7   3  -2 10.7460 19.5931   8 0.72990-0.24085-0.24736 0.49792 0.75845-0.86291
   7  -3  -2 907.371 123.620   4-0.13010 0.61988-0.16985-0.08086-0.98428 0.87954
  -6   3   2 406.321 82.4928   7-0.62991 0.21594 0.10295 0.14752-0.87082 0.98831
  -6  -3   2 479.775 93.8960   7-0.72361 0.30966 0.12257-0.37312-0.79863 0.91611
   6  -3  -2 397.705 83.4660   4-0.17125 0.58602-0.05857-0.19229-0.99824 0.87995
  -6  -3   2 370.395 78.0294   9 0.17860-0.59249-0.07204-0.17840 0.99741-0.87955
  -6   3   2 429.231 85.5840   6-0.34706-0.06691 0.55836-0.30821-0.80379 0.92134
   6   3  -2 361.224 86.6283   2 0.49274-0.07875 0.35079-0.10037 0.87214-0.98976
   6   3  -2 375.158 85.6579   5 0.56439-0.15000 0.22905 0.02172 0.88188-0.99929
  -6  -3   2 303.054 72.7251   3-0.52915 0.11415-0.29168 0.04109-0.87919 0.99692
   6  -3  -2 379.562 91.6585   8 0.58928-0.17534-0.18477-0.06553 0.87992-0.99784
  -5   3   2 68.6049 45.6613   7-0.66357 0.32463 0.10995 0.14051-0.84755 0.97855
   5   3  -2 123.790 30.8338   6-0.13961 0.47885-0.14466 0.39545-0.98869 0.85728
   5  -3  -2 174.826 53.5603   4-0.20864 0.54838 0.04955-0.30054-0.99835 0.86649
  -5   3   2 68.4331 14.6203   2 0.30052-0.63960 0.09720 0.15336 0.98745-0.85628
  -5  -3   2 79.4256 38.3730   9 0.21880-0.55769 0.03495-0.28538 0.99861-0.86724
  -5   3   2 140.796 52.1125   6-0.34616 0.00717 0.55376-0.30361-0.80736 0.93845
  -5   3   2 136.605 45.0559   1 0.19981-0.53904-0.06123 0.31219 0.99792-0.86670
   5   3  -2 161.207 54.5119   2 0.50191-0.16289 0.36401-0.11358 0.86224-0.99338
  -5  -3   2 67.9611 36.1874   3-0.54357 0.20365-0.30577 0.05522-0.86690 0.99818
   5   3  -2 70.3937 37.2153   5 0.58514-0.24575 0.24218 0.00861 0.86676-0.99772
   5  -3  -2 178.171 59.8722   8 0.61497-0.27602-0.19596-0.05436 0.86222-0.99366
  -4   3   2 451.521 78.6410   7-0.71655 0.45262 0.12107 0.12936-0.80493 0.94944
  -4  -3   2 369.431 72.3499   9 0.25505-0.51898 0.13830-0.38872 0.98729-0.84239
   4   3  -2 423.676 58.7898   6-0.06845 0.33268-0.32371 0.57455-0.94053 0.79551
  -4   3   2 494.620 82.7182   1 0.21609-0.48033-0.17994 0.43100 0.98290-0.83802
   4  -3  -2 388.006 77.7478   4-0.24196 0.50662 0.15271-0.40381-0.98613 0.84067
   4   3  -2 433.953 79.8072   2 0.51861-0.25458 0.38848-0.13806 0.84269-0.98736
  -4   3   2 404.069 78.2582   6-0.34757 0.08357 0.56096-0.31083-0.80174 0.94635
   4   3  -2 405.772 74.2849   5 0.61930-0.35490 0.26411-0.01326 0.83897-0.98349
   4  -3  -2 431.951 84.6522   8 0.65653-0.39255-0.21427-0.03607 0.82980-0.97475
   3  -3  -2 208.772 68.1054   4-0.27090 0.46045 0.24902-0.50018-0.96347 0.80441
  -3  -3   2 232.323 58.7986   9 0.28694-0.47589 0.23605-0.48647 0.96493-0.80651
  -3   3   2 177.280 50.4963   6-0.35137 0.16235 0.58095-0.33082-0.78556 0.94368
  -3   3   2 186.349 53.7164   1 0.22778-0.41700-0.28207 0.53323 0.95778-0.79923
  -3  -3   2 171.387 44.6857   3-0.60494 0.41527-0.36760 0.11713-0.80386 0.96223
   3  -3  -2 57.4159 41.3572   8 0.71778-0.52878-0.24182-0.00854 0.77170-0.93018
 -11   4   2 289.488 124.440   7-0.63495-0.15420 0.10400 0.23010-0.86750 0.91728
  11   4  -2 218.822 96.6109   2 0.51610 0.27281 0.38477-0.05082 0.84576-0.89576
 -11  -4   2 101.004 77.5235   3-0.55004-0.24029-0.31213-0.02211-0.86111 0.91119
  11   4  -2 86.5452 109.500   5 0.58081 0.20855 0.23943 0.09470 0.87002-0.91984
  11  -4  -2 252.101 105.519   8 0.60149 0.18726-0.19008-0.14361 0.87172-0.92203
 -10   4   2 42.7255 67.2260   7-0.62573-0.08838 0.10209 0.23200-0.87352 0.93685
 -10  -4   2 -14.497 81.5198   7-0.70809-0.00586 0.11928-0.45337-0.81229 0.87566
  10   4  -2 -84.224 70.2978   2 0.50412 0.20982 0.36720-0.03326 0.85977-0.92330
 -10  -4   2 210.762 99.7502   3-0.53790-0.17740-0.30021-0.03401-0.87183 0.93542
  10   4  -2 12.6205 74.8670   5 0.56920 0.14515 0.23209 0.10207 0.87848-0.94181
  10  -4  -2 0.77971 66.0928   8 0.59058 0.12322-0.18534-0.14838 0.87906-0.94289
  -9   4   2 700.793 135.530   7-0.62134-0.01770 0.10119 0.23288-0.87632 0.95319
  -9  -4   2 1068.11 175.505   7-0.71114 0.07221 0.11992-0.45400-0.80966 0.88656
   9   4  -2 946.628 166.693   2 0.49472 0.14423 0.35363-0.01969 0.87005-0.94710
   9   4  -2 1061.61 174.327   5 0.56132 0.07804 0.22711 0.10706 0.88401-0.96086
  -9  -4   2 933.421 167.069   3-0.52891-0.11133-0.29144-0.04275-0.87939 0.95650
   9  -4  -2 1064.27 183.485   8 0.58380 0.05502-0.18240-0.15133 0.88348-0.96083
  -8   4   2 114.577 80.7123   7-0.62321 0.05920 0.10157 0.23248-0.87513 0.96554
  -8  -4   2 201.944 94.2562   7-0.72281 0.15889 0.12240-0.45645-0.79935 0.88977
   8  -4  -2 170.564 77.6649   4-0.08485 0.64963-0.28425-0.04987-0.95461 0.86335
  -8  -4   2 163.295 75.6238   9 0.08796-0.65181-0.29049-0.04348 0.95308-0.86229
  -8   4   2 12.4915 43.2713   6-0.34675-0.21723 0.55677-0.22316-0.80502 0.89551
   8   4  -2 -132.94 69.7715   2 0.48849 0.07548 0.34471-0.01077 0.87654-0.96712
   8   4  -2 30.7966 48.7115   5 0.55810 0.00626 0.22509 0.10911 0.88622-0.97658
  -8  -4   2 -42.536 46.8563   3-0.52381-0.04138-0.28649-0.04768-0.88353 0.97417
   8  -4  -2 -21.961 49.7408   8 0.58229-0.01844-0.18175-0.15200 0.88445-0.97532
   7   4  -2 1242.89 162.132   2 0.48612 0.00286 0.34133-0.00740 0.87895-0.98305
  -7   4   2 1390.91 166.443   6-0.34217-0.14683 0.53391-0.20030-0.82228 0.92631
  -7  -4   2 1405.79 155.581   9 0.12733-0.61619-0.19912-0.13483 0.97871-0.87438
  -7  -4   2 1236.41 163.271   3-0.52352 0.03341-0.28621-0.04793-0.88376 0.98795
   7   4  -2 1461.67 177.900   5 0.56079-0.07142 0.22678 0.10744 0.88437-0.98827
   7  -4  -2 1236.53 173.186   8 0.58755-0.09867-0.18403-0.14974 0.88105-0.98544
  -7   4   2 1266.39 145.455   1 0.14698-0.63606 0.23543 0.09873 0.97145-0.86748
   7  -4  -2 1552.82 174.153   4-0.12216 0.61196-0.19048-0.14380-0.98011 0.87534
  -7   4   2 1293.40 173.277   7-0.63325 0.14426 0.10365 0.23037-0.86863 0.97257
  -7  -4   2 1632.45 184.784   7-0.74579 0.25685 0.12729-0.46133-0.77771 0.88167
  -6   4   2 23.9464 44.3684   1 0.16977-0.58398 0.11910 0.21519 0.99283-0.87524
  -6   4   2 18.3865 45.4061   7-0.65405 0.24009 0.10796 0.22604-0.85441 0.97188
   6  -4  -2 44.1043 52.7183   4-0.15652 0.57130-0.09924-0.23519-0.99478 0.87649
  -6  -4   2 -4.2176 30.6770   9 0.16393-0.57781-0.10942-0.22452 0.99388-0.87603
  -6   4   2 14.9241 31.7348   6-0.33918-0.07482 0.51954-0.18592-0.83259 0.95016
   6   4  -2 -107.34 56.7344   2 0.48843-0.07442 0.34462-0.01069 0.87660-0.99424
   6   4  -2 86.4577 40.3842   5 0.57101-0.15662 0.23323 0.10102 0.87719-0.99462
  -6  -4   2 73.3476 61.3254   3-0.52921 0.11419-0.29174-0.04238-0.87914 0.99687
   6  -4  -2 20.0959 42.6863   8 0.60157-0.18766-0.19011-0.14367 0.87166-0.98957
  -5   4   2 170.968 70.1315   7-0.68906 0.35012 0.11527 0.21869-0.82804 0.95902
   5   4  -2 55.1207 25.5524   6-0.20108 0.54031 0.02719 0.30707-0.99941 0.86803
   5  -4  -2 35.4122 49.0600   4-0.18781 0.52752-0.01162-0.32295-0.99990 0.86805
  -5  -4   2 107.278 58.0005   9 0.19757-0.53647-0.02244-0.31149 0.99960-0.86822
  -5   4   2 89.1122 55.0722   6-0.33812-0.00089 0.51447-0.18086-0.83613 0.96723
   5   4  -2 106.896 54.5886   2 0.49633-0.15731 0.35595-0.02202 0.86833-0.99948
  -5  -4   2 84.1661 37.6855   3-0.54230 0.20236-0.30451-0.02957-0.86802 0.99931
   5   4  -2 28.9503 31.0939   5 0.59083-0.25142 0.24581 0.08848 0.86240-0.99337
  -5   4   2 119.857 55.8661   1 0.18822-0.52749 0.01298 0.32148 0.99988-0.86866
   5  -4  -2 82.3462 48.2123   8 0.62698-0.28804-0.20122-0.13259 0.85336-0.98479
  -4   4   2 157.453 58.2014   7-0.74230 0.47837 0.12655 0.20739-0.78112 0.92560
   4   4  -2 222.886 52.4429   6-0.14468 0.40891-0.13115 0.46550-0.99075 0.84578
   4  -4  -2 145.437 54.3073   4-0.21584 0.48048 0.07123-0.40590-0.99679 0.85136
  -4  -4   2 138.584 50.2435   9 0.22806-0.49197 0.06067-0.39459 0.99695-0.85205
  -4   4   2 188.101 60.8280   6-0.33919 0.07519 0.51959-0.18598-0.83255 0.97718
   4   4  -2 179.847 57.0559   2 0.51082-0.24678 0.37698-0.04307 0.85207-0.99675
  -4  -4   2 175.383 57.3308   3-0.56439 0.29959-0.32639-0.00767-0.84759 0.99243
   4   4  -2 285.957 65.4668   5 0.62275-0.35833 0.26634 0.06799 0.83595-0.98048
  -4   4   2 182.062 59.8279   1 0.20283-0.46711-0.08180 0.41637 0.99638-0.85151
   4  -4  -2 145.973 60.7777   8 0.66703-0.40307-0.21894-0.11489 0.82079-0.96574
   3   4  -2 326.012 64.3792   6-0.10746 0.29666-0.22794 0.56235-0.97122 0.81267
   3  -4  -2 467.645 101.326   4-0.24052 0.43006 0.14809-0.48284-0.98694 0.82792
  -3  -4   2 383.535 79.9981   9 0.25517-0.44412 0.13867-0.47259 0.98722-0.82879
   3   4  -2 415.719 83.5604   2 0.53274-0.34369 0.40960-0.07570 0.82448-0.98266
  -3   4   2 298.225 70.5652   6-0.34254 0.15352 0.53572-0.20213-0.82096 0.97909
  -3  -4   2 287.233 67.9739   3-0.59710 0.40743-0.35950 0.02549-0.81302 0.97140
   3  -4  -2 -19.013 25.5877   8 0.72487-0.53588-0.24506-0.08879 0.76403-0.92250
   2   4  -2 19.8967 25.4948   6-0.08394 0.19808-0.28637 0.62080-0.95390 0.78178
  -2  -4   2 48.0589 34.1463   9 0.27877-0.39274 0.21029-0.54420 0.97195-0.80000
  -2   4   2 19.0949 34.8639   6-0.34806 0.23403 0.56349-0.22990-0.79975 0.97139
  -1   4   2 65.5815 37.2175   6-0.35536 0.31631 0.60306-0.26949-0.76659 0.95172
  11   5  -2 145.054 98.6126   2 0.51566 0.27327 0.38410 0.03334 0.84631-0.89630
 -10   5   2 -7.6154 72.4486   7-0.64929-0.06480 0.10697 0.31065-0.85775 0.92105
  10   5  -2 -122.61 83.2147   2 0.50456 0.20938 0.36786 0.04959 0.85927-0.92279
 -10  -5   2 -61.242 80.0260   3-0.54265-0.17270-0.30486-0.11288-0.86771 0.93129
  10   5  -2 -4.3143 63.6168   5 0.57957 0.13475 0.23865 0.17897 0.87094-0.93430
  10  -5  -2 45.0631 88.6598   8 0.60547 0.10831-0.19181-0.22539 0.86896-0.93280
  -9   5   2 338.446 110.067   7-0.64702 0.00797 0.10650 0.31111-0.85933 0.93617
  -9  -5   2 346.095 101.068   9 0.04637-0.68521-0.38169-0.03581 0.91637-0.83913
   9   5  -2 348.493 123.197   2 0.49596 0.14300 0.35541 0.06203 0.86873-0.94578
   9   5  -2 508.248 127.168   5 0.57285 0.06649 0.23439 0.18325 0.87587-0.95274
  -9  -5   2 404.415 121.295   3-0.53457-0.10572-0.29694-0.12076-0.87467 0.95178
   9  -5  -2 230.794 119.517   8 0.60012 0.03869-0.18948-0.22773 0.87266-0.95000
  -8   5   2 14.3206 61.1363   7-0.65115 0.08714 0.10736 0.31022-0.85645 0.94683
   8  -5  -2 -1.0668 54.4831   4-0.07958 0.64439-0.29705-0.12064-0.95027 0.85898
  -8   5   2 30.8338 63.2173   6-0.34235-0.22167 0.53477-0.11766-0.82165 0.91214
  -8  -5   2 -16.960 50.4185   9 0.08281-0.64665-0.30206-0.11540 0.94906-0.85827
   8   5  -2 13.7929 46.0070   2 0.49034 0.07364 0.34735 0.07009 0.87464-0.96522
   8   5  -2 16.1953 44.3313   5 0.57068-0.00633 0.23302 0.18464 0.87743-0.96782
  -8  -5   2 36.4862 54.5672   3-0.53021-0.03502-0.29270-0.12501-0.87832 0.96897
   8  -5  -2 15.4083 59.4204   8 0.60002-0.03618-0.18944-0.22780 0.87272-0.96359
  -7   5   2 988.606 153.930   7-0.66353 0.17456 0.10994 0.30762-0.84758 0.95149
   7  -5  -2 847.871 153.831   4-0.11169 0.60149-0.21732-0.20053-0.97392 0.86912
  -7   5   2 697.717 129.529   6-0.33804-0.15098 0.51412-0.09701-0.83637 0.94040
   7   5  -2 580.602 133.654   2 0.48829 0.00070 0.34443 0.07301 0.87674-0.98085
   7   5  -2 895.728 148.137   5 0.57421-0.08484 0.23525 0.18244 0.87488-0.97880
  -7  -5   2 785.192 145.522   3-0.53038 0.04024-0.29286-0.12482-0.87817 0.98237
   7  -5  -2 908.982 171.249   8 0.60657-0.11770-0.19229-0.22497 0.86820-0.97258
  -7  -5   2 897.330 143.910   9 0.11681-0.60567-0.22405-0.19339 0.97276-0.86844
  -6   5   2 65.5664 45.4066   7-0.68661 0.27267 0.11476 0.30276-0.82999 0.94742
   6  -5  -2 105.319 65.0079   4-0.14117 0.55594-0.14061-0.27739-0.98933 0.87102
  -6  -5   2 50.8729 39.8537   9 0.14828-0.56215-0.14840-0.26904 0.98847-0.87061
  -6   5   2 91.6672 70.9900   6-0.33523-0.07880 0.50102-0.08392-0.84528 0.96285
   6   5  -2 10.7580 51.7818   2 0.49050-0.07649 0.34758 0.06985 0.87447-0.99211
   6   5  -2 20.6185 46.5382   5 0.58487-0.17046 0.24200 0.17571 0.86697-0.98443
  -6  -5   2 55.4715 50.2910   3-0.53607 0.12103-0.29842-0.11924-0.87339 0.99114
  -6   5   2 78.6151 61.1157   1 0.16123-0.57549 0.16434 0.25341 0.98625-0.86862
   6  -5  -2 21.4224 45.9635   8 0.62157-0.20767-0.19885-0.21843 0.85740-0.97531
   5   5  -2 1852.01 190.837   2 0.49771-0.15869 0.35794 0.05949 0.86684-0.99800
   5   5  -2 1876.78 137.973   6-0.23563 0.57487 0.13266 0.28507-0.98946 0.85808
  -5   5   2 1524.94 172.498   6-0.33416-0.00486 0.49612-0.07902-0.84853 0.97964
  -5  -5   2 1718.33 181.954   9 0.17711-0.51601-0.07590-0.34152 0.99712-0.86573
  -5  -5   2 1352.05 163.442   3-0.54848 0.20854-0.31060-0.10705-0.86252 0.99381
   5   5  -2 1856.36 182.592   5 0.60441-0.26499 0.25450 0.16325 0.85156-0.98255
   5  -5  -2 2021.17 208.038   8 0.64734-0.30843-0.21019-0.20710 0.83740-0.96882
   5  -5  -2 2011.54 220.092   4-0.16796 0.50767-0.06773-0.35039-0.99762 0.86576
  -5   5   2 1979.58 201.290   1 0.17734-0.51664 0.07711 0.34081 0.99701-0.86578
  -5   5   2 1954.52 191.102   7-0.72343 0.38452 0.12253 0.29495-0.79879 0.92972
   4   5  -2 333.457 71.9854   6-0.19165 0.45588-0.00039 0.41822-0.99993 0.85498
   4  -5  -2 284.804 72.7079   4-0.19198 0.45660 0.00044-0.41867-0.99993 0.85451
  -4  -5   2 258.086 77.3502   9 0.20320-0.46712-0.00744-0.40998 0.99970-0.85479
  -4   5   2 321.155 87.4038   6-0.33503 0.07100 0.50010-0.08301-0.84589 0.99052
   4   5  -2 327.144 83.8322   2 0.51072-0.24668 0.37684 0.04057 0.85219-0.99686
  -4  -5   2 406.390 89.3498   3-0.56891 0.30411-0.33091-0.08671-0.84314 0.98798
   4   5  -2 265.517 72.5079   5 0.63495-0.37049 0.27427 0.14353 0.82490-0.96946
   4  -5  -2 309.121 84.9078   8 0.68661-0.42267-0.22770-0.18962 0.80298-0.94792
  -4   5   2 273.953 79.2553   1 0.19046-0.45478-0.00087 0.41893 0.99995-0.85509
  -3   5   2 2922.11 230.674   1 0.20094-0.39023-0.06892 0.48712 0.99740-0.83891
   3   5  -2 2976.79 228.299   2 0.53021-0.34116 0.40579 0.01162 0.82786-0.98605
   3   5  -2 2738.07 191.428   6-0.15960 0.34880-0.09074 0.50865-0.99566 0.83713
  -3   5   2 2733.12 219.363   6-0.33793 0.14891 0.51363-0.09656-0.83671 0.99485
  -3  -5   2 2820.84 222.812   9 0.22641-0.41537 0.05609-0.47350 0.99730-0.83886
  -3  -5   2 2862.04 216.443   3-0.59864 0.40898-0.36109-0.05650-0.81125 0.96963
   3   5  -2 1513.75 157.697   5 0.67849-0.48902 0.30308 0.11477 0.78057-0.93872
   3  -5  -2 2693.52 234.229   4-0.21314 0.40266 0.06304-0.48135-0.99744 0.83845
  -2   5   2 134.547 60.8468   1 0.20910-0.32332-0.12650 0.54481 0.99150-0.81938
   2   5  -2 35.3555 28.7773   6-0.13728 0.25145-0.15084 0.56879-0.98767 0.81558
   2  -5  -2 76.0843 44.8199   4-0.23138 0.34579 0.11914-0.53751-0.99145 0.81889
   2   5  -2 122.855 53.7676   2 0.55650-0.44244 0.44619-0.02879 0.78973-0.96144
  -2  -5   2 75.2522 38.6480   9 0.24666-0.36064 0.11375-0.53116 0.99110-0.81913
  -2   5   2 35.6385 32.1635   6-0.34286 0.22884 0.53729-0.12023-0.81980 0.99145
  -1   5   2 187.667 58.2431   1 0.21524-0.25437-0.17321 0.59163 0.98415-0.79840
   1   5  -2 185.914 62.0891   6-0.12292 0.16203-0.18844 0.60641-0.98054 0.79489
   1  -5  -2 156.273 57.5798   4-0.24664 0.28593 0.16782-0.58623-0.98331 0.79718
  -1  -5   2 81.8071 31.4447   9 0.26386-0.30285 0.16457-0.58199 0.98241-0.79692
  -1   5   2 97.7909 47.4899   6-0.34957 0.31054 0.57136-0.15431-0.79344 0.97859
  10   6  -2 58.2443 103.512   2 0.50902 0.20493 0.37437 0.12659 0.85416-0.91768
  10  -6  -2 193.428 126.776   8 0.62551 0.08826-0.20057-0.30012 0.85447-0.91829
   9  -6  -2 91.2936 100.124   4-0.04073 0.68055-0.38854-0.11255-0.91275 0.83489
  -9   6   2 9.87829 56.9425   7-0.67885 0.03982 0.11313 0.38800-0.83606 0.91285
  -9   6   2 99.5814 80.4044   6-0.34570-0.29335 0.55142-0.05083-0.80916 0.88608
  -9  -6   2 27.4567 64.6651   9 0.04216-0.68100-0.39063-0.11035 0.91213-0.83488
   9   6  -2 72.7819 73.9308   2 0.50132 0.13765 0.36316 0.13780 0.86289-0.93994
  -9  -6   2 -34.509 68.6763   3-0.54471-0.09562-0.30689-0.19437-0.86589 0.94301
   9   6  -2 -45.738 77.5366   5 0.58932 0.05001 0.24484 0.25624 0.86356-0.94048
   9  -6  -2 60.1355 86.8018   8 0.62186 0.01694-0.19897-0.30173 0.85719-0.93453
  -8   6   2 288.056 110.404   7-0.68559 0.12161 0.11454 0.38656-0.83080 0.92113
   8  -6  -2 221.850 97.7185   4-0.07129 0.63611-0.31701-0.18425-0.94307 0.85174
  -8   6   2 222.878 89.0636   6-0.34065-0.22340 0.52653-0.02593-0.82763 0.91810
  -8  -6   2 219.568 108.264   9 0.07436-0.63821-0.32090-0.18006 0.94214-0.85134
   8   6  -2 188.202 106.941   2 0.49645 0.06753 0.35612 0.14483 0.86820-0.95878
  -8  -6   2 417.865 129.394   3-0.54127-0.02399-0.30350-0.19775-0.86892 0.95957
   8   6  -2 314.728 104.516   5 0.58844-0.02409 0.24428 0.25682 0.86424-0.95467
   8  -6  -2 252.908 106.047   8 0.62345-0.05962-0.19967-0.30105 0.85601-0.94687
  -7   6   2 287.103 100.297   7-0.70066 0.21170 0.11771 0.38337-0.81856 0.92242
   7  -6  -2 275.985 110.836   4-0.09948 0.58927-0.24810-0.25332-0.96574 0.86092
  -7   6   2 274.002 91.5222   6-0.33673-0.15231 0.50797-0.00737-0.84060 0.94462
  -7  -6   2 129.139 78.0356   9 0.10426-0.59312-0.25327-0.24766 0.96481-0.86048
   7   6  -2 184.708 96.1614   2 0.49490-0.00591 0.35390 0.14705 0.86985-0.97396
   7   6  -2 301.187 91.8124   5 0.59307-0.10369 0.24724 0.25390 0.86065-0.96460
  -7  -6   2 549.980 138.936   3-0.54213 0.05195-0.30434-0.19690-0.86817 0.97237
   7  -6  -2 313.514 110.282   8 0.63158-0.14274-0.20324-0.29751 0.84986-0.95423
  -6   6   2 503.873 118.780   7-0.72627 0.31234 0.12313 0.37792-0.79621 0.91359
   6  -6  -2 411.500 113.302   4-0.12527 0.54001-0.18243-0.31912-0.98180 0.86346
  -6   6   2 357.697 95.0450   1 0.15240-0.56671 0.20895 0.29226 0.97761-0.85994
  -6   6   2 424.798 107.318   6-0.33418-0.07986 0.49621 0.00439-0.84847 0.96604
  -6  -6   2 347.348 90.6243   9 0.13182-0.54570-0.18838-0.31255 0.98103-0.86318
   6   6  -2 500.654 128.548   2 0.49725-0.08324 0.35728 0.14366 0.86734-0.98497
  -6  -6   2 258.818 87.3954   3-0.54811 0.13305-0.31024-0.19098-0.86285 0.98059
   6   6  -2 397.142 115.346   5 0.60447-0.19006 0.25454 0.24663 0.85151-0.96900
   6  -6  -2 495.411 126.497   8 0.64789-0.23403-0.21044-0.29033 0.83695-0.95485
  -5   6   2 -2.3188 19.8272   7-0.76498 0.42607 0.13141 0.36959-0.75816 0.88904
   5  -6  -2 149.177 77.7037   4-0.14862 0.48830-0.12067-0.38100-0.99221 0.86033
  -5   6   2 112.948 51.4128   6-0.33320-0.00583 0.49176 0.00884-0.85139 0.98249
  -5  -6   2 36.3896 44.4871   9 0.15696-0.49586-0.12687-0.37404 0.99168-0.86029
   5   6  -2 4.09833 39.6812   2 0.50412-0.16510 0.36720 0.13372 0.85977-0.99093
  -5  -6   2 81.3564 40.7449   3-0.56024 0.22030-0.32225-0.17896-0.85160 0.98290
   5   6  -2 119.046 65.9514   5 0.62415-0.28470 0.26725 0.23397 0.83470-0.96575
   5  -6  -2 143.711 70.4298   8 0.67440-0.33550-0.22222-0.27856 0.81424-0.94565
  -5   6   2 119.635 70.1080   1 0.16675-0.50610 0.13534 0.36604 0.99072-0.85945
  -4   6   2 35.1074 55.1096   1 0.17864-0.44298 0.06966 0.43188 0.99757-0.85269
   4  -6  -2 16.8187 53.3039   4-0.16948 0.43407-0.06352-0.43826-0.99792 0.85250
   4   6  -2 92.3884 59.1779   6-0.22464 0.48889 0.09828 0.40303-0.99410 0.84914
  -4  -6   2 123.746 73.5592   9 0.17961-0.44353-0.06946-0.43145 0.99759-0.85267
  -4   6   2 -36.590 65.7693   6-0.33395 0.06993 0.49517 0.00542-0.84916 0.99379
   4   6  -2 13.5195 66.2360   2 0.51611-0.25208 0.38478 0.11615 0.84575-0.99043
  -4  -6   2 110.203 54.8564   3-0.57955 0.31476-0.34162-0.15958-0.83226 0.97710
   4   6  -2 -9.9224 45.1030   5 0.65382-0.38933 0.28666 0.21460 0.80668-0.95130
   4  -6  -2 4.29842 37.4231   8 0.71327-0.44935-0.23976-0.26105 0.77647-0.92139
   3   6  -2 32.9345 37.7821   6-0.19738 0.38659 0.01628 0.48511-0.99972 0.84119
   3  -6  -2 133.872 70.6746   4-0.18778 0.37728-0.01168-0.49019-0.99990 0.84092
   3   6  -2 23.6985 38.6643   2 0.53378-0.34474 0.41117 0.08973 0.82307-0.98126
  -3  -6   2 52.1469 40.2373   9 0.19967-0.38862-0.01685-0.48405 0.99967-0.84122
  -3   6   2 60.2197 39.2653   6-0.33652 0.14750 0.50697-0.00639-0.84127 0.99942
  -3  -6   2 43.6756 33.7816   3-0.60703 0.41740-0.36976-0.13141-0.80135 0.95972
  -3   6   2 43.5004 47.2318   1 0.18830-0.37761 0.01244 0.48925 0.99989-0.84140
  -2   6   2 2100.91 206.778   1 0.19597-0.31021-0.03588 0.53769 0.99923-0.82713
   2   6  -2 1709.67 183.150   2 0.55737-0.44331 0.44754 0.05335 0.78836-0.96007
   2   6  -2 1944.08 185.826   6-0.17720 0.29138-0.04174 0.54320-0.99912 0.82703
  -2   6   2 1858.32 190.871   6-0.34087 0.22686 0.52761-0.02706-0.82685 0.99850
  -2  -6   2 2018.55 201.724   9 0.21707-0.33103 0.03019-0.53109 0.99884-0.82686
   2  -6  -2 2174.69 221.062   4-0.20347 0.31785 0.03410-0.53604-0.99914 0.82661
   1   6  -2 647.437 114.063   6-0.16320 0.20234-0.08081 0.58230-0.99658 0.81094
   1  -6  -2 564.311 112.189   4-0.21645 0.25573 0.07307-0.57505-0.99663 0.81054
  -1  -6   2 635.429 114.748   9 0.23167-0.27066 0.07085-0.57176 0.99608-0.81057
  -1   6   2 494.519 101.109   6-0.34688 0.30787 0.55740-0.05688-0.80453 0.98969
   1  -6  -2 -0.7018 28.7504   9-0.06771 0.10673-0.60551 0.10444 0.76777-0.95332
  -1   6   2 422.150 96.2250   1 0.20183-0.24097-0.07488 0.57680 0.99695-0.81123
   0   6   2 1897.56 185.750   1 0.20603-0.17007-0.10422 0.60623 0.99419-0.79486
   0   6  -2 1827.81 189.490   6-0.15455 0.11864-0.10451 0.60604-0.99420 0.79500
   0  -6   2 1897.78 186.079   9 0.24340-0.20741 0.10429-0.60521 0.99238-0.79334
   0   6   2 659.182 113.061   6-0.35418 0.39015 0.59636-0.09586-0.77246 0.97111
   0  -6  -2 147.417 68.0772   9-0.06345 0.02747-0.59785 0.09678 0.77458-0.97366
   0  -6  -2 1884.32 190.310   4-0.22665 0.19082 0.10440-0.60639-0.99337 0.79372
   1   6   2 155.208 62.0564   1 0.20870-0.09763-0.12353 0.62562 0.99189-0.77895
  -1  -6  -2 140.250 65.4269   4-0.23394 0.12299 0.12718-0.62919-0.99029 0.77710
  -1  -6  -2 39.2639 38.3733   9-0.06403-0.04694-0.59890 0.09783 0.77366-0.98626
   9  -7  -2 4.26511 90.6136   4-0.03352 0.67336-0.40495-0.17972-0.90476 0.82685
  -9   7   2 123.483 79.1352   7-0.71613 0.07712 0.12098 0.46369-0.80530 0.88204
  -9   7   2 11.9021 54.6453   6-0.34553-0.29355 0.55055 0.03354-0.80983 0.88673
  -9  -7   2 -65.244 76.8168   9 0.03468-0.67352-0.40637-0.17809 0.90435-0.82711
   9   7  -2 5.48233 60.9447   2 0.50988 0.12910 0.37561 0.20885 0.85317-0.93021
   9   7  -2 21.8200 62.1098   5 0.60991 0.02940 0.25804 0.32649 0.84699-0.92396
   9  -7  -2 -49.398 97.5315   8 0.64824-0.00946-0.21059-0.37361 0.83667-0.91401
   8  -7  -2 -10.817 75.8107   4-0.06084 0.62566-0.34183-0.24300-0.93336 0.84199
  -8   7   2 -60.113 84.3578   7-0.72565 0.16168 0.12300 0.46164-0.79677 0.88704
  -8   7   2 127.831 93.0014   6-0.34097-0.22310 0.52807 0.05603-0.82651 0.91697
  -8  -7   2 65.4569 91.4594   9 0.06353-0.62737-0.34470-0.23975 0.93268-0.84189
   8   7  -2 60.8400 64.0614   2 0.50580 0.05818 0.36965 0.21480 0.85787-0.94845
  -8  -7   2 26.0626 64.0525   3-0.55600-0.00928-0.31805-0.26677-0.85560 0.94625
   8   7  -2 -29.580 61.8767   5 0.61044-0.04609 0.25838 0.32617 0.84655-0.93703
   8  -7  -2 48.5842 73.7085   8 0.65168-0.08788-0.21211-0.37211 0.83384-0.92469
   7   7  -2 1824.66 247.616   2 0.50483-0.01583 0.36825 0.21621 0.85897-0.96307
  -7   7   2 1575.81 210.928   6-0.33747-0.15161 0.51142 0.07270-0.83824 0.94224
  -7  -7   2 1570.57 218.606   9 0.09020-0.57906-0.28541-0.29902 0.95479-0.85046
  -7  -7   2 2046.85 245.387   3-0.55765 0.06746-0.31967-0.26514-0.85406 0.95826
   7   7  -2 1889.26 230.597   5 0.61630-0.12692 0.26217 0.32242 0.84157-0.94558
   7  -7  -2 2225.59 282.477   8 0.66156-0.17273-0.21651-0.36774 0.82553-0.92989
   7  -7  -2 2048.08 294.216   4-0.08596 0.57573-0.28152-0.30346-0.95551 0.85065
  -7   7   2 1998.17 244.106   7-0.74350 0.25456 0.12680 0.45780-0.77995 0.88375
   6  -7  -2 439.023 147.137   4-0.10884 0.52357-0.22456-0.36056-0.97210 0.85373
  -6   7   2 216.727 88.8110   6-0.33521-0.07885 0.50094 0.08317-0.84534 0.96289
  -6  -7   2 138.465 65.0773   9 0.11467-0.52855-0.22905-0.35536 0.97148-0.85362
   6   7  -2 136.698 98.0464   2 0.50745-0.09344 0.37205 0.21239 0.85599-0.97362
  -6  -7   2 364.668 120.893   3-0.56409 0.14902-0.32609-0.25871-0.84788 0.96563
   6   7  -2 226.490 89.3577   5 0.62860-0.21417 0.27013 0.31449 0.83072-0.94827
   6  -7  -2 314.510 106.642   8 0.67932-0.26547-0.22443-0.35983 0.80977-0.92765
   5  -7  -2 1037.85 185.170   4-0.12947 0.46912-0.17150-0.41373-0.98396 0.85207
  -5   7   2 726.820 141.728   6-0.33436-0.00468 0.49706 0.08705-0.84792 0.97900
  -5  -7   2 574.189 137.474   9 0.13687-0.47578-0.17619-0.40822 0.98350-0.85211
   5   7  -2 711.992 141.418   2 0.51414-0.17513 0.38188 0.20256 0.84812-0.97928
  -5   7   2 757.707 146.723   1 0.15624-0.49562 0.18985 0.39499 0.98157-0.85026
  -5  -7   2 514.534 123.764   3-0.57615 0.23621-0.33819-0.24661-0.83579 0.96709
   5   7  -2 754.889 141.506   5 0.64860-0.30912 0.28322 0.30144 0.81186-0.94297
   5  -7  -2 682.771 147.410   8 0.70666-0.36778-0.23676-0.34753 0.78331-0.91470
   4  -7  -2 149.159 71.0081   4-0.14779 0.41235-0.12291-0.46241-0.99191 0.84647
   4   7  -2 87.1129 71.0919   6-0.25012 0.51440 0.17931 0.40548-0.98099 0.83600
  -4  -7   2 99.1992 67.1570   9 0.15675-0.42069-0.12738-0.45702 0.99161-0.84668
   4   7  -2 118.889 74.8995   2 0.52542-0.26140 0.39860 0.18582 0.83412-0.97880
  -4   7   2 91.9838 59.5579   6-0.33505 0.07103 0.50020 0.08389-0.84583 0.99044
  -4  -7   2 135.918 75.5211   3-0.59467 0.32988-0.35701-0.22777-0.81579 0.96062
   4   7  -2 91.3394 60.8279   5 0.67765-0.41312 0.30252 0.28219 0.78150-0.92618
  -4   7   2 124.348 64.0090   1 0.16709-0.43147 0.13353 0.45148 0.99097-0.84607
   3   7  -2 2690.90 260.456   2 0.54167-0.35263 0.42318 0.16123 0.81207-0.97027
   3   7  -2 2560.43 222.989   6-0.22680 0.41605 0.10501 0.47987-0.99330 0.83477
  -3   7   2 2277.65 232.707   6-0.33734 0.14832 0.51081 0.07328-0.83865 0.99679
  -3  -7   2 2248.31 238.839   9 0.17423-0.36319-0.08326-0.50114 0.99652-0.83806
  -3  -7   2 2369.52 237.937   3-0.62037 0.43074-0.38370-0.20106-0.78471 0.94307
  -3   7   2 2329.97 240.819   1 0.17601-0.36535 0.08461 0.50055 0.99640-0.83790
   3  -7  -2 2397.93 259.282   4-0.16375 0.35321-0.07941-0.50600-0.99670 0.83773
   2   7  -2 60.6674 65.2703   6-0.20881 0.32301 0.05015 0.53479-0.99832 0.82623
   2  -7  -2 -53.640 74.7927   4-0.17728 0.29164-0.04162-0.54386-0.99913 0.82660
   2   7  -2 -15.318 38.4164   2 0.56304-0.44900 0.45653 0.12788 0.77912-0.95083
  -2  -7   2 51.6315 53.2243   9 0.18922-0.30319-0.04447-0.53993 0.99897-0.82698
  -2   7   2 -26.948 57.5923   6-0.34121 0.22721 0.52922 0.05483-0.82569 0.99733
  -2   7   2 -7.9418 57.8658   1 0.18314-0.29741 0.04352 0.54176 0.99905-0.82694
   2  -7  -2 -14.439 31.6063   9-0.07229 0.18632-0.61370 0.02912 0.76032-0.93234
   1   7  -2 2385.29 233.637   6-0.19569 0.23484 0.01135 0.57365-0.99981 0.81417
  -1   7   2 2408.36 231.563   6-0.34655 0.30756 0.55573 0.02829-0.80583 0.99098
  -1  -7   2 2566.98 238.428   9 0.20160-0.24059-0.01172-0.57269 0.99970-0.81418
   1  -7  -2 2644.63 250.217   4-0.18829 0.22754-0.01021-0.57531-0.99991 0.81384
  -1   7   2 2305.71 225.322   1 0.18860-0.22778 0.01063 0.57477 0.99991-0.81420
   0   7  -2 -20.459 41.2403   6-0.18694 0.15106-0.01397 0.59900-0.99988 0.80068
   0  -7  -2 57.1439 53.4326   4-0.19666 0.16081 0.01409-0.59962-0.99976 0.80014
   0   7   2 -11.859 41.9372   6-0.35310 0.38911 0.59038-0.00639-0.77761 0.97625
   0  -7  -2 63.5019 62.0500   9-0.06010 0.02412-0.59179 0.00721 0.77986-0.97893
   0   7   2 42.1872 59.2984   1 0.19252-0.15659-0.01372 0.59923 0.99983-0.80051
   1   7   2 299.272 87.4567   1 0.19493-0.08388-0.02916 0.61475 0.99947-0.78656
  -1   7  -2 303.182 103.584   6-0.18211 0.07117-0.02782 0.61287-0.99961 0.78687
  -1  -7  -2 294.998 90.7801   4-0.20222 0.09126 0.03043-0.61598-0.99929 0.78612
   1  -7   2 207.495 78.0022   9 0.21793-0.10695 0.03255-0.61697 0.99873-0.78615
  -1  -7  -2 106.219 74.4465   9-0.06079-0.05017-0.59304 0.00847 0.77878-0.99137
   2   7   2 43.0328 54.6582   1 0.19588-0.00969-0.03527 0.62091 0.99925-0.77275
  -2  -7  -2 26.7334 60.6784   4-0.20473 0.01867 0.03785-0.62338-0.99897 0.77228
  -2  -7  -2 63.1089 33.0106   9-0.06511-0.12084-0.60085 0.01628 0.77193-0.99806
  -9   8   2 95.1422 90.8739   6-0.34682-0.29229 0.55713 0.11047-0.80474 0.88162
   8  -8  -2 -69.468 112.495   4-0.04875 0.61355-0.37010-0.29830-0.92127 0.82984
  -8   8   2 216.275 110.414   6-0.34276-0.22134 0.53679 0.13082-0.82017 0.91060
  -8  -8   2 69.0227 85.5385   9 0.05087-0.61472-0.37207-0.29588 0.92080-0.83002
   8   8  -2 64.4613 57.9546   5 0.63588-0.07152 0.27488 0.39311 0.82403-0.91460
   8  -8  -2 80.7803 120.033   8 0.68390-0.12011-0.22649-0.44124 0.80553-0.89637
   7  -8  -2 -46.795 117.146   4-0.07137 0.56113-0.31682-0.35171-0.94314 0.83823
  -7   8   2 20.4940 57.9965   6-0.33966-0.14942 0.52182 0.14580-0.83098 0.93496
   7   8  -2 -62.382 89.6044   2 0.51722-0.02822 0.38641 0.28155 0.84441-0.94851
  -7  -8   2 -38.137 65.1793   9 0.07493-0.56379-0.31964-0.34828 0.94261-0.83829
  -7  -8   2 17.7789 66.5116   3-0.57608 0.08588-0.33812-0.33027-0.83587 0.94006
   7   8  -2 11.9048 72.5104   5 0.64300-0.15358 0.27954 0.38848 0.81730-0.92139
   7  -8  -2 26.7651 72.4294   8 0.69553-0.20672-0.23172-0.43602 0.79442-0.89877
   6  -8  -2 922.714 194.070   4-0.09191 0.50660-0.26691-0.40175-0.96015 0.84175
  -6   8   2 774.705 161.831   6-0.33770-0.07636 0.51252 0.15510-0.83747 0.95500
   6   8  -2 662.935 156.709   2 0.52014-0.10614 0.39075 0.27721 0.84080-0.95843
  -6  -8   2 923.595 183.103   9 0.09688-0.51076-0.27024-0.39768 0.95969-0.84183
  -6  -8   2 696.143 153.803   3-0.58302 0.16794-0.34514-0.32326-0.82858 0.94632
   6   8  -2 769.041 166.361   5 0.65621-0.24174 0.28824 0.37982 0.80427-0.92189
   6  -8  -2 339.835 124.753   8 0.71471-0.30088-0.24042-0.42734 0.77496-0.89282
   5  -8  -2 108.139 107.232   4-0.11031 0.44992-0.22084-0.44794-0.97304 0.84112
   5   8  -2 16.0101 54.7166   2 0.52677-0.18777 0.40063 0.26732 0.83237-0.96352
  -5   8   2 47.3568 55.1584   6-0.33700-0.00205 0.50923 0.15839-0.83974 0.97080
  -5  -8   2 24.0903 70.0204   9 0.11668-0.45559-0.22433-0.44357 0.97269-0.84130
  -5  -8   2 -10.803 58.5649   3-0.59511 0.25518-0.35747-0.31093-0.81528 0.94657
   5   8  -2 4.75950 46.3043   5 0.67656-0.33705 0.30179 0.36631 0.78271-0.91389
   4   8  -2 2832.29 295.952   2 0.53749-0.27348 0.41681 0.25112 0.81796-0.96263
  -4   8   2 2402.74 266.664   6-0.33765 0.07362 0.51229 0.15532-0.83763 0.98223
  -4  -8   2 3065.38 299.455   9 0.13429-0.39821-0.18244-0.48547 0.98226-0.83733
  -4  -8   2 2778.17 285.826   3-0.61301 0.34822-0.37598-0.29240-0.79404 0.93886
  -4   8   2 2754.08 297.550   1 0.15564-0.42003 0.19288 0.47559 0.98097-0.83602
   4  -8  -2 2879.52 318.750   4-0.12655 0.39107-0.17911-0.48976-0.98247 0.83702
   3  -8  -2 30.7429 69.2303   4-0.14056 0.32999-0.14224-0.52671-0.98908 0.83008
   3   8  -2 -59.514 63.9288   6-0.25098 0.44025 0.18213 0.48622-0.98039 0.82184
   3   8  -2 28.0053 66.0664   2 0.55258-0.36355 0.44005 0.22787 0.79586-0.95405
  -3  -8   2 -107.95 80.5636   9 0.14962-0.33856-0.14509-0.52282 0.98900-0.83053
  -3   8   2 115.805 89.3625   6-0.33971 0.15070 0.52204 0.14555-0.83082 0.98894
  -3   8   2 126.689 80.4732   1 0.16389-0.35324 0.15053 0.51808 0.98849-0.82995
  -2   8   2 666.950 150.548   1 0.17049-0.28477 0.11519 0.55356 0.99330-0.82117
   2  -8  -2 455.533 125.563   4-0.15228 0.26661-0.11079-0.55822-0.99346 0.82093
   2   8  -2 480.420 112.649   6-0.23497 0.34919 0.13056 0.53786-0.98979 0.81768
  -2  -8   2 596.429 133.906   9 0.16256-0.27653-0.11285-0.55506 0.99347-0.82148
  -2   8   2 770.544 156.245   6-0.34317 0.22918 0.53877 0.12879-0.81870 0.99033
   2  -8  -2 -20.046 35.4731   9-0.07307 0.18709-0.61507-0.05301 0.75906-0.93107
  -1   8   2 190.019 88.1389   1 0.17555-0.21474 0.08718 0.58169 0.99618-0.81046
   1  -8  -2 516.911 135.262   4-0.16160 0.20082-0.08535-0.58369-0.99618 0.81010
   1   8  -2 397.258 114.763   6-0.22285 0.26203 0.09277 0.57570-0.99471 0.80906
  -1  -8   2 392.132 105.337   9 0.17302-0.21201-0.08636-0.58155 0.99625-0.81072
  -1   8   2 375.668 118.074   6-0.34791 0.30894 0.56270 0.10483-0.80037 0.98550
   1  -8  -2 57.2641 68.1553   9-0.06529 0.10431-0.60116-0.06693 0.77165-0.95719
   0   8  -2 2547.69 255.417   6-0.21436 0.17850 0.06687 0.60166-0.99715 0.79795
   0  -8   2 2561.38 250.952   9 0.18083-0.14484-0.06630-0.60162 0.99780-0.79875
  -1   8  -2 16.8339 46.3110   6-0.20920 0.09828 0.05131 0.61725-0.99825 0.78549
  -1  -8  -2 62.1263 63.2589   4-0.17242 0.06145-0.05527-0.61379-0.99844 0.78528
   1  -8   2 80.1862 69.3459   9 0.18578-0.07481-0.05346-0.61446 0.99856-0.78596
   1   8   2 50.2299 65.8621   1 0.18125-0.07021 0.05454 0.61450 0.99851-0.78560
  -1  -8  -2 45.1747 51.2555   9-0.06253-0.04843-0.59619-0.07188 0.77603-0.98863
   1   8   2 -2.1949 37.6890   2 0.25886-0.14802 0.04653 0.62168 0.99566-0.78328
  -2  -8  -2 65.8967 64.3218   4-0.17349-0.01258-0.05231-0.61674-0.99861 0.77193
   2   8   2 114.168 73.6709   1 0.18192 0.00426 0.05067 0.61842 0.99871-0.77221
  -2  -8  -2 4.29090 33.4496   9-0.06639-0.11957-0.60314-0.06493 0.76989-0.99601
   2   8   2 95.1981 61.0543   2 0.24991-0.06406 0.03579 0.63242 0.99681-0.77090
  -3  -8  -2 63.2709 62.3286   4-0.17116-0.08999-0.05882-0.61019-0.99822 0.75802
   3   8   2 14.5262 42.1269   1 0.18105 0.08026 0.05573 0.61339 0.99844-0.75836
  -3  -8  -2 -164.93 76.3715   9-0.07315-0.18779-0.61523-0.05285 0.75891-0.99857
   3   8   2 -83.101 49.3009   2 0.24792 0.01293 0.03342 0.63480 0.99704-0.75760
   7   9  -2 289.464 120.159   5 0.67235-0.18291 0.29897 0.45248 0.78733-0.89152
   6  -9  -2 150.499 120.343   4-0.07445 0.48911-0.30943-0.44278-0.94586 0.82740
   6   9  -2 72.1740 118.486   2 0.53465-0.12065 0.41249 0.33898 0.82188-0.93950
  -6   9   2 121.254 108.081   6-0.34120-0.07288 0.52917 0.22197-0.82572 0.94322
  -6  -9   2 130.482 100.368   9 0.07846-0.49234-0.31179-0.43962 0.94554-0.82768
  -6  -9   2 157.458 103.389   3-0.60413 0.18905-0.36675-0.38524-0.80482 0.92255
   6   9  -2 73.1939 51.0497   5 0.68641-0.27191 0.30841 0.44309 0.77157-0.88931
   5  -9  -2 66.8959 122.817   4-0.09101 0.43058-0.26911-0.48320-0.95947 0.82750
   5   9  -2 44.3944 77.4554   2 0.54125-0.20223 0.42253 0.32892 0.81267-0.94382
  -5   9   2 35.9826 58.5429   6-0.34063 0.00158 0.52645 0.22469-0.82768 0.95872
  -5  -9   2 15.3772 90.1097   9 0.09626-0.43516-0.27165-0.47976 0.95924-0.82785
  -5  -9   2 207.126 132.451   3-0.61626 0.27632-0.37938-0.37262-0.78996 0.92122
   4  -9  -2 685.137 176.327   4-0.10551 0.36999-0.23299-0.51941-0.96990 0.82440
   4   9  -2 540.480 164.055   2 0.55150-0.28748 0.43835 0.31310 0.79753-0.94219
  -4  -9   2 711.771 170.348   9 0.11195-0.37587-0.23541-0.51599 0.96980-0.82487
  -4   9   2 709.810 182.826   6-0.34127 0.07725 0.52951 0.22161-0.82548 0.97005
   3  -9  -2 140.777 105.127   4-0.11788 0.30726-0.20153-0.55095-0.97767 0.81864
   3   9  -2 84.5914 83.9605   2 0.56557-0.37656 0.46057 0.29087 0.77488-0.93306
   3   9  -2 246.165 103.235   6-0.27159 0.46088 0.25158 0.50024-0.96271 0.80412
  -3   9   2 186.248 99.2780   1 0.15178-0.34114 0.21203 0.54004 0.97693-0.81834
  -3  -9   2 -40.261 64.0879   9 0.12546-0.31441-0.20359-0.54781 0.97770-0.81924
  -3   9   2 278.306 113.662   6-0.34314 0.15413 0.53863 0.21247-0.81881 0.97690
   2  -9  -2 187.382 108.108   4-0.12804 0.24232-0.17522-0.57731-0.98324 0.81069
   2   9  -2 161.129 82.9740   6-0.25733 0.37157 0.20310 0.54881-0.97567 0.80354
  -2  -9   2 134.483 74.8954   9 0.13668-0.25065-0.17668-0.57473 0.98341-0.81141
  -2   9   2 345.724 112.745   6-0.34622 0.23224 0.55404 0.19704-0.80715 0.97875
  -2   9   2 96.5233 81.9641   1 0.15792-0.27221 0.18134 0.57086 0.98321-0.81104
   1  -9  -2 459.711 132.762   4-0.13590 0.17508-0.15459-0.59797-0.98704 0.80095
   1   9  -2 251.911 112.062   6-0.24623 0.28542 0.16660 0.58536-0.98355 0.79787
  -1  -9   2 291.159 88.5085   9 0.14547-0.18448-0.15523-0.59617 0.98733-0.80180
  -1   9   2 475.630 151.081   6-0.35043 0.31147 0.57591 0.17513-0.78973 0.97483
   1  -9  -2 24.9416 43.9184   9-0.07098 0.11001-0.61137-0.14022 0.76246-0.94800
  -1   9   2 403.162 129.343   1 0.16259-0.20178 0.15732 0.59500 0.98741-0.80165
   0  -9  -2 51.9696 59.3191   4-0.14130 0.10538-0.14027-0.61230-0.98938 0.78976
   0   9  -2 -44.279 60.4048   6-0.23814 0.20230 0.14066 0.61136-0.98819 0.78897
   0  -9   2 39.6619 62.2218   9 0.15170-0.11571-0.13991-0.61150 0.98980-0.79073
   0   9   2 4.81971 30.9419   6-0.35557 0.39163 0.60430 0.14671-0.76549 0.96409
   0  -9  -2 43.5346 56.5352   9-0.06772 0.03174-0.60553-0.14605 0.76775-0.96682
   0   9   2 -5.0049 45.0410   1 0.16583-0.12992 0.14027 0.61215 0.99002-0.79067
  -1  -9  -2 63.2405 62.2641   4-0.14405 0.03304-0.13294-0.61962-0.99049 0.77734
   1   9   2 -5.1620 41.3048   2 0.31717-0.20634 0.11780 0.63390 0.98279-0.77041
  -1  -9  -2 21.2241 46.7905   9-0.06797-0.04300-0.60598-0.14559 0.76735-0.97994
   1   9   2 9.88877 49.3104   1 0.16765-0.05662 0.13053 0.62197 0.99137-0.77843
  -2  -9  -2 -31.270 50.5293   4-0.14387-0.04223-0.13345-0.61910-0.99042 0.76373
   2   9   2 -40.519 48.3840   2 0.30482-0.11898 0.10250 0.64923 0.98632-0.76041
  -2  -9  -2 -46.094 71.7642   9-0.07129-0.11466-0.61192-0.13965 0.76196-0.98808
   2   9   2 -22.968 46.2227   1 0.16804 0.01814 0.12848 0.62406 0.99164-0.76512
   4  10  -2 -20.965 44.0360   2 0.56676-0.30276 0.46247 0.37249 0.77286-0.91750
   3 -10  -2 -13.460 83.6730   4-0.09543 0.28476-0.25818-0.57781-0.96280 0.80373
  -3 -10   2 124.449 92.4030   9 0.10150-0.29045-0.25963-0.57528 0.96293-0.80447
  -3  10   2 108.581 114.696   6-0.34722 0.15823 0.55919 0.27543-0.80314 0.96118
   2 -10  -2 778.139 182.089   4-0.10426 0.21850-0.23612-0.59992-0.96906 0.79647
   2  10  -2 175.552 123.032   6-0.27688 0.39115 0.27004 0.56534-0.95701 0.78483
  -2 -10   2 444.066 135.022   9 0.11122-0.22519-0.23712-0.59779 0.96934-0.79734
  -2  10   2 598.711 157.050   6-0.34998 0.23602 0.57353 0.26106-0.79167 0.96323
   1 -10  -2 170.759 89.3724   4-0.11086 0.14998-0.21945-0.61661-0.97339 0.78727
   1  10  -2 -38.630 86.8375   6-0.26675 0.30598 0.23491 0.60053-0.96750 0.78178
  -1  10   2 -9.5714 70.5344   1 0.14960-0.18879 0.22273 0.61303 0.97450-0.78868
  -1 -10   2 29.4433 93.9455   9 0.11859-0.15758-0.21985-0.61507 0.97382-0.78828
  -1  10   2 81.5955 78.4460   6-0.35370 0.31476 0.59372 0.24083-0.77475 0.95981
  -1 -10  -2 48.8002 82.4599   4-0.11665 0.00559-0.20467-0.63140-0.97694 0.76377
   1  10   2 49.1040 72.4821   1 0.15405-0.04301 0.20080 0.63513 0.97935-0.76635
 -12   0   3 186.500 128.061   7-0.71305-0.13300 0.12033-0.12045-0.80801 0.94365
  12   0  -3 320.632 158.556   8 0.70586 0.14000-0.23640 0.23662 0.78412-0.92045
 -11   0   3 -42.678 58.6367   7-0.70643-0.06459 0.11893-0.11905-0.81371 0.96289
  11   0  -3 48.9254 63.8558   5 0.68976 0.08196 0.31069-0.31043 0.76767-0.91672
  11   0  -3 4.11082 63.8324   8 0.69903 0.07188-0.23330 0.23351 0.79098-0.94084
 -10   0   3 60.4801 71.9167   7-0.70441 0.00841 0.11850-0.11863-0.81542 0.97814
  10   0  -3 55.4125 63.6672   5 0.68673 0.00995 0.30863-0.30836 0.77120-0.93380
  10   0  -3 112.287 81.0886   8 0.69656-0.00061-0.23219 0.23239 0.79341-0.95679
  -9   0   3 28.6411 63.8116   7-0.70812 0.08715 0.11928-0.11941-0.81227 0.98852
   9   0  -3 48.3027 47.0107   5 0.68875-0.06711 0.31000-0.30971 0.76885-0.94499
   9   0  -3 99.5631 101.884   8 0.69950-0.07852-0.23352 0.23371 0.79051-0.96741
  -8   0   3 928.398 161.467   7-0.71898 0.17303 0.12158-0.12171-0.80278 0.99255
  -7   0   3 -16.386 47.9062   7-0.73871 0.26777 0.12578-0.12591-0.78458 0.98786
   7   0  -3 39.4867 46.2690   4-0.25994 0.73198 0.21170-0.21200-0.97358 0.76893
  -7   0   3 54.1132 24.9022   9 0.26499-0.73586 0.16799-0.16794 0.98172-0.77794
   7   0  -3 49.7681 49.4468   8 0.72697-0.25592-0.24602 0.24619 0.76171-0.96567
 -12  -1   3 348.315 160.766   7-0.72484-0.12118 0.12283-0.20647-0.79751 0.93315
  12   1  -3 239.533 104.094   5 0.67938 0.16733 0.30368-0.21989 0.77957-0.91511
  12  -1  -3 392.071 176.249   8 0.69267 0.15318-0.23043 0.14719 0.79720-0.93352
  12   1  -3 20.9200 64.2589   8 0.72561 0.12029-0.24539 0.32908 0.76322-0.89957
 -11   1   3 -7.0784 75.3787   7-0.70053-0.07050 0.11768-0.03429-0.81867 0.96786
 -11  -1   3 88.1345 89.0360   7-0.71901-0.05199 0.12159-0.20523-0.80276 0.95193
  11   1  -3 -16.038 54.0297   5 0.67133 0.10035 0.29829-0.21448 0.78844-0.93751
  11  -1  -3 224.941 129.565   8 0.68511 0.08578-0.22703 0.14378 0.80440-0.95425
  11   1  -3 -8.5222 61.0079   8 0.72001 0.05091-0.24284 0.32652 0.76931-0.91917
 -10   1   3 67.3710 76.0998   7-0.69809 0.00209 0.11717-0.03377-0.82069 0.98341
 -10  -1   3 40.4328 84.9651   7-0.71792 0.02195 0.12136-0.20500-0.80372 0.96644
  10   1  -3 170.795 87.7431   5 0.66713 0.02952 0.29550-0.21166 0.79293-0.95554
  10  -1  -3 13.0877 85.6817   8 0.68171 0.01422-0.22550 0.14224 0.80757-0.97094
  10   1  -3 110.939 94.7180   8 0.71904-0.02307-0.24239 0.32606 0.77036-0.93375
  -9   1   3 141.178 74.9586   7-0.70125 0.08027 0.11784-0.03445-0.81807 0.99432
  -9  -1   3 76.2173 91.7245   7-0.72275 0.10179 0.12238-0.20602-0.79941 0.97565
   9   1  -3 254.288 96.2656   5 0.66771-0.04609 0.29588-0.21202 0.79232-0.96847
   9  -1  -3 218.970 93.8826   8 0.68347-0.06251-0.22629 0.14301 0.80593-0.98283
   9   1  -3 31.0980 51.3180   8 0.72377-0.10276-0.24455 0.32821 0.76523-0.94215
   8   1  -3 2756.49 250.100   5 0.67413-0.12753 0.30016-0.21629 0.78539-0.97508
   8  -1  -3 3837.66 332.771   8 0.69162-0.14562-0.22996 0.14666 0.79821-0.98864
  -8   1   3 3488.18 296.955   7-0.71139 0.16543 0.11998-0.03660-0.80945 0.99922
  -8  -1   3 3458.01 298.677   7-0.73493 0.18898 0.12497-0.20861-0.78817 0.97793
  -7   1   3 231.217 80.4200   7-0.73018 0.25923 0.12396-0.04059-0.79261 0.99590
  -7  -1   3 7.81938 42.0273   7-0.75616 0.28522 0.12952-0.21314-0.76732 0.97059
   7  -1  -3 148.138 59.7026   4-0.23877 0.71081 0.14250-0.22641-0.98789 0.78325
  -7  -1   3 163.744 44.3513   9 0.24603-0.71690 0.11191-0.19535 0.99136-0.78758
   7   1  -3 56.1316 47.8802   5 0.68763-0.21607 0.30924-0.22534 0.77016-0.97340
   7  -1  -3 128.667 81.9482   8 0.70760-0.23657-0.23718 0.15388 0.78235-0.98630
 -12  -2   3 121.625 116.442   7-0.74294-0.10306 0.12668-0.29383-0.78050 0.91612
  12   2  -3 69.2706 88.4323   5 0.66826 0.17840 0.29624-0.12891 0.79173-0.92729
 -11   2   3 450.885 160.358   7-0.70109-0.06995 0.11780 0.04913-0.81820 0.96738
 -11  -2   3 587.043 170.635   7-0.73837-0.03260 0.12571-0.29285-0.78490 0.93407
 -11  -2   3 204.455 93.6545   3-0.62970-0.14277-0.39358 0.22639-0.77234 0.92195
  11   2  -3 530.711 148.393   5 0.65979 0.11184 0.29061-0.12326 0.80061-0.94970
  11  -2  -3 387.086 136.075   8 0.67786 0.09301-0.22378 0.05706 0.81111-0.96095
 -10   2   3 398.841 125.368   7-0.69874 0.00273 0.11731 0.04962-0.82016 0.98287
 -10  -2   3 252.978 135.187   7-0.73875 0.04279 0.12579-0.29292-0.78454 0.94725
 -10  -2   3 263.772 89.5792   3-0.62374-0.07369-0.38726 0.22012-0.78031 0.94343
  10   2  -3 166.125 85.4941   5 0.65500 0.04162 0.28744-0.12007 0.80549-0.96811
  10  -2  -3 242.946 117.240   8 0.67406 0.02185-0.22208 0.05534 0.81455-0.97792
  -9   2   3 1206.28 195.370   7-0.70189 0.08091 0.11797 0.04894-0.81754 0.99378
  -9  -2   3 704.380 163.006   7-0.74523 0.12429 0.12717-0.29431-0.77826 0.95449
  -9  -2   3 1157.30 181.051   3-0.62155-0.00083-0.38495 0.21786-0.78317 0.95981
   9   2  -3 1204.20 186.260   5 0.65472-0.03312 0.28725-0.11986 0.80578-0.98193
   9  -2  -3 1077.56 192.007   8 0.67521-0.05427-0.22259 0.05584 0.81351-0.99040
  -8   2   3 643.390 142.084   7-0.71187 0.16592 0.12008 0.04682-0.80903 0.99880
  -8  -2   3 156.005 79.8091   7-0.75926 0.21332 0.13018-0.29731-0.76413 0.95388
  -8  -2   3 532.672 91.7915   9 0.17508-0.72093-0.08109-0.08586 0.99670-0.80642
  -8  -2   3 572.477 120.439   3-0.62392 0.07658-0.38744 0.22040-0.78008 0.97025
   8   2  -3 512.830 120.153   5 0.65994-0.11336 0.29071-0.12329 0.80046-0.99014
   8  -2  -3 577.468 125.416   8 0.68246-0.13649-0.22584 0.05907 0.80687-0.99728
  -7   2   3 120.929 72.5868   7-0.73029 0.25935 0.12399 0.04290-0.79250 0.99578
   7  -2  -3 107.574 56.5505   4-0.21964 0.69168 0.08277-0.25027-0.99574 0.79112
  -7  -2   3 57.1778 42.2254   9 0.22793-0.69879 0.06030-0.22723 0.99698-0.79319
   7   2  -3 253.011 88.7044   5 0.67185-0.20028 0.29864-0.13120 0.78787-0.99111
   7  -2  -3 217.562 88.7349   8 0.69720-0.22619-0.23247 0.06569 0.79279-0.99673
  -7   2   3 75.6548 43.2269   1 0.20744-0.67859-0.11431 0.28195 0.99303-0.78954
  -6   2   3 48.3788 47.4355   7-0.75892 0.36298 0.13011 0.03677-0.76449 0.98127
   6  -2  -3 5.45542 47.2572   4-0.26208 0.65906 0.21890-0.38649-0.97176 0.75350
   6  -2  -3 -30.351 52.2299   8 0.72091-0.32488-0.24325 0.07645 0.76834-0.98580
 -12  -3   3 -259.07 110.854   7-0.76730-0.07868 0.13191-0.38256-0.75569 0.89130
 -12  -3   3 -24.136 64.6355   3-0.62849-0.21903-0.39230 0.14159-0.77397 0.91004
 -11   3   3 712.903 172.895   7-0.70781-0.06324 0.11922 0.13125-0.81253 0.96169
 -11  -3   3 -19.368 55.0950   7-0.76446-0.00650 0.13130-0.38194-0.75870 0.90786
 -11  -3   3 840.818 181.163   3-0.61931-0.15320-0.38259 0.13192-0.78607 0.93565
  11   3  -3 825.670 174.318   5 0.65453 0.11706 0.28713-0.03627 0.80597-0.95506
  11  -3  -3 1086.47 234.529   8 0.67680 0.09406-0.22331-0.02690 0.81207-0.96191
 -10   3   3 136.832 97.6034   7-0.70599 0.00996 0.11883 0.13162-0.81408 0.97678
 -10  -3   3 -128.20 69.1764   7-0.76676 0.07081 0.13180-0.38243-0.75627 0.91895
 -10  -3   3 192.836 101.600   3-0.61306-0.08441-0.37604 0.12541-0.79397 0.95706
  10   3  -3 -21.119 79.9283   5 0.64960 0.04697 0.28388-0.03300 0.81088-0.97350
  10  -3  -3 -120.60 122.538   8 0.67305 0.02284-0.22163-0.02859 0.81545-0.97882
  -9   3   3 290.406 107.113   7-0.70961 0.08862 0.11960 0.13084-0.81099 0.98722
   9   3  -3 94.7912 59.8643   2 0.56634 0.05466 0.46179-0.21139 0.77358-0.94999
  -9  -3   3 401.225 117.821   3-0.61036-0.01206-0.37322 0.12264-0.79731 0.97392
   9   3  -3 280.323 99.0108   5 0.64898-0.02740 0.28347-0.03256 0.81149-0.98765
   9  -3  -3 388.277 115.612   8 0.67409-0.05317-0.22209-0.02814 0.81452-0.99140
  -8   3   3 135.596 89.7883   7-0.71995 0.17399 0.12179 0.12864-0.80192 0.99167
   8  -3  -3 147.101 73.9197   4-0.16004 0.70709-0.08965-0.16128-0.99577 0.80474
   8   3  -3 117.801 64.7870   2 0.56549-0.01947 0.46042-0.21002 0.77503-0.96497
  -8  -3   3 104.021 50.4118   9 0.16592-0.71177-0.10439-0.14605 0.99445-0.80417
  -8  -3   3 144.111 72.2928   3-0.61192 0.06456-0.37485 0.12430-0.79538 0.98554
   8   3  -3 242.060 94.6858   5 0.65357-0.10701 0.28649-0.03556 0.80693-0.99662
   8  -3  -3 185.398 94.4105   8 0.68100-0.13505-0.22519-0.02506 0.80822-0.99863
  -7   3   3 879.929 146.639   7-0.73852 0.26758 0.12574 0.12467-0.78476 0.98802
   7  -3  -3 1192.78 180.455   4-0.20142 0.67346 0.02806-0.27914-0.99938 0.79476
  -7  -3   3 746.528 117.754   9 0.21005-0.68093 0.01106-0.26147 0.99948-0.79568
  -7  -3   3 946.733 146.814   3-0.61850 0.14623-0.38175 0.13124-0.78710 0.99079
   7   3  -3 983.203 150.678   5 0.66445-0.19289 0.29370-0.04275 0.79577-0.99900
   7  -3  -3 902.071 174.419   8 0.69505-0.22406-0.23150-0.01876 0.79489-0.99883
 -11   4   3 1245.49 243.542   7-0.72029-0.05076 0.12186 0.21215-0.80161 0.95074
 -11  -4   3 890.492 177.006   3-0.61446-0.15809-0.37750 0.04335-0.79222 0.94177
 -10   4   3 45.1437 82.5041   7-0.71938 0.02337 0.12167 0.21233-0.80243 0.96510
  10   4  -3 -5.0934 57.8942   2 0.56227 0.13371 0.45530-0.12140 0.78040-0.94330
 -10  -4   3 89.2431 89.5960   3-0.60829-0.08922-0.37107 0.03695-0.79983 0.96291
  10   4  -3 10.5398 78.7556   5 0.65018 0.04637 0.28426 0.05011 0.81031-0.97294
  10  -4  -3 44.0601 81.1124   8 0.67807 0.01780-0.22387-0.10983 0.81091-0.97427
  -9   4   3 73.0109 89.1804   7-0.72388 0.10290 0.12262 0.21135-0.79838 0.97458
   9   4  -3 21.9878 66.5105   2 0.55799 0.06301 0.44854-0.11465 0.78735-0.96377
  -9  -4   3 104.654 88.4718   3-0.60548-0.01697-0.36815 0.03407-0.80322 0.97982
   9   4  -3 -33.752 63.7128   5 0.64962-0.02807 0.28389 0.05050 0.81086-0.98702
   9  -4  -3 166.578 103.702   8 0.67942-0.05851-0.22448-0.10924 0.80968-0.98656
  -8   4   3 144.222 85.3582   7-0.73500 0.18904 0.12499 0.20896-0.78810 0.97783
   8  -4  -3 145.422 66.1064   4-0.14806 0.69512-0.12219-0.21231-0.99200 0.80095
   8   4  -3 13.2047 41.3856   2 0.55680-0.01078 0.44666-0.11277 0.78926-0.97920
  -8  -4   3 139.281 70.3017   9 0.15422-0.70007-0.13367-0.20026 0.99072-0.80044
  -8  -4   3 156.000 92.1098   3-0.60666 0.05928-0.36938 0.03532-0.80180 0.99194
   8   4  -3 75.2092 44.0938   5 0.65403-0.10747 0.28680 0.04763 0.80647-0.99617
   8  -4  -3 114.272 110.834   8 0.68642-0.14049-0.22762-0.10611 0.80316-0.99357
  -7   4   3 283.182 102.163   7-0.75413 0.28319 0.12908 0.20485-0.76939 0.97263
   7  -4  -3 549.594 143.578   4-0.18358 0.65562-0.02372-0.31093-0.99971 0.79509
   7   4  -3 313.283 96.3151   2 0.55917-0.08813 0.45039-0.11650 0.78547-0.98893
  -7  -4   3 321.392 76.1863   9 0.19214-0.66301-0.03681-0.29709 0.99925-0.79544
  -7  -4   3 441.763 111.448   3-0.61254 0.14024-0.37549 0.04147-0.79462 0.99832
   7   4  -3 316.270 93.1730   5 0.66437-0.19281 0.29365 0.04080 0.79585-0.99909
  -7   4   3 527.906 119.435   1 0.18571-0.65696 0.02819 0.30644 0.99959-0.79606
   7  -4  -3 449.556 125.104   8 0.70026-0.22930-0.23386-0.09989 0.78976-0.99369
   6   4  -3 -36.178 41.5370   2 0.56556-0.16950 0.46055-0.12666 0.77490-0.99189
   6  -4  -3 -112.73 88.0623   4-0.21531 0.61228 0.06962-0.40439-0.99693 0.77871
  -6  -4   3 19.1323 44.0128   9 0.22634-0.62222 0.05587-0.38977 0.99732-0.77999
  -6  -4   3 38.7236 50.6746   3-0.62382 0.22663-0.38735 0.05335-0.78020 0.99744
   6   4  -3 42.7046 44.2204   5 0.68169-0.28513 0.30523 0.02924 0.77697-0.99376
  -6   4   3 55.8955 58.6964   1 0.20318-0.59947-0.08423 0.41897 0.99617-0.77895
   6  -4  -3 77.6794 62.3186   8 0.72219-0.32620-0.24383-0.08994 0.76696-0.98441
  11   5  -3 112.845 86.3473   2 0.56538 0.20559 0.46025-0.04286 0.77521-0.92458
 -10   5   3 34.4242 102.781   7-0.73841 0.04240 0.12572 0.29182-0.78486 0.94749
  10   5  -3 52.5124 77.8033   2 0.55876 0.13723 0.44975-0.03235 0.78612-0.94902
 -10  -5   3 255.976 114.061   3-0.60855-0.08899-0.37134-0.04630-0.79951 0.96259
  10   5  -3 33.8426 72.8803   5 0.65598 0.04054 0.28809 0.12976 0.80450-0.96716
  10  -5  -3 135.590 128.477   8 0.68849 0.00737-0.22855-0.18863 0.80121-0.96457
  -9   5   3 116.705 75.7934   7-0.74411 0.12312 0.12693 0.29058-0.77936 0.95552
   9   5  -3 63.2383 71.3271   2 0.55462 0.06639 0.44324-0.02584 0.79269-0.96912
  -9  -5   3 103.957 76.7595   9 0.10452-0.72535-0.25267-0.16478 0.96498-0.78823
  -9  -5   3 0.95970 63.8696   3-0.60592-0.01657-0.36861-0.04900-0.80269 0.97930
   9   5  -3 -39.150 65.3652   5 0.65580-0.03426 0.28797 0.12990 0.80469-0.98087
   9  -5  -3 102.481 93.3232   8 0.69045-0.06956-0.22943-0.18776 0.79933-0.97621
  -8   5   3 155.858 84.3122   7-0.75631 0.21036 0.12955 0.28793-0.76717 0.95686
   8  -5  -3 280.448 135.647   4-0.13472 0.68179-0.15770-0.26037-0.98650 0.79542
   8   5  -3 116.712 87.9536   2 0.55336-0.00733 0.44126-0.02388 0.79466-0.98461
  -8  -5   3 125.179 64.0843   9 0.14080-0.68664-0.16667-0.25076 0.98531-0.79503
  -8  -5   3 -20.707 60.1667   3-0.60705 0.05964-0.36978-0.04781-0.80133 0.99148
   8   5  -3 92.0300 67.5319   5 0.66036-0.11381 0.29098 0.12690 0.80003-0.98974
   8  -5  -3 350.213 119.299   8 0.69790-0.15199-0.23279-0.18443 0.79210-0.98250
  -7   5   3 -25.960 63.5098   1 0.17553-0.64682 0.08734 0.33075 0.99616-0.79261
   7  -5  -3 37.6782 73.1067   4-0.16584 0.63786-0.07365-0.34457-0.99718 0.79255
   7   5  -3 39.8707 53.7405   2 0.55540-0.08436 0.44446-0.02708 0.79147-0.99494
  -7  -5   3 49.1699 44.0016   9 0.17402-0.64489-0.08381-0.33359 0.99647-0.79266
  -7  -5   3 74.6430 72.8927   3-0.61256 0.14024-0.37551-0.04205-0.79460 0.99830
   7   5  -3 103.025 70.5047   5 0.67053-0.19896 0.29776 0.12017 0.78930-0.99255
   7  -5  -3 -12.751 60.1143   8 0.71187-0.24093-0.23912-0.17811 0.77794-0.98186
   6  -5  -3 495.266 204.894   4-0.19381 0.59077 0.00579-0.42414-0.99989 0.78169
   6   5  -3 79.7158 69.7711   2 0.56116-0.16510 0.45354-0.03616 0.78223-0.99923
  -6  -5   3 154.208 64.8733   9 0.20416-0.60005-0.00485-0.41254 0.99969-0.78236
  -6  -5   3 300.673 102.566   3-0.62307 0.22586-0.38655-0.03098-0.78119 0.99844
   6   5  -3 14.4197 40.5006   5 0.68722-0.29064 0.30896 0.10899 0.77063-0.98744
   6  -5  -3 395.670 220.787   8 0.73348-0.33751-0.24901-0.16825 0.75440-0.97184
  -6   5   3 -14.198 67.6605   1 0.19151-0.58785-0.00746 0.42570 0.99991-0.78268
 -10   6   3 -16.177 70.4501   7-0.76251 0.06649 0.13088 0.37020-0.76076 0.92334
   9  -6  -3 255.534 143.127   4-0.08995 0.71203-0.27172-0.22975-0.95866 0.78106
   9   6  -3 282.805 160.682   2 0.55531 0.06571 0.44432 0.05658 0.79161-0.96804
  -9  -6   3 448.517 115.527   9 0.09384-0.71467-0.27717-0.22376 0.95749-0.78074
  -9  -6   3 817.285 179.682   3-0.61078-0.01173-0.37366-0.12749-0.79679 0.97339
   9   6  -3 591.243 162.781   5 0.66669-0.04517 0.29520 0.20613 0.79340-0.96961
   9  -6  -3 613.801 191.701   8 0.70647-0.08560-0.23667-0.26402 0.78350-0.96038
   8  -6  -3 134.760 94.5502   4-0.12035 0.66740-0.19517-0.30647-0.97909 0.78798
   8   6  -3 129.289 79.2972   2 0.55417-0.00813 0.44253 0.05836 0.79340-0.98336
  -8  -6   3 265.093 100.146   9 0.12607-0.67192-0.20212-0.29879 0.97803-0.78775
  -8  -6   3 235.209 106.406   3-0.61208 0.06465-0.37502-0.12611-0.79518 0.98534
   8   6  -3 415.052 123.781   5 0.67165-0.12510 0.29850 0.20285 0.78809-0.97783
   8  -6  -3 429.726 165.486   8 0.71459-0.16869-0.24036-0.26034 0.77509-0.96548
   7  -6  -3 60.0743 88.2907   4-0.14800 0.62001-0.12234-0.37944-0.99198 0.78734
   7   6  -3 81.5815 73.3856   2 0.55610-0.08504 0.44554 0.05534 0.79038-0.99386
  -7  -6   3 125.759 80.0997   9 0.15561-0.62648-0.13023-0.37066 0.99121-0.78740
  -7  -6   3 303.974 96.7444   3-0.61747 0.14515-0.38065-0.12046-0.78843 0.99213
   7   6  -3 163.820 82.2284   5 0.68190-0.21032 0.30537 0.19601 0.77674-0.98002
  -7   6   3 275.359 92.1981   1 0.16540-0.63674 0.14255 0.35900 0.98969-0.78609
   7  -6  -3 -57.959 55.7793   8 0.72893-0.25801-0.24692-0.25381 0.75953-0.96344
   6  -6  -3 8.23669 84.9049   4-0.17294 0.56988-0.05382-0.44809-0.99852 0.78032
   6   6  -3 37.0662 50.2854   2 0.56143-0.16537 0.45397 0.04691 0.78179-0.99879
  -6   6   3 143.527 94.0854   1 0.18012-0.57649 0.06115 0.44057 0.99812-0.78088
  -6  -6   3 45.1242 53.9377   9 0.18246-0.57835-0.06207-0.43881 0.99807-0.78073
  -6  -6   3 -93.570 94.2653   3-0.62748 0.23028-0.39122-0.10987-0.77534 0.99259
  -6   6   3 -86.012 48.7444   6-0.35809-0.03797 0.61895-0.11853-0.75221 0.96911
   4  -6  -3 -33.919 46.3340   4-0.21482 0.46156 0.06813-0.57023-0.99705 0.75170
  -4   6   3 46.7914 43.3750   1 0.20186-0.44818-0.07513 0.57712 0.99693-0.75236
   9  -7  -3 100.005 150.896   4-0.07777 0.69984-0.30144-0.28359-0.94873 0.77109
  -9  -7   3 -110.13 80.9408   9 0.08127-0.70209-0.30553-0.27890 0.94782-0.77108
   9  -7  -3 -53.559 99.8702   8 0.72676-0.10591-0.24592-0.33826 0.76195-0.93882
   8  -7  -3 349.520 178.782   4-0.10510 0.65214-0.23400-0.35118-0.96963 0.77848
   8   7  -3 591.895 177.581   2 0.55836-0.01233 0.44913 0.13528 0.78676-0.97671
  -8  -7   3 587.119 156.653   9 0.11028-0.65613-0.23932-0.34509 0.96874-0.77846
  -8  -7   3 1065.29 203.053   3-0.62089 0.07345-0.38426-0.20044-0.78403 0.97418
   8   7  -3 177.691 86.0313   5 0.68706-0.14050 0.30885 0.27594 0.77082-0.96061
   7  -7  -3 -133.93 156.371   4-0.12997 0.60194-0.17019-0.41515-0.98421 0.77955
   7   7  -3 115.954 67.3722   2 0.56030-0.08925 0.45218 0.13222 0.78363-0.98711
  -7  -7   3 242.269 106.513   9 0.13685-0.60772-0.17626-0.40814 0.98349-0.77967
  -7  -7   3 185.660 92.3462   3-0.62632 0.15398-0.38999-0.19470-0.77689 0.98060
  -7   7   3 187.979 127.454   1 0.15518-0.62655 0.19519 0.38982 0.98051-0.77686
  -7   7   3 -75.675 50.9522   6-0.35795-0.11312 0.61815-0.03424-0.75295 0.95630
  -6   7   3 444.340 141.600   1 0.16883-0.56523 0.12425 0.46093 0.99219-0.77491
   6  -7  -3 243.895 128.687   4-0.15241 0.54932-0.11044-0.47503-0.99350 0.77529
   6   7  -3 67.7261 60.8907   2 0.56537-0.16932 0.46025 0.12415 0.77522-0.99222
  -6  -7   3 597.261 144.589   9 0.16099-0.55688-0.11680-0.46758 0.99299-0.77565
  -6   7   3 -17.046 44.3361   6-0.35692-0.03914 0.61209-0.02817-0.75850 0.97539
   5  -7  -3 31.4491 83.0228   4-0.17245 0.49426-0.05522-0.53035-0.99844 0.76668
  -5   7   3 113.962 80.3362   1 0.18017-0.50157 0.06086 0.52448 0.99814-0.76722
  -5   7   3 -94.751 54.6548   6-0.35690 0.03584 0.61196-0.02805-0.75862 0.98904
   8  -8  -3 -55.129 106.138   4-0.08909 0.63610-0.27386-0.39489-0.95798 0.76679
   7  -8  -3 11.8786 106.558   4-0.11166 0.58360-0.21742-0.45148-0.97389 0.76919
   7   8  -3 -103.41 74.4952   2 0.56726-0.09622 0.46327 0.20464 0.77201-0.97549
  -7   8   3 -80.184 55.7797   6-0.35805-0.11304 0.61877 0.04865-0.75238 0.95573
   6  -8  -3 -79.248 156.569   4-0.13199 0.52887-0.16487-0.50414-0.98521 0.76697
  -6   8   3 -51.840 46.6550   6-0.35711-0.03896 0.61321 0.05421-0.75748 0.97437
  -6   8   3 26.2582 118.070   1 0.15749-0.55392 0.18351 0.48512 0.98280-0.76547
  -4   8   3 -194.04 98.6744   1 0.17707-0.42345 0.07862 0.59033 0.99690-0.75231
   4  -8  -3 -22.905 65.1874   4-0.16604 0.41272-0.07309-0.59610-0.99722 0.75189
  -4   8   3 -23.370 50.2509   6-0.35804 0.11199 0.61865 0.04875-0.75249 0.99643
   5  -9  -3 -142.10 140.034   4-0.12802 0.44975-0.17528-0.57737-0.98323 0.75143
  -5   9   3 -112.81 66.7469   6-0.35834 0.03727 0.62045 0.13047-0.75082 0.98121
  -5   9   3 35.9680 125.721   1 0.15615-0.47758 0.19031 0.56194 0.98148-0.75048
   0   0   0    0.00    0.00
  -1  -5  -2 17.6667 25.2441   4-0.26805 0.15710 0.23923-0.65766-0.96629 0.75304
   1   5   2 6.54465 29.5663   1 0.22241-0.11131-0.23279 0.65136 0.97136-0.75837
  -1  -5  -2 -16.646 35.0983   9-0.07422-0.03675-0.61712 0.19955 0.75717-0.96978
 -10   6   2 153.888 104.711   7-0.67868-0.03539 0.11309 0.38807-0.83619 0.89944
   3   7   2 9.39097 40.6900   1 0.19529 0.06603-0.03152 0.61720 0.99939-0.75930
  -3  -7  -2 -3.9996 44.7593   4-0.20381-0.05732 0.03512-0.62063-0.99910 0.75888
  -3  -7  -2 -38.194 56.6117   9-0.07257-0.18838-0.61419 0.02962 0.75987-0.99953
   5  -6  -3 26.3290 65.3720   4-0.19522 0.51706 0.00986-0.51188-0.99984 0.76807
  -5   6   3 -12.290 49.3585   6-0.35808 0.03703 0.61891-0.11849-0.75225 0.98267
   0  -5  -2 29.6749 35.5690   4-0.25888 0.22306 0.20817-0.62660-0.97445 0.77476
   0   5   2 -4.0634 13.2337   6-0.35754 0.39348 0.61566-0.19864-0.75524 0.95388
   0  -5  -2 11.2650 24.4239   9-0.07427 0.03829-0.61721 0.19964 0.75708-0.95616
   4  -7  -3 -87.206 76.4967   4-0.19010 0.43681-0.00500-0.58065-0.99994 0.75461
  -4   7   3 -78.990 48.7681   6-0.35793 0.11188 0.61801-0.03411-0.75308 0.99703
  -4   7   3 35.1096 67.7477   1 0.18948-0.43583 0.00524 0.58025 0.99994-0.75538
   5  -4  -3 -31.537 59.4658   4-0.24325 0.56512 0.15683-0.49169-0.98539 0.75358
  -5   4   3 -33.024 48.1891   1 0.21647-0.53777-0.18306 0.51791 0.98230-0.75138
  -1  -4   0 91.9111 40.2538   3-0.32367 0.24853-0.10283-0.23146-0.98352 0.96998
  -1  -4   0 67.4855 54.8789   9 0.12546-0.20042-0.20359-0.13041 0.97770-0.99121
   1   4   0 46.9744 42.2139   2 0.30790-0.23293 0.10630 0.22773 0.98549-0.97197
  -1   4   0 160.398 63.1200   6-0.23262 0.15765 0.12316 0.21087-0.99088 0.97732
   1   4   0 122.979 53.5852   1 0.16627-0.09132 0.13794 0.19599 0.99035-0.97681
   1  -4   0 77.4445 32.2409   3-0.53279 0.60803-0.29522-0.03896-0.87617 0.88963
   1   4   0 131.711 56.5743   6-0.26686 0.34193 0.23530 0.09864-0.96739 0.98088
  -1   4   0 75.3663 31.9295   7-0.46870 0.39373 0.07017 0.26389-0.95067 0.93710
   1  -4   0 141.995 52.5421   9 0.15107-0.07607-0.14150-0.19249 0.98955-0.97601
  -1   4   0 31.3675 27.5403   2 0.43734-0.51236 0.27358 0.06040 0.92149-0.93502
   1  -4   0 36.7295 24.1094   8 0.36992-0.29504-0.09231-0.24162 0.97603-0.96247
  -1  -4   0 17.0432 34.0600   4-0.13987 0.06475-0.14408-0.19011-0.98878 0.97525
   2  -3  -2 3.37674 28.7835   4-0.29525 0.40968 0.33656-0.58775-0.93279 0.76013
  -2   3   2 -0.1467 14.7136   6-0.35728 0.24324 0.61420-0.36408-0.75657 0.92819
  -6   9   3 52.6672 133.161   1 0.14601-0.54247 0.24000 0.51208 0.97031-0.75291
  -6   9   3 -93.289 61.5625   6-0.35834-0.03775 0.62047 0.13046-0.75080 0.96767
   0 -10  -2 -12.898 61.0425   4-0.11505 0.07908-0.20876-0.62731-0.97599 0.77634
   0  10   2 -7.6356 59.4657   6-0.35823 0.39430 0.61978 0.21473-0.75144 0.95000
   9   3   1 291.829 82.5944   2 0.24933 0.44349 0.03510 0.21550 0.99688-0.77573
   9   3   1 144.368 75.9589   8 0.28398 0.40865-0.05725 0.30775 0.99265-0.77146
  -9  -3  -1 1.09025 59.0539   7-0.27468-0.41856 0.03186-0.28234-0.99479 0.77355
   9   4   1 390.560 101.327   2 0.26954 0.42329 0.05941 0.27470 0.99400-0.77285
  -9  -4  -1 70.7081 69.7059   7-0.32001-0.37316 0.04073-0.37471-0.98874 0.76752
   5  -5  -3 40.3187 79.0851   4-0.21870 0.54056 0.07991-0.49836-0.99602 0.76423
  -5   5   3 91.3938 57.2107   1 0.20425-0.52557-0.09166 0.51002 0.99548-0.76458
  -8  -7  -1 48.8264 90.4783   3-0.33736-0.28136-0.11486-0.47027-0.97986 0.77203
   8   7   1 202.003 120.845   2 0.32462 0.29324 0.12708 0.45756 0.98044-0.77280
   5  -8  -3 24.9814 95.5809   4-0.15012 0.47190-0.11663-0.55248-0.99273 0.76095
  -5   8   3 -78.351 53.9365   6-0.35709 0.03603 0.61310 0.05431-0.75758 0.98800
  -5   8   3 -33.559 89.6140   1 0.16820-0.48962 0.12763 0.54117 0.99175-0.76080
  -6   3   3 -10.812 23.8900   7-0.76695 0.37102 0.13184 0.11855-0.75607 0.97284
   6  -3  -3 43.4734 50.6668   4-0.23786 0.63484 0.13960-0.39079-0.98836 0.77013
  -6  -3   3 235.916 67.5143   9 0.24939-0.64528 0.12169-0.37210 0.98995-0.77263
  -6  -3   3 133.245 47.2189   3-0.63093 0.23375-0.39490 0.14442-0.77065 0.98789
   6   3  -3 163.183 64.6775   5 0.68278-0.28623 0.30597-0.05499 0.77574-0.99252
   6  -3  -3 98.3374 80.0337   8 0.71765-0.32163-0.24175-0.00853 0.77185-0.98931
   0  -4   1 497.283 91.6534   4-0.01553 0.03327-0.44513 0.11140-0.88342 0.98292
   0  -4   1 264.548 69.7584   9 0.24659-0.22859 0.11355-0.44750 0.99113-0.89160
   0   4   1 308.124 98.7217   1 0.20734-0.18942-0.11363 0.44817 0.99312-0.89351
   0   4  -1 381.852 79.5099   6-0.15113 0.13318-0.11380 0.44809-0.99309 0.89351
   0   4  -1 375.226 71.0988   2 0.54178-0.55974 0.42335-0.08944 0.81191-0.91127
   0  -4  -1 391.955 94.8726   9 0.01594-0.03392-0.44514 0.11110 0.88354-0.98306
   0  -4   1 292.321 49.3886   8-0.12090 0.13877 0.10120-0.43517 0.94948-0.84994
   0  -4  -1 419.481 52.9442   7-0.56231 0.54429 0.08909-0.42296-0.91006 0.81079
   9   1   1 221.522 81.8680   8 0.22466 0.46795-0.03337 0.11694 0.99842-0.77722
   9  -1   1 194.053 72.9691   8 0.21670 0.47589-0.03018-0.05317 0.99886-0.77765
  -9  -1  -1 -10.349 45.6937   7-0.22371-0.46962 0.02196-0.10538-0.99878 0.77748
  -9   1  -1 31.2125 64.9953   7-0.21841-0.47497 0.02093 0.06276-0.99903 0.77768
   6  -1  -3 -151.10 63.2240   8 0.73297-0.33691-0.24877 0.16545 0.75498-0.97246
  -6   1   3 1154.85 159.188   7-0.75946 0.36351 0.13023-0.04685-0.76393 0.98072
   2   6   2 -0.4166 32.3992   1 0.20991-0.02370-0.13239 0.63455 0.99070-0.76416
  -2  -6  -2 -0.6061 30.3977   4-0.23811 0.05207 0.14039-0.64239-0.98823 0.76150
  -2  -6  -2 -2.2063 24.4559   9-0.06865-0.11730-0.60720 0.10613 0.76625-0.99238
 -10   4   1 -140.11 93.2765   7-0.52470-0.20750 0.08145 0.25273-0.92813 0.89208
 -10  -4   1 49.7344 60.1829   7-0.59886-0.13314 0.09656-0.43062-0.89000 0.85403
  10  -4  -1 -24.137 61.2620   8 0.49679 0.23491-0.14520-0.18855 0.93122-0.89553
 -10  -4   1 28.5341 55.5036   3-0.46067-0.27240-0.22648-0.10781-0.92720 0.89132
  10   4  -1 32.9904 44.6142   2 0.43786 0.29404 0.27428 0.05971 0.92111-0.88525
  -1  -7   1 291.237 90.6185   4-0.01268-0.04470-0.45138-0.13294-0.87986 0.96582
  -1  -7   1 211.032 79.8449   9 0.14606-0.20305-0.15380-0.43065 0.98757-0.90156
  -1   7   1 420.796 86.2160   2 0.37223-0.42934 0.18752 0.39706 0.96122-0.87534
   1  -7  -1 251.492 69.6643   4-0.13661 0.19372-0.15271-0.43243-0.98736 0.90113
   1   7  -1 264.308 85.7315   2 0.51390-0.45690 0.38150 0.20294 0.84843-0.93428
   1   7  -1 361.068 93.3077   6-0.24652 0.30367 0.16757 0.41717-0.98336 0.89730
  -1   7   1 231.038 83.8593   6-0.31532 0.25838 0.41506 0.16920-0.89630 0.98211
   1  -7  -1 346.506 86.5644   9 0.01284 0.04417-0.45144-0.13310 0.87992-0.96590
  -1  -7   1 274.137 76.3445   3-0.60109 0.54394-0.36361-0.22125-0.80841 0.89428
  -1   7   1 136.396 64.6110   1 0.16282-0.22003 0.15611 0.42873 0.98761-0.90157
   4   0   1 705.299 81.3690   8-0.12976 0.44753 0.10455-0.10451 0.94643-0.79284
  -4   0  -1 793.310 94.6553   7 0.13037-0.44860-0.04518 0.04528-0.95067 0.79702
;
_shelx_hkl_checksum              44675
loop_
_space_group_symop_operation_xyz
'x, y, z'
'-x+1/2, y+1/2, -z'
'-x, -y, -z'
'x-1/2, -y-1/2, z'
loop_
_atom_site_label
_atom_site_type_symbol
_atom_site_fract_x
_atom_site_fract_y
_atom_site_fract_z
_atom_site_U_iso_or_equiv
_atom_site_adp_type
_atom_site_occupancy
_atom_site_site_symmetry_order
_atom_site_calc_flag
_atom_site_refinement_flags_posn
_atom_site_refinement_flags_adp
_atom_site_refinement_flags_occupancy
_atom_site_disorder_assembly
_atom_site_disorder_group
C1 C 0.6982(7) 0.3018(7) 0.794(3) 0.034(12) Uani 1 1 d . . . . .
H1D H 0.608748 0.251379 0.800884 0.041 Uiso 1 1 calc R U . . .
H1E H 0.736440 0.346483 0.915272 0.041 Uiso 1 1 calc R U . . .
C2 C 0.8020(7) 0.1813(7) 0.737(3) 0.028(11) Uani 1 1 d . . . . .
N1 N 0.6770(5) 0.4269(5) 0.649(2) 0.025(9) Uani 1 1 d . . . . .
H1A H 0.640105 0.384997 0.538019 0.030 Uiso 1 1 calc R U . . .
H1B H 0.759819 0.471207 0.641641 0.030 Uiso 1 1 calc R U . . .
H1C H 0.618385 0.499615 0.678947 0.030 Uiso 1 1 calc R U . . .
O1 O 0.4914(7) 0.8614(6) 0.954(3) 0.059(12) Uani 1 1 d . . . . .
H1 H 0.486036 0.957687 0.958874 0.070 Uiso 0.5 1 calc DR U P . .
O2 O 0.4660(5) 0.6436(4) 0.7196(18) 0.033(8) Uani 1 1 d . . . . .
O3 O 0.4382(6) 0.9244(6) 0.608(2) 0.046(10) Uani 1 1 d . . . . .
H3 H 0.46(2) 0.96(2) 0.51(3) 0.055 Uiso 0.5 1 d D U P . .
O4 O 0.8632(5) 0.1963(5) 0.6122(18) 0.022(8) Uani 1 1 d . . . . .
O5 O 0.8160(5) 0.0627(5) 0.8561(17) 0.044(9) Uani 1 1 d . . . . .
H5 H 0.868858 -0.003617 0.823929 0.053 Uiso 1 1 calc R U . . .
P1 P 0.51189(19) 0.81160(19) 0.7573(8) 0.029(4) Uani 1 1 d . . . . .
H1P H 0.613435 0.816629 0.755037 0.035 Uiso 1 1 calc R U . . .
loop_
_atom_site_aniso_label
_atom_site_aniso_U_11
_atom_site_aniso_U_22
_atom_site_aniso_U_33
_atom_site_aniso_U_23
_atom_site_aniso_U_13
_atom_site_aniso_U_12
C1 0.025(3) 0.022(3) 0.06(4) -0.008(6) 0.011(9) 0.002(2)
C2 0.018(3) 0.013(3) 0.05(3) 0.004(6) 0.002(9) 0.001(2)
N1 0.025(3) 0.015(2) 0.04(3) 0.005(5) 0.013(7) 0.0012(19)
O1 0.075(5) 0.027(3) 0.09(4) -0.006(6) 0.048(11) -0.002(3)
O2 0.034(2) 0.018(2) 0.05(3) -0.003(4) 0.018(6) -0.0047(17)
O3 0.032(3) 0.028(3) 0.08(3) 0.014(5) 0.012(7) 0.011(2)
O4 0.031(3) 0.026(2) 0.01(3) -0.001(4) 0.011(7) 0.0040(19)
O5 0.038(3) 0.026(3) 0.08(3) 0.002(5) 0.028(7) 0.0071(19)
P1 0.0260(10) 0.0148(9) 0.049(12) -0.0007(17) 0.013(3) -0.0024(7)
loop_
_atom_type_symbol
_atom_type_description
_atom_type_scat_dispersion_real
_atom_type_scat_dispersion_imag
_atom_type_scat_source
C C 0.0033 0.0016 'International Tables Vol C Tables 4.2.6.8 and 6.1.1.4'
H H 0.0000 0.0000 'International Tables Vol C Tables 4.2.6.8 and 6.1.1.4'
N N 0.0061 0.0033 'International Tables Vol C Tables 4.2.6.8 and 6.1.1.4'
O O 0.0106 0.0060 'International Tables Vol C Tables 4.2.6.8 and 6.1.1.4'
P P 0.1023 0.0942 'International Tables Vol C Tables 4.2.6.8 and 6.1.1.4'
loop_
_geom_angle_atom_site_label_1
_geom_angle_atom_site_label_2
_geom_angle_atom_site_label_3
_geom_angle
_geom_angle_site_symmetry_1
_geom_angle_site_symmetry_3
_geom_angle_publ_flag
N1 C1 C2 107.5(12) . . ?
N1 C1 H1D 110.2 . . ?
C2 C1 H1D 110.2 . . ?
N1 C1 H1E 110.2 . . ?
C2 C1 H1E 110.2 . . ?
H1D C1 H1E 108.5 . . ?
O4 C2 O5 125.6(6) . . ?
O4 C2 C1 125.1(11) . . ?
O5 C2 C1 109.2(13) . . ?
C1 N1 H1A 109.5 . . ?
C1 N1 H1B 109.5 . . ?
H1A N1 H1B 109.5 . . ?
C1 N1 H1C 109.5 . . ?
H1A N1 H1C 109.5 . . ?
H1B N1 H1C 109.5 . . ?
P1 O1 H1 109.5 . . ?
P1 O3 H3 131(10) . . ?
C2 O5 H5 109.5 . . ?
O2 P1 O3 112.7(6) . . ?
O2 P1 O1 110.4(6) . . ?
O3 P1 O1 111.4(5) . . ?
O2 P1 H1P 107.4 . . ?
O3 P1 H1P 107.4 . . ?
O1 P1 H1P 107.4 . . ?
loop_
_geom_bond_atom_site_label_1
_geom_bond_atom_site_label_2
_geom_bond_distance
_geom_bond_site_symmetry_2
_geom_bond_publ_flag
C1 N1 1.483(16) . ?
C1 C2 1.536(12) . ?
C1 H1D 0.9700 . ?
C1 H1E 0.9700 . ?
C2 O4 1.172(17) . ?
C2 O5 1.318(15) . ?
N1 H1A 0.8900 . ?
N1 H1B 0.8900 . ?
N1 H1C 0.8900 . ?
O1 P1 1.535(18) . ?
O1 H1 0.8200 . ?
O2 P1 1.504(5) . ?
O3 P1 1.519(12) . ?
O3 H3 0.85(13) . ?
O5 H5 0.8200 . ?
P1 H1P 0.9800 . ?
loop_
_geom_hbond_atom_site_label_D
_geom_hbond_atom_site_label_H
_geom_hbond_atom_site_label_A
_geom_hbond_distance_DH
_geom_hbond_distance_HA
_geom_hbond_distance_DA
_geom_hbond_angle_DHA
_geom_hbond_site_symmetry_A
_geom_hbond_publ_flag
N1 H1A O2 0.89 1.97 2.837(19) 162.7 3_666 yes
N1 H1B O3 0.89 1.98 2.872(7) 176.0 4_675 yes
N1 H1C O2 0.89 1.97 2.853(6) 171.3 . yes
O1 H1 O1 0.82 1.66 2.443(14) 159.0 3_677 yes
O3 H3 O3 0.85(13) 1.70(2) 2.492(19) 154(26) 3_676 yes
O5 H5 O2 0.82 1.76 2.577(8) 171.0 4_665 yes
loop_
_geom_torsion_atom_site_label_1
_geom_torsion_atom_site_label_2
_geom_torsion_atom_site_label_3
_geom_torsion_atom_site_label_4
_geom_torsion
_geom_torsion_site_symmetry_1
_geom_torsion_site_symmetry_2
_geom_torsion_site_symmetry_3
_geom_torsion_site_symmetry_4
_geom_torsion_publ_flag
N1 C1 C2 O4 7.1(17) . . . . ?
N1 C1 C2 O5 -175.8(8) . . . . ?

_cod_database_fobs_code 2109031
