#------------------------------------------------------------------------------
#$Date: 2022-09-02 04:49:51 +0300 (Fri, 02 Sep 2022) $
#$Revision: 277573 $
#$URL: file:///home/coder/svn-repositories/cod/cif/2/10/90/2109041.cif $
#------------------------------------------------------------------------------
#
# This file is available in the Crystallography Open Database (COD),
# http://www.crystallography.net/. The original data for this entry
# were provided by IUCr Journals, http://journals.iucr.org/.
#
# The file may be used within the scientific community so long as
# proper attribution is given to the journal article from which the
# data were obtained.
#
data_2109041
loop_
_publ_author_name
'Bogdanov, Nikita E.'
'Korabel'nikov, Dmitry V.'
'Fedorov, Igor A.'
'Zakharov, Boris A.'
'Boldyreva, Elena V.'
_publ_section_title
;
 The effect of hydrostatic compression on the crystal structure of
 glycinium phosphite
;
_journal_issue                   5
_journal_name_full               'Acta Crystallographica Section B'
_journal_page_first
;
;
_journal_paper_doi               10.1107/S2052520622008289
_journal_volume                  78
_journal_year                    2022
_chemical_formula_moiety         'C2 H6 N O2, H2 O3 P'
_chemical_formula_sum            'C2 H8 N O5 P'
_chemical_formula_weight         157.06
_space_group_crystal_system      monoclinic
_space_group_IT_number           14
_space_group_name_Hall           '-P 2yab'
_space_group_name_H-M_alt        'P 1 21/a 1'
_atom_sites_solution_hydrogens   geom
_atom_sites_solution_primary     direct
_atom_sites_solution_secondary   difmap
_audit_creation_method           SHELXL-2018/3
_cell_angle_alpha                90
_cell_angle_beta                 101.00(4)
_cell_angle_gamma                90
_cell_formula_units_Z            4
_cell_length_a                   9.1302(11)
_cell_length_b                   8.4972(5)
_cell_length_c                   6.657(7)
_cell_measurement_pressure       5520000
_cell_measurement_reflns_used    497
_cell_measurement_temperature    293(2)
_cell_measurement_theta_max      25.0510
_cell_measurement_theta_min      3.2920
_cell_volume                     507.0(5)
_computing_cell_refinement       'CrysAlisPro 1.171.40.53 (Rigaku OD, 2019)'
_computing_data_collection       'CrysAlisPro 1.171.40.53 (Rigaku OD, 2019)'
_computing_data_reduction        'CrysAlisPro 1.171.40.53 (Rigaku OD, 2019)'
_computing_structure_refinement  'SHELXL-2018/3 (Sheldrick, 2018)'
_diffrn_ambient_pressure         5520000
_diffrn_ambient_temperature      293(2)
_diffrn_detector                 'CCD plate'
_diffrn_detector_area_resol_mean 10.3457
_diffrn_detector_type            Ruby
_diffrn_measured_fraction_theta_full 0.359
_diffrn_measured_fraction_theta_max 0.320
_diffrn_measurement_device       'four-circle diffractometer'
_diffrn_measurement_device_type  'Xcalibur, Ruby, Gemini ultra'
_diffrn_radiation_monochromator  graphite
_diffrn_radiation_probe          x-ray
_diffrn_radiation_type           'Mo K\a'
_diffrn_radiation_wavelength     0.71073
_diffrn_reflns_av_R_equivalents  0.1208
_diffrn_reflns_av_unetI/netI     0.0848
_diffrn_reflns_Laue_measured_fraction_full 0.359
_diffrn_reflns_Laue_measured_fraction_max 0.320
_diffrn_reflns_limit_h_max       11
_diffrn_reflns_limit_h_min       -12
_diffrn_reflns_limit_k_max       11
_diffrn_reflns_limit_k_min       -11
_diffrn_reflns_limit_l_max       3
_diffrn_reflns_limit_l_min       -3
_diffrn_reflns_number            2551
_diffrn_reflns_point_group_measured_fraction_full 0.359
_diffrn_reflns_point_group_measured_fraction_max 0.320
_diffrn_reflns_theta_full        25.242
_diffrn_reflns_theta_max         28.061
_diffrn_reflns_theta_min         3.304
_diffrn_source                   'fine-focus sealed X-ray tube'
_diffrn_source_type              'Enhance (Mo) X-ray Source'
_exptl_absorpt_coefficient_mu    0.489
_exptl_absorpt_correction_T_max  1.00000
_exptl_absorpt_correction_T_min  0.20146
_exptl_absorpt_correction_type   multi-scan
_exptl_absorpt_process_details
;
CrysAlisPro 1.171.40.53 (Rigaku Oxford Diffraction, 2019)
Empirical absorption correction using spherical harmonics,
 implemented in SCALE3 ABSPACK scaling algorithm.
;
_exptl_crystal_colour            white
_exptl_crystal_density_diffrn    2.058
_exptl_crystal_description       plates
_exptl_crystal_F_000             328
_exptl_crystal_size_max          0.21
_exptl_crystal_size_mid          0.10
_exptl_crystal_size_min          0.05
_refine_diff_density_max         0.282
_refine_diff_density_min         -0.318
_refine_diff_density_rms         0.087
_refine_ls_extinction_method     none
_refine_ls_goodness_of_fit_ref   1.053
_refine_ls_hydrogen_treatment    constr
_refine_ls_matrix_type           full
_refine_ls_number_parameters     86
_refine_ls_number_reflns         395
_refine_ls_number_restraints     58
_refine_ls_restrained_S_all      0.986
_refine_ls_R_factor_all          0.1194
_refine_ls_R_factor_gt           0.0672
_refine_ls_shift/su_max          0.000
_refine_ls_shift/su_mean         0.000
_refine_ls_structure_factor_coef Fsqd
_refine_ls_weighting_details
'w=1/[\s^2^(Fo^2^)+(0.0799P)^2^+2.4602P] where P=(Fo^2^+2Fc^2^)/3'
_refine_ls_weighting_scheme      calc
_refine_ls_wR_factor_gt          0.1435
_refine_ls_wR_factor_ref         0.1774
_reflns_Friedel_coverage         0.000
_reflns_number_gt                260
_reflns_number_total             395
_reflns_threshold_expression     'I > 2\s(I)'
_cod_data_source_file            xk5096sup1.cif
_cod_data_source_block           5.52
_cod_original_sg_symbol_H-M      'P 21/a'
_cod_database_code               2109041
_shelx_shelxl_version_number     2018/3
_shelx_space_group_comment
;
The symmetry employed for this shelxl refinement is uniquely defined
by the following loop, which should always be used as a source of
symmetry information in preference to the above space-group names.
They are only intended as comments.
;
_oxdiff_exptl_absorpt_empirical_full_min 0.706
_oxdiff_exptl_absorpt_empirical_full_max 3.418
_oxdiff_exptl_absorpt_empirical_details
;
Empirical correction (ABSPACK) includes:
- Absorption correction using spherical harmonics
- Frame scaling
;
_shelx_res_file
;
TITL GPI_5 in P2(1)/c
    5.52.res
    created by SHELXL-2018/3 at 17:36:58 on 15-Aug-2022
REM  transformed to space group : P21/a:b3
REM P2(1)/c (#14 in standard setting)
CELL   0.71073  9.1302  8.4972  6.6570   90.000  101.005   90.000
ZERR   4        0.0011  0.0005  0.0068    0.000    0.037    0.000
LATT    1
SYMM   1/2-X,1/2+Y,-Z
SFAC C H N O P
UNIT 8 32 4 20 4
LIST 4 ! automatically inserted. Change 6 to 4 for CHECKCIF!!
PLAN 30
FMAP 2
L.S. 20
BOND
BOND $H
CONF
ACTA
EQIV $1 1-X, 1-Y,1-Z
EQIV $2 1/2+X, 3/2-Y,Z
EQIV $3 1-X, 2-Y, 2-Z
EQIV $4 1-X, 2-Y, 1-Z
EQIV $5 1/2+X, 1/2-Y, Z
HTAB N1 O2_$1
HTAB N1 O3_$2
HTAB N1 O2
HTAB O1 O1_$3
HTAB O3 O3_$4
HTAB O5 O2_$5
DFIX 1.66  H1 O1_$3
DFIX 1.70  H3 O3_$4
SIMU 0.005
DELU
WGHT    0.079900    2.460200
FVAR       1.76887
C1    1    0.674911    0.282278    0.791029    11.00000    0.02586    0.01499 =
         0.01103   -0.00111   -0.00400    0.00161
AFIX  23
H1D   2    0.697845    0.311342    0.934519    11.00000   -1.20000
H1E   2    0.576897    0.233892    0.763129    11.00000   -1.20000
AFIX   0
C2    1    0.787209    0.170549    0.745145    11.00000    0.02031    0.01423 =
         0.01081    0.00059   -0.00148   -0.00092
N1    3    0.675798    0.423594    0.662244    11.00000    0.02722    0.01596 =
         0.01121    0.00931    0.00845    0.00137
AFIX 137
H1A   2    0.640685    0.398943    0.532017    11.00000   -1.20000
H1B   2    0.768722    0.459414    0.675051    11.00000   -1.20000
H1C   2    0.618523    0.497616    0.702029    11.00000   -1.20000
AFIX   0
O1    4    0.533791    0.865099    0.983992    11.00000    0.03366    0.01210 =
         0.06192   -0.00306    0.01359    0.00699
AFIX 147
H1    2    0.481279    0.943716    0.980476    10.50000   -1.20000
AFIX   0
O2    4    0.462000    0.645287    0.736030    11.00000    0.02409    0.01237 =
         0.06178   -0.00493    0.01267   -0.00596
O3    4    0.444253    0.926659    0.622476    11.00000    0.02550    0.01688 =
         0.06757    0.00708    0.00090   -0.00077
AFIX 147
H3    2    0.503282    0.986923    0.583707    10.50000   -1.20000
AFIX   0
O4    4    0.852490    0.179864    0.602433    11.00000    0.02331    0.01751 =
         0.01316    0.00107    0.00367    0.00334
O5    4    0.807616    0.052196    0.885153    11.00000    0.03115    0.01648 =
         0.01188    0.00327    0.00075    0.00310
AFIX 147
H5    2    0.858710   -0.017148    0.847472    11.00000   -1.20000
AFIX   0
P1    5    0.530011    0.807560    0.772220    11.00000    0.01892    0.01092 =
         0.06541   -0.00093    0.00948    0.00023
AFIX  13
H1P   2    0.632771    0.802684    0.749189    11.00000   -1.20000
AFIX   0
HKLF 4




REM  GPI_5 in P2(1)/c
REM wR2 = 0.1774, GooF = S = 1.053, Restrained GooF = 0.986 for all data
REM R1 = 0.0672 for 260 Fo > 4sig(Fo) and 0.1194 for all 395 data
REM 86 parameters refined using 58 restraints

END

WGHT      0.0722      2.8800

REM Highest difference peak  0.282,  deepest hole -0.318,  1-sigma level  0.087
Q1    1   0.7825  0.2293  0.4290  11.00000  0.05    0.28
Q2    1   0.7007 -0.0074  0.6563  11.00000  0.05    0.28
Q3    1   0.6638  0.2255  1.1099  11.00000  0.05    0.27
Q4    1   0.7583  0.2427  0.6855  11.00000  0.05    0.25
Q5    1   0.8804  0.1761  1.0438  11.00000  0.05    0.25
Q6    1   0.9757  0.1433  0.7265  11.00000  0.05    0.25
Q7    1   0.8557  0.3484  0.7823  11.00000  0.05    0.23
Q8    1   0.4208  0.8307  0.5473  11.00000  0.05    0.23
Q9    1   0.8834  0.2272  0.6362  11.00000  0.05    0.23
Q10   1   0.7830  0.1507  0.6094  11.00000  0.05    0.23
Q11   1   0.9063  0.1678  0.8158  11.00000  0.05    0.23
Q12   1   0.3411  0.9000  0.8981  11.00000  0.05    0.22
Q13   1   0.5978  0.6542  0.8804  11.00000  0.05    0.22
Q14   1   0.5792  0.6429  0.8279  11.00000  0.05    0.22
Q15   1   0.3361  0.9160  0.5663  11.00000  0.05    0.21
Q16   1   0.3350  0.9939  0.9965  11.00000  0.05    0.21
Q17   1   0.5801  0.1531  0.7719  11.00000  0.05    0.21
Q18   1   0.7578  0.5829  0.7100  11.00000  0.05    0.21
Q19   1   0.5816  0.5428  0.7699  11.00000  0.05    0.21
Q20   1   0.8537  0.1607  0.4071  11.00000  0.05    0.21
Q21   1   0.4012  0.8456  0.4623  11.00000  0.05    0.21
Q22   1   0.7989  0.4568  0.7261  11.00000  0.05    0.20
Q23   1   0.5434  0.3907  0.5235  11.00000  0.05    0.20
Q24   1   0.5000  1.0000  1.0000  10.50000  0.05    0.19
Q25   1   0.9253  0.0531  0.9553  11.00000  0.05    0.19
Q26   1   0.7248  0.8650  0.7643  11.00000  0.05    0.19
Q27   1   0.9776  0.2195  0.5836  11.00000  0.05    0.19
Q28   1   0.5630  0.5337  0.7118  11.00000  0.05    0.19
Q29   1   0.8388  0.4752  0.8263  11.00000  0.05    0.18
Q30   1   0.7429  0.5876  0.6526  11.00000  0.05    0.18
;
_shelx_res_checksum              59921
_shelx_hkl_file
;
   1   0   0 -0.4938 3.71376   7 0.03957 0.03957-0.01432 0.01429 0.98809-0.97289
  -1   0   0 2.65859 3.52610   8-0.03958-0.03958 0.04358-0.04355-0.98724 0.97203
  -2   0   0 6157.34 160.177   9-0.07911-0.07911-0.35164 0.35164-0.93082 0.90043
   2   0   0 6023.48 216.635   7 0.07913 0.07915-0.00706 0.00701 0.99347-0.96305
   2   0   0 6412.25 156.738   6 0.07917 0.07917-0.32964 0.32977 0.93826-0.90778
  -2   0   0 6232.16 203.678   8-0.07916-0.07915 0.02844-0.02838-0.99308 0.96267
  -3   0   0 -9.8375 18.5385   8-0.11874-0.11873 0.01320-0.01309-0.99714 0.95152
   3   0   0 20.6527 25.2216   7 0.11869 0.11873 0.00024-0.00031 0.99724-0.95161
  -3   0   0 26.5553 18.4574   9-0.11866-0.11866-0.26282 0.26281-0.96264 0.91705
   3   0   0 13.6536 16.0705   6 0.11874 0.11875-0.23558 0.23577 0.96927-0.92358
   3   0   0 -15.300 14.9292   4 0.11874 0.11872-0.23629 0.23597 0.96910-0.92354
   4   0   0 3374.48 235.510   7 0.15825 0.15830 0.00757-0.00767 0.99938-0.93855
  -4   0   0 3521.09 229.374   8-0.15832-0.15830-0.00216 0.00229-0.99941 0.93858
   4   0   0 3418.77 154.144   6 0.15829 0.15832-0.13555 0.13579 0.99015-0.92927
   4   0   0 3468.62 156.641   4 0.15834 0.15830-0.13609 0.13568 0.99008-0.92929
  -5   0   0 -1.2346 16.1049   1-0.19790-0.19784 0.05704-0.05721-0.99832 0.92228
   5   0   0 132.084 69.9105   7 0.19779 0.19788 0.01493-0.01508 0.99988-0.92384
  -5   0   0 8.83549 43.8560   8-0.19790-0.19787-0.01762 0.01779-0.99984 0.92380
   5   0   0 -0.3663 24.8337   6 0.19784 0.19788-0.02875 0.02904 0.99955-0.92350
   6   0   0 5808.53 411.730   7 0.23734 0.23747 0.02234-0.02251 0.99869-0.90743
   6   0   0 5019.34 229.632   6 0.23735 0.23743 0.08613-0.08581 0.99523-0.90402
  -6   0   0 5587.93 376.564   8-0.23749-0.23745-0.03319 0.03338-0.99839 0.90714
  -7   0   0 -110.60 83.9495   8-0.27708-0.27702-0.04888 0.04911-0.99499 0.88853
   7   0   0 -85.053 99.9732   7 0.27688 0.27706 0.02978-0.02999 0.99576-0.88928
  -7   0   0 -39.163 63.1029   2-0.27714-0.27726 0.04713-0.04669-0.99501 0.88848
  -8   0   0 1013.56 193.613   2-0.31672-0.31687 0.09624-0.09577-0.98684 0.86509
   8   0   0 1701.68 315.273   7 0.31642 0.31665 0.03726-0.03750 0.99104-0.86932
  -8   0   0 1423.66 276.158   8-0.31667-0.31659-0.06469 0.06495-0.98958 0.86792
   8   0   0 1048.77 196.922   3 0.31678 0.31718-0.08003 0.07987 0.98833-0.86639
   9   0   0 274.058 171.830   3 0.35632 0.35682-0.11537 0.11523 0.97833-0.84113
   9   0   0 155.451 159.174   7 0.35595 0.35625 0.04479-0.04507 0.98446-0.84750
  10   0   0 803.758 326.154   7 0.39549 0.39584 0.05236-0.05266 0.97591-0.82371
 -10   0   0 830.501 321.353   8-0.39585-0.39573-0.09669 0.09700-0.97231 0.82025
 -11   0   0 59.9573 106.588   5-0.43557-0.43536 0.13926-0.13899-0.95636 0.78914
 -11   0   0 419.292 271.026   8-0.43544-0.43530-0.11289 0.11324-0.96020 0.79294
  11   0   0 401.255 323.783   7 0.43502 0.43544 0.05997-0.06032 0.96530-0.79784
   0   1   0 3.58306 5.99683   6 0.22246-0.22243 0.04176 0.04176 0.99867-0.99862
   0   1   0 4.72977 7.92163   4 0.22264-0.22272 0.04173 0.04173 0.99866-0.99861
   0  -1   0 0.85939 3.82455   1-0.21450 0.21448-0.04174-0.04174-0.99889 0.99884
   0  -1   0 -3.2321 4.66498   9-0.20758 0.20757-0.04172-0.04173-0.99903 0.99898
  -1   1   0 402.070 38.0233   1-0.22861 0.14949-0.13754 0.22096-0.98980 0.97466
  -1  -1   0 387.155 42.9590   8-0.10362 0.02449 0.01903-0.10246-0.99580 0.98055
   1  -1   0 383.208 34.1238   7 0.07549 0.00366-0.00773-0.07581 0.99304-0.97788
   1  -1   0 415.919 34.4548   4 0.26496-0.18566 0.17195-0.25556 0.98214-0.96695
   1  -1   0 406.358 33.9239   6 0.26474-0.18568 0.17168-0.25510 0.98220-0.96707
  -1  -1   0 453.779 48.3807   1-0.18989 0.11068 0.10074-0.18426-0.99485 0.97958
  -1  -1   0 352.591 41.8640   7-0.05109-0.02803-0.03082-0.05266 0.96978-0.98504
  -1  -1   0 447.715 36.7534   9-0.28863 0.20953 0.19435-0.27779-0.97538 0.96014
  -1   1   0 360.869 34.8249   7-0.13146 0.05228-0.04529 0.12884 0.94654-0.96171
   1   1   0 392.868 42.4635   7 0.08910-0.01000-0.00522 0.08871 0.99457-0.97931
  -1   1   0 407.264 35.2157   6 0.32545-0.40450 0.38750-0.30411 0.90919-0.92431
   1   1   0 400.798 49.2068   6 0.17632-0.09714-0.08775 0.17137 0.99597-0.98070
   1   1   0 434.676 51.4248   4 0.17641-0.09732-0.08817 0.17150 0.99594-0.98069
   1  -1   0 374.606 45.1954   9-0.14022 0.21929-0.21210 0.12864-0.97619 0.99133
   2   1   0 933.701 91.0594   7 0.10257 0.05567-0.00274 0.08621 0.99589-0.96543
  -2  -1   0 946.360 89.1790   8-0.10989-0.04840 0.01662-0.10001-0.99639 0.96593
   2  -1   0 955.988 86.5480   9-0.08157 0.23975-0.34628 0.26280-0.93305 0.96340
  -2   1   0 929.575 71.1003   8-0.08799-0.07036 0.02505 0.05848-0.99414 0.96377
  -2   1   0 970.309 58.5238   1-0.24508 0.08682-0.27302 0.35638-0.96018 0.92987
  -2  -1   0 960.067 89.0954   4 0.07642-0.23465-0.33669 0.25351 0.93550-0.96589
   2   1   0 1013.30 89.6061   6 0.16437-0.00602-0.11961 0.20330 0.99239-0.96188
   2  -1   0 976.734 83.4432   7 0.09943 0.05886-0.00332-0.08024 0.99560-0.96524
   3   1   0 19178.7 486.014   7 0.13237 0.10501 0.00277 0.08067 0.99816-0.95250
   3  -1   0 19071.3 463.367   7 0.13451 0.10292 0.00316-0.08676 0.99829-0.95272
   3  -1   0 20553.2 448.682   9-0.02802 0.26532-0.45879 0.37529-0.87723 0.92277
   3   1   0 19154.7 429.684   6 0.17016 0.06736-0.10428 0.18802 0.99426-0.94853
  -3   1   0 18744.8 414.653   8-0.13039-0.10712 0.00869 0.07487-0.99800 0.95242
  -3  -1   0 18593.2 470.542   8-0.13570-0.10173 0.00663-0.08999-0.99834 0.95267
  -3  -1   0 20071.4 474.076   4 0.02497-0.26232-0.45033 0.36726 0.88040-0.92592
  -4  -1   0 97.3640 23.7361   9-0.07297-0.24349-0.36498 0.28149-0.92511 0.86427
   4   1   0 142.178 45.2339   6 0.18576 0.13089-0.06217 0.14595 0.99801-0.93708
   4  -1   0 91.4615 48.3536   9 0.02244 0.29398-0.55654 0.47303-0.81109 0.87184
  -4  -1   0 89.9654 38.9426   4-0.02409-0.29237-0.55045 0.46749 0.81399-0.87461
  -4  -1   0 140.190 61.0775   8-0.16775-0.14884-0.00583-0.07749-0.99968 0.93880
  -4   1   0 122.225 53.3915   8-0.17126-0.14541-0.00720 0.09079-0.99975 0.93896
   4  -1   0 155.711 54.8086   7 0.17194 0.14461 0.01011-0.09375 0.99974-0.93896
   4   1   0 58.4797 39.7503   7 0.16681 0.14971 0.00916 0.07425 0.99963-0.93875
  -5  -1   0 417.094 46.5110   9-0.18553-0.20997-0.09965 0.01616-0.99507 0.91903
  -5   1   0 945.895 139.306   8-0.21159-0.18423-0.02299 0.10661-0.99955 0.92355
   5  -1   0 913.060 139.704   7 0.21027 0.18542 0.01727-0.10093 0.99969-0.92369
   5   1   0 878.600 108.714   6 0.20720 0.18858-0.00235 0.08617 0.99988-0.92375
   5   1   0 878.528 138.761   7 0.20321 0.19244 0.01595 0.06744 0.99982-0.92372
  -5  -1   0 947.240 146.218   8-0.20257-0.19317-0.01945-0.06384-0.99977 0.92368
  -6   1   0 578.112 123.324   8-0.25168-0.22330-0.03880 0.12245-0.99739 0.90619
  -6  -1   0 686.821 140.228   8-0.23886-0.23604-0.03373-0.04952-0.99830 0.90701
   6   1   0 649.230 150.446   7 0.24061 0.23418 0.02295 0.06041 0.99851-0.90720
   6  -1   0 833.442 162.308   7 0.24902 0.22580 0.02453-0.10823 0.99801-0.90679
   6   1   0 715.291 106.004   6 0.23230 0.24258 0.07089 0.01295 0.99666-0.90535
   7  -1   0 -154.82 105.139   7 0.28800 0.26594 0.03189-0.11562 0.99462-0.88818
  -7  -1   0 135.360 101.653   8-0.27603-0.27803-0.04846-0.03476-0.99511 0.88861
   7   1   0 28.0199 65.3288   6 0.25976 0.29420 0.15570-0.07185 0.98528-0.87880
  -7  -1   0 98.8500 60.5768   2-0.29350-0.26082 0.06726-0.15038-0.99218 0.88562
   7   1   0 187.520 123.945   7 0.27861 0.27532 0.03011 0.05322 0.99560-0.88906
  -7   1   0 45.4990 78.8186   2-0.27652-0.27794 0.04636 0.03762-0.99511 0.88860
  -7   1   0 43.3316 91.3085   8-0.29163-0.26250-0.05468 0.13836-0.99324 0.88683
   8  -1   0 1063.56 249.048   7 0.32713 0.30594 0.03930-0.12308 0.98945-0.86777
   8   1   0 626.810 151.778   3 0.33489 0.29892-0.09614 0.17956 0.98417-0.86221
  -8  -1   0 801.878 202.331   8-0.31376-0.31946-0.06352-0.01968-0.99005 0.86835
   8   1   0 755.083 206.919   7 0.31697 0.31609 0.03736 0.04593 0.99097-0.86920
  -8   1   0 818.045 190.895   2-0.31062-0.32305 0.08858-0.00456-0.98840 0.86667
  -8   1   0 970.957 230.728   8-0.33151-0.30178-0.07065 0.15436-0.98701 0.86539
   8  -1   0 664.941 195.158   3 0.31229 0.32175-0.07606-0.00770 0.98925-0.86734
   9  -1   0 -99.056 121.610   3 0.34857 0.36470-0.10839 0.02465 0.98056-0.84337
   9   1   0 -210.12 179.593   7 0.35557 0.35661 0.04472 0.03854 0.98453-0.84752
  -9  -1   0 32.6461 123.443   8-0.35186-0.36051-0.07886-0.00431-0.98300 0.84609
  -9   1   0 -47.134 106.117   2-0.34567-0.36719 0.13300-0.04894-0.97792 0.84097
  -9   1   0 -138.69 161.184   8-0.37134-0.34111-0.08673 0.17047-0.97861 0.84179
   9  -1   0 -104.13 162.336   7 0.36636 0.34585 0.04677-0.13058 0.98240-0.84549
 -10  -1   0 2147.45 409.672   8-0.39025-0.40128-0.09441 0.01128-0.97383 0.82173
  10  -1   0 2684.09 518.925   7 0.40564 0.38568 0.05431-0.13816 0.97339-0.82123
  10  -1   0 1439.70 307.496   3 0.38537 0.40710-0.14174 0.05804 0.96879-0.81629
  10   1   0 1936.86 377.236   7 0.39436 0.39696 0.05214 0.03109 0.97618-0.82393
 -10   1   0 2168.23 408.232   8-0.41114-0.38048-0.10293 0.18669-0.96792 0.81590
 -11   1   0 351.320 250.268   8-0.45091-0.41987-0.11927 0.20306-0.95479 0.78757
 -11  -1   0 347.739 246.252   8-0.42883-0.44186-0.11018 0.02707-0.96239 0.79509
  11   1   0 516.672 259.333   7 0.43327 0.43717 0.05963 0.02357 0.96582-0.79830
  11  -1   0 110.138 180.684   7 0.44498 0.42546 0.06190-0.14579 0.96229-0.79487
   0   2   0 4473.43 191.165   6 0.23649-0.23643 0.08351 0.08353 0.99549-0.99539
   0  -2   0 4553.02 151.729   3 0.32068-0.32070-0.08349-0.08351 0.98749-0.98758
   0  -2   0 4570.07 188.767   9-0.19178 0.19174-0.08345-0.08345-0.99656 0.99646
  -1  -2   0 167.370 34.4219   8-0.18721 0.10812-0.01343-0.15346-0.99991 0.98460
   1   2   0 174.491 32.1694   7 0.18803-0.10899 0.01311 0.15386 0.99991-0.98461
  -1   2   0 188.355 39.1441   1-0.20706 0.12797 0.00404 0.16287-0.99987 0.98477
  -1  -2   0 181.598 31.6294   7-0.12330 0.04420-0.04383-0.12317 0.94921-0.96451
  -1  -2   0 167.716 33.1175   9-0.22445 0.14534 0.00417-0.17107-0.99944 0.98414
   1  -2   0 166.128 34.6328   4 0.20671-0.12734-0.00429-0.16277 0.99988-0.98475
   1  -2   0 157.635 39.8462   9-0.15523 0.23429-0.17576 0.00884-0.98394 0.99903
   1   2   0 149.167 42.3553   6 0.20916-0.12995 0.00323 0.16390 0.99985-0.98453
  -1   2   0 161.378 34.8014   6 0.28440-0.36346 0.23690-0.07001 0.96645-0.98154
   1   2   0 188.671 32.1793   2-0.49496 0.57398 0.33685-0.16993-0.88097 0.89631
  -2   2   0 2771.85 140.369   6 0.34924-0.50731 0.48915-0.32239 0.85172-0.88194
   2  -2   0 2448.86 123.429   6 0.22779-0.06965 0.05746-0.22434 0.99770-0.96743
  -2  -2   0 2336.94 117.334   9-0.25097 0.09277 0.07945-0.24633-0.99493 0.96443
  -2   2   0 2354.55 134.448   1-0.21509 0.05685-0.04549 0.21234-0.99871 0.96842
   2   2   0 2454.58 151.709   7 0.15903-0.00085 0.00771 0.15926 0.99941-0.96890
  -2  -2   0 2404.53 175.529   4 0.10848-0.26667-0.26124 0.09460 0.96197-0.99244
   2  -2   0 2404.42 124.744   7 0.17942-0.02113 0.01151-0.17857 0.99986-0.96955
  -2  -2   0 2296.98 150.031   8-0.16293 0.00468-0.00395-0.16291-0.99955 0.96904
   2  -2   0 2193.42 159.422   9-0.11618 0.27434-0.26854 0.10161-0.96091 0.99120
  -2   2   0 2426.37 101.783   8-0.17733 0.01893-0.00957 0.17656-0.99985 0.96952
   2   2   0 2254.23 165.041   6 0.19782-0.03944-0.02881 0.19603 0.99955-0.96900
   2  -2   0 2471.58 125.039   4 0.22798-0.06938 0.05748-0.22465 0.99770-0.96733
   3  -2   0 2519.57 190.638   9-0.07550 0.31277-0.35948 0.19254-0.92749 0.97299
  -3  -2   0 2360.79 106.851   9-0.26724 0.02997 0.12781-0.29470-0.98859 0.94289
  -3  -2   0 2634.89 198.307   4 0.06991-0.30725-0.35156 0.18506 0.92937-0.97499
   3  -2   0 2562.76 166.726   7 0.18649 0.05093 0.01282-0.17992 0.99991-0.95439
   3   2   0 2721.89 197.209   6 0.19783 0.03971-0.02877 0.19605 0.99955-0.95378
   3  -2   0 2512.87 114.646   6 0.23686 0.00038 0.08464-0.25146 0.99538-0.94992
  -3   2   0 2589.26 143.155   8-0.18682-0.05074-0.01328 0.18029-0.99991 0.95437
  -3  -2   0 2513.79 186.347   8-0.17206-0.06534-0.00751-0.15930-0.99977 0.95405
   3   2   0 2451.93 183.279   7 0.17044 0.06689 0.00983 0.15712 0.99971-0.95400
  -3   2   0 2511.95 137.373   1-0.21673-0.02066-0.05601 0.22281-0.99814 0.95266
  -5  -2   0 2451.52 237.172   8-0.22167-0.17405-0.02695-0.13979-0.99919 0.92307
  -5   2   0 2450.43 201.107   8-0.24913-0.14674-0.03779 0.20486-0.99759 0.92164
   5   2   0 2097.95 192.873   6 0.21938 0.17645 0.03273 0.13464 0.99909-0.92290
   5  -2   0 2422.49 221.959   9 0.00888 0.38661-0.53104 0.36406-0.83014 0.90604
   5   2   0 2486.00 240.412   7 0.22455 0.17106 0.01994 0.14697 0.99926-0.92312
  -5  -2   0 2315.32 220.963   4-0.01135-0.38422-0.52521 0.35897 0.83252-0.90837
   5  -2   0 2518.09 227.901   7 0.24294 0.15273 0.02339-0.19057 0.99838-0.92243
   6  -2   0 747.064 151.364   7 0.27725 0.19756 0.02985-0.19707 0.99573-0.90456
   6  -2   0 27.0680 45.7681   9 0.05207 0.42253-0.61025 0.44325-0.76615 0.85726
  -6   2   0 554.014 123.305   8-0.28522-0.18980-0.05212 0.21923-0.99404 0.90288
  -6  -2   0 535.467 135.154   8-0.25295-0.22193-0.03930-0.12741-0.99729 0.90596
   6   2   0 532.404 134.841   7 0.25746 0.21729 0.02612 0.14078 0.99742-0.90606
  -6  -2   0 440.338 79.0951   2-0.28804-0.18698 0.06053-0.22725-0.99320 0.90183
   6   2   0 620.670 119.846   6 0.23696 0.23798 0.08495 0.08244 0.99535-0.90395
  -7   2   0 2912.74 292.586   8-0.32249-0.23169-0.06702 0.23416-0.98861 0.88223
   7   2   0 2709.50 321.118   7 0.29214 0.26174 0.03267 0.13420 0.99416-0.88757
  -7   2   0 2490.88 303.403   2-0.28524-0.26927 0.05708 0.11044-0.99370 0.88722
  -7  -2   0 2824.22 315.907   8-0.28632-0.26771-0.05256-0.11412-0.99391 0.88738
   7   2   0 2351.68 224.939   3 0.32985 0.22461-0.09164 0.25860 0.98539-0.87867
   7  -2   0 2403.13 291.030   7 0.31314 0.24080 0.03664-0.20390 0.99151-0.88511
   7   2   0 2857.39 269.739   6 0.25745 0.29661 0.14834 0.01905 0.98660-0.88001
  -8   2   0 355.146 151.010   8-0.36045-0.27290-0.08232 0.24948-0.98113 0.85955
   8  -2   0 288.695 148.718   7 0.35000 0.28306 0.04365-0.21095 0.98557-0.86394
   8   2   0 111.426 125.550   7 0.32797 0.30505 0.03945 0.12738 0.98932-0.86749
  -8   2   0 315.986 159.488   2-0.31430-0.31942 0.09320 0.07437-0.98747 0.86577
  -8  -2   0 208.815 151.934   8-0.32108-0.31211-0.06646-0.10019-0.98885 0.86711
   8  -2   0 373.616 184.083   3 0.31757 0.31653-0.08074-0.08664 0.98816-0.86626
   9  -2   0 1567.75 343.057   3 0.35022 0.36312-0.10987-0.05748 0.98010-0.84291
   9   2   0 1173.15 266.244   7 0.36458 0.34757 0.04644 0.12037 0.98276-0.84570
  -9   2   0 1153.71 288.367   2-0.34503-0.36790 0.13217 0.03544-0.97814 0.84121
   9  -2   0 1483.97 319.163   7 0.38748 0.32469 0.05082-0.21816 0.97780-0.84093
  -9   2   0 1225.99 252.856   8-0.39884-0.31367-0.09791 0.26509-0.97148 0.83470
  -9  -2   0 1305.02 278.072   8-0.35679-0.35554-0.08085-0.08577-0.98194 0.84500
 -10   2   0 190.697 138.564   8-0.43752-0.35415-0.11375 0.28097-0.95949 0.80751
 -10  -2   0 221.813 200.710   8-0.39322-0.39829-0.09562-0.07098-0.97303 0.82089
 -10   2   0 416.098 217.167   2-0.37700-0.41513 0.17363-0.00598-0.96518 0.81303
  10  -2   0 6.14033 135.536   3 0.38394 0.40862-0.14043-0.02688 0.96930-0.81682
  10  -2   0 171.633 150.280   7 0.42541 0.36590 0.05811-0.22549 0.96808-0.81596
  10   2   0 358.091 191.830   7 0.40174 0.38954 0.05356 0.11322 0.97437-0.82207
  11   2   0 425.401 258.114   7 0.43930 0.43111 0.06080 0.10595 0.96402-0.79645
 -11  -2   0 391.909 206.847   8-0.43014-0.44052-0.11072-0.05584-0.96196 0.79463
  11  -2   0 237.870 220.359   7 0.46363 0.40678 0.06552-0.23293 0.95626-0.78888
  11  -2   0 236.801 146.749   3 0.41847 0.45330-0.17227 0.00500 0.95544-0.78764
   0  -3   0 4.94966 16.3889   8-0.46528 0.46538-0.12521-0.12521-0.94940 0.94923
   0  -3   0 11.9599 18.3435   4 0.16250-0.16226-0.12518-0.12522 0.99165-0.99179
   0  -3   0 -0.7948 19.6914   9-0.17552 0.17548-0.12519-0.12516-0.99209 0.99194
   0  -3   0 -5.8501 13.0804   3 0.36721-0.36725-0.12521-0.12526 0.97498-0.97511
   0   3   0 -4.8819 21.9395   6 0.25011-0.25002 0.12525 0.12529 0.99032-0.99018
   0   3   0 13.2179 18.4518   2-0.33962 0.33944 0.12526 0.12526-0.98000 0.98017
   1  -3   0 954.954 107.632   4 0.17899-0.09954-0.08120-0.16932 0.99657-0.98148
  -1  -3   0 813.353 96.0931   9-0.19455 0.11542-0.07621-0.17413-0.99713 0.98178
   1   3   0 850.467 87.4894   2-0.45689 0.53586 0.28209-0.03167-0.91552 0.93093
  -1   3   0 721.927 92.5023   6 0.28135-0.36039 0.22652 0.02389 0.96930-0.98435
  -1  -3   0 739.609 78.3063   8-0.27877 0.19971-0.04955-0.20082-0.99480 0.97944
  -1   3   0 757.898 96.0092   2-0.27917 0.19980 0.04961 0.20100-0.99470 0.97964
   1   3   0 852.833 70.7810   7 0.31734-0.23836 0.03743 0.21299 0.99091-0.97555
  -1   3   0 710.654 94.7844   1-0.19443 0.11536 0.07624 0.17414-0.99704 0.98199
   1  -3   0 764.211 100.496   9-0.15125 0.23030-0.18546-0.06490-0.98202 0.99707
  -1  -3   0 803.082 70.3218   3 0.56684-0.64602-0.31685 0.06661 0.85504-0.87033
   1   3   0 669.261 100.115   6 0.23034-0.15110 0.06506 0.18559 0.99714-0.98177
  -2   3   0 849.590 94.9930   6 0.32339-0.48150 0.37931-0.12906 0.91312-0.94332
   2  -3   0 944.654 70.3160   7 0.34494-0.18667 0.04269-0.29319 0.98648-0.95622
  -2  -3   0 846.625 122.669   4 0.11424-0.27237-0.24727-0.00284 0.96606-0.99660
   2  -3   0 839.393 114.681   9-0.12295 0.28110-0.25285 0.00247-0.96556 0.99581
   2   3   0 916.099 97.8503   7 0.24084-0.08273 0.02300 0.22746 0.99850-0.96794
   2  -3   0 1030.49 107.651   4 0.18803-0.02937-0.05655-0.19407 0.99836-0.96804
  -2  -3   0 928.078 94.0094   9-0.20646 0.04826-0.04471-0.20563-0.99892 0.96837
   2   3   0 997.991 128.847   6 0.22051-0.06211 0.03607 0.21467 0.99895-0.96835
  -2  -3   0 921.935 103.763   8-0.22954 0.07132-0.03005-0.22027-0.99883 0.96827
  -2   3   0 972.343 109.798   1-0.19929 0.04108 0.04921 0.20112-0.99873 0.96849
   3  -3   0 5411.29 249.172   7 0.28365-0.04626 0.03106-0.28163 0.99509-0.94961
  -3   3   0 6886.79 301.201   6 0.36829-0.60539 0.58631-0.33620 0.77917-0.82449
  -3   3   0 5989.60 281.978   1-0.19940-0.03796 0.04864 0.20164-0.99876 0.95332
  -3  -3   0 5874.65 349.399   4 0.08462-0.32191-0.31776 0.06780 0.94285-0.98856
  -3  -3   0 5845.13 234.865   9-0.20805-0.02924-0.04045-0.20990-0.99907 0.95332
   3   3   0 5790.92 301.651   7 0.22884 0.00842 0.02074 0.22971 0.99909-0.95332
   3  -3   0 5380.88 236.275   4 0.18623 0.05161-0.06147-0.18922 0.99806-0.95251
  -3  -3   0 6115.79 314.547   8-0.22206-0.01531-0.02711-0.22317-0.99918 0.95341
   3  -3   0 6036.80 345.424   9-0.09151 0.32874-0.32437 0.07398-0.94173 0.98718
  -3   3   0 6372.05 205.911   8-0.32086 0.08325-0.06637 0.31687-0.98888 0.94340
   3   3   0 5888.16 341.077   6 0.21868 0.01889 0.03070 0.22011 0.99918-0.95335
  -4  -3   0 2357.02 216.356   8-0.23254-0.08400-0.03123-0.21901-0.99867 0.93771
   4  -3   0 2342.08 192.991   7 0.28169 0.03484 0.03069-0.28131 0.99529-0.93460
   4   3   0 2143.37 204.934   7 0.23928 0.07712 0.02270 0.22775 0.99859-0.93761
  -4  -3   0 2272.83 233.159   4 0.05229-0.36873-0.39111 0.14130 0.91154-0.97238
  -4   3   0 2102.50 156.005   1-0.19367-0.12282 0.08038 0.16987-0.99671 0.93608
   4   3   0 2000.63 204.734   6 0.22308 0.09364 0.04359 0.20728 0.99857-0.93752
  -4   3   0 2418.90 162.628   8-0.30487-0.01189-0.05997 0.31048-0.99141 0.93071
   4  -3   0 2449.17 229.187   9-0.05755 0.37390-0.39785 0.14745-0.90989 0.97054
  -4  -3   0 2116.48 121.685   9-0.19229-0.12409-0.08211-0.16826-0.99667 0.93573
   4  -3   0 2021.16 129.008   4 0.16605 0.15095-0.11582-0.13494 0.99288-0.93213
  -5  -3   0 406.981 107.537   8-0.25231-0.14338-0.03905-0.21115-0.99735 0.92118
  -5   3   0 341.809 81.3448   8-0.31867-0.07726-0.06549 0.31603-0.98925 0.91334
   5  -3   0 269.315 83.9866   7 0.29858 0.09707 0.03389-0.28456 0.99340-0.91749
   5   3   0 323.064 96.5410   6 0.23233 0.16354 0.07101 0.17988 0.99665-0.92038
  -5  -3   0 269.125 97.5965   4 0.01776-0.41333-0.46553 0.21587 0.87148-0.94744
   5  -3   0 381.170 105.290   9-0.02159 0.41704-0.47169 0.22126-0.86952 0.94537
  -5  -3   0 208.347 38.5122   9-0.13522-0.26030-0.22402-0.02639-0.97329 0.89715
   5   3   0 441.865 114.772   7 0.26012 0.13542 0.02662 0.22382 0.99722-0.92103
   5  -3   0 293.663 44.5060   4 0.10144 0.29464-0.27812 0.02734 0.95670-0.88079
  -5   3   0 379.134 67.3144   1-0.17955-0.21607 0.15405 0.09619-0.98791 0.91207
   5   3   0 314.657 52.8857   3 0.34178 0.05409-0.10229 0.35271 0.98240-0.90614
   6  -3   0 391.262 110.196   7 0.32386 0.15092 0.03867-0.28940 0.98995-0.89882
   6  -3   0 292.664 103.746   9 0.01606 0.45850-0.54463 0.29417-0.82016 0.91123
  -6  -3   0 233.245 86.9641   4-0.01861-0.45607-0.53965 0.29013 0.82208-0.91312
  -6   3   0 273.476 106.828   2-0.27825-0.19712 0.04848 0.20251-0.99485 0.90362
   6   3   0 179.001 54.0511   3 0.37147 0.10356-0.12908 0.37950 0.97360-0.88210
   6   3   0 474.015 131.380   7 0.28662 0.18806 0.03162 0.21880 0.99477-0.90336
  -6   3   0 438.380 108.489   8-0.34338-0.13170-0.07543 0.32599-0.98474 0.89362
  -6  -3   0 402.010 123.908   8-0.27753-0.19731-0.04906-0.20111-0.99494 0.90357
   6   3   0 230.861 96.2940   6 0.24533 0.22968 0.11047 0.14046 0.99238-0.90091
  -7   3   0 205.780 119.083   2-0.29994-0.25463 0.07526 0.17578-0.99085 0.88440
   7  -3   0 -54.892 92.5631   3 0.30316 0.25171-0.06801-0.18298 0.99101-0.88440
   7   3   0 354.201 128.819   6 0.26121 0.29293 0.16030 0.09063 0.98443-0.87775
  -7  -3   0 303.568 155.714   8-0.30621-0.24779-0.06050-0.18963-0.99121 0.88463
   7   3   0 206.223 137.439   7 0.31655 0.23728 0.03728 0.21311 0.99103-0.88438
   7  -3   0 221.069 110.694   7 0.35361 0.20029 0.04434-0.29510 0.98490-0.87854
   7  -3   0 10.5926 57.9884   9 0.05513 0.49855-0.61564 0.36516-0.76126 0.86754
  -7   3   0 281.516 99.6647   8-0.37333-0.18092-0.08754 0.33813-0.97813 0.87180
   8   3   0 608.871 194.000   7 0.34869 0.28427 0.04340 0.20697 0.98581-0.86394
  -8   3   0 517.661 195.000   2-0.32451-0.30926 0.10607 0.14504-0.98469 0.86302
   8  -3   0 803.352 228.210   3 0.33007 0.30405-0.09183-0.15914 0.98534-0.86346
   8  -3   0 709.558 180.346   7 0.38602 0.24701 0.05054-0.30135 0.97814-0.85655
  -8  -3   0 815.896 219.479   8-0.33722-0.29593-0.07294-0.17716-0.98594 0.86417
  -8   3   0 790.898 166.509   8-0.40620-0.22722-0.10091 0.35153-0.96938 0.84784
   9   3   0 131.115 129.431   7 0.38237 0.32973 0.04984 0.20051 0.97897-0.84185
  -9   3   0 -215.23 187.852   2-0.35126-0.36172 0.14017 0.11098-0.97589 0.83899
  -9  -3   0 -266.33 171.448   8-0.36988-0.34244-0.08614-0.16393-0.97896 0.84198
  -9   3   0 61.3644 109.755   8-0.44085-0.27173-0.11512 0.36576-0.95835 0.82162
   9  -3   0 148.569 129.444   7 0.42013 0.29201 0.05709-0.30795 0.96955-0.83271
   9  -3   0 -87.602 169.730   3 0.35903 0.35434-0.11781-0.13315 0.97753-0.84035
  10  -3   0 0.28345 173.515   3 0.38954 0.40307-0.14556-0.10537 0.96725-0.81477
  10   3   0 260.278 206.411   7 0.41713 0.37410 0.05652 0.19380 0.97036-0.81800
 -10   3   0 683.799 278.364   2-0.37966-0.41252 0.17713 0.07406-0.96394 0.81181
 -10  -3   0 540.571 214.385   8-0.40374-0.38774-0.09991-0.15013-0.97009 0.81791
  10  -3   0 146.102 125.687   7 0.45541 0.33586 0.06392-0.31482 0.95898-0.80689
  11  -3   0 40.8140 145.929   3 0.42124 0.45060-0.17485-0.07604 0.95419-0.78639
  11  -3   0 -121.83 140.282   7 0.49151 0.37886 0.07094-0.32188 0.94628-0.77894
   0   4   0 3156.13 224.294   6 0.26328-0.26319 0.16698 0.16706 0.98314-0.98294
   0   4   0 2835.54 210.249   1-0.17695 0.17708 0.16697 0.16694-0.98578 0.98599
   0  -4   0 3118.77 183.633   3 0.41271-0.41279-0.16692-0.16701 0.95796-0.95811
   0   4   0 3299.81 210.965   2-0.37194 0.37169 0.16700 0.16701-0.96747 0.96771
   0   4   0 3029.13 144.484   5-0.48034 0.48021 0.16698 0.16696-0.93720 0.93743
   0  -4   0 3401.65 239.881   4 0.14643-0.14609-0.16690-0.16697 0.98491-0.98508
   0  -4   0 3116.96 225.231   9-0.15882 0.15877-0.16692-0.16689-0.98558 0.98538
   0  -4   0 3375.22 139.372   8-0.56477 0.56488-0.16697-0.16696-0.90172 0.90150
  -1  -4   0 80.5232 54.2216   3 0.55895-0.63817-0.30876-0.02493 0.86247-0.87779
   1   4   0 181.297 62.2896   7 0.46574-0.38683 0.06593 0.26793 0.95554-0.94010
   1  -4   0 -19.111 46.9240   3 0.33563-0.25648-0.09680-0.23734 0.98398-0.96892
   1   4   0 30.8819 79.4056   6 0.24769-0.16842 0.11775 0.21641 0.99140-0.97598
  -1   4   0 -33.809 51.6246   2-0.32016 0.24074 0.10057 0.23355-0.98591 0.97091
   1  -4   0 -51.286 76.0707   4 0.15719-0.07763-0.13911-0.19486 0.98962-0.97457
  -1  -4   0 -3.5576 57.7266   9-0.17136 0.09222-0.13569-0.19811-0.99064 0.97525
  -1  -4   0 8.74448 45.6616   8-0.37371 0.29466-0.08769-0.24615-0.97804 0.96262
  -1   4   0 20.2030 55.9716   6 0.28652-0.36555 0.24415 0.08976 0.96438-0.97938
   1  -4   0 77.0378 79.7016   9-0.14120 0.22023-0.20975-0.12407-0.97674 0.99174
   1   4   0 -40.870 50.3800   2-0.45903 0.53795 0.28512 0.04880-0.91379 0.92927
  -1   4   0 93.0642 92.0067   1-0.18375 0.10472 0.13276 0.20111-0.99104 0.97605
  -2   4   0 2593.25 218.574   1-0.18704 0.02886 0.11576 0.21806-0.99320 0.96302
   2  -4   0 2346.71 221.969   9-0.11944 0.27757-0.26100-0.07283-0.96318 0.99338
  -2  -4   0 2412.72 179.583   8-0.30473 0.14653-0.05991-0.27388-0.99143 0.96081
  -2  -4   0 2472.16 188.492   9-0.17744 0.01922-0.12032-0.21348-0.99272 0.96212
   2   4   0 2424.88 165.201   7 0.34229-0.18425 0.04218 0.29173 0.98695-0.95632
   2   4   0 2614.39 237.925   6 0.23908-0.08065 0.09133 0.24292 0.99467-0.96402
   2  -4   0 2565.62 207.993   4 0.16139-0.00264-0.12809-0.20597 0.99124-0.96096
  -2   4   0 2896.44 206.317   6 0.31700-0.47513 0.35447-0.02072 0.92441-0.95458
   2  -4   0 2793.15 109.751   7 0.64558-0.48736 0.10147-0.43536 0.86691-0.83670
  -3   4   0 3168.76 216.558   6 0.35176-0.58892 0.50098-0.16739 0.84388-0.88918
   3  -4   0 3079.30 166.881   7 0.43910-0.20175 0.06076-0.39476 0.96408-0.91866
   3   4   0 3041.47 219.024   7 0.30426-0.06709 0.03495 0.29898 0.99269-0.94686
  -3   4   0 3155.70 115.956   8-0.62436 0.38668-0.19257 0.52658-0.86298 0.81757
  -3  -4   0 3182.90 285.604   4 0.08676-0.32399-0.31277-0.02066 0.94471-0.99047
   3  -4   0 3433.94 227.785   4 0.15679 0.08114-0.14013-0.19401 0.98946-0.94396
  -3   4   0 3183.23 232.482   1-0.18647-0.05084 0.11869 0.21508-0.99285 0.94747
   3  -4   0 3061.69 269.684   9-0.09425 0.33147-0.31826-0.01558-0.94404 0.98944
   3   4   0 3146.67 273.659   6 0.23648 0.00112 0.08347 0.25087 0.99549-0.94961
  -3  -4   0 2914.22 225.839   8-0.28189 0.04454-0.05079-0.28296-0.99444 0.94862
  -3  -4   0 2996.50 195.850   9-0.17480-0.06251-0.12701-0.20680-0.99185 0.94605
  -4  -4   0 284.183 37.8090   5-0.57163 0.25488 0.22509-0.55895-0.88405 0.82300
   4   4   0 425.618 97.1799   7 0.29853 0.01779 0.03388 0.30007 0.99341-0.93237
  -4   4   0 613.979 140.695   2-0.28061-0.03641 0.05138 0.28299-0.99447 0.93376
   4  -4   0 433.109 86.3861   7 0.38825-0.07176 0.05097-0.38505 0.97763-0.91699
   4  -4   0 578.007 90.6717   4 0.13913 0.17796-0.18549-0.14870 0.98124-0.92052
  -4   4   0 565.842 72.2493   8-0.46752 0.15068-0.12614 0.46015-0.94853 0.88789
  -4  -4   0 417.506 120.770   4 0.06013-0.37652-0.37366 0.04038 0.91969-0.98060
  -4  -4   0 564.278 84.4927   9-0.15919-0.15720-0.16599-0.16783-0.98575 0.92475
   4  -4   0 497.295 119.738   9-0.06616 0.38249-0.37957 0.04572-0.91855 0.97915
  -4   4   0 482.857 97.8443   1-0.18135-0.13509 0.14499 0.18875-0.98931 0.92873
  -4  -4   0 492.280 104.270   8-0.28102-0.03550-0.05045-0.28326-0.99454 0.93353
   4   4   0 462.982 118.415   6 0.23890 0.07786 0.09081 0.24358 0.99473-0.93362
   5  -4   0 6494.55 292.421   4 0.09844 0.29777-0.28527-0.04894 0.95435-0.87844
   5  -4   0 6478.13 437.678   9-0.03560 0.43103-0.44340 0.10952-0.88605 0.96186
   5   4   0 6083.82 415.787   6 0.24545 0.15047 0.11084 0.22359 0.99233-0.91600
  -5   4   0 6125.59 446.456   2-0.28806-0.10815 0.06055 0.27389-0.99320 0.91725
  -5  -4   0 6522.68 414.004   8-0.29225-0.10341-0.05492-0.27875-0.99316 0.91694
   5  -4   0 6319.87 365.108   7 0.38057 0.01504 0.04950-0.38363 0.97937-0.90351
  -5  -4   0 6755.96 266.379   9-0.12056-0.27496-0.25842-0.07545-0.96394 0.88775
  -5   4   0 6875.16 294.898   8-0.43344 0.03743-0.11207 0.44609-0.96087 0.88502
  -5  -4   0 6149.92 438.238   4 0.03092-0.42646-0.43764 0.10452 0.88754-0.96359
  -5   4   0 6996.16 344.859   1-0.17023-0.22535 0.19961 0.13411-0.97958 0.90381
   5   4   0 6033.86 398.791   7 0.30841 0.08705 0.03574 0.29820 0.99215-0.91590
   6  -4   0 56.2247 83.3120   7 0.39108 0.08365 0.05151-0.38571 0.97696-0.88588
  -6  -4   0 -3.2670 81.3370   4-0.00052-0.47416-0.50334 0.17037 0.84757-0.93872
   6  -4   0 -42.632 95.1049   3 0.30571 0.16986-0.07026-0.26429 0.99053-0.89922
   6   4   0 76.5578 67.7580   6 0.25536 0.21971 0.14171 0.19273 0.98773-0.89617
  -6   4   0 121.908 77.5655   8-0.43394-0.04122-0.11228 0.44631-0.96070 0.86964
  -6  -4   0 134.145 101.182   8-0.31087-0.16396-0.06236-0.27127-0.99050 0.89908
  -6   4   0 -13.940 72.0034   2-0.30121-0.17420 0.07685 0.25766-0.99058 0.89940
   6   4   0 -71.741 75.5720   7 0.32701 0.14759 0.03927 0.29466 0.98947-0.89799
   6  -4   0 167.684 97.1681   9-0.00289 0.47743-0.50844 0.17454-0.84593 0.93694
   7  -4   0 3268.04 393.261   3 0.32519 0.22966-0.08749-0.24707 0.98648-0.87989
   7  -4   0 3519.24 334.724   7 0.41097 0.14288 0.05533-0.38958 0.97201-0.86569
   7   4   0 3534.81 396.720   7 0.35098 0.20277 0.04384 0.29008 0.98539-0.87869
  -7   4   0 3593.00 407.755   2-0.31861-0.23600 0.09863 0.23594-0.98634 0.87993
   7  -4   0 3536.29 373.380   9 0.03170 0.52195-0.57362 0.23969-0.79754 0.90377
  -7  -4   0 3714.09 394.519   8-0.33428-0.21969-0.07176-0.26183-0.98650 0.87988
   7   4   0 2981.79 326.370   6 0.26797 0.28622 0.18213 0.15233 0.98002-0.87325
  -8   4   0 137.470 154.053   2-0.33926-0.29457 0.12478 0.20985-0.98012 0.85848
   8  -4   0 75.0259 91.6101   7 0.43633 0.19664 0.06022-0.39453 0.96491-0.84336
  -8  -4   0 -45.187 119.634   8-0.36102-0.27212-0.08255-0.25101-0.98100 0.85918
   8   4   0 -201.21 128.641   6 0.28274 0.35058 0.23121 0.10326 0.96803-0.84605
   8   4   0 -163.15 130.660   7 0.37846 0.25443 0.04909 0.28481 0.97984-0.85790
   8  -4   0 -4.1173 100.835   3 0.34802 0.28611-0.10789-0.22668 0.98071-0.85884
   9  -4   0 809.893 274.201   3 0.37337 0.34001-0.13080-0.20375 0.97297-0.83579
  -9   4   0 676.523 269.085   2-0.36239-0.35063 0.15457 0.18012-0.97154 0.83466
   9   4   0 337.313 198.938   7 0.40839 0.30364 0.05483 0.27904 0.97268-0.83550
   9  -4   0 920.648 221.537   7 0.46517 0.24692 0.06581-0.40016 0.95574-0.81894
  -9  -4   0 537.105 212.500   8-0.39014-0.32216-0.09436-0.23917-0.97386 0.83684
  10  -4   0 284.655 251.891   3 0.40069 0.39195-0.15581-0.17874 0.96295-0.81046
 -10  -4   0 274.204 168.793   8-0.42100-0.37044-0.10697-0.22653-0.96490 0.81269
  10   4   0 296.865 199.025   7 0.44008 0.35108 0.06095 0.27291 0.96378-0.81136
 -10   4   0 385.303 255.809   2-0.38751-0.40472 0.18748 0.14725-0.96013 0.80803
  10  -4   0 426.289 189.939   7 0.49635 0.29486 0.07188-0.40628 0.94443-0.79238
 -11   4   0 270.543 222.579   2-0.41418-0.45726 0.22316 0.11161-0.94543 0.77809
   0   5   0 -32.784 43.6412   2-0.40348 0.40317 0.20875 0.20877-0.95167 0.95197
   0   5   0 16.3493 43.7363   6 0.27604-0.27592 0.20872 0.20885 0.97389-0.97363
   0   5   0 20.6917 35.7279   5-0.54630 0.54614 0.20872 0.20870-0.90091 0.90121
   0   5   0 -36.980 49.3829   1-0.16830 0.16846 0.20872 0.20867-0.97765 0.97791
   0  -5   0 37.4309 47.3041   9-0.14166 0.14159-0.20865-0.20860-0.97699 0.97674
   0  -5   0 -0.0309 31.1678   8-0.66126 0.66139-0.20871-0.20869-0.83427 0.83398
   0  -5   0 -8.6349 41.8319   3 0.45714-0.45725-0.20862-0.20876 0.93619-0.93635
  -1  -5   0 388.376 73.3678   3 0.57483-0.65409-0.32510-0.09205 0.84721-0.86253
   1   5   0 446.052 86.6704   2-0.47372 0.55259 0.30600 0.11140-0.90127 0.91682
   1   5   0 378.238 96.3665   6 0.26311-0.18383 0.16642 0.25126 0.98325-0.96777
  -1  -5   0 333.058 70.7276   8-0.46975 0.39072-0.12707-0.29026-0.94766 0.93218
   1   5   0 377.288 54.5491   7 0.62577-0.54692 0.09748 0.31977 0.87975-0.86421
  -1   5   0 487.524 120.239   1-0.17362 0.09463 0.18326 0.23408-0.98283 0.96790
  -1  -5   0 443.063 107.391   4 0.11789-0.19665-0.23837-0.17883 0.96854-0.98396
  -1   5   0 418.190 98.8631   6 0.29452-0.37353 0.27194 0.14548 0.95581-0.97076
   1  -5   0 377.236 103.321   9-0.12825 0.20727-0.24045-0.17680-0.96901 0.98397
  -1  -5   0 395.994 96.4797   9-0.15035 0.07120-0.18765-0.22961-0.98158 0.96613
   1  -5   0 353.820 87.1485   3 0.38660-0.30750-0.14287-0.27473 0.96834-0.95329
   2   5   0 1283.95 176.838   2-0.57097 0.72899 0.45516-0.03787-0.77999 0.81079
  -2   5   0 1414.10 169.096   6 0.31822-0.47635 0.35914 0.05813 0.92236-0.95248
  -2  -5   0 1423.41 195.902   4 0.10188-0.25985-0.27708-0.13999 0.95703-0.98766
   2   5   0 1186.91 182.707   6 0.25546-0.09700 0.14202 0.27576 0.98768-0.95697
  -2  -5   0 1153.70 144.151   8-0.38541 0.22723-0.09244-0.32483-0.97510 0.94443
   2  -5   0 1054.37 152.200   3 0.34713-0.18877-0.10710-0.31067 0.98096-0.95068
  -2   5   0 1246.37 178.546   2-0.33046 0.17179 0.11359 0.30412-0.98293 0.95275
   2  -5   0 1407.90 192.010   9-0.11090 0.26901-0.28067-0.13660-0.95709 0.98724
  -2   5   0 1344.77 180.205   1-0.17594 0.01781 0.17193 0.24536-0.98491 0.95479
   2   5   0 1335.19 136.178   7 0.45897-0.30100 0.06461 0.35274 0.95781-0.92711
  -2  -5   0 1430.47 169.715   9-0.15327-0.00496-0.18054-0.23672-0.98301 0.95236
  -3  -5   0 2565.55 277.258   4 0.08245-0.31962-0.32279-0.09413 0.94095-0.98676
  -3   5   0 2613.11 232.855   6 0.34554-0.58273 0.47234-0.05525 0.86241-0.90767
  -3  -5   0 2653.34 221.180   9-0.14875-0.08857-0.19155-0.22572-0.98077 0.93492
   3  -5   0 2398.70 256.807   3 0.32783-0.09018-0.08984-0.32805 0.98587-0.94036
  -3   5   0 2296.32 264.286   2-0.31678 0.07892 0.09631 0.32148-0.98683 0.94140
   3  -5   0 2767.47 242.551   4 0.13308 0.10495-0.20074-0.21684 0.97793-0.93244
   3   5   0 2691.81 219.288   7 0.39394-0.15685 0.05206 0.36534 0.97628-0.93038
   3  -5   0 2499.86 275.500   9-0.09015 0.32735-0.32738-0.08990-0.94058 0.98594
   3   5   0 2403.89 261.199   6 0.25252-0.01490 0.13282 0.28504 0.98917-0.94322
  -3   5   0 2588.53 250.340   1-0.17498-0.06228 0.17660 0.24064-0.98407 0.93875
   3  -5   0 2899.58 150.678   7 0.67438-0.43707 0.10731-0.52469 0.84656-0.80117
  -3  -5   0 2284.81 214.169   8-0.34886 0.11152-0.07764-0.33958-0.98363 0.93776
  -4   5   0 78.0966 63.2346   1-0.17024-0.14617 0.19954 0.21768-0.97960 0.91909
  -4   5   0 56.5337 61.6278   2-0.31308-0.00398 0.09167 0.32621-0.98778 0.92712
   4  -5   0 61.9375 52.9883   7 0.53949-0.22306 0.08034-0.49783 0.92623-0.86564
   4  -5   0 94.7337 83.0586   3 0.32202-0.00507-0.08468-0.33332 0.98719-0.92642
  -4  -5   0 24.2724 54.9342   8-0.33711 0.02062-0.07290-0.34427-0.98596 0.92490
   4  -5   0 43.5647 53.1909   4 0.11712 0.20007-0.24024-0.17738 0.96802-0.90732
  -4  -5   0 195.376 105.615   4 0.06004-0.37638-0.37386-0.04289 0.91959-0.98057
   4   5   0 82.1419 76.4434   6 0.25372 0.06307 0.13658 0.28134 0.98858-0.92739
  -4  -5   0 141.207 64.8264   9-0.13392-0.18249-0.22709-0.19020-0.97252 0.91147
   4  -5   0 41.8346 65.6096   9-0.06643 0.38274-0.37898-0.03832-0.91882 0.97938
   4   5   0 49.0350 61.1276   7 0.37055-0.05432 0.04758 0.36985 0.98153-0.92043
  -4   5   0 -46.359 34.6567   6 0.37235-0.68854 0.61048-0.19355 0.75790-0.81826
  -5  -5   0 134.412 147.530   4 0.03497-0.43048-0.42893 0.01234 0.89229-0.96841
   5   5   0 609.015 134.680   7 0.36810 0.02727 0.04711 0.37032 0.98204-0.90573
   5   5   0 673.043 157.003   6 0.25845 0.13750 0.15153 0.26643 0.98604-0.90963
  -5   5   0 520.417 143.969   2-0.31683-0.07943 0.09637 0.32157-0.98681 0.91091
   5  -5   0 568.517 160.927   9-0.04013 0.43554-0.43413 0.01680-0.89117 0.96694
  -5  -5   0 689.302 153.106   8-0.33977-0.05587-0.07397-0.34317-0.98545 0.90918
   5  -5   0 819.087 185.652   3 0.32558 0.07065-0.08784-0.33023 0.98639-0.91036
   5  -5   0 614.145 115.890   7 0.49325-0.09770 0.07127-0.48886 0.94562-0.86980
   6  -5   0 8.08824 71.9773   7 0.48156-0.00689 0.06900-0.48665 0.94998-0.85893
   6   5   0 -0.7744 77.1675   7 0.37763 0.09689 0.04893 0.36850 0.98002-0.88848
   6   5   0 -48.368 89.0140   6 0.26617 0.20894 0.17628 0.24172 0.98126-0.88962
   6  -5   0 -48.762 86.5569   3 0.33587 0.13966-0.09701-0.32111 0.98392-0.89261
  -6   5   0 64.2142 76.2257   2-0.32623-0.14923 0.10824 0.30978-0.98419 0.89306
   6  -5   0 45.0336 74.0486   9-0.01150 0.48600-0.49165 0.07431-0.85701 0.94799
  -6  -5   0 180.132 97.6765   8-0.35152-0.12328-0.07872-0.33839-0.98307 0.89160
  -6  -5   0 3.83326 76.7407   4 0.00754-0.48220-0.48680 0.07037 0.85834-0.94957
   7   5   0 165.690 116.264   6 0.27636 0.27789 0.20977 0.20823 0.97363-0.86676
   7  -5   0 140.143 129.422   9 0.01923 0.53439-0.55056 0.13318-0.81569 0.92188
   7   5   0 77.6599 111.448   7 0.39464 0.15902 0.05220 0.36524 0.97612-0.86934
  -7  -5   0 37.2163 101.585   4-0.02204-0.53175-0.54642 0.13014 0.81703-0.92335
  -7   5   0 260.489 146.625   2-0.34000-0.21466 0.12574 0.29235-0.97987 0.87350
   7  -5   0 13.3035 87.0712   3 0.35112 0.20370-0.11068-0.30746 0.97984-0.87325
  -7  -5   0 352.666 170.156   8-0.36936-0.18460-0.08593-0.33114-0.97908 0.87242
  -8   5   0 236.300 153.456   2-0.35720-0.27666 0.14785 0.27031-0.97362 0.85201
   8   5   0 506.602 170.529   6 0.28859 0.34478 0.25128 0.16671 0.96227-0.84018
  -8  -5   0 468.631 217.794   8-0.39148-0.24164-0.09491-0.32212-0.97350 0.85164
   8   5   0 171.825 142.218   7 0.41664 0.21616 0.05642 0.36099 0.97050-0.84849
   8  -5   0 137.222 157.335   3 0.37014 0.26396-0.12787-0.29030 0.97404-0.85216
   8  -5   0 26.0239 70.4315   9 0.05187 0.58085-0.60990 0.19250-0.76648 0.88789
   9   5   0 169.034 170.490   7 0.44214 0.26981 0.06135 0.35606 0.96316-0.82591
  -9   5   0 153.051 201.093   2-0.37712-0.33596 0.17379 0.24442-0.96512 0.82828
  -9  -5   0 278.059 177.520   8-0.41670-0.29558-0.10521-0.31178-0.96623 0.82918
   9  -5   0 29.7838 144.431   3 0.39206 0.32132-0.14788-0.27029 0.96631-0.82912
 -10   5   0 -38.566 179.196   2-0.39921-0.39306 0.20305 0.21521-0.95402 0.80194
  10  -5   0 54.1058 154.343   3 0.41627 0.37638-0.17023-0.24792 0.95641-0.80390
  10   5   0 -165.09 126.514   7 0.47017 0.32092 0.06678 0.35060 0.95402-0.80152
   0  -6   0 1421.59 164.657   3 0.50040-0.50058-0.25032-0.25051 0.90939-0.90953
   0  -6   0 1352.02 209.466   4 0.11299-0.11245-0.25031-0.25047 0.96519-0.96542
   0   6   0 1149.29 190.394   6 0.28835-0.28821 0.25044 0.25063 0.96252-0.96220
   0  -6   0 1566.18 214.676   9-0.12401 0.12394-0.25039-0.25032-0.96626 0.96597
   0   6   0 1497.01 138.454   5-0.61028 0.61009 0.25047 0.25044-0.85467 0.85506
  -1   6   0 40.1595 94.9977   6 0.30363-0.38264 0.30456 0.19637 0.94450-0.95938
   1   6   0 29.1819 55.5409   6 0.27732-0.19801 0.21297 0.28823 0.97283-0.95728
  -1   6   0 262.114 121.918   1-0.16356 0.08460 0.23084 0.26998-0.97256 0.95769
  -1  -6   0 125.848 56.7940   9-0.13011 0.05095-0.23608-0.26462-0.97018 0.95469
   1  -6   0 167.603 106.625   4 0.11804-0.03829-0.23800-0.26287 0.96864-0.95363
   1  -6   0 256.092 119.971   9-0.11356 0.19257-0.27457-0.22614-0.95903 0.97394
  -1  -6   0 115.796 48.2078   8-0.56551 0.48650-0.16728-0.33354-0.90130 0.88576
  -1  -6   0 73.8018 60.7136   4 0.10365-0.18232-0.27284-0.22782 0.95838-0.97383
  -1   6   0 221.305 76.9573   2-0.39297 0.31343 0.19472 0.30639-0.95735 0.94248
   1  -6   0 110.743 62.4854   3 0.43515-0.35611-0.18786-0.31320 0.94764-0.93259
  -1   6   0 98.9085 44.3306   5-0.49795 0.41856 0.17801 0.32287-0.92850 0.91364
  -1  -6   0 168.070 61.9070   3 0.59984-0.67914-0.35132-0.14927 0.82055-0.83584
   1   6   0 151.272 68.2016   2-0.49346 0.57228 0.33465 0.16626-0.88249 0.89811
  -2  -6   0 1160.29 199.573   4 0.09060-0.24848-0.30378-0.19677 0.94797-0.97863
  -2  -6   0 1163.28 173.803   9-0.13099-0.02725-0.23400-0.26671-0.97073 0.94004
  -2  -6   0 1032.79 144.789   8-0.46951 0.31134-0.12697-0.37379-0.94775 0.91702
   2  -6   0 890.904 160.635   3 0.39502-0.23672-0.15059-0.35065 0.96517-0.93490
   2   6   0 996.259 169.221   2-0.57145 0.72943 0.45595 0.04483-0.77917 0.81004
  -2   6   0 1285.78 188.934   6 0.32286-0.48099 0.37722 0.12353 0.91410-0.94416
  -2   6   0 918.260 165.938   2-0.36645 0.20772 0.15984 0.34137-0.96984 0.93973
   2   6   0 1079.74 197.439   6 0.27042-0.11195 0.19016 0.31114 0.97826-0.94748
   2  -6   0 1031.91 186.899   9-0.09938 0.25748-0.30677-0.19395-0.94823 0.97834
   2  -6   0 1252.74 201.467   4 0.11794 0.04101-0.23824-0.26271 0.96857-0.93833
   2   6   0 970.411 118.981   7 0.58723-0.42934 0.08979 0.41097 0.90231-0.87150
  -2   6   0 1272.37 207.586   1-0.16521 0.00711 0.22320 0.27758-0.97438 0.94432
  -3  -6   0 -73.702 80.9650   8-0.42103 0.18371-0.10698-0.39372-0.96489 0.91897
  -3   6   0 -19.967 63.1329   1-0.16397-0.07326 0.22891 0.27181-0.97303 0.92778
   3   6   0 84.8563 91.0727   7 0.49552-0.25851 0.07172 0.42911 0.94475-0.89876
   3   6   0 74.6402 78.6884   6 0.26736-0.02973 0.18019 0.32118 0.98044-0.93442
  -3  -6   0 -26.041 87.1641   4 0.07430-0.31139-0.34154-0.15885 0.93353-0.97938
  -3  -6   0 -67.914 60.9635   9-0.12536-0.11196-0.24723-0.25350-0.96715 0.92125
   3  -6   0 -24.525 73.5233   9-0.08195 0.31913-0.34545-0.15530-0.93339 0.97871
   3  -6   0 20.9667 59.6499   4 0.11145 0.12668-0.25405-0.24696 0.96410-0.91863
  -3   6   0 85.4277 85.0492   6 0.34498-0.58219 0.46982 0.03076 0.86397-0.90918
  -3   6   0 -40.094 75.8584   2-0.35144 0.11352 0.14040 0.36090-0.97582 0.93046
   3  -6   0 -12.983 61.4523   3 0.37262-0.13504-0.13012-0.37128 0.97322-0.92771
   4  -6   0 544.869 164.070   3 0.36284-0.04597-0.12125-0.38026 0.97636-0.91560
  -4   6   0 580.035 118.510   6 0.36756-0.68379 0.58217-0.08176 0.78268-0.84299
   4   6   0 661.505 140.896   7 0.45369-0.13756 0.06359 0.43729 0.95953-0.89834
  -4  -6   0 658.107 176.802   4 0.05512-0.37140-0.38484-0.11540 0.91452-0.97554
  -4  -6   0 614.650 150.163   8-0.39914 0.08268-0.09804-0.40262-0.97139 0.91028
  -4   6   0 552.215 160.857   2-0.34534 0.02823 0.13257 0.36881-0.97803 0.91742
   4   6   0 457.884 124.529   6 0.26778 0.04905 0.18149 0.31995 0.98016-0.91891
  -4  -6   0 939.608 158.520   9-0.11112-0.20530-0.28017-0.22058-0.95725 0.89616
   4  -6   0 640.727 179.205   9-0.06160 0.37789-0.38928-0.11147-0.91401 0.97453
  -5   6   0 -103.70 119.263   2-0.34621-0.05010 0.13368 0.36777-0.97773 0.90188
   5   6   0 -97.424 93.9801   7 0.43796-0.04270 0.06054 0.44036 0.96442-0.88802
  -5  -6   0 -18.997 136.043   4 0.03331-0.42877-0.43252-0.06757 0.89035-0.96652
   5   6   0 -77.708 95.9114   6 0.27122 0.12478 0.19276 0.30873 0.97767-0.90118
   5  -6   0 -157.13 96.2649   9-0.03867 0.43405-0.43713-0.06365-0.88953 0.96526
   5  -6   0 13.4488 90.2932   3 0.36225 0.03392-0.12071-0.38088 0.97654-0.90051
  -5  -6   0 191.902 109.448   8-0.39345-0.00217-0.09572-0.40490-0.97296 0.89665
   6   6   0 -74.834 81.8915   7 0.43753 0.03688 0.06046 0.44046 0.96455-0.87293
  -6  -6   0 31.6747 82.7830   4 0.00912-0.48375-0.48354-0.01638 0.86041-0.95171
  -6   6   0 98.5058 128.369   2-0.35256-0.12296 0.14184 0.35969-0.97540 0.88431
   6  -6   0 265.391 137.528   3 0.36851 0.10696-0.12639-0.37528 0.97456-0.88326
   6   6   0 259.165 138.725   6 0.27730 0.19784 0.21290 0.28861 0.97285-0.88112
   6  -6   0 198.731 145.516   9-0.01336 0.48784-0.48799-0.01281-0.85936 0.95030
  -6  -6   0 267.527 140.760   8-0.39833-0.07646-0.09770-0.40287-0.97162 0.88011
   7   6   0 237.602 137.940   6 0.28564 0.26865 0.24112 0.26041 0.96525-0.85829
  -7  -6   0 25.2784 96.2895   4-0.01727-0.53651-0.53699 0.03724 0.82403-0.93043
   7   6   0 126.487 118.666   7 0.44682 0.10674 0.06225 0.43867 0.96171-0.85487
   7  -6   0 136.594 101.108   9 0.01411 0.53948-0.54096 0.04014-0.82290 0.92905
  -7   6   0 98.4166 107.446   2-0.36325-0.19146 0.15568 0.34592-0.97118 0.86485
   7  -6   0 95.4483 91.8598   3 0.37997 0.17479-0.13682-0.36489 0.97071-0.86411
  -7  -6   0 336.801 172.366   8-0.41044-0.14350-0.10265-0.39788-0.96813 0.86142
   8   6   0 395.606 170.633   6 0.29589 0.33755 0.27677 0.22476 0.95423-0.83204
   8  -6   0 216.268 161.645   9 0.04360 0.58908-0.59520 0.09436-0.77945 0.90083
  -8   6   0 117.337 133.334   2-0.37744-0.25647 0.17422 0.32745-0.96497 0.84340
  -8  -6   0 66.7518 191.095   8-0.42772-0.20537-0.10973-0.39076-0.96275 0.84085
   8   6   0 439.660 192.982   7 0.46266 0.17005 0.06532 0.43560 0.95658-0.83450
   8  -6   0 191.310 131.887   3 0.39548 0.23858-0.15101-0.35072 0.96500-0.84310
  -9   6   0 107.983 125.314   5-0.43492-0.27779 0.13886 0.36200-0.95661 0.82012
   9  -6   0 72.3005 112.155   3 0.41417 0.29917-0.16828-0.33347 0.95732-0.82012
  -9  -6   0 210.082 221.166   8-0.44885-0.26341-0.11842-0.38204-0.95553 0.81843
  -9   6   0 -89.438 157.092   2-0.39448-0.31863 0.19674 0.30498-0.95655 0.81974
   9   6   0 59.2103 133.384   7 0.48312 0.22873 0.06931 0.43162 0.94941-0.81208
   0   7   0 -30.145 66.2659   2-0.46405 0.46365 0.29223 0.29228-0.90964 0.91008
   0  -7   0 25.2313 73.1705   3 0.54244-0.54265-0.29201-0.29226 0.87711-0.87722
   0  -7   0 -13.709 70.0062   4 0.09560-0.09495-0.29201-0.29223 0.95208-0.95232
   0   7   0 88.4790 77.8428   6 0.30020-0.30005 0.29217 0.29242 0.94896-0.94856
   0  -7   0 -73.798 108.251   9-0.10587 0.10579-0.29213-0.29204-0.95331 0.95297
   1  -7   0 713.149 118.534   3 0.48171-0.40274-0.23218-0.35233 0.92170-0.90663
  -1   7   0 1136.13 199.566   2-0.42648 0.34689 0.23989 0.34471-0.93766 0.92286
  -1  -7   0 795.033 180.287   4 0.08827-0.16684-0.30923-0.27490 0.94601-0.96147
   1  -7   0 783.020 189.118   9-0.09764 0.17664-0.31069-0.27346-0.94682 0.96168
  -1  -7   0 590.862 143.201   9-0.11006 0.03090-0.28259-0.30158-0.95647 0.94093
   1   7   0 553.103 152.293   6 0.29061-0.21128 0.25825 0.32646 0.96015-0.94453
   1  -7   0 1009.04 205.523   4 0.09895-0.01909-0.28407-0.30026 0.95475-0.93976
  -1   7   0 695.132 152.069   6 0.31316-0.39215 0.33983 0.24460 0.93066-0.94547
   1   7   0 641.065 122.732   2-0.51542 0.59419 0.36732 0.21707-0.85864 0.87433
  -2  -7   0 1985.50 292.159   4 0.07748-0.23527-0.33425-0.24976 0.93647-0.96714
   2  -7   0 2251.85 294.348   4 0.09763 0.06143-0.28719-0.29720 0.95371-0.92347
  -2   7   0 1607.23 241.885   2-0.40085 0.24207 0.20524 0.37947-0.95313 0.92307
  -2   7   0 1700.36 205.043   5-0.49877 0.34015 0.17852 0.40582-0.92808 0.89808
   2  -7   0 2021.66 286.860   9-0.08589 0.24398-0.33680-0.24738-0.93689 0.96696
  -2  -7   0 2047.76 269.521   9-0.10948-0.04876-0.28391-0.30026-0.95604 0.92530
   2  -7   0 1824.89 250.091   3 0.44160-0.28337-0.19393-0.39078 0.94442-0.91414
   2   7   0 1910.46 275.413   6 0.28436-0.12586 0.23673 0.34807 0.96649-0.93564
  -2  -7   0 1645.62 206.638   8-0.55553 0.39738-0.16304-0.42121-0.90699 0.87620
  -2   7   0 2046.63 282.300   6 0.32918-0.48731 0.40253 0.18173 0.90174-0.93173
  -3   7   0 3174.47 347.805   2-0.38505 0.14709 0.18424 0.40056-0.96135 0.91604
   3   7   0 3333.26 365.238   6 0.28129-0.04361 0.22632 0.35857 0.96936-0.92326
  -3  -7   0 3382.95 328.354   9-0.10306-0.13426-0.29848-0.28571-0.95114 0.90520
  -3   7   0 2587.94 271.676   5-0.45923 0.22144 0.15385 0.43047-0.94674 0.90152
   3  -7   0 2724.87 310.519   3 0.41704-0.17954-0.17095-0.41393 0.95607-0.91055
  -3  -7   0 3236.04 373.176   4 0.06362-0.30061-0.36582-0.21806 0.92320-0.96907
   3  -7   0 3374.37 351.548   4 0.09063 0.14762-0.30372-0.28072 0.94799-0.90252
  -3   7   0 3842.22 365.892   6 0.34750-0.58472 0.48119 0.10290 0.85684-0.90199
   3  -7   0 2945.96 372.997   9-0.07101 0.30819-0.36917-0.21502-0.92325 0.96853
  -4   7   0 1.96526 95.1378   2-0.37723 0.06007 0.17393 0.41096-0.96507 0.90452
   4  -7   0 168.852 111.280   3 0.40416-0.08736-0.15901-0.42601 0.96154-0.90076
  -4  -7   0 -61.016 119.171   9-0.08917-0.22724-0.32955-0.25467-0.93974 0.87860
   4  -7   0 18.4973 93.9352   9-0.05334 0.36962-0.40670-0.17750-0.90551 0.96599
   4   7   0 7.53855 89.0802   6 0.28115 0.03570 0.22585 0.35910 0.96948-0.90815
  -4   7   0 98.8089 63.0061   6 0.36643-0.68270 0.57585 0.00806 0.78795-0.84821
  -4   7   0 -20.952 76.4112   5-0.43795 0.12100 0.14073 0.44358-0.95544 0.89500
  -4  -7   0 92.0197 124.290   4 0.04696-0.36317-0.40285-0.18088 0.90580-0.96685
  -4  -7   0 36.8740 82.4040   8-0.46577 0.14932-0.12541-0.45871-0.94921 0.88804
   4  -7   0 75.3619 96.4997   4 0.07638 0.24102-0.33678-0.24769 0.93546-0.87475
   5  -7   0 -82.812 105.744   3 0.40013-0.00403-0.15530-0.42983 0.96317-0.88713
  -5   7   0 -71.518 114.947   2-0.37584-0.02053 0.17210 0.41286-0.96571 0.88992
   5   7   0 38.0221 98.2288   6 0.28365 0.11236 0.23433 0.35067 0.96717-0.89059
  -5  -7   0 25.7542 116.076   8-0.45215 0.05654-0.11978-0.46430-0.95434 0.87797
   5  -7   0 -139.66 134.058   9-0.03313 0.42849-0.44844-0.13579-0.88321 0.95890
  -5  -7   0 10.6778 138.924   4 0.02777-0.42317-0.44436-0.13921 0.88379-0.95999
  -6  -7   0 558.371 215.776   8-0.45027-0.02450-0.11900-0.46503-0.95502 0.86346
  -6   7   0 771.492 219.565   2-0.37966-0.09589 0.17713 0.40791-0.96394 0.87289
   6  -7   0 594.080 190.415   3 0.40291 0.07250-0.15785-0.42735 0.96205-0.87073
  -6  -7   0 116.595 239.836   4 0.00624-0.48082-0.48949-0.09392 0.85663-0.94796
   6   7   0 846.108 218.454   6 0.28850 0.18668 0.25093 0.33410 0.96238-0.87056
   6  -7   0 849.206 237.247   9-0.01055 0.48502-0.49351-0.09073-0.85581 0.94672
   7   7   0 -317.85 151.220   7 0.50683 0.04662 0.07393 0.51047 0.94029-0.83335
   7  -7   0 -199.95 118.717   3 0.41099 0.14371-0.16533-0.41994 0.95869-0.85207
  -7  -7   0 -12.433 96.4168   4-0.01749-0.53626-0.53742-0.04582 0.82372-0.93017
  -7   7   0 -52.775 101.722   2-0.38775-0.16701 0.18781 0.39730-0.96001 0.85372
   7   7   0 22.5689 109.028   6 0.29538 0.25895 0.27499 0.31007 0.95481-0.84776
   7  -7   0 -104.36 102.824   9 0.01419 0.53937-0.54111-0.04316-0.82278 0.92890
  -7   7   0 93.1703 109.288   5-0.43737-0.11707 0.14037 0.44393-0.95567 0.84963
  -7  -7   0 -151.46 143.612   8-0.45665-0.09727-0.12164-0.46236-0.95268 0.84593
   8   7   0 382.701 187.353   6 0.30402 0.32946 0.30597 0.27909 0.94397-0.82167
  -8  -7   0 169.575 210.490   8-0.46903-0.16404-0.12676-0.45720-0.94794 0.82599
  -8   7   0 758.943 246.442   2-0.39934-0.23462 0.20321 0.38196-0.95396 0.83243
  -8   7   0 524.669 192.917   5-0.44987-0.18373 0.14806 0.43625-0.95068 0.82945
   8  -7   0 556.705 254.271   9 0.04099 0.59168-0.59050 0.00622-0.78348 0.90482
   8  -7   0 516.420 243.181   3 0.42330 0.21070-0.17677-0.40854 0.95326-0.83133
   8   7   0 640.272 219.663   7 0.51594 0.11665 0.07572 0.50869 0.93655-0.81437
   9   7   0 -155.77 137.360   7 0.53088 0.18086 0.07865 0.50576 0.93011-0.79269
   0   8   0 4984.77 449.067   6 0.31157-0.31141 0.33388 0.33421 0.93311-0.93263
   0  -8   0 4934.38 469.729   9-0.08722 0.08714-0.33387-0.33375-0.93805 0.93767
   0   8   0 5684.42 435.947   2-0.49300 0.49255 0.33397 0.33404-0.88296 0.88347
   0  -8   0 5390.57 498.912   4 0.07772-0.07697-0.33370-0.33399 0.93669-0.93692
   1   8   0 792.360 158.732   2-0.53822 0.61695 0.40237 0.26552-0.82996 0.84573
  -1  -8   0 1037.37 234.452   4 0.07199-0.15046-0.34683-0.32077 0.93135-0.94681
  -1   8   0 737.428 170.617   6 0.32273-0.40172 0.37671 0.29122 0.91434-0.92907
   1  -8   0 562.350 149.416   3 0.52649-0.44756-0.27604-0.39191 0.89015-0.87503
   1  -8   0 560.637 172.139   9-0.08073 0.15972-0.34811-0.31950-0.93230 0.94712
   1   8   0 933.057 212.133   6 0.30313-0.22379 0.30274 0.36548 0.94517-0.92946
  -1   8   0 608.850 158.618   2-0.45852 0.37888 0.28439 0.38371-0.91421 0.89947
  -1  -8   0 765.246 198.838   9-0.08991 0.01075-0.32790-0.33972-0.94038 0.92479
   1  -8   0 751.144 215.597   4 0.07974 0.00022-0.32904-0.33873 0.93853-0.92353
   2  -8   0 -89.332 100.612   3 0.48687-0.32871-0.23715-0.43101 0.91842-0.88809
  -2  -8   0 -46.248 89.7456   4 0.06300-0.22069-0.36721-0.30028 0.92259-0.95326
  -2   8   0 36.0491 86.8310   2-0.43386 0.27504 0.25004 0.41817-0.93268 0.90269
   2  -8   0 142.356 137.781   4 0.07746 0.08170-0.33430-0.33353 0.93645-0.90621
  -2   8   0 94.2502 80.1661   6 0.33633-0.49444 0.43212 0.23565 0.88603-0.91595
   2   8   0 -17.266 103.499   6 0.29745-0.13892 0.28229 0.38602 0.95237-0.92144
   2  -8   0 -120.68 125.108   9-0.07090 0.22899-0.36941-0.29822-0.92315 0.95318
  -2  -8   0 35.2758 117.773   9-0.08819-0.07006-0.33172-0.33590-0.93890 0.90811
   3  -8   0 271.477 140.474   3 0.46088-0.22345-0.21219-0.45615 0.93410-0.88854
  -3   8   0 172.418 94.9831   6 0.35171-0.58893 0.50075 0.16684 0.84404-0.88911
  -3  -8   0 114.475 168.607   4 0.05107-0.28799-0.39380-0.27357 0.91024-0.95612
   3  -8   0 341.866 154.980   9-0.05811 0.29528-0.39669-0.27095-0.91046 0.95569
   3   8   0 136.489 97.5802   6 0.29442-0.05673 0.27162 0.39678 0.95592-0.90974
  -3  -8   0 379.761 141.360   9-0.08113-0.15619-0.34722-0.32042-0.93266 0.88668
   3  -8   0 331.192 153.328   4 0.07002 0.16832-0.35132-0.31656 0.92947-0.88400
  -3   8   0 401.250 129.847   5-0.51935 0.28150 0.19152 0.47629-0.91699 0.87185
  -3   8   0 387.052 158.868   2-0.41768 0.17966 0.22790 0.44039-0.94329 0.89804
  -4  -8   0 -17.759 102.522   4 0.03649-0.35261-0.42567-0.24155 0.89404-0.95510
   4  -8   0 -73.866 89.2511   3 0.44560-0.12888-0.19769-0.47080 0.94237-0.88156
  -4   8   0 48.4874 92.0998   2-0.40859 0.09138 0.21562 0.45276-0.94875 0.88825
   4   8   0 72.2067 86.1626   6 0.29392 0.02295 0.26983 0.39864 0.95650-0.89507
  -4   8   0 262.833 126.547   5-0.49338 0.17636 0.17514 0.49265-0.93083 0.87047
   5  -8   0 374.620 186.833   3 0.43872-0.04270-0.19122-0.47741 0.94587-0.86980
  -5  -8   0 51.0536 241.752   4 0.01944-0.41477-0.46201-0.20506 0.87359-0.94981
  -5   8   0 501.421 149.173   2-0.40542 0.00901 0.21136 0.45710-0.95057 0.87482
   5  -8   0 444.274 221.962   9-0.02463 0.41998-0.46560-0.20206-0.87319 0.94885
   5   8   0 432.869 191.501   6 0.29572 0.10034 0.27617 0.39235 0.95442-0.87775
  -5  -8   0 331.512 193.160   8-0.51487 0.11927-0.14588-0.52168-0.92803 0.85162
  -5   8   0 304.545 151.626   5-0.48007 0.08388 0.16680 0.50097-0.93733 0.86177
   6  -8   0 318.519 186.190   9-0.00433 0.47878-0.50565-0.16204-0.84781 0.93868
   6  -8   0 409.967 202.074   3 0.43850 0.03682-0.19101-0.47771 0.94598-0.85462
  -6   8   0 211.493 131.942   5-0.47613 0.00079 0.16435 0.50342-0.93918 0.84842
  -6   8   0 889.901 261.390   2-0.40718-0.06842 0.21372 0.45481-0.94956 0.85856
   6   8   0 656.292 220.442   6 0.29959 0.17562 0.28996 0.37859 0.94973-0.85782
  -6  -8   0 175.557 224.113   4 0.00010-0.47463-0.50207-0.16485 0.84842-0.93979
  -6  -8   0 258.619 163.229   8-0.50651 0.03176-0.14238-0.52515-0.93195 0.84035
  -7  -8   0 -0.2094 148.046   4-0.02139-0.53232-0.54513-0.12162 0.81801-0.92449
   7  -8   0 71.5031 127.467   9 0.01812 0.53543-0.54847-0.11924-0.81727 0.92335
  -7  -8   0 116.816 132.368   8-0.50725-0.04666-0.14269-0.52479-0.93161 0.82481
   7   8   0 -233.92 138.292   6 0.30531 0.24907 0.31067 0.35791 0.94222-0.83506
   7  -8   0 -103.88 150.858   3 0.44361 0.11102-0.19581-0.47298 0.94340-0.83674
  -7   8   0 241.185 162.306   2-0.41306-0.14174 0.22165 0.44696-0.94610 0.83986
  -7   8   0 273.625 171.504   5-0.47930-0.07521 0.16632 0.50144-0.93770 0.83173
   8  -8   0 626.307 279.539   9 0.04261 0.59004-0.59341-0.07432-0.78099 0.90230
   8   8   0 117.345 184.576   6 0.31263 0.32089 0.33785 0.33074 0.93148-0.80907
  -8  -8   0 161.774 175.053   8-0.51473-0.11834-0.14582-0.52162-0.92810 0.80611
   0  -9   0 101.751 138.681   4 0.05935-0.05848-0.37540-0.37575 0.91889-0.91911
   0   9   0 -39.988 107.786   6 0.32245-0.32226 0.37560 0.37600 0.91486-0.91429
   0  -9   0 134.047 153.023   9-0.06801 0.06794-0.37561-0.37545-0.92036 0.91994
   1  -9   0 236.906 163.664   9-0.06296 0.14196-0.38640-0.36467-0.91538 0.93016
  -1  -9   0 52.5808 95.2732   4 0.05493-0.13328-0.38526-0.36580 0.91432-0.92977
   1  -9   0 87.5559 97.2408   4 0.06028 0.01980-0.37331-0.37790 0.91984-0.90483
  -1   9   0 -25.746 88.3127   6 0.33215-0.41112 0.41465 0.33680 0.89547-0.91010
   1   9   0 -39.465 120.201   6 0.31497-0.23560 0.34667 0.40505 0.92778-0.91198
  -1  -9   0 98.7468 152.735   9-0.06948-0.00968-0.37246-0.37861-0.92178 0.90616
  -1   9   0 108.212 135.708   2-0.48920 0.40952 0.32841 0.42319-0.88674 0.87207
  -2  -9   0 65.8654 135.429   4 0.04741-0.20499-0.40188-0.34908 0.90628-0.93695
   2  -9   0 -49.805 105.105   4 0.05719 0.10209-0.38022-0.37105 0.91668-0.88641
  -2   9   0 -79.008 110.360   2-0.46560 0.30674 0.29443 0.45727-0.90833 0.87840
   2  -9   0 -143.54 114.941   3 0.53078-0.37268-0.28032-0.47129 0.88674-0.85635
   2  -9   0 73.3127 126.486   9-0.05473 0.21281-0.40379-0.34728-0.90697 0.93696
  -2   9   0 -19.088 106.517   6 0.34379-0.50191 0.46447 0.28681 0.86725-0.89706
   2   9   0 -114.22 97.8808   6 0.30978-0.15124 0.32716 0.42467 0.93583-0.90479
  -3  -9   0 133.510 149.585   4 0.03709-0.27390-0.42437-0.32649 0.89473-0.94061
  -3   9   0 211.888 139.274   2-0.44930 0.21124 0.27145 0.48034-0.92146 0.87628
   3  -9   0 557.347 177.055   3 0.50393-0.26658-0.25378-0.49803 0.90693-0.86130
   3  -9   0 276.860 137.445   4 0.04934 0.18912-0.39762-0.35369 0.90838-0.86288
  -3   9   0 515.260 182.991   6 0.35682-0.59406 0.52551 0.22558 0.82681-0.87179
   3  -9   0 488.570 245.293   9-0.04365 0.28081-0.42688-0.32421-0.89508 0.94028
   3   9   0 280.194 175.859   6 0.30686-0.06913 0.31635 0.43557 0.94006-0.89379
  -3  -9   0 702.461 230.668   9-0.05918-0.17814-0.39442-0.35669-0.91155 0.86553
   4  -9   0 250.783 155.141   3 0.48683-0.17019-0.23712-0.51486 0.91844-0.85757
   4  -9   0 636.380 243.003   9-0.02996 0.34621-0.45487-0.29623-0.87951 0.93993
   4   9   0 542.812 198.265   6 0.30610 0.01081 0.31356 0.43842 0.94112-0.87960
  -4  -9   0 196.613 238.496   4 0.02421-0.34025-0.45193-0.29879 0.87948-0.94054
  -4   9   0 491.381 197.486   2-0.43933 0.12208 0.25758 0.49430-0.92884 0.86840
  -5   9   0 288.704 185.291   2-0.43477 0.03832 0.25129 0.50067-0.93205 0.85636
   5  -9   0 117.768 121.712   3 0.47764-0.08170-0.22825-0.52387 0.92423-0.84809
   5   9   0 65.1563 121.060   6 0.30736 0.08873 0.31820 0.43384 0.93935-0.86257
  -5   9   0 201.874 138.098   5-0.53217 0.13593 0.19968 0.55158-0.90957 0.83409
   5  -9   0 -12.846 130.518   9-0.01385 0.40919-0.48703-0.26408-0.85997 0.93560
  -5  -9   0 107.233 103.527   4 0.00896-0.40421-0.48388-0.26669 0.86020-0.93643
  -6   9   0 27.5100 147.184   2-0.43484-0.04080 0.25139 0.50065-0.93200 0.84106
  -6  -9   0 -99.150 176.247   4-0.00852-0.46593-0.51953-0.23088 0.83652-0.92790
   6   9   0 192.653 171.607   6 0.31047 0.16478 0.32972 0.42235 0.93480-0.84278
  -6   9   0 85.8771 113.342   5-0.52417 0.04877 0.19458 0.55666-0.91425 0.82358
   6  -9   0 78.8985 157.557   3 0.47487 0.00037-0.22558-0.52665 0.92592-0.83451
   6  -9   0 248.783 142.892   9 0.00451 0.46992-0.52271-0.22842-0.83608 0.92692
  -7   9   0 -218.81 172.707   5-0.52346-0.03110 0.19414 0.55710-0.91465 0.80878
   0  10   0 223.838 152.108   6 0.33279-0.33259 0.41730 0.41779 0.89407-0.89339
   0 -10   0 -217.10 178.037   4 0.04045-0.03947-0.41709-0.41751 0.89856-0.89875
   0 -10   0 157.390 141.479   9-0.04825 0.04816-0.41735-0.41717-0.90009 0.89963
  -1  10   0 290.115 152.176   6 0.34125-0.42022 0.45330 0.38164 0.87393-0.88845
   1  10   0 231.190 177.283   6 0.32613-0.24676 0.39022 0.44501 0.90787-0.89197
  -1 -10   0 351.596 221.780   4 0.03714-0.11538-0.42427-0.41026 0.89478-0.91021
   1 -10   0 176.416 133.805   4 0.04044 0.03975-0.41711-0.41755 0.89854-0.88350
  -1 -10   0 378.341 161.930   9-0.04866-0.03050-0.41649-0.41803-0.90053 0.88487
   1 -10   0 221.612 193.380   9-0.04441 0.12341-0.42530-0.40921-0.89592 0.91067
  -2 -10   0 279.740 213.732   4 0.03086-0.18833-0.43776-0.39667 0.88747-0.91812
   2 -10   0 275.698 141.217   4 0.03664 0.12276-0.42534-0.40935 0.89421-0.86392
  -2  10   0 146.426 117.031   6 0.35128-0.50939 0.49869 0.33608 0.84542-0.87513
  -2 -10   0 311.136 162.229   9-0.04514-0.11310-0.42380-0.41074-0.89671 0.86585
   2 -10   0 489.194 258.605   9-0.03753 0.19560-0.43945-0.39507-0.88825 0.91821
  -2  10   0 296.919 149.536   2-0.49610 0.33719 0.33852 0.49667-0.87980 0.84993
   2  10   0 315.152 193.410   6 0.32141-0.16285 0.37152 0.46381 0.91675-0.88562
  -3 -10   0 -106.77 164.235   4 0.02191-0.25861-0.45681-0.37752 0.87664-0.92250
   3 -10   0 113.909 193.474   9-0.02790 0.26506-0.45901-0.37552-0.87710 0.92226
   3  10   0 -55.942 118.787   6 0.31862-0.08087 0.36066 0.47476 0.92168-0.87531
  -3  10   0 -56.273 109.567   2-0.47991 0.24181 0.31492 0.52036-0.89563 0.85050
  -4  10   0 141.516 165.411   2-0.46935 0.15205 0.29977 0.53560-0.90512 0.84473
   4 -10   0 -193.99 174.140   3 0.52762-0.21107-0.27717-0.55826 0.88926-0.82830
   5 -10   0 -99.201 162.279   3 0.51657-0.12071-0.26619-0.56940 0.89777-0.82154
   0 -11   0 11.2561 180.786   9-0.02786 0.02777-0.45910-0.45888-0.87705 0.87656
   0  11   0 1.61069 157.803   6 0.34255-0.34234 0.45901 0.45960 0.87054-0.86974
   0 -11   0 71.8423 174.106   4 0.02097-0.01987-0.45879-0.45927 0.87548-0.87563
   1 -11   0 363.452 235.061   4 0.02013 0.06019-0.46056-0.45755 0.87444-0.85935
  -1  11   0 467.693 226.859   6 0.34995-0.42891 0.49248 0.42597 0.84954-0.86394
  -1 -11   0 270.789 230.967   9-0.02734-0.05182-0.46015-0.45783-0.87643 0.86074
 -11   0   1 203.918 202.122   8-0.53568-0.31432-0.15463 0.15501-0.91768 0.85884
  11   0  -1 282.889 196.559   7 0.53627 0.31302 0.07971-0.08017 0.92770-0.86864
 -11   0   1 50.7982 134.671   5-0.53476-0.31549 0.20133-0.20093-0.90802 0.84938
  10   0  -1 398.126 182.953   7 0.51049 0.25967 0.07465-0.07508 0.93880-0.89500
 -10   0   1 -2.4735 106.381   5-0.50915-0.26193 0.18506-0.18469-0.92261 0.87915
 -10   0   1 215.452 136.670   8-0.50993-0.26092-0.14381 0.14417-0.93036 0.88672
   9   0  -1 108.186 142.151   7 0.48744 0.20358 0.07015-0.07053 0.94781-0.91925
  -9   0   1 2.45274 117.651   8-0.48689-0.20481-0.13419 0.13451-0.94064 0.91219
  -9   0   1 -41.805 100.006   5-0.48622-0.20568 0.17065-0.17031-0.93437 0.90609
   9   0  -1 119.053 101.080   3 0.48394 0.20759-0.23432 0.23445 0.92030-0.89197
   8   0  -1 1781.22 243.121   3 0.46496 0.14735-0.21608 0.21619 0.93178-0.91873
   8   0  -1 1643.98 251.008   7 0.46814 0.14374 0.06639-0.06675 0.95472-0.94139
  -8   0   1 1756.10 228.069   2-0.46130-0.15120 0.28831-0.28790-0.91194 0.89879
  -8   0   1 1461.32 220.818   5-0.46699-0.14574 0.15865-0.15835-0.94335 0.93027
  -8   0   1 1564.76 249.686   8-0.46757-0.14496-0.12616 0.12646-0.94851 0.93527
  -7   0   1 6.65239 60.7879   5-0.45299-0.08055 0.14999-0.14970-0.94939 0.95151
  -7   0   1 -55.046 62.7374   2-0.44750-0.08579 0.26893-0.26855-0.92283 0.92490
   7   0  -1 68.3355 64.5614   3 0.45111 0.08197-0.20290 0.20301 0.93947-0.94168
   7   0  -1 124.218 87.1440   7 0.45418 0.07855 0.06368-0.06400 0.95937-0.96126
  -7   0   1 64.1272 85.9265   8-0.45355-0.07983-0.12036 0.12063-0.95382 0.95579
  -6   0   1 29.7402 63.1673   5-0.44675-0.00763 0.14614-0.14588-0.95196 0.96928
  -6   0   1 9.72412 43.4985   2-0.44091-0.01317 0.25978-0.25944-0.92770 0.94498
   6   0  -1 39.6082 62.2664   7 0.44814 0.00547 0.06251-0.06279 0.96130-0.97840
  -6   0   1 32.5714 58.2804   8-0.44735-0.00687-0.11780 0.11804-0.95607 0.97324
  -5   0   1 6.97403 35.6420   2-0.44531 0.07043 0.26588-0.26560-0.92447 0.95696
   5   0  -1 38.5092 35.1353   3 0.45015-0.07554-0.20200 0.20210 0.93998-0.97264
   5   0  -1 56.1546 58.7408   7 0.45440-0.07992 0.06372-0.06398 0.95930-0.99161
  -5   0   1 -1.8963 23.2242   4 0.06040-0.43541-0.37305 0.37350 0.91997-0.88729
   5   0  -1 -54.466 33.3174   9-0.05827 0.43288-0.39634 0.39632-0.91063 0.87796
  -5   0   1 86.9967 53.2780   5-0.45250 0.07730 0.14968-0.14945-0.94959 0.98214
  -5   0   1 145.806 81.6020   8-0.45330 0.07824-0.12026 0.12047-0.95391 0.98630
   4   0  -1 1952.58 179.077   7 0.48111-0.18577 0.06892-0.06914 0.95014-0.99763
  -4   0   1 2022.14 158.835   2-0.46690 0.17121 0.29627-0.29603-0.90723 0.95492
  -4   0   1 1959.06 113.366   4 0.18603-0.48206-0.06201 0.06232 0.99802-0.95022
   4   0  -1 2107.21 169.951   3 0.47422-0.17882-0.22495 0.22506 0.92632-0.97417
   4   0  -1 1868.58 103.939   9-0.18564 0.48111-0.09936 0.09936-0.99510 0.94728
  -4   0   1 2102.54 166.423   5-0.47787 0.18186 0.16544-0.16523-0.93836 0.98612
  -4   0   1 1992.67 174.868   8-0.47931 0.18339-0.13103 0.13121-0.94381 0.99141
  -3   0   1 -13.779 13.1800   6 0.30800-0.52422 0.32057-0.32048 0.93843-0.87517
   3   0  -1 7.62520 23.5450   7 0.54426-0.32803 0.08129-0.08147 0.92403-0.98669
  -3   0   1 2.86131 16.5703   2-0.51510 0.29860 0.36685-0.36667-0.85900 0.92188
   3   0  -1 -3.9423 19.2247   3 0.52935-0.31315-0.27889 0.27901 0.88788-0.95089
   3   0  -1 -8.7064 14.8285   9-0.31310 0.52946 0.27557-0.27556-0.95193 0.88897
  -3   0   1 -8.3571 26.2742   8-0.54055 0.32380-0.15669 0.15684-0.91513 0.97796
  -3   0   1 18.9347 18.0392   4 0.30692-0.52390 0.31629-0.31615 0.94007-0.87703
  -3   0   1 -2.4027 21.8955   5-0.53718 0.32034 0.20288-0.20270-0.90656 0.96955
   2   0  -1 631.373 84.6245   3 0.63197-0.49487-0.38610 0.38618 0.78069-0.85881
   2   0  -1 619.199 75.2375   7 0.67476-0.53760 0.10739-0.10755 0.84628-0.92408
  -2   0   1 663.294 79.7152   8-0.66483 0.52725-0.21028 0.21039-0.83128 0.90933
  -2   0   1 653.315 84.5451   5-0.65433 0.51671 0.28012-0.27997-0.81491 0.89315
   5   0   1 37.6901 61.0054   7-0.03316 0.45002-0.02757 0.02755 0.97407-0.78948
  -5   0  -1 -19.210 57.1032   8 0.03276-0.44927 0.07098-0.07086-0.97202 0.78762
   6   0   1 158.900 112.246   7 0.04498 0.45100-0.01333 0.01327 0.98892-0.78913
  -6   0  -1 94.7355 74.6788   8-0.04506-0.45062 0.04150-0.04134-0.98816 0.78853
  -7   0  -1 -3.8721 87.6260   8-0.11343-0.46139 0.01525-0.01507-0.99670 0.78188
   7   0   1 47.6626 77.9584   7 0.11345 0.46166-0.00073 0.00064 0.99683-0.78183
 -12   1   1 249.999 189.547   8-0.58123-0.34797-0.17399 0.25784-0.89187 0.81788
  11  -1  -1 647.151 269.518   7 0.54752 0.30176 0.08193-0.16593 0.92250-0.86347
 -11   1   1 629.337 252.064   5-0.52130-0.32895 0.19276-0.10890-0.91589 0.85729
  11   1  -1 742.217 343.026   7 0.53285 0.31643 0.07904 0.00403 0.92923-0.87013
 -11  -1   1 738.116 327.664   8-0.52584-0.32413-0.15049 0.06742-0.92268 0.86379
 -11   1   1 753.021 237.673   8-0.55406-0.29599-0.16241 0.24624-0.90781 0.84901
  10  -1  -1 -149.41 156.251   7 0.52237 0.24779 0.07698-0.16093 0.93382-0.89005
 -10  -1   1 277.647 138.874   5-0.53277-0.23832 0.20007-0.28315-0.90921 0.86570
  10  -1  -1 119.252 97.4929   3 0.48763 0.28325-0.23790 0.15449 0.91792-0.87436
  10   1  -1 147.469 161.956   7 0.50723 0.26292 0.07401 0.00910 0.94013-0.89628
 -10  -1   1 525.981 221.663   8-0.50017-0.27064-0.13973 0.05662-0.93484 0.89114
 -10   1   1 80.6493 119.645   8-0.52911-0.24179-0.15186 0.23567-0.92104 0.87744
 -10   1   1 483.729 179.615   5-0.49590-0.27517 0.17672-0.09290-0.92955 0.88613
   9  -1  -1 322.427 143.738   3 0.46525 0.22641-0.21635 0.13292 0.93161-0.90335
  -9  -1   1 275.787 169.769   8-0.47711-0.21455-0.13012 0.04699-0.94471 0.91621
   9  -1  -1 357.745 158.060   7 0.50014 0.19088 0.07262-0.15653 0.94295-0.91443
  -9   1   1 127.419 104.690   2-0.45537-0.23642 0.27997-0.19595-0.91673 0.88840
   9   1  -1 332.254 146.574   7 0.48432 0.20669 0.06954 0.01360 0.94897-0.92036
  -9   1   1 409.136 149.576   8-0.50717-0.18457-0.14265 0.22643-0.93165 0.90325
  -9  -1   1 312.787 141.838   5-0.51095-0.18096 0.18620-0.26933-0.92164 0.89332
  -9   1   1 282.490 147.100   5-0.47306-0.21884 0.16244-0.07864-0.94060 0.91236
  -8   1   1 143.664 98.9270   5-0.45368-0.15905 0.15041-0.06665-0.94910 0.93606
  -8   1   1 263.436 104.545   8-0.48941-0.12318-0.13524 0.21899-0.93956 0.92636
  -8  -1   1 49.5846 83.8867   8-0.45760-0.15490-0.12203 0.03887-0.95232 0.93904
   8   1  -1 128.802 92.2205   7 0.46510 0.14676 0.06580 0.01737 0.95576-0.94238
   8  -1  -1 124.439 96.3873   7 0.48196 0.12993 0.06908-0.15295 0.94983-0.93654
  -8   1   1 48.5124 67.8433   2-0.43663-0.17595 0.25386-0.16988-0.93075 0.91764
   8  -1  -1 272.639 129.335   3 0.44614 0.16628-0.19821 0.11476 0.94209-0.92910
  -8  -1   1 199.623 109.060   5-0.49339-0.11934 0.17514-0.25830-0.93082 0.91770
   8   1  -1 295.932 114.293   3 0.49953 0.11262-0.24947 0.33310 0.90999-0.89684
   7  -1  -1 66.3654 70.9071   3 0.43158 0.10160-0.18451 0.10107 0.94937-0.95165
  -7  -1   1 25.7541 59.9584   5-0.48201-0.05155 0.16802-0.25120-0.93641 0.93849
   7   1  -1 -45.026 92.5740   7 0.45111 0.08161 0.06309 0.02011 0.96036-0.96220
  -7   1   1 -103.73 81.5643   2-0.42209-0.11130 0.23391-0.14998-0.94051 0.94262
  -7  -1   1 29.3391 47.9786   4-0.03064-0.50251-0.56320 0.48048 0.80412-0.80168
  -7  -1   1 48.9519 71.8539   8-0.44305-0.09029-0.11603 0.03284-0.95758 0.95950
   7   1  -1 137.938 67.5114   6 0.35656 0.17610 0.52414-0.44076 0.82779-0.83024
  -7  -1   1 -59.760 53.8863   2-0.49627-0.03690 0.33878-0.42196-0.87961 0.88162
  -7   1   1 -70.433 84.3978   8-0.47769-0.05574-0.13036 0.21409-0.94447 0.94648
   7  -1  -1 132.466 96.8339   7 0.46956 0.06320 0.06667-0.15050 0.95423-0.95616
   7  -1  -1 10.0911 50.8145   9 0.03003 0.50278-0.57057 0.48703-0.80001 0.79771
  -7   1   1 -41.572 65.1344   5-0.43911-0.09444 0.14144-0.05769-0.95499 0.95715
  -6   1   1 1135.68 163.956   2-0.41344-0.04075 0.22216-0.13827-0.94587 0.96320
   6   1  -1 1218.22 188.250   7 0.44479 0.00880 0.06186 0.02136 0.96234-0.97940
   6  -1  -1 1108.43 168.000   7 0.46579-0.01217 0.06593-0.14973 0.95553-0.97266
  -6   1   1 966.544 156.768   8-0.47505 0.02078-0.12927 0.21297-0.94554 0.96276
  -6  -1   1 1154.14 130.062   2-0.49674 0.04276 0.33946-0.42268-0.87914 0.89636
   6  -1  -1 1123.27 165.740   3 0.42348 0.03046-0.17693 0.09349 0.95317-0.97070
   6   1  -1 1140.87 142.634   3 0.48823-0.03450-0.23847 0.32206 0.91754-0.93489
  -6  -1   1 1055.96 129.156   4 0.04218-0.49628-0.41331 0.33048 0.90051-0.88302
  -6  -1   1 1198.14 179.757   8-0.43570-0.01848-0.11301 0.02979-0.96011 0.97723
  -6  -1   1 1017.39 145.890   5-0.48001 0.02564 0.16677-0.24999-0.93735 0.95464
   6  -1  -1 1431.42 154.135   9-0.04369 0.49738-0.42679 0.34330-0.89513 0.87762
   6   1  -1 1227.00 134.926   6 0.34772 0.10584 0.48219-0.39881 0.85621-0.87386
  -5   1   1 358.754 93.5321   5-0.43416 0.05895 0.13840-0.05470-0.95690 0.98948
   5   1  -1 483.874 117.568   7 0.45025-0.07579 0.06292 0.02032 0.96063-0.99289
   5  -1  -1 454.887 102.278   7 0.47560-0.10111 0.06784-0.15159 0.95212-0.98446
   5   1  -1 430.299 82.6156   6 0.34284 0.03162 0.46027-0.37690 0.86979-0.90263
  -5  -1   1 347.288 76.3508   4 0.11590-0.49096-0.24325 0.16025 0.96719-0.93461
   5  -1  -1 426.634 80.5614   9-0.11910 0.49366-0.26180 0.17833-0.96294 0.93026
  -5   1   1 367.653 95.8570   2-0.41328 0.03830 0.22195-0.13813-0.94597 0.97851
  -5  -1   1 486.485 77.2655   2-0.51345 0.13868 0.36436-0.44761-0.86091 0.89332
  -5   1   1 361.653 89.8016   8-0.48682 0.11171-0.13416 0.21783-0.94067 0.97311
  -5  -1   1 406.436 101.845   8-0.43928 0.06425-0.11448 0.03122-0.95889 0.99122
  -5  -1   1 323.936 78.0940   5-0.49304 0.11785 0.17492-0.25816-0.93100 0.96350
   5   1  -1 429.197 86.1929   3 0.50332-0.12881-0.25318 0.33675 0.90736-0.93990
   4   1  -1 12891.5 469.626   7 0.47496-0.17964 0.06772 0.01555 0.95234-0.99979
  -4  -1   1 12211.3 373.162   4 0.18929-0.48529-0.05309-0.03010 0.99855-0.95081
  -4   1   1 12675.0 410.018   8-0.52296 0.22701-0.14928 0.23293-0.92411 0.97176
  -4  -1   1 14804.9 390.535   2-0.55606 0.26048 0.43071-0.51400-0.80421 0.85180
   4  -1  -1 13349.8 449.433   7 0.50819-0.21282 0.07419-0.15791 0.93974-0.98727
   4   1  -1 13732.5 392.010   3 0.54515-0.24983-0.29475 0.37830 0.87478-0.92251
   4   1  -1 13936.9 415.041   6 0.34348-0.04812 0.46310-0.37978 0.86808-0.91610
   4  -1  -1 13394.0 459.249   3 0.44072-0.14527-0.19310 0.10970 0.94487-0.99282
  -4  -1   1 13197.0 396.997   5-0.53161 0.23560 0.19932-0.28260-0.90990 0.95763
  -4   1   1 12318.4 426.221   5-0.45313 0.15709 0.15007-0.06640-0.94933 0.99713
  -4  -1   1 13151.0 465.260   8-0.46035 0.16448-0.12317 0.03988-0.95129 0.99884
   4  -1  -1 12371.0 359.547   9-0.19510 0.49055-0.07478-0.00866-0.99724 0.94938
  -4   1   1 13154.8 454.253   2-0.42565 0.12986 0.23877-0.15499-0.93821 0.98595
   3   1  -1 136.138 49.7388   7 0.53333-0.31713 0.07913 0.00415 0.92902-0.99163
   3  -1  -1 84.4630 38.9088   7 0.58166-0.36540 0.08868-0.17234 0.90532-0.96802
  -3  -1   1 100.039 42.2683   8-0.51114 0.29442-0.14431 0.06098-0.92980 0.99256
   3  -1  -1 134.324 38.8264   9-0.26856 0.48490 0.13180-0.21522-0.98795 0.92493
   3   1  -1 111.757 28.8635   2-0.36053 0.57699 0.15216-0.06889-0.97229 0.90950
  -3  -1   1 66.5517 30.0805   4 0.25924-0.47611 0.15357-0.23694 0.98566-0.92269
   3   1  -1 88.3276 36.3909   6 0.35091-0.13465 0.49697-0.41368 0.84657-0.90976
   3   1  -1 100.937 37.6755   3 0.63082-0.41463-0.38482 0.46831 0.78224-0.84511
  -3   1   1 94.8176 33.0276   8-0.60274 0.38595-0.18322 0.26684-0.87805 0.94094
  -3   1   1 133.912 49.4689   2-0.45669 0.24010 0.28183-0.19812-0.91568 0.97862
   3  -1  -1 98.8935 34.0799   3 0.47938-0.26316-0.22993 0.14657 0.92315-0.98626
   3   1  -1 92.5839 28.2125   1-0.23712 0.45391-0.20327 0.28674-0.97796 0.91530
  -3  -1   1 124.741 39.3870   5-0.61535 0.39854 0.25384-0.33716-0.85047 0.91343
  -2   1   1 32206.4 587.066   2-0.51422 0.37680 0.36552-0.28188-0.86002 0.93816
   2   1  -1 33996.1 584.982   6 0.36495-0.22777 0.56764-0.48439 0.79466-0.87300
   2  -1  -1 33393.8 575.250   7 0.72893-0.59172 0.11849-0.20210 0.80181-0.87966
   2  -1  -1 33026.4 535.842   9-0.33327 0.47053 0.34783-0.43126-0.92383 0.84565
  -2  -1   1 32370.0 560.752   8-0.61423 0.47668-0.18817 0.10481-0.87020 0.94819
   2   1  -1 32078.1 557.252   7 0.65303-0.51591 0.10298-0.01968 0.86184-0.93960
  -4  -1  -1 649.167 108.957   8 0.09357-0.43090 0.09375-0.17711-0.95468 0.78544
   4  -1   1 166.087 81.0209   7-0.12747 0.46519-0.04458-0.03897 0.94786-0.77852
   4   1   1 398.869 88.7587   7-0.10712 0.44481-0.04093 0.12448 0.95428-0.78485
  -5  -1  -1 198.424 83.2572   8 0.01202-0.42850 0.06316-0.14649-0.97699 0.79254
  -5   1  -1 270.507 105.516   8 0.03896-0.45550 0.07331 0.01026-0.97045 0.78608
   5  -1   1 544.846 148.058   7-0.03024 0.44710-0.02704-0.05653 0.97473-0.79020
   5   1   1 349.772 109.508   7-0.01987 0.43669-0.02516 0.10868 0.97703-0.79240
   6   1   1 1367.50 215.704   7 0.05406 0.44190-0.01166 0.09516 0.99025-0.79041
   6  -1   1 1852.83 289.064   7 0.04998 0.44601-0.01241-0.07119 0.98966-0.78992
  -6  -1  -1 1358.37 202.458   8-0.05830-0.43734 0.03644-0.11974-0.99022 0.79056
  -6   1  -1 1462.82 226.780   8-0.04513-0.45058 0.04147 0.04214-0.98817 0.78858
 -11   2   1 120.951 161.651   5-0.51588-0.33437 0.18933-0.02203-0.91893 0.86037
  11   2  -1 223.494 148.625   7 0.53686 0.31239 0.07983 0.08678 0.92743-0.86827
  11  -2  -1 -56.981 144.531   7 0.56698 0.28230 0.08576-0.25329 0.91298-0.85398
 -11  -2   1 -68.534 171.544   8-0.52368-0.32625-0.14958-0.01695-0.92375 0.86482
 -11   2   1 -165.54 151.173   8-0.58191-0.26819-0.17428 0.34156-0.89145 0.83271
  11  -2  -1 131.160 154.999   3 0.50221 0.34803-0.25208 0.08512 0.90814-0.84929
  10  -2  -1 358.285 177.285   3 0.47845 0.29254-0.22902 0.06203 0.92373-0.88021
  10   2  -1 325.715 209.396   7 0.51212 0.25800 0.07496 0.09167 0.93813-0.89423
  10  -2  -1 478.183 204.896   7 0.54332 0.22682 0.08110-0.24857 0.92447-0.88072
 -10   2   1 77.3963 119.251   5-0.49141-0.27967 0.17390-0.00663-0.93181 0.88844
 -10  -2   1 100.060 156.443   8-0.49879-0.27197-0.13915-0.02740-0.93545 0.89172
 -10   2   1 184.105 144.265   8-0.55885-0.21211-0.16444 0.33170-0.90512 0.86157
 -10   2   1 89.1762 121.149   2-0.46341-0.30766 0.29132-0.12372-0.91017 0.86664
   9  -2  -1 179.379 115.512   3 0.45711 0.23464-0.20861 0.04159 0.93621-0.90799
  -9   2   1 95.8601 91.4545   2-0.44287-0.24900 0.26250-0.09491-0.92627 0.89797
   9  -2  -1 261.649 137.654   7 0.52298 0.16803 0.07710-0.24452 0.93356-0.90506
  -9   2   1 271.620 118.037   5-0.46950-0.22241 0.16022 0.00702-0.94222 0.91403
   9   2  -1 101.902 143.902   7 0.49019 0.20077 0.07068 0.09598 0.94678-0.91812
  -9  -2   1 67.6058 101.661   8-0.47658-0.21504-0.12990-0.03668-0.94492 0.91639
  -9  -2   1 168.440 98.8410   5-0.54970-0.14221 0.21091-0.37750-0.89874 0.87040
  -9   2   1 -35.542 93.2213   8-0.53935-0.15244-0.15618 0.32342-0.91577 0.88742
  -8   2   1 985.683 202.303   5-0.45102-0.16172 0.14877 0.01845-0.95021 0.93722
   8  -2  -1 1053.16 205.587   3 0.43895 0.17354-0.19144 0.02442 0.94576-0.93282
  -8   2   1 1205.49 208.772   2-0.42522-0.18744 0.23818-0.07065-0.93849 0.92541
   8   2  -1 921.418 197.018   7 0.47212 0.13970 0.06716 0.09952 0.95334-0.93991
   8  -2  -1 1041.23 214.138   7 0.50726 0.10463 0.07401-0.24140 0.94012-0.92685
  -8  -2   1 965.950 211.447   8-0.45792-0.15454-0.12216-0.04444-0.95220 0.93887
  -8  -2   1 1152.64 177.714   5-0.53602-0.07672 0.20214-0.36876-0.90726 0.89411
  -8   2   1 1338.43 230.624   8-0.52489-0.08774-0.15009 0.31730-0.92315 0.91001
  -7   2   1 221.110 96.6406   5-0.43720-0.09637 0.14026 0.02693-0.95573 0.95794
  -7   2   1 185.128 95.2751   2-0.41143-0.12203 0.21946-0.05198-0.94707 0.94922
   7   2  -1 230.964 99.5633   7 0.45942 0.07327 0.06470 0.10202 0.95766-0.95945
  -7  -2   1 227.799 82.6909   4 0.01879-0.55199-0.46337 0.29725 0.87277-0.87046
   7  -2  -1 146.115 105.114   7 0.49814 0.03461 0.07223-0.23957 0.94373-0.94569
   7   2  -1 254.290 96.0332   6 0.33608 0.19672 0.43109-0.26417 0.88660-0.88899
   7  -2  -1 236.818 95.3056   9-0.02112 0.55387-0.47263 0.30565-0.86895 0.86662
   7  -2  -1 245.464 117.259   3 0.42509 0.10816-0.17845 0.01143 0.95243-0.95476
  -7   2   1 300.460 118.561   8-0.51779-0.01569-0.14711 0.31429-0.92663 0.92870
   7   2  -1 61.5391 51.4533   3 0.55328-0.02051-0.30299 0.47006 0.86763-0.86960
  -7  -2   1 71.8429 72.9958   5-0.53028-0.00328 0.19848-0.36514-0.91069 0.91274
  -7  -2   1 120.536 73.7068   8-0.44418-0.08913-0.11649-0.05015-0.95719 0.95906
  -6  -2   1 2657.45 248.969   4 0.07487-0.52902-0.34025 0.17397 0.93406-0.91666
   6   2  -1 2506.20 223.312   6 0.32720 0.12649 0.39447-0.22757 0.90577-0.92337
  -6   2   1 2411.42 253.789   2-0.40288-0.05138 0.20796-0.04053-0.95200 0.96937
  -6  -2   1 2659.50 269.815   8-0.43743-0.01673-0.11371-0.05297-0.95952 0.97660
   6   2  -1 2380.91 260.957   7 0.45451-0.00097 0.06374 0.10299 0.95927-0.97627
   6  -2  -1 2214.99 246.599   3 0.41713 0.03686-0.17103 0.00403 0.95603-0.97361
   6  -2  -1 2295.17 219.123   9-0.07871 0.53234-0.35252 0.18558-0.93046 0.91293
   6   2  -1 2535.68 198.327   3 0.56501-0.11144-0.31498 0.48200 0.85678-0.87398
   6  -2  -1 2493.08 257.297   7 0.49894-0.04533 0.07239-0.23967 0.94342-0.96059
  -6  -2   1 2357.41 204.350   5-0.53691 0.08254 0.20271-0.36941-0.90672 0.92398
  -6   2   1 2687.70 243.483   8-0.52192 0.06760-0.14884 0.31601-0.92462 0.94190
  -5  -2   1 5792.37 336.868   4 0.12928-0.50434-0.21023 0.04377 0.97572-0.94321
   5   2  -1 5263.44 353.954   7 0.46142-0.08701 0.06509 0.10166 0.95700-0.98920
   5  -2  -1 5684.75 330.613   7 0.51545-0.14096 0.07562-0.24286 0.93675-0.96912
   5  -2  -1 5775.67 356.668   3 0.41750-0.04276-0.17137 0.00440 0.95587-0.98867
  -5   2   1 5498.37 329.945   5-0.43215 0.05692 0.13717 0.03000-0.95766 0.99029
  -5   2   1 5800.52 358.550   2-0.40151 0.02645 0.20612-0.03875-0.95276 0.98534
   5   2  -1 6555.47 285.147   3 0.60067-0.22627-0.35222 0.51918 0.81959-0.85198
  -5  -2   1 6379.05 300.146   5-0.56392 0.18873 0.22009-0.38682-0.88937 0.92185
  -5  -2   1 6077.97 365.513   8-0.44103 0.06604-0.11520-0.05152-0.95829 0.99058
  -5   2   1 5318.95 295.312   8-0.54420 0.16903-0.15823 0.32538-0.91319 0.94569
   5   2  -1 5333.00 305.909   6 0.32177 0.05280 0.37293-0.20605 0.91610-0.94890
   5  -2  -1 5758.49 312.941   9-0.13501 0.50954-0.22451 0.05761-0.97317 0.94046
  -3   2   1 60.5434 31.7283   8-0.70472 0.48790-0.22805 0.39515-0.79483 0.85779
   3   2  -1 13.2115 22.9757   6 0.32554-0.10920 0.38785-0.22107 0.90902-0.97219
   3   2  -1 36.5014 32.0223   1-0.21976 0.43658-0.07590 0.24285-0.99674 0.93415
  -3   2   1 23.8894 39.9425   2-0.43299 0.21631 0.24883-0.08160-0.93329 0.99629
  -3  -2   1 16.9907 19.3102   3 0.33973-0.55603-0.10046-0.06651 0.98294-0.91993
   3   2  -1 17.0077 24.1127   7 0.54531-0.32914 0.08149 0.08527 0.92354-0.98609
   3  -2  -1 40.9490 30.0739   7 0.64800-0.43171 0.10196-0.26907 0.86528-0.92800
   3   2  -1 51.1291 19.8923   9-0.16572 0.38215-0.14981 0.31674-0.98850 0.92555
  -3   2   1 24.8069 15.1395   4 0.14149-0.35836-0.17951 0.34657 0.98246-0.91938
  -3   2   1 14.7730 17.5252   6 0.13950-0.35589-0.18387 0.35106 0.98156-0.91813
  -3  -2   1 13.9814 28.1697   4 0.22999-0.44677 0.06348-0.23034 0.99725-0.93435
  -3  -2   1 -25.187 36.9731   8-0.50665 0.28997-0.14243-0.02436-0.93189 0.99460
   3  -2  -1 22.0653 29.2881   9-0.24054 0.45687 0.04936-0.21622-0.99751 0.93444
   2  -2  -1 2.90052 21.8520   9-0.28708 0.42433 0.18941-0.35626-0.97655 0.89830
   2   2  -1 47.9770 35.2739   7 0.65990-0.52282 0.10437 0.06239 0.85705-0.93474
   2   2  -1 40.2919 24.7798   6 0.33647-0.19923 0.43273-0.26601 0.88569-0.96402
  -2  -2   1 30.0293 23.9955   4 0.27382-0.41139 0.20092-0.36795 0.97576-0.89760
  -2   2   1 10.2332 16.0245   6 0.06229-0.19954-0.36807 0.53537 0.92216-0.84344
   2   2  -1 22.5121 17.3935   1-0.24017 0.37781-0.22878 0.39567-0.97209 0.89430
  -2   2   1 11.3913 22.7929   5-0.56281 0.42512 0.21937-0.05224-0.89012 0.96845
  -2  -2   1 20.2078 21.4377   8-0.59688 0.45938-0.18070 0.01385-0.88193 0.95986
   1   2  -1 8075.38 313.638   6 0.35316-0.29503 0.50766-0.34101 0.83934-0.93282
   1  -2  -1 8666.67 325.735   9-0.32703 0.38520 0.32486-0.49171-0.93354 0.84011
  -1   2   1 8650.23 394.349   5-0.69048 0.63201 0.30514-0.13803-0.77615 0.86973
   1  -2  -1 8889.62 349.222   3 0.61141-0.55345-0.36369 0.19698 0.80698-0.90041
   0  -2   1 23.2193 28.6507   9 0.05460-0.03372-0.61470 0.44774-0.76211 0.87069
   0   2  -1 -3.7962 13.4868   6 0.37261-0.39352 0.61206-0.44546 0.75646-0.86506
   4   2   1 1930.49 202.408   7-0.07038 0.40803-0.03431 0.20141 0.96481-0.79535
   4  -2   1 1865.39 226.447   7-0.10646 0.44419-0.04081-0.12628 0.95449-0.78521
  -4  -2  -1 1726.97 186.814   8 0.04912-0.38642 0.07713-0.24395-0.96777 0.79848
   5  -2   1 304.914 128.762   7-0.00913 0.42600-0.02321-0.14390 0.97929-0.79482
   5   2   1 258.330 98.8380   7 0.00816 0.40862-0.02005 0.18712 0.98269-0.79802
  -5   2  -1 457.334 120.914   8 0.02691-0.44349 0.06878 0.09825-0.97347 0.78914
  -5  -2  -1 260.401 90.0979   8-0.02060-0.39586 0.05081-0.21759-0.98382 0.79932
   6  -2   1 1068.45 223.571   7 0.07052 0.42546-0.00864-0.15850 0.99243-0.79275
   6   2   1 889.710 175.326   7 0.07605 0.41987-0.00763 0.17467 0.99310-0.79323
  -6  -2  -1 965.841 176.011   8-0.08265-0.41296 0.02710-0.19385-0.99351 0.79381
  -6   2  -1 1341.90 219.442   8-0.06149-0.43425 0.03522 0.13184-0.99069 0.79114
   7  -2   1 387.895 195.871   7 0.13954 0.43557 0.00409-0.17127 0.99857-0.78368
   7   2   1 128.913 118.689   7 0.13717 0.43788 0.00366 0.16335 0.99844-0.78334
  -7  -2  -1 458.397 153.082   8-0.13969-0.43508 0.00509-0.17181-0.99857 0.78366
  -7   2  -1 407.037 170.192   8-0.13639-0.43852 0.00637 0.16072-0.99838 0.78362
  11  -3  -1 1204.12 278.842   7 0.59498 0.25426 0.09133-0.34236 0.89802-0.83904
 -11   3   1 1625.87 394.859   5-0.51740-0.33287 0.19029 0.06045-0.91809 0.85958
  11  -3  -1 890.436 309.786   3 0.49917 0.35115-0.24912-0.00145 0.91023-0.85140
 -10   3   1 56.1048 112.769   2-0.45788-0.31326 0.28350-0.03233-0.91472 0.87122
  10  -3  -1 416.732 218.755   3 0.47692 0.29415-0.22755-0.02304 0.92467-0.88118
  10   3  -1 12.3467 113.605   7 0.52467 0.24540 0.07743 0.17275 0.93283-0.88886
  10  -3  -1 327.225 155.198   7 0.57377 0.19634 0.08711-0.33809 0.90949-0.86576
 -10   3   1 124.751 137.032   5-0.49432-0.27676 0.17573 0.07498-0.93035 0.88703
 -10  -3   1 310.009 196.138   8-0.50491-0.26584-0.14171-0.10830-0.93269 0.88892
   9   3  -1 2226.10 343.744   7 0.50450 0.18643 0.07347 0.17672 0.94122-0.91250
   9  -3  -1 2110.76 310.845   7 0.55649 0.13448 0.08369-0.33462 0.91819-0.88971
   9  -3  -1 2050.25 331.057   3 0.45713 0.23469-0.20863-0.04198 0.93620-0.90800
  -9   3   1 2271.95 337.524   2-0.43897-0.25296 0.25709-0.00597-0.92910 0.90082
  -9   3   1 2012.45 269.987   8-0.58497-0.10688-0.17559 0.42628-0.88955 0.86126
  -9  -3   1 2373.37 353.249   8-0.48418-0.20741-0.13306-0.11698-0.94178 0.91321
  -9   3   1 1876.32 320.938   5-0.47393-0.21799 0.16298 0.08770-0.94020 0.91207
   8  -3  -1 141.222 104.125   3 0.44052 0.17203-0.19291-0.05769 0.94497-0.93206
  -8   3   1 -76.061 109.232   2-0.42291-0.18982 0.23504 0.01604-0.93998 0.92693
   8   3  -1 251.713 129.755   7 0.48846 0.12331 0.07034 0.17987 0.94743-0.93393
   8  -3  -1 36.7301 86.4671   7 0.54469 0.06717 0.08137-0.33223 0.92383-0.91058
   8  -3  -1 245.871 116.505   9 0.00424 0.60760-0.52219 0.27174-0.83645 0.84929
  -8  -3   1 -78.562 133.591   8-0.46716-0.14526-0.12599-0.12408-0.94867 0.93530
  -8   3   1 -193.61 115.707   5-0.45705-0.15571 0.15249 0.09817-0.94768 0.93475
  -8   3   1 287.847 120.780   8-0.57598-0.03671-0.17174 0.42243-0.89508 0.88200
   7   3  -1 1101.00 199.264   7 0.47816 0.05447 0.06834 0.18189 0.95121-0.95293
   7  -3  -1 1417.16 222.194   7 0.54075-0.00802 0.08059-0.33140 0.92565-0.92763
  -7  -3   1 422.789 205.825   4 0.04098-0.57421-0.41593 0.16636 0.89916-0.89694
  -7   3   1 1952.42 262.603   5-0.44484-0.08875 0.14496 0.10569-0.95273 0.95499
   7   3  -1 1459.70 206.475   6 0.32586 0.20705 0.38911-0.13865 0.90841-0.91072
  -7   3   1 1942.28 286.531   2-0.41054-0.12299 0.21826 0.03276-0.94760 0.94978
   7  -3  -1 1223.59 185.865   9-0.04464 0.57737-0.42483 0.17442-0.89617 0.89380
  -7  -3   1 1491.10 183.219   5-0.60309 0.06952 0.24571-0.49586-0.86050 0.86253
  -7   3   1 1252.61 195.574   8-0.57643 0.04289-0.17193 0.42259-0.89481 0.89694
   7  -3  -1 1240.64 219.576   3 0.42811 0.10518-0.18126-0.06933 0.95102-0.95339
  -7  -3   1 983.347 200.435   8-0.45519-0.07808-0.12103-0.12907-0.95322 0.95505
   6  -3  -1 284.114 119.841   3 0.42128 0.03273-0.17489-0.07567 0.95417-0.97179
   6   3  -1 66.9735 70.7041   7 0.47607-0.02258 0.06793 0.18231 0.95195-0.96889
   6  -3  -1 428.989 126.033   7 0.54866-0.09505 0.08215-0.33290 0.92196-0.93915
  -6  -3   1 101.453 79.5255   4 0.08640-0.54055-0.31360 0.06384 0.94440-0.92708
   6   3  -1 55.6702 58.4426   6 0.31786 0.13593 0.35776-0.10732 0.92297-0.94049
  -6  -3   1 117.322 56.4469   5-0.62474 0.17036 0.26012-0.51031-0.84242 0.85967
   6  -3  -1 -21.383 62.5230   9-0.09163 0.54524-0.32411 0.07372-0.94183 0.92428
  -6  -3   1 -35.584 66.2652   8-0.45025-0.00387-0.11900-0.13115-0.95502 0.97206
  -5  -3   1 1488.02 192.107   4 0.12946-0.50449-0.20979-0.04016 0.97583-0.94337
   5   3  -1 1550.41 194.658   7 0.48623-0.11187 0.06991 0.18033 0.94826-0.98040
   5  -3  -1 1540.66 165.686   7 0.57526-0.20078 0.08741-0.33810 0.90871-0.94109
   5  -3  -1 1630.12 195.766   9-0.13644 0.51094-0.22111-0.02924-0.97402 0.94127
   5   3  -1 1368.07 169.889   6 0.31288 0.06178 0.33877-0.08836 0.93110-0.96383
   5  -3  -1 1467.47 207.393   3 0.42209-0.04734-0.17564-0.07487 0.95381-0.98665
  -5   3   1 1745.60 220.298   2-0.40183 0.02670 0.20654 0.04435-0.95259 0.98521
  -5  -3   1 2187.74 186.285   5-0.67497 0.29979 0.29432-0.54456-0.79355 0.82601
  -5   3   1 1476.12 189.498   5-0.44228 0.06702 0.14338 0.10724-0.95375 0.98643
  -5  -3   1 1590.08 201.442   8-0.45550 0.08054-0.12116-0.12901-0.95310 0.98535
  -5   3   1 1634.57 157.179   8-0.63002 0.25480-0.19502 0.44565-0.85883 0.89141
  -4   3   1 605.047 111.207   8-0.70787 0.41183-0.22946 0.48008-0.79170 0.83950
  -4   3   1 309.688 51.8372   4 0.29991-0.59623 0.29081-0.03997 0.94943-0.90146
   4  -3  -1 295.008 69.1258   7 0.63296-0.33757 0.09893-0.34956 0.87520-0.92276
  -4   3   1 318.159 94.1275   2-0.40916 0.11324 0.21639 0.03442-0.94841 0.99625
   4  -3  -1 313.187 87.3682   9-0.17866 0.47406-0.11722-0.13311-0.99310 0.94517
  -4  -3   1 401.647 101.666   4 0.16975-0.46563-0.10599-0.14416 0.99407-0.94643
  -4   3   1 260.271 45.7260   6 0.29835-0.59369 0.28552-0.03510 0.95127-0.90304
   4   3  -1 347.183 92.5355   7 0.51556-0.22033 0.07564 0.17459 0.93671-0.98402
   4   3  -1 318.823 86.3569   6 0.31165-0.01611 0.33414-0.08378 0.93301-0.98094
   4   3  -1 377.721 60.0198   9-0.33028 0.62578 0.33676-0.08644-0.92860 0.88094
   4   3  -1 190.069 88.6970   1-0.18478 0.48084 0.12744 0.12305-0.99175 0.94441
  -4  -3   1 359.835 98.8455   8-0.47607 0.18027-0.12969-0.12054-0.94513 0.99258
   3   3  -1 3106.07 243.147   7 0.57642-0.36030 0.08764 0.16258 0.90810-0.97058
  -3  -3   1 2747.91 252.117   4 0.20681-0.42350-0.00402-0.24632 0.99988-0.93703
  -3   3   1 3146.75 191.729   6 0.21010-0.42642 0.00594 0.24473 0.99982-0.93636
   3  -3  -1 3233.75 234.465   7 0.74290-0.52658 0.12139-0.37193 0.78883-0.85157
   3   3  -1 3217.92 266.827   6 0.31490-0.09849 0.34641-0.09611 0.92789-0.99101
   3  -3  -1 3502.06 274.256   9-0.21777 0.43408-0.01417-0.23614-0.99956 0.93645
  -3   3   1 3083.30 247.209   5-0.49467 0.27776 0.17595 0.07466-0.93017 0.99331
  -3  -3   1 3534.46 272.380   8-0.52065 0.30401-0.14831-0.10196-0.92524 0.98790
  -2  -3   1 9228.61 344.915   9 0.01977-0.15712-0.55155 0.30111-0.81492 0.89304
   2   3  -1 8980.63 333.445   7 0.68989-0.55283 0.11046 0.13975 0.83471-0.91233
   2   3  -1 8209.07 356.533   1-0.22374 0.36142-0.10291 0.35328-0.99419 0.91645
  -2  -3   1 8316.38 328.588   8-0.60377 0.46628-0.18366-0.06666-0.87736 0.95524
  -2   3   1 7911.09 322.715   6 0.15404-0.29124-0.14662 0.39745 0.98843-0.90969
   2   3  -1 8036.14 359.869   6 0.32319-0.18591 0.37849-0.12827 0.91350-0.99181
   2  -3  -1 8618.47 384.154   9-0.25316 0.39038 0.08585-0.33613-0.99425 0.91595
   2  -3  -1 8147.85 374.171   3 0.50767-0.37062-0.25744 0.00718 0.90428-0.98266
  -2   3   1 8725.97 344.111   5-0.56058 0.42287 0.21793 0.03268-0.89162 0.97000
   2  -3  -1 9190.51 242.945   8-0.59577 0.73341-0.18022-0.07035-0.88266 0.80442
  -2  -3   1 8522.55 392.181   4 0.24007-0.37756 0.09386-0.34438 0.99439-0.91629
   2  -3  -1 9325.29 362.405   4-0.02588 0.16371-0.55395 0.30366 0.81131-0.88947
  -1   3   1 568.021 94.5388   5-0.66897 0.61047 0.29017-0.03957-0.79996 0.89359
   1  -3  -1 643.123 97.6764   4-0.00878 0.06747-0.52007 0.26987 0.83615-0.92949
  -1  -3   1 -172.15 78.6233   8-0.74354 0.68523-0.24569-0.00467-0.75330 0.84640
  -1  -3   1 477.415 87.8879   9 0.00271-0.06094-0.51926 0.26881-0.83850 0.93182
  -1   3   1 542.641 94.3908   6 0.12150-0.17953-0.22879 0.47973 0.97107-0.87706
  -1   3   1 526.111 91.8318   2-0.51392 0.45553 0.36507-0.11449-0.86037 0.95384
   1   3  -1 445.152 88.0601   6 0.33658-0.27841 0.43322-0.18308 0.88542-0.97888
   1  -3  -1 402.927 78.2063   3 0.58367-0.52575-0.33429 0.08413 0.83818-0.93167
   1  -3  -1 468.794 87.9750   9-0.28416 0.34231 0.18014-0.43042-0.97865 0.88516
   0  -3  -1 94.0389 43.6318   4-0.00543-0.01504-0.51329 0.26320 0.84084-0.94937
   0  -3   1 99.0378 46.1804   4 0.29305-0.27202 0.26644-0.51719 0.95758-0.84894
   0  -3   1 106.486 51.2762   9 0.00001 0.02086-0.51406 0.26362-0.84210 0.95061
   0   3   1 74.2632 46.2857   6 0.10533-0.08418-0.26809 0.51910 0.95985-0.85056
   0   3  -1 64.5618 37.3103   6 0.35410-0.37501 0.51220-0.26214 0.83622-0.94482
   0  -3  -1 97.7544 45.3499   9-0.31022 0.28928 0.26565-0.51593-0.95524 0.84657
   1  -3   1 13147.5 454.913   4 0.31195-0.21166 0.33505-0.58588 0.93263-0.80871
   1  -3   1 12480.0 483.588   9 0.00678 0.09319-0.52706 0.27662-0.83300 0.95671
   1   3   1 13218.5 497.377   6 0.10070-0.00035-0.27917 0.53024 0.95633-0.83178
  -1  -3  -1 13306.5 444.984   9-0.33092 0.23092 0.33912-0.58940-0.92760 0.80373
  -2  -3  -1 1553.46 179.586   4-0.02376-0.15500-0.54981 0.29994 0.81448-0.95334
   2   3   1 1642.99 188.264   6 0.10439 0.07513-0.27034 0.52148 0.95915-0.81934
   2  -3   1 1590.86 182.888   9 0.02022 0.15886-0.55239 0.30195-0.81428 0.95319
  -3  -3  -1 2899.15 266.554   4-0.04111-0.21681-0.58330 0.33354 0.78782-0.94183
   3  -3   1 484.555 100.913   7-0.18460 0.44317-0.05478-0.19582 0.92750-0.77348
  -3  -3  -1 2813.96 229.846   8 0.05910-0.31724 0.08087-0.33119-0.96502 0.81089
   3   3   1 2727.97 257.283   6 0.11425 0.14446-0.24654 0.49773 0.96624-0.81120
   3   3   1 2693.27 226.046   7-0.09862 0.35706-0.03939 0.29006 0.95684-0.80255
   3  -3   1 2688.69 263.298   9 0.03851 0.21967-0.58603 0.33557-0.78727 0.94138
   4  -3   1 130.042 78.5360   7-0.06000 0.39771-0.03243-0.21817 0.96753-0.79833
   4   3   1 -16.535 50.7228   7-0.01810 0.35567-0.02484 0.27547 0.97741-0.80792
   4   3   1 45.0855 56.7458   6 0.12876 0.20911-0.21084 0.46207 0.97556-0.80529
  -4  -3  -1 4.18973 49.7312   8-0.00547-0.33182 0.05655-0.30682-0.98080 0.81146
   5  -3   1 5533.80 398.092   7 0.03275 0.38410-0.01556-0.23507 0.98700-0.80260
  -5   3  -1 5795.48 366.346   8-0.00899-0.40763 0.05521 0.19527-0.98152 0.79722
  -5  -3  -1 6661.25 440.297   8-0.06310-0.35333 0.03460-0.28484-0.99092 0.80639
   6   3   1 1903.16 259.810   7 0.10999 0.38587-0.00137 0.25195 0.99654-0.79663
   6   3   1 1433.98 214.714   6 0.16777 0.32841-0.11062 0.36192 0.99352-0.79284
   6  -3   1 2445.97 295.580   7 0.10849 0.38747-0.00165-0.24901 0.99642-0.79681
  -6   3  -1 2583.14 272.492   8-0.09843-0.39736 0.02103 0.22947-0.99528 0.79577
  -6  -3  -1 1670.03 239.764   8-0.11641-0.37918 0.01410-0.26431-0.99696 0.79721
   7  -3   1 1641.46 253.282   7 0.17430 0.40078 0.01055-0.26125 0.99979-0.78496
  -7   3  -1 1545.48 225.983   8-0.17306-0.40189-0.00790 0.25844-0.99979 0.78506
 -11   4   1 193.221 217.436   2-0.47781-0.37260 0.31190 0.02286-0.89756 0.83885
 -10   4   1 151.690 175.798   2-0.45847-0.31275 0.28432 0.05039-0.91425 0.87077
  10  -4  -1 199.206 178.788   3 0.48149 0.28964-0.23196-0.10224 0.92184-0.87835
  10   4  -1 -73.783 139.737   7 0.54442 0.22559 0.08132 0.25239 0.92395-0.87991
  10  -4  -1 -7.9798 114.470   7 0.61411 0.15597 0.09515-0.42961 0.88691-0.84319
 -10  -4   1 101.551 164.409   8-0.51765-0.25305-0.14705-0.18642-0.92670 0.88289
 -10   4   1 31.7460 136.901   5-0.50355-0.26757 0.18153 0.15263-0.92560 0.88234
   9  -4  -1 19.9843 116.935   3 0.46351 0.22833-0.21471-0.11949 0.93261-0.90443
  -9   4   1 462.261 194.488   2-0.44136-0.25065 0.26039 0.07427-0.92738 0.89913
   9   4  -1 168.386 127.865   7 0.52664 0.16422 0.07782 0.25590 0.93198-0.90318
   9  -4  -1 -16.751 90.9370   7 0.60113 0.08981 0.09256-0.42696 0.89453-0.86605
  -9  -4   1 213.098 161.737   8-0.49893-0.19263-0.13921-0.19429-0.93539 0.90678
  -9   4   1 530.615 199.534   5-0.48506-0.20690 0.16992 0.16421-0.93494 0.90687
   8  -4  -1 153.704 135.525   3 0.44877 0.16381-0.20070-0.13350 0.94071-0.92782
  -8   4   1 465.726 180.026   2-0.42707-0.18572 0.24071 0.09390-0.93727 0.92426
  -8  -4   1 172.095 141.791   4 0.00944-0.62177-0.48286 0.15000 0.86084-0.87377
   8   4  -1 105.249 114.951   7 0.51341 0.09830 0.07522 0.25851 0.93760-0.92403
   8  -4  -1 377.329 132.211   7 0.59481 0.01702 0.09130-0.42564 0.89812-0.88488
   8   4  -1 213.200 134.121   6 0.33103 0.28109 0.41005-0.07604 0.89787-0.88488
   8  -4  -1 244.805 109.745   9-0.01261 0.62443-0.48946 0.15557-0.85842 0.87123
  -8  -4   1 169.435 147.307   8-0.48413-0.12826-0.13304-0.20050-0.94180 0.92839
  -8   4   1 492.180 180.635   5-0.47020-0.14259 0.16065 0.17346-0.94190 0.92902
  -7   4   1 1379.68 237.093   5-0.46012-0.07350 0.15440 0.17970-0.94636 0.94869
   7  -4  -1 1277.09 237.064   3 0.43817 0.09514-0.19069-0.14347 0.94615-0.94853
   7   4  -1 1317.93 234.543   7 0.50642 0.02616 0.07385 0.25988 0.94045-0.94211
  -7   4   1 1042.18 217.711   2-0.41635-0.11724 0.22611 0.10844-0.94410 0.94632
  -7  -4   1 556.305 242.027   4 0.04989-0.58312-0.39641 0.06336 0.90897-0.90683
   7   4  -1 1657.27 232.159   6 0.32198 0.21103 0.37374-0.03975 0.91573-0.91795
   7  -4  -1 1532.19 230.245   9-0.05441 0.58712-0.40446 0.07060-0.90663 0.90424
   7  -4  -1 1711.25 223.341   7 0.59806-0.06535 0.09195-0.42622 0.89628-0.89827
  -7  -4   1 1419.92 241.920   8-0.47461-0.05863-0.12909-0.20449-0.94572 0.94751
  -6   4   1 242.965 113.081   5-0.45643 0.00197 0.15211 0.18198-0.94794 0.96547
  -6   4   1 316.203 99.3003   8-0.68665 0.23222-0.21996 0.55409-0.81204 0.82946
   6  -4  -1 264.069 126.043   3 0.43296 0.02106-0.18581-0.14831 0.94871-0.96634
   6   4  -1 262.694 101.481   7 0.50824-0.05480 0.07420 0.25952 0.93972-0.95658
   6  -4  -1 378.665 99.9344   7 0.61565-0.16206 0.09546-0.42967 0.88598-0.90317
  -6   4   1 357.810 146.800   2-0.41016-0.04423 0.21773 0.11675-0.94783 0.96527
  -6  -4   1 152.410 130.239   4 0.08799-0.54211-0.30989-0.02335 0.94577-0.92851
   6   4  -1 272.781 99.6361   6 0.31504 0.13884 0.34694-0.01296 0.92766-0.94511
   6  -4  -1 390.010 131.080   9-0.09400 0.54759-0.31883-0.01500-0.94382 0.92623
  -6  -4   1 155.159 74.8958   8-0.47231 0.01822-0.12812-0.20548-0.94664 0.96363
  -5   4   1 7.54157 60.6518   5-0.46149 0.08621 0.15525 0.17883-0.94576 0.97851
   5  -4  -1 33.9665 58.2855   3 0.43488-0.06014-0.18762-0.14645 0.94777-0.98064
   5   4  -1 19.8544 52.8661   7 0.52296-0.14867 0.07709 0.25663 0.93357-0.96562
  -5   4   1 59.6772 72.7052   2-0.40975 0.03456 0.21719 0.11722-0.94806 0.98073
   5  -4  -1 87.7826 58.8961   7 0.65564-0.28116 0.10350-0.43764 0.86004-0.89242
  -5  -4   1 39.6909 57.7782   4 0.12356-0.49854-0.22442-0.10902 0.97222-0.93981
   5   4  -1 -14.993 46.9206   6 0.31074 0.06400 0.33074 0.00320 0.93439-0.96705
   5  -4  -1 -33.062 62.6205   9-0.13115 0.50563-0.23363-0.10017-0.97083 0.93804
  -5   4   1 -28.425 52.4304   6 0.36470-0.73900 0.56629-0.23261 0.79575-0.76259
  -5  -4   1 103.334 71.6771   8-0.48023 0.10528-0.13142-0.20224-0.94343 0.97562
   4   4  -1 1019.71 152.596   7 0.55741-0.26224 0.08387 0.24983 0.91774-0.96497
  -4  -4   1 1103.49 182.034   4 0.15635-0.45216-0.14127-0.19238 0.98929-0.94170
   4  -4  -1 1428.29 166.150   7 0.73143-0.43602 0.11901-0.45307 0.79953-0.84710
  -4   4   1 1165.23 121.391   6 0.29909-0.59446 0.28819 0.04573 0.95035-0.90206
   4   4  -1 1147.23 169.183   6 0.30962-0.01402 0.32656 0.00732 0.93606-0.98393
  -4   4   1 1390.13 198.814   2-0.41680 0.12081 0.22671 0.10763-0.94383 0.99172
   4  -4  -1 1064.32 178.723   3 0.44638-0.15090-0.19844-0.13554 0.94196-0.99004
   4  -4  -1 1071.35 166.612   9-0.16561 0.46101-0.15008-0.18369-0.98845 0.94048
  -4  -4   1 1292.26 176.968   8-0.50304 0.20726-0.14093-0.19277-0.93354 0.98094
  -4   4   1 1089.11 160.484   5-0.47887 0.18275 0.16606 0.16802-0.93789 0.98586
   3  -4  -1 80.3692 43.7493   3 0.47083-0.25460-0.22171-0.11217 0.92834-0.99161
  -3  -4   1 67.1434 49.7980   8-0.54828 0.33166-0.15996-0.17379-0.91099 0.97360
   3  -4  -1 3.12880 30.3589   4-0.01596 0.23303-0.53440 0.20059 0.82593-0.88892
  -3   4   1 156.015 85.9840   2-0.43340 0.21660 0.24940 0.08486-0.93301 0.99611
   3   4  -1 111.728 59.1225   7 0.62302-0.40695 0.09693 0.23675 0.88147-0.94386
  -3  -4   1 44.7287 44.2449   9 0.00856-0.22502-0.53044 0.19652-0.83058 0.89345
  -3   4   1 5.98351 29.6387   6 0.24287-0.45917 0.10290 0.23126 0.99334-0.92984
  -3  -4   1 109.706 72.9377   4 0.18610-0.40271-0.06184-0.27199 0.99803-0.93523
   3  -4  -1 19.7882 24.1626   8-0.01949 0.23632 0.05123-0.38525-0.98360 0.92060
   3  -4  -1 84.3417 67.6064   9-0.19708 0.41338-0.06958-0.26417-0.99760 0.93444
   3   4  -1 46.8150 44.7157   6 0.31219-0.09573 0.33616-0.00234 0.93218-0.99525
   3   4  -1 44.6825 17.7981   2-0.45521 0.67150 0.27973 0.05400-0.91686 0.85431
   2  -4  -1 3539.52 246.238   4 0.00699 0.13095-0.48795 0.15424 0.85761-0.93581
  -2   4   1 3071.49 138.377   7 0.30631-0.44365 0.03534 0.29868 0.99243-0.91430
   2   4  -1 4649.25 280.925   7 0.73726-0.60023 0.12022 0.21344 0.79415-0.87168
  -2  -4   1 3269.09 236.605   9-0.01468-0.12266-0.48538 0.15146-0.86102 0.93908
  -2   4   1 3544.94 245.135   6 0.20165-0.33882-0.01803 0.35236 0.99978-0.92102
   2   4  -1 3152.63 255.930   6 0.31883-0.18151 0.36149-0.02775 0.92131-0.99957
  -2   4   1 3228.66 226.952   5-0.57439 0.43664 0.22689 0.10720-0.88210 0.96054
   2  -4  -1 3194.82 246.629   3 0.51277-0.37574-0.26245-0.07130 0.90058-0.97900
   2  -4  -1 2700.36 98.0746   8-0.46818 0.60585-0.12642-0.20762-0.94827 0.87000
   2  -4  -1 3522.90 274.542   9-0.22522 0.36243 0.00628-0.34001-0.99940 0.92105
  -2  -4   1 3414.62 228.159   8-0.62764 0.49019-0.19399-0.13980-0.86059 0.93841
   1  -4  -1 8853.19 400.116   4 0.01657 0.04222-0.46804 0.13441 0.86998-0.96338
  -1   4   1 7643.18 394.497   6 0.17402-0.23202-0.09397 0.42843 0.99536-0.90133
  -1   4   1 8570.43 411.947   2-0.50527 0.44682 0.35210-0.01802-0.87008 0.96362
   1   4  -1 7290.19 378.802   6 0.32967-0.27148 0.40452-0.07089 0.90072-0.99415
   1  -4  -1 8350.53 414.488   9-0.24968 0.30781 0.07568-0.40940-0.99531 0.90177
   1  -4  -1 7927.30 373.208   3 0.57710-0.51921-0.32745-0.00618 0.84493-0.93846
  -1   4   1 9514.20 389.102   5-0.66940 0.61086 0.29047 0.04363-0.79951 0.89320
  -1  -4   1 7825.56 382.272   9-0.02385-0.03440-0.46716 0.13327-0.87226 0.96550
  -1  -4  -1 410.430 84.7842   9-0.28628 0.18627 0.18686-0.52057-0.97713 0.85320
   1   4   1 448.884 73.4612   7-0.19085 0.29091-0.05589 0.39013 0.92506-0.80115
   1  -4   1 331.831 83.6280   9-0.01577 0.11573-0.48323 0.14932-0.86238 0.98602
  -1   4  -1 387.102 94.5220   6 0.36132-0.46129 0.54836-0.21493 0.80983-0.93354
  -1   4  -1 434.468 93.2969   1-0.23367 0.13392-0.17567 0.50932-0.98350 0.86030
   1   4   1 381.204 102.238   6 0.14975-0.04938-0.15771 0.49234 0.98655-0.86199
   1  -4   1 233.865 62.8005   4 0.26844-0.16808 0.18322-0.51756 0.97978-0.85595
  -1  -4  -1 328.875 67.2603   8 0.08691-0.18671 0.09127-0.42512-0.95678 0.83301
  -2   4  -1 12.7611 41.5457   1-0.23647 0.05758-0.19793 0.53154-0.97909 0.84073
   2   4   1 47.7273 53.0370   7-0.08827 0.26747-0.03753 0.37175 0.95986-0.82075
   2   4   1 36.0656 60.0048   6 0.14903 0.03053-0.15957 0.49427 0.98623-0.84640
   2  -4   1 -2.9927 34.8113   4 0.27830-0.09868 0.21584-0.55024 0.97209-0.83300
  -2  -4  -1 -10.396 37.0361   9-0.29778 0.11870 0.22403-0.55775-0.96777 0.82864
   2  -4   1 86.8143 73.0698   9-0.00285 0.18191-0.50853 0.17463-0.84587 0.98471
  -2  -4  -1 -35.691 43.4039   8 0.02982-0.20876 0.06987-0.40369-0.97276 0.83378
  -3  -4  -1 1124.43 177.915   4-0.01794-0.23993-0.53832 0.20515 0.82306-0.97717
   3  -4   1 818.550 128.978   4 0.28303-0.02417 0.23184-0.56628 0.96785-0.81351
   3  -4   1 1213.99 135.337   7-0.09206 0.35062-0.03821-0.29588 0.95877-0.80483
  -3   4  -1 916.124 139.973   1-0.23701-0.02101-0.20229 0.53585-0.97817 0.82463
   3   4   1 1047.58 179.228   6 0.15386 0.10488-0.14710 0.48185 0.98835-0.83328
   3  -4   1 1020.70 167.396   9 0.01428 0.24387-0.54129 0.20737-0.82265 0.97671
  -3  -4  -1 1114.95 142.036   9-0.30422 0.04606 0.24537-0.57908-0.96162 0.80729
   3   4   1 1293.83 169.456   7-0.01348 0.27184-0.02400 0.35818 0.97839-0.82408
  -3  -4  -1 1227.62 166.246   8-0.02092-0.23718 0.05069-0.38446-0.98388 0.82970
   4  -4   1 4.39197 46.4015   7 0.01761 0.32006-0.01833-0.31578 0.98442-0.81530
   4   4   1 -67.296 60.0469   7 0.04858 0.28893-0.01267 0.34683 0.98946-0.81993
  -4  -4  -1 -6.9211 45.5387   4-0.03749-0.29952-0.57641 0.24335 0.79351-0.96275
   4   4   1 -116.52 96.2423   6 0.16313 0.17477-0.12287 0.45766 0.99195-0.82165
  -4   4  -1 66.7788 60.2193   1-0.23513-0.10203-0.18716 0.52066-0.98129 0.81259
   4  -4   1 -9.4094 38.4180   4 0.28170 0.05638 0.22731-0.56180 0.96908-0.79950
  -4  -4  -1 -49.599 47.9277   9-0.30478-0.03244 0.24727-0.58098-0.96104 0.79151
  -4   4  -1 -13.821 45.4922   8 0.03448-0.37200 0.07163 0.26227-0.97159 0.80253
  -4  -4  -1 48.7449 89.7748   8-0.06837-0.26889 0.03258-0.36632-0.99166 0.82228
   4  -4   1 116.210 88.6910   9 0.03482 0.30245-0.57931 0.24539-0.79287 0.96213
   5  -4   1 2489.36 243.697   7 0.09905 0.31775-0.00339-0.33074 0.99557-0.81124
   5   4   1 2405.58 283.709   7 0.10384 0.31281-0.00251 0.33664 0.99601-0.81127
   5  -4   1 2583.64 238.427   4 0.27234 0.14493 0.19601-0.53054 0.97692-0.79212
  -5   4  -1 2427.32 229.815   1-0.23030-0.18599-0.15000 0.48347-0.98791 0.80403
  -5   4  -1 2451.13 199.643   8-0.07810-0.33859 0.02885 0.30507-0.99295 0.80868
   5   4   1 2446.74 307.763   6 0.17600 0.24107-0.08866 0.42348 0.99588-0.81036
  -5  -4  -1 2414.48 283.647   8-0.11391-0.30251 0.01506-0.34877-0.99674 0.81215
   6   4   1 807.663 203.812   7 0.15510 0.34069 0.00698 0.32713 0.99927-0.79931
   6  -4   1 668.213 155.803   7 0.16641 0.32952 0.00908-0.34325 0.99962-0.80008
   6   4   1 553.510 167.231   6 0.19176 0.30445-0.04565 0.38051 0.99893-0.79819
  -6   4  -1 730.614 141.970   8-0.16260-0.33324-0.00382 0.33778-0.99954 0.80007
  -6  -4  -1 606.033 177.474   8-0.15824-0.33733-0.00212-0.33155-0.99941 0.79961
   7   4   1 152.409 119.563   7 0.20379 0.37113 0.01605 0.31803 0.99981-0.78463
   7  -4   1 69.8499 117.727   7 0.22585 0.34919 0.02018-0.35439 0.99921-0.78445
  10  -5  -1 -94.699 180.893   3 0.49096 0.28019-0.24112-0.17668 0.91575-0.87225
  10   5  -1 112.081 128.173   7 0.57088 0.19906 0.08654 0.33068 0.91098-0.86685
 -10   5   1 246.138 197.093   2-0.46369-0.30758 0.29171 0.12654-0.90994 0.86649
 -10  -5   1 297.795 216.205   8-0.53631-0.23438-0.15490-0.26203-0.91735 0.87351
 -10   5   1 175.387 155.100   5-0.51810-0.25303 0.19074 0.22686-0.91769 0.87450
   9  -5  -1 933.770 261.738   3 0.47493 0.21694-0.22564-0.19215 0.92589-0.89770
  -9   5   1 771.434 255.654   2-0.44841-0.24366 0.27020 0.14799-0.92214 0.89393
   9   5  -1 615.002 228.326   7 0.55604 0.13475 0.08360 0.33363 0.91841-0.88953
  -9  -5   1 1008.66 287.579   8-0.51994-0.17159-0.14801-0.26896-0.92559 0.89694
  -9   5   1 698.705 215.014   5-0.50177-0.19022 0.18041 0.23717-0.92653 0.89852
   8  -5  -1 24.9999 112.213   3 0.46217 0.15042-0.21342-0.20435 0.93338-0.92048
  -8   5   1 97.4137 129.602   2-0.43592-0.17694 0.25286 0.16528-0.93126 0.91828
  -8  -5   1 19.2602 85.9688   4 0.01607-0.62840-0.46908 0.05273 0.86935-0.88235
   8   5  -1 46.1003 94.9565   7 0.54623 0.06541 0.08167 0.33557 0.92311-0.90945
   8   5  -1 231.498 128.855   6 0.32991 0.28230 0.40550 0.01204 0.90022-0.88713
   8  -5  -1 63.0412 102.908   9-0.01980 0.63158-0.47525 0.05791-0.86734 0.88012
  -8  -5   1 -145.57 109.776   8-0.50778-0.10460-0.14291-0.27409-0.93136 0.91791
  -8   5   1 321.345 158.443   5-0.48921-0.12361 0.17252 0.24504-0.93291 0.92010
   7  -5  -1 858.797 225.873   3 0.45352 0.07978-0.20520-0.21254 0.93817-0.94055
  -7   5   1 1124.70 244.364   2-0.42687-0.10678 0.24043 0.17764-0.93741 0.93966
   7   5  -1 720.151 174.835   7 0.54327-0.01076 0.08109 0.33614 0.92449-0.92606
  -7  -5   1 181.369 185.782   4 0.05122-0.58443-0.39349-0.02306 0.91039-0.90831
   7  -5  -1 1062.91 222.946   9-0.05624 0.58892-0.40061-0.01669-0.90854 0.90611
  -7   5   1 782.055 188.823   5-0.48155-0.05212 0.16773 0.24983-0.93663 0.93902
   7   5  -1 818.671 191.562   6 0.32205 0.21103 0.37402 0.04351 0.91560-0.91774
  -7  -5   1 842.583 215.464   8-0.50117-0.03206-0.14014-0.27689-0.93439 0.93613
   6  -5  -1 332.658 125.522   3 0.45011 0.00390-0.20196-0.21572 0.94000-0.95764
   6   5  -1 1179.24 264.800   7 0.54981-0.09645 0.08238 0.33485 0.92141-0.93818
  -6   5   1 539.665 173.711   2-0.42211-0.03234 0.23393 0.18408-0.94050 0.95798
   6  -5  -1 647.762 143.437   7 0.69998-0.24640 0.11253-0.53017 0.82665-0.84384
   6   5  -1 466.546 155.380   6 0.31611 0.13784 0.35102 0.06649 0.92591-0.94328
   6  -5  -1 258.071 122.206   9-0.09038 0.54395-0.32686-0.09041-0.94078 0.92315
  -6  -5   1 811.122 236.266   8-0.50202 0.04795-0.14050-0.27658-0.93400 0.95095
  -6   5   1 412.848 149.996   5-0.48029 0.02579 0.16694 0.25061-0.93723 0.95483
  -5  -5   1 553.185 240.113   4 0.11423-0.48915-0.24730-0.16963 0.96605-0.93368
   5  -5  -1 1932.38 243.066   7 0.75554-0.38104 0.12403-0.54159 0.77649-0.80888
   5   5  -1 1472.98 198.564   7 0.57003-0.19580 0.08637 0.33082 0.91142-0.94338
   5   5  -1 1267.11 212.528   6 0.31250 0.06230 0.33735 0.08012 0.93169-0.96428
  -5   5   1 1421.05 243.937   2-0.42265 0.04740 0.23468 0.18325-0.94015 0.97285
   5  -5  -1 1849.58 261.207   9-0.12206 0.49653-0.25493-0.16231-0.96496 0.93214
   5  -5  -1 1508.13 239.770   3 0.45343-0.07870-0.20511-0.21249 0.93822-0.97109
  -5   5   1 1829.77 236.829   5-0.48758 0.11225 0.17150 0.24604-0.93371 0.96652
  -5  -5   1 1614.02 226.580   8-0.51318 0.13827-0.14517-0.27195-0.92883 0.96098
  -4  -5   1 2061.68 269.022   4 0.14180-0.43752-0.17872-0.23840 0.98262-0.93507
   4   5  -1 2149.73 223.780   7 0.61053-0.31542 0.09444 0.32273 0.88904-0.93618
   4  -5  -1 2079.77 226.464   4-0.02850 0.32483-0.55904 0.14173 0.80737-0.85516
  -4   5   1 755.711 157.744   2-0.42984 0.13379 0.24450 0.17335-0.93543 0.98336
  -4   5   1 2313.77 205.034   6 0.30603-0.60139 0.31330 0.10412 0.94122-0.89288
   4   5  -1 1794.48 232.692   6 0.31163-0.01597 0.33406 0.08335 0.93304-0.98084
   4  -5  -1 1906.02 240.765   3 0.46550-0.17003-0.21660-0.20091 0.93147-0.97956
   4  -5  -1 2186.50 268.150   9-0.15109 0.44646-0.18586-0.23136-0.98194 0.93393
  -4   5   1 1830.30 206.811   5-0.50654 0.21038 0.18341 0.23413-0.92401 0.97205
  -4  -5   1 2059.67 231.269   8-0.53896 0.24321-0.15602-0.26115-0.91597 0.96333
   3  -5  -1 935.911 157.769   3 0.48897-0.27275-0.23919-0.17819 0.91706-0.98033
   3  -5  -1 1060.44 156.636   4 0.00160 0.21560-0.49902 0.08178 0.85043-0.91344
  -3   5   1 957.886 165.778   2-0.44523 0.22837 0.26577 0.15199-0.92453 0.98769
   3   5  -1 860.121 125.207   7 0.68166-0.46562 0.10879 0.30835 0.84108-0.90337
   3  -5  -1 1057.53 175.988   9-0.17725 0.39354-0.12080-0.29640-0.99266 0.92945
  -3  -5   1 908.057 177.152   4 0.16649-0.38301-0.11466-0.30264 0.99303-0.93026
  -3   5   1 879.448 129.222   6 0.26519-0.48148 0.17312 0.24452 0.98191-0.91835
   3   5  -1 786.797 155.467   6 0.31384-0.09735 0.34241 0.07493 0.92958-0.99259
  -3  -5   1 955.715 146.572   9-0.00959-0.20686-0.49540 0.07802-0.85458 0.91739
  -3  -5   1 897.200 149.772   8-0.58586 0.36927-0.17597-0.24125-0.88899 0.95155
  -3   5   1 799.393 128.927   5-0.54156 0.32458 0.20568 0.21187-0.90387 0.96713
   3   5  -1 920.993 163.770   1-0.18498 0.40188 0.12644 0.29095-0.99188 0.92944
  -2  -5   1 54.0263 54.9872   8-0.66320 0.52576-0.20956-0.20771-0.83265 0.91042
   2  -5  -1 35.5241 57.8511   9-0.20034 0.33754-0.06099-0.35620-0.99814 0.91973
  -2   5   1 37.9478 14.4658   7-0.08811-0.04935-0.03750 0.45520 0.95990-0.88165
  -2  -5   1 97.0329 38.6020   3 0.37806-0.51531-0.13506-0.28246 0.97138-0.89320
   2  -5  -1 63.7184 62.5011   3 0.52717-0.39016-0.27672-0.14053 0.88962-0.96805
   2   5  -1 98.9844 65.7455   1-0.19724 0.33496 0.06075 0.35657-0.99810 0.92047
  -2   5   1 -62.212 64.3430   6 0.23318-0.37033 0.07355 0.34428 0.99643-0.91763
  -2  -5   1 -6.8984 66.3987   4 0.18808-0.32538-0.05639-0.36108 0.99837-0.92037
   2   5  -1 16.4745 60.0927   6 0.31943-0.18207 0.36379 0.05346 0.92028-0.99849
  -2  -5   1 12.5074 48.5971   9-0.02606-0.11129-0.46273 0.04535-0.87490 0.95290
   2   5  -1 64.0412 34.8191   2-0.33171 0.46880 0.11518 0.30218-0.98255 0.90478
  -2   5   1 41.8037 48.7111   2-0.47064 0.33295 0.30160 0.11607-0.90400 0.98238
   1  -5  -1 497.542 117.121   9-0.22008 0.27820-0.00785-0.40932-0.99957 0.90597
  -1   5   1 404.040 98.1985   6 0.21000-0.26798 0.00565 0.41232 0.99982-0.90576
  -1  -5   1 467.965 123.353   4 0.20636-0.26442-0.00530-0.41230 0.99988-0.90663
   1   5  -1 552.763 119.266   6 0.32847-0.27023 0.39959 0.01757 0.90322-0.99661
  -1  -5   1 477.004 114.876   9-0.03242-0.02583-0.44986 0.03251-0.88239 0.97558
  -1   5   1 358.638 98.4650   5-0.68401 0.62545 0.30062 0.11696-0.78355 0.87731
   1  -5  -1 436.636 108.156   3 0.58349-0.52563-0.33410-0.08299 0.83837-0.93192
   1  -5  -1 444.897 46.6711   8-0.13286 0.19140 0.00773-0.42515-0.99816 0.90469
   1   5  -1 342.339 88.9537   1-0.20672 0.26531 0.00606 0.41119-0.99987 0.90705
   0   5   1 1957.51 106.825   7-0.04278 0.06361-0.02932 0.44703 0.97181-0.86312
   0  -5  -1 2422.92 242.008   4 0.02440-0.04469-0.45153 0.03454 0.87971-0.98837
   0  -5   1 2015.38 102.044   7 0.30459-0.28348 0.03502-0.45227 0.99265-0.88461
   0  -5   1 2123.87 239.284   4 0.22105-0.19985 0.03705-0.45476 0.99889-0.89040
   0   5  -1 2174.44 230.582   1-0.21369 0.19311-0.03656 0.45375-0.99911 0.89112
   0   5   1 2517.36 242.258   2-0.55667 0.57732 0.43168-0.01421-0.80328 0.91210
   0   5   1 2405.38 257.797   6 0.19472-0.17352-0.03744 0.45552 0.99927-0.88995
   0   5  -1 2247.97 235.187   6 0.34072-0.36161 0.45096-0.03392 0.87530-0.98385
   0  -5   1 2086.95 239.139   9-0.03131 0.05215-0.45213 0.03477-0.88109 0.98948
   0  -5  -1 2173.70 234.535   9-0.23621 0.21525 0.03706-0.45422-0.99827 0.88947
   0  -5  -1 2022.09 133.229   8-0.06296 0.04235 0.03465-0.45202-0.99090 0.88225
  -1  -5  -1 1916.67 230.462   4 0.01831-0.11777-0.46438 0.04752 0.87217-0.99602
   1   5   1 1971.99 145.816   7 0.00294 0.09703-0.02101 0.43871 0.98170-0.85780
  -1   5  -1 1780.82 208.332   1-0.21829 0.11856-0.06613 0.48327-0.99748 0.87432
   1   5   1 1888.47 237.670   6 0.18623-0.08584-0.06089 0.47906 0.99809-0.87350
  -1   5  -1 1849.87 221.395   6 0.35538-0.45535 0.51837-0.10145 0.83190-0.95558
  -1  -5  -1 1911.15 213.073   9-0.24842 0.14839 0.07202-0.48917-0.99566 0.87167
   1  -5   1 1793.85 229.616   9-0.02439 0.12432-0.46608 0.04872-0.87291 0.99650
  -1  -5  -1 1903.76 159.111   8-0.06210-0.03768 0.03498-0.45230-0.99078 0.86694
   2  -5   1 1290.72 94.8697   7-0.06032 0.23971-0.03249-0.38505 0.96745-0.82882
   2   5   1 1317.25 147.762   7 0.04561 0.13350-0.01321 0.43091 0.98902-0.84990
   2   5   1 1504.05 222.257   6 0.18345-0.00388-0.06846 0.48669 0.99758-0.85773
  -2  -5  -1 1425.30 177.172   9-0.25626 0.07716 0.09498-0.51214-0.99319 0.85400
  -2   5  -1 1056.25 157.740   1-0.22062 0.04177-0.08170 0.49877-0.99626 0.85794
   2  -5   1 1336.24 199.851   9-0.01282 0.19186-0.48906 0.07170-0.85868 0.99747
  -2   5  -1 243.212 84.2187   6 0.37077-0.54979 0.60087-0.18406 0.76653-0.90532
  -2  -5  -1 1145.35 146.058   8-0.08048-0.09845 0.02794-0.44522-0.99325 0.85420
  -2  -5  -1 1401.98 206.127   4 0.00764-0.18627-0.48660 0.06986 0.85847-0.99750
   3  -5   1 926.746 107.181   7 0.06061 0.19791-0.01046-0.40708 0.99115-0.83733
   3   5   1 1298.79 171.565   7 0.08733 0.17093-0.00555 0.42323 0.99438-0.84005
  -3  -5  -1 934.290 186.531   4-0.00683-0.25098-0.51610 0.09948 0.83890-0.99309
  -3   5  -1 783.262 141.900   1-0.22069-0.03730-0.08214 0.49917-0.99622 0.84273
   3   5   1 805.748 170.430   6 0.18548 0.07328-0.06295 0.48124 0.99796-0.84285
  -3  -5  -1 936.100 148.170   9-0.25912 0.00095 0.10347-0.52063-0.99212 0.83773
   3  -5   1 780.874 162.792   9 0.00257 0.25557-0.51899 0.10161-0.83869 0.99269
  -3   5  -1 872.535 71.8251   8 0.04319-0.30160 0.07490 0.34241-0.96935 0.81553
  -3  -5  -1 1064.16 166.441   8-0.10714-0.15094 0.01768-0.43492-0.99614 0.84190
  -4  -5  -1 110.414 65.7167   9-0.25594-0.08131 0.09404-0.51122-0.99330 0.82370
   4  -5   1 87.1661 54.6831   7 0.13572 0.20191 0.00339-0.42096 0.99836-0.82933
   4   5   1 66.4454 82.3730   7 0.12864 0.20877 0.00208 0.41559 0.99793-0.82838
  -4  -5  -1 89.7316 89.3634   4-0.02447-0.31251-0.55118 0.13469 0.81343-0.98276
  -4   5  -1 164.500 87.3392   1-0.21827-0.11885-0.06605 0.48304-0.99749 0.82881
   4  -5   1 70.7864 98.2546   9 0.02116 0.31608-0.55415 0.13678-0.81293 0.98214
   4   5   1 61.4844 82.1775   6 0.19149 0.14643-0.04638 0.46472 0.99890-0.82855
   4  -5   1 104.141 73.1116   4 0.23489 0.10321 0.07818-0.49614 0.99600-0.82652
  -4  -5  -1 -19.224 67.9178   8-0.13816-0.19908 0.00568-0.42288-0.99848 0.82904
   5   5   1 769.213 172.700   7 0.16973 0.24682 0.00970 0.40795 0.99970-0.81493
   5  -5   1 635.754 124.306   7 0.19523 0.22152 0.01445-0.43206 0.99990-0.81566
  -5  -5  -1 811.288 182.791   8-0.17177-0.24462-0.00739-0.40978-0.99976 0.81512
   5   5   1 890.547 199.072   6 0.20086 0.21623-0.02027 0.43863 0.99974-0.81417
  -5   5  -1 706.677 143.922   1-0.21285-0.20340-0.03132 0.44828-0.99930 0.81545
   5  -5   1 508.739 166.743   9 0.04246 0.37388-0.59314 0.17575-0.78123 0.96564
   6   5   1 89.4170 120.840   7 0.21069 0.28499 0.01735 0.40028 0.99968-0.79969
   6  -5   1 567.416 161.889   7 0.24777 0.24809 0.02430-0.44194 0.99809-0.79863
   6   5   1 456.510 139.811   6 0.21302 0.28322 0.01434 0.40405 0.99968-0.79888
  -6  -5  -1 311.644 126.698   8-0.20703-0.28851-0.02120-0.39593-0.99967 0.79983
  10   6  -1 28.5153 169.941   7 0.60357 0.16629 0.09305 0.40769 0.89312-0.84890
   9  -6  -1 133.963 152.097   3 0.49032 0.20153-0.24050-0.26087 0.91617-0.88796
  -9   6   1 238.116 209.879   2-0.45895-0.23316 0.28500 0.21672-0.91386 0.88567
   9   6  -1 -15.337 134.304   7 0.59211 0.09860 0.09076 0.40998 0.89962-0.87064
  -9   6   1 270.366 185.024   5-0.52316-0.16886 0.19395 0.30708-0.91483 0.88689
  -9  -6   1 -29.742 150.153   8-0.54643-0.14508-0.15917-0.34125-0.91199 0.88330
   8  -6  -1 -4.3711 115.753   3 0.47956 0.13301-0.23009-0.27126 0.92305-0.91013
  -8   6   1 698.340 232.520   2-0.44818-0.16473 0.26989 0.23177-0.92231 0.90936
  -8  -6   1 75.8454 164.289   4 0.01667-0.62899-0.46783-0.03200 0.87010-0.88315
   8   6  -1 199.580 132.381   7 0.58622 0.02534 0.08959 0.41115 0.90286-0.88911
   8   6  -1 158.771 112.656   6 0.33146 0.28084 0.41180 0.08928 0.89696-0.88377
   8  -6  -1 338.681 157.802   9-0.02070 0.63245-0.47345-0.02733-0.86844 0.88120
  -8  -6   1 304.460 207.556   8-0.53718-0.07518-0.15526-0.34521-0.91690 0.90341
  -8   6   1 412.934 187.679   5-0.51304-0.09982 0.18752 0.31349-0.92050 0.90776
   7  -6  -1 219.657 143.956   3 0.47287 0.06041-0.22366-0.27764 0.92713-0.92949
  -7   6   1 122.392 149.450   2-0.44075-0.09296 0.25955 0.24205-0.92782 0.93010
   7   6  -1 169.490 140.532   7 0.58780-0.05537 0.08990 0.41082 0.90200-0.90346
  -7  -6   1 21.1250 88.7917   4 0.04771-0.58089-0.40121-0.09882 0.90662-0.90457
   7   6  -1 -85.810 97.8481   6 0.32465 0.20851 0.38429 0.11678 0.91074-0.91279
   7  -6  -1 -115.03 117.778   9-0.05297 0.58563-0.40748-0.09327-0.90512 0.90267
  -7  -6   1 30.8956 109.880   8-0.53374 0.00054-0.15381-0.34669-0.91868 0.92039
  -7   6   1 33.0988 129.027   5-0.50790-0.02579 0.18428 0.31673-0.92328 0.92574
   6  -6  -1 214.075 140.972   3 0.47127-0.01728-0.22213-0.27911 0.92809-0.94571
  -6   6   1 428.269 190.089   2-0.43735-0.01714 0.25486 0.24667-0.93024 0.94776
   6   6  -1 185.228 117.765   7 0.59961-0.14633 0.09226 0.40844 0.89540-0.91206
  -6  -6   1 -27.979 141.940   4 0.07641-0.53044-0.33671-0.16352 0.93549-0.91831
   6  -6  -1 265.083 134.351   9-0.08295 0.53650-0.34326-0.15747-0.93429 0.91663
   6   6  -1 333.762 150.558   6 0.31960 0.13441 0.36445 0.13660 0.91998-0.93726
  -6  -6   1 318.119 128.054   8-0.53802 0.08398-0.15562-0.34493-0.91646 0.93337
  -6   6   1 249.125 131.472   5-0.50919 0.05465 0.18509 0.31592-0.92259 0.94026
   5  -6  -1 986.084 209.406   3 0.47603-0.10134-0.22671-0.27443 0.92521-0.95808
   5   6  -1 1062.86 198.756   7 0.62583-0.25166 0.09749 0.40316 0.87972-0.91157
  -5  -6   1 258.702 211.606   4 0.10268-0.47752-0.27517-0.22526 0.95764-0.92531
   5   6  -1 868.981 190.540   6 0.31661 0.05824 0.35295 0.14805 0.92508-0.95758
   5  -6  -1 886.757 206.738   9-0.11050 0.48495-0.28160-0.21910-0.95679 0.92394
  -5  -6   1 1035.49 201.507   8-0.55271 0.17782-0.16183-0.33876-0.90856 0.94066
  -5   6   1 792.610 172.936   5-0.51885 0.14348 0.19121 0.30981-0.91727 0.95016
   4  -6  -1 488.574 134.272   3 0.48886-0.19343-0.23909-0.26194 0.91713-0.96521
  -4   6   1 584.189 161.697   2-0.44636 0.15026 0.26735 0.23401-0.92369 0.97167
   4   6  -1 490.618 119.313   7 0.67268-0.37763 0.10696 0.39366 0.84782-0.89483
  -4  -6   1 356.083 150.224   4 0.12637-0.42201-0.21747-0.28313 0.97396-0.92644
  -4  -6   1 592.629 160.402   9 0.01119-0.30674-0.53543 0.03456-0.82696 0.87453
  -4   6   1 708.939 138.781   6 0.31478-0.61016 0.34597 0.15493 0.92808-0.87966
   4   6  -1 592.331 152.204   6 0.31600-0.02031 0.35062 0.15033 0.92609-0.97382
   4  -6  -1 888.598 199.070   9-0.13548 0.43085-0.22338-0.27730-0.97345 0.92539
  -4   6   1 485.086 122.866   5-0.53958 0.24338 0.20441 0.29660-0.90509 0.95320
  -4  -6   1 463.724 135.588   8-0.58172 0.28599-0.17420-0.32645-0.89157 0.93888
  -3   6   1 487.166 132.471   2-0.46101 0.24409 0.28790 0.21337-0.91218 0.97539
   3  -6  -1 663.003 149.574   4 0.00517 0.21215-0.49168-0.00900 0.85521-0.91823
  -3  -6   1 481.934 121.131   9-0.01301-0.20343-0.48867-0.01217-0.85893 0.92168
   3   6  -1 594.980 136.060   7 0.74897-0.53297 0.12266 0.37792 0.78298-0.84515
  -3  -6   1 406.433 133.111   4 0.14733-0.36376-0.16458-0.33620 0.98533-0.92260
   3  -6  -1 457.216 131.837   9-0.15774 0.37402-0.16957-0.33108-0.98510 0.92185
  -3   6   1 391.204 117.532   6 0.28307-0.49934 0.23234 0.26880 0.96772-0.90411
  -3  -6   1 378.976 125.834   8-0.63062 0.41405-0.19530-0.30540-0.85838 0.92090
   3   6  -1 491.838 147.488   6 0.31802-0.10149 0.35837 0.14250 0.92270-0.98564
   3   6  -1 279.662 115.641   1-0.17455 0.39148 0.17873 0.32214-0.98368 0.92130
  -3   6   1 398.429 116.879   5-0.57502 0.35799 0.22729 0.27374-0.88166 0.94500
   3  -6  -1 462.833 133.261   3 0.51183-0.29564-0.26152-0.23936 0.90127-0.96454
   2   6  -1 1303.16 200.778   1-0.18532 0.32309 0.12469 0.37611-0.99211 0.91453
   2  -6  -1 1351.87 203.163   4 0.01853 0.11964-0.46392-0.03668 0.87244-0.95069
   2  -6  -1 1266.05 189.460   3 0.54740-0.41042-0.29701-0.20372 0.87284-0.95126
  -2  -6   1 1315.79 194.887   9-0.02637-0.11098-0.46211-0.03872-0.87527 0.95321
  -2   6   1 1560.22 208.151   6 0.25718-0.39433 0.14751 0.35381 0.98675-0.90789
  -2   6   1 1481.17 212.146   2-0.48410 0.34635 0.32097 0.18020-0.89169 0.97013
   2   6  -1 1328.10 213.646   6 0.32286-0.18548 0.37722 0.12355 0.91410-0.99225
   2   6  -1 1459.58 166.860   2-0.39582 0.53286 0.19853 0.30231-0.95585 0.87817
  -2  -6   1 1315.75 218.850   4 0.16541-0.30260-0.11752-0.38341 0.99266-0.91470
  -2  -6   1 1795.67 253.739   8-0.70654 0.56912-0.22887-0.27189-0.79303 0.87075
   2  -6  -1 1338.46 208.445   9-0.17710 0.31429-0.12119-0.37944-0.99261 0.91415
   1  -6  -1 4601.39 332.529   3 0.59785-0.54003-0.34922-0.15136 0.82279-0.91634
   1  -6  -1 4987.27 369.807   4 0.02422 0.03477-0.45191-0.04861 0.87949-0.97296
   1   6  -1 3951.84 344.772   1-0.19371 0.25232 0.08019 0.42054-0.99673 0.90397
  -1  -6   1 4162.33 380.573   4 0.18038-0.23834-0.07744-0.42362 0.99688-0.90368
  -1   6   1 4275.69 334.838   2-0.51672 0.45816 0.36930 0.13178-0.85711 0.95077
  -1   6   1 3656.92 334.192   6 0.23752-0.29549 0.08662 0.41486 0.99517-0.90107
   1   6  -1 4263.43 353.571   6 0.33057-0.27233 0.40818 0.09249 0.89884-0.99217
   1  -6  -1 4778.03 388.003   9-0.19333 0.25144-0.07941-0.42121-0.99689 0.90324
  -1  -6   1 4014.63 349.693   9-0.03170-0.02656-0.45133-0.04948-0.88155 0.97468
  -1  -6   1 4223.42 272.497   3 0.34694-0.40505-0.10692-0.39430 0.98101-0.88757
   0  -6  -1 250.337 103.743   4 0.02391-0.04409-0.45259-0.04785 0.87910-0.98779
   0  -6  -1 148.754 95.3917   9-0.20617 0.18521-0.04549-0.45512-0.99889 0.89004
   0   6   1 183.053 82.3679   6 0.22375-0.20254 0.04554 0.45606 0.99846-0.88909
   0   6  -1 87.0241 61.9164   1-0.19984 0.17930 0.04610 0.45457-0.99888 0.89094
   0  -6   1 291.707 115.581   4 0.19200-0.17071-0.04561-0.45556 0.99893-0.89048
   0   6   1 200.332 100.286   2-0.55901 0.57961 0.43548 0.06550-0.79964 0.90852
   0   6  -1 87.8536 68.1677   6 0.34098-0.36185 0.45212 0.04843 0.87463-0.98313
   0  -6   1 211.575 92.6109   9-0.03080 0.05164-0.45316-0.04765-0.88050 0.98883
   0  -6  -1 119.529 45.3112   8-0.27147 0.25088-0.04665-0.45420-0.99559 0.88685
  -1  -6  -1 6544.35 464.163   4 0.01869-0.11806-0.46359-0.03674 0.87265-0.99654
   1   6   1 6714.35 260.825   7 0.22525-0.12537 0.02007 0.48102 0.99924-0.87533
   1  -6   1 6198.82 439.584   4 0.19992-0.09940-0.02349-0.47776 0.99968-0.87598
  -1   6  -1 5986.54 427.282   1-0.20382 0.10414 0.02321 0.47740-0.99964 0.87654
  -1  -6  -1 6287.15 303.352   8-0.20950 0.10975-0.02217-0.47863-0.99961 0.87569
   1   6   1 6341.05 460.569   6 0.21531-0.11491 0.02094 0.48075 0.99951-0.87488
  -1   6  -1 7055.69 463.339   6 0.35354-0.45352 0.50949-0.00907 0.83809-0.96174
  -1  -6  -1 6795.62 440.000   9-0.21530 0.11526-0.02089-0.47971-0.99951 0.87547
   1  -6   1 6153.71 460.789   9-0.02487 0.12480-0.46511-0.03570-0.87349 0.99702
   2   6   1 46.8822 51.6813   7 0.19805-0.01904 0.01498 0.48614 0.99988-0.86074
  -2  -6  -1 -17.041 68.4404   4 0.00939-0.18795-0.48297-0.01724 0.86077-0.99985
  -2  -6  -1 43.7696 76.3560   9-0.22027 0.04115-0.00734-0.49327-0.99956 0.86031
   2   6   1 26.2848 68.5756   6 0.21158-0.03199 0.01018 0.49158 0.99976-0.85987
   2  -6   1 92.3600 82.5309   4 0.20371-0.02395-0.01282-0.48850 0.99984-0.86089
  -2   6  -1 102.517 78.8035   6 0.36716-0.54621 0.57995-0.07964 0.78454-0.92331
   2  -6   1 -49.160 66.5043   9-0.01477 0.19380-0.48521-0.01560-0.86113 0.99987
  -2   6  -1 71.4660 81.7604   1-0.20566 0.02684 0.01238 0.48818-0.99982 0.86154
  -2  -6  -1 -0.0600 58.4852   8-0.19375 0.01485-0.01599-0.48477-0.99988 0.86077
  -3  -6  -1 112.459 76.2713   9-0.22038-0.03781-0.00704-0.49358-0.99956 0.84511
   3   6   1 -48.205 53.3836   7 0.20298 0.05518 0.01590 0.48524 0.99982-0.84546
  -3  -6  -1 -8.7975 74.2678   4-0.00338-0.25436-0.50915 0.00906 0.84366-0.99792
   3   6   1 87.3328 76.9297   6 0.21193 0.04683 0.01121 0.49061 0.99974-0.84459
   3  -6   1 37.8748 56.4673   4 0.20266 0.05632-0.01580-0.48557 0.99981-0.84562
  -3   6  -1 48.6460 60.8695   1-0.20529-0.05266 0.01458 0.48593-0.99979 0.84635
   3  -6   1 19.1744 102.943   9-0.00114 0.25927-0.51183 0.01101-0.84362 0.99757
  -3  -6  -1 63.3691 74.9163   8-0.19828-0.05977-0.01776-0.48295-0.99983 0.84553
  -4  -6  -1 2247.30 314.355   4-0.01917-0.31775-0.54075 0.04079 0.82127-0.99067
   4   6   1 2895.80 285.135   7 0.22135 0.11595 0.01934 0.48180 0.99938-0.82979
   4  -6   1 2646.66 280.225   4 0.19564 0.14252-0.03549-0.46591 0.99934-0.82993
  -4   6  -1 2740.67 292.549   1-0.20247-0.13461 0.03102 0.46946-0.99944 0.83082
   4   6   1 2882.60 352.736   6 0.21583 0.12211 0.02244 0.47943 0.99947-0.82907
  -4  -6  -1 2598.10 263.369   9-0.21454-0.12272-0.02297-0.47767-0.99949 0.82982
   4  -6   1 2767.54 342.712   9 0.01551 0.32170-0.54360 0.04277-0.82093 0.99009
  -5  -6  -1 451.247 308.660   4-0.03759-0.37850-0.57659 0.07676 0.79337-0.97791
   5   6   1 2218.30 280.521   7 0.24672 0.16972 0.02410 0.47703 0.99816-0.81335
   5   6   1 1750.56 297.392   6 0.22277 0.19434 0.04266 0.45924 0.99862-0.81299
  -5  -6  -1 1784.73 290.089   8-0.23563-0.18073-0.03246-0.46818-0.99850 0.81380
   6   6   1 -52.011 98.0409   7 0.27623 0.21935 0.02966 0.47147 0.99583-0.79578
   6   6   1 -226.66 137.442   6 0.23231 0.26396 0.07093 0.43099 0.99666-0.79579
  -6  -6  -1 -22.600 113.623   8-0.26187-0.23365-0.04284-0.45776-0.99653 0.79663
  -6   6  -1 -1.2339 112.705   2-0.26885-0.22764 0.03700 0.46452-0.99617 0.79644
  -7   6  -1 226.232 180.929   2-0.28722-0.28849 0.05952 0.44207-0.99335 0.77837
   9   7  -1 -74.731 125.448   7 0.63424 0.05637 0.09919 0.48504 0.87437-0.84527
   9  -7  -1 -125.23 129.346   9 0.01392 0.67693-0.54059-0.04367-0.82317 0.85111
  -9  -7   1 -177.11 133.083   8-0.57768-0.11380-0.17247-0.41143-0.89405 0.86532
  -8   7   1 44.1602 151.624   2-0.46298-0.14997 0.29071 0.29446-0.91053 0.89762
   8   7  -1 -121.31 121.396   6 0.33476 0.27760 0.42555 0.15907 0.88964-0.87634
  -8  -7   1 56.9392 129.712   4 0.01308-0.62537-0.47532-0.10802 0.86554-0.87863
   8   7  -1 125.126 117.238   7 0.63263-0.02115 0.09886 0.48534 0.87541-0.86154
   8  -7  -1 -28.546 133.323   9-0.01722 0.62897-0.48036-0.10387-0.86418 0.87690
  -8   7   1 -21.905 153.402   5-0.54081-0.07210 0.20520 0.37927-0.90434 0.89168
  -8  -7   1 -92.325 149.767   8-0.57149-0.04085-0.16983-0.41411-0.89778 0.88425
   8  -7  -1 74.9520 115.706   3 0.50005 0.11248-0.24998-0.33494 0.90963-0.89668
  -7   7   1 234.475 178.627   2-0.45704-0.07671 0.28231 0.30279-0.91540 0.91772
  -7  -7   1 -50.923 121.591   4 0.04087-0.57399-0.41618-0.16735 0.89903-0.89701
   7   7  -1 151.514 128.173   7 0.63910-0.10676 0.10016 0.48402 0.87121-0.87255
   7   7  -1 170.392 127.451   6 0.32888 0.20433 0.40132 0.18329 0.90235-0.90429
   7  -7  -1 29.9670 134.613   9-0.04616 0.57881-0.42167-0.16252-0.89783 0.89534
  -7   7   1 319.632 185.109   5-0.53821 0.00447 0.20354 0.38093-0.90593 0.90847
  -7  -7   1 84.1108 146.021   8-0.57137 0.03819-0.16978-0.41420-0.89785 0.89952
   7  -7  -1 223.535 173.952   3 0.49525 0.03799-0.24530-0.33956 0.91290-0.91523
  -6   7   1 244.805 143.962   2-0.45492 0.00036 0.27933 0.30570-0.91709 0.93465
  -6  -7   1 147.464 186.251   4 0.06636-0.52033-0.35961-0.22412 0.92593-0.90877
   6   7  -1 115.944 95.4781   6 0.32461 0.12945 0.38412 0.20045 0.91083-0.92801
   6  -7  -1 539.249 198.609   9-0.07284 0.52637-0.36524-0.21893-0.92499 0.90730
  -6   7   1 59.4506 114.355   5-0.54203 0.08744 0.20598 0.37849-0.90358 0.92133
  -6  -7   1 310.869 187.896   8-0.57917 0.12514-0.17310-0.41092-0.89315 0.91001
   6  -7  -1 319.949 161.763   3 0.49537-0.04142-0.24542-0.33936 0.91282-0.93041
  -5   7   1 189.767 133.881   2-0.45734 0.08199 0.28274 0.30222-0.91516 0.94795
  -5  -7   1 -34.895 169.993   4 0.08952-0.46428-0.30632-0.27760 0.94706-0.91474
   5   7  -1 185.769 119.938   6 0.32216 0.05274 0.37447 0.21006 0.91539-0.94781
   5  -7  -1 256.083 135.644   9-0.09716 0.47160-0.31177-0.27238-0.94643 0.91353
  -5   7   1 101.195 85.3332   5-0.55400 0.17859 0.21367 0.37080-0.89597 0.92893
  -5  -7   1 198.532 145.334   8-0.59741 0.22254-0.18092-0.40315-0.88158 0.91364
   5  -7  -1 95.7145 108.148   3 0.50153-0.12687-0.25142-0.33324 0.90861-0.94144
   4  -7  -1 692.038 180.089   4-0.01868 0.31526-0.53979-0.04441 0.82198-0.86976
  -4  -7   1 205.288 174.666   4 0.11021-0.40576-0.25706-0.32703 0.96322-0.91571
   4  -7  -1 483.571 151.728   9-0.11901 0.41436-0.26201-0.32211-0.96288 0.91478
   4   7  -1 361.805 151.556   6 0.32179-0.02606 0.37302 0.21145 0.91606-0.96371
  -4   7   1 381.107 132.520   6 0.32410-0.61948 0.38212 0.20228 0.91178-0.86330
  -4   7   1 411.785 159.731   2-0.46514 0.16898 0.29377 0.29109-0.90872 0.95675
  -4   7   1 463.507 146.067   5-0.57646 0.28022 0.22823 0.35626-0.88063 0.92882
   4  -7  -1 413.018 149.996   3 0.51511-0.21971-0.26476-0.31978 0.89885-0.94690
  -4  -7   1 164.454 130.599   8-0.62959 0.33388-0.19484-0.38927-0.85915 0.90641
  -3  -7   1 288.260 130.317   8-0.68034 0.46378-0.21715-0.36702-0.81777 0.88024
   3  -7  -1 165.245 90.3227   4 0.00134 0.21609-0.49953-0.08459 0.85010-0.91312
   3   7  -1 51.2490 108.590   1-0.16408 0.38104 0.22842 0.35593-0.97314 0.91082
  -3  -7   1 203.684 123.551   4 0.12831-0.34464-0.21266-0.37160 0.97514-0.91242
  -3   7   1 118.194 95.5608   6 0.29848-0.51476 0.28600 0.29862 0.95111-0.88742
   3   7  -1 12.9181 82.4007   6 0.32369-0.10711 0.38047 0.20392 0.91257-0.97543
   3  -7  -1 130.927 88.1259   9-0.13825 0.35452-0.21679-0.36731-0.97507 0.91177
  -3  -7   1 233.035 110.181   9-0.00872-0.20772-0.49711-0.08719-0.85347 0.91617
  -3   7   1 55.2558 78.6057   2-0.47924 0.26227 0.31396 0.27081-0.89625 0.95951
   3  -7  -1 128.453 88.0997   3 0.53776-0.32161-0.28731-0.29708 0.88104-0.94427
  -3   7   1 200.178 102.269   5-0.61236 0.39531 0.25186 0.33266-0.85296 0.91638
   2  -7  -1 2151.66 288.663   4 0.01308 0.12519-0.47531-0.10875 0.86554-0.94380
   2  -7  -1 1681.53 238.399   3 0.57129-0.43435-0.32144-0.26278 0.85072-0.92911
  -2  -7   1 1753.65 292.301   4 0.14366-0.28075-0.17397-0.41042 0.98356-0.90562
   2  -7  -1 2321.07 324.350   9-0.15473 0.29190-0.17698-0.40710-0.98370 0.90521
  -2   7   1 1650.14 244.660   6 0.27698-0.41411 0.21184 0.37297 0.97311-0.89420
   2   7  -1 1861.01 275.838   6 0.32797-0.19055 0.39758 0.18671 0.90423-0.98230
   2   7  -1 1643.97 261.116   1-0.17368 0.31149 0.18295 0.40133-0.98289 0.90537
  -2  -7   1 1507.87 239.665   9-0.02049-0.11687-0.47387-0.11040-0.86819 0.94607
  -2   7   1 2357.68 292.104   5-0.66503 0.52719 0.28746 0.29708-0.80408 0.88274
  -2   7   1 1512.27 236.657   2-0.50057 0.36278 0.34513 0.23954-0.87512 0.95362
   1   7  -1 -35.692 82.3645   6 0.33466-0.27639 0.42512 0.15907 0.88987-0.98314
   1  -7  -1 -63.134 97.5334   4 0.01837 0.04073-0.46426-0.11974 0.87225-0.96574
   1   7  -1 171.477 85.3801   2-0.37971 0.43752 0.17720 0.40725-0.96392 0.87105
  -1  -7   1 36.8590 95.8120   4 0.15608-0.21393-0.14198-0.44253 0.98918-0.89600
  -1   7   1 -5.2197 98.8157   6 0.26008-0.31804 0.15670 0.42827 0.98510-0.89094
   1  -7  -1 119.082 95.0526   9-0.16823 0.22633-0.14355-0.44053-0.98948 0.89578
  -1   7   1 8.69409 66.1003   2-0.52983 0.47121 0.38932 0.19525-0.84103 0.93476
  -1  -7   1 -121.91 112.994   9-0.02550-0.03276-0.46385-0.12042-0.87424 0.96732
   1   7  -1 30.5924 74.1567   1-0.18116 0.23981 0.14596 0.43826-0.98916 0.89646
   1  -7  -1 46.4298 68.2418   3 0.61716-0.55937-0.36990-0.21414 0.79993-0.89345
   0   7  -1 75.6702 69.0903   1-0.18658 0.16608 0.11813 0.46603-0.99292 0.88504
   0  -7  -1 145.864 85.3952   9-0.17852 0.15755-0.11758-0.46649-0.99306 0.88415
   0  -7  -1 29.8125 103.545   4 0.01844-0.03852-0.46411-0.11978 0.87233-0.98104
   0  -7   1 279.117 93.4938   3 0.36200-0.34094-0.12049-0.46437 0.97662-0.86793
   0  -7   1 48.4763 84.3605   4 0.16532-0.14393-0.11775-0.46687 0.99263-0.88422
   0   7   1 185.362 96.5309   6 0.24773-0.22651 0.11789 0.46721 0.99138-0.88196
   0   7   1 130.251 86.5945   2-0.56691 0.58747 0.44843 0.13604-0.78686 0.89581
   0   7  -1 96.5132 96.4947   6 0.34362-0.36448 0.46370 0.12036 0.86771-0.97616
   0   7  -1 189.060 74.4106   2-0.33557 0.31420 0.12008 0.46446-0.98133 0.87319
   0  -7   1 34.5468 88.3355   9-0.02509 0.04592-0.46468-0.11959-0.87374 0.98203
  -1  -7  -1 2125.00 297.979   4 0.01414-0.11342-0.47310-0.11070 0.86690-0.99082
   1  -7   1 1698.48 227.038   3 0.32051-0.22016-0.08334-0.50174 0.98752-0.86355
  -1   7  -1 1584.46 249.266   1-0.19000 0.09035 0.10016 0.48394-0.99491 0.87187
  -1  -7  -1 1636.26 248.455   9-0.18526 0.08521-0.10033-0.48374-0.99500 0.87090
  -1   7  -1 1904.37 276.751   6 0.35442-0.45439 0.51373 0.07021 0.83515-0.95875
  -1   7  -1 1730.01 236.883   2-0.30792 0.20736 0.08521 0.49942-0.98905 0.86564
   1  -7   1 1605.64 259.816   4 0.17106-0.07044-0.10250-0.48218 0.99446-0.87080
   1   7   1 1793.34 284.436   6 0.23967-0.13926 0.09313 0.49206 0.99448-0.86979
   1  -7   1 1852.92 275.835   9-0.02018 0.12009-0.47449-0.10977-0.86781 0.99130
  -2  -7  -1 3515.95 379.428   4 0.00614-0.18460-0.48971-0.09397 0.85649-0.99561
  -2   7  -1 2738.00 321.477   1-0.19138 0.01260 0.09276 0.49128-0.99563 0.85742
   2  -7   1 3485.33 370.538   4 0.17283 0.00701-0.09775-0.48699 0.99498-0.85607
  -2  -7  -1 2931.40 251.872   8-0.30911 0.13021-0.06166-0.52258-0.99077 0.85159
   2   7   1 3422.74 390.747   6 0.23550-0.05591 0.08055 0.50473 0.99578-0.85584
  -2   7  -1 3510.93 368.549   6 0.36629-0.54534 0.57505 0.00874 0.78860-0.92733
  -2   7  -1 2932.11 316.121   2-0.29252 0.11276 0.06605 0.51866-0.99237 0.85370
  -2  -7  -1 3326.14 327.566   9-0.18800 0.00887-0.09326-0.49080-0.99569 0.85639
   2  -7   1 3276.59 377.738   9-0.01146 0.19047-0.49173-0.09253-0.85696 0.99565
  -3  -7  -1 -13.996 90.3819   4-0.00512-0.25255-0.51267-0.07090 0.84127-0.99557
  -3   7  -1 206.347 131.313   1-0.19063-0.06729 0.09680 0.48720-0.99525 0.84186
   3  -7   1 171.255 103.139   4 0.16998 0.08908-0.10538-0.47941 0.99414-0.83999
   3   7   1 147.227 99.6255   6 0.23486 0.02394 0.07857 0.50677 0.99597-0.84077
  -3  -7  -1 60.5517 90.6518   9-0.18605-0.07215-0.09830-0.48577-0.99520 0.84069
   3  -7   1 194.344 125.223   9 0.00055 0.25755-0.51511-0.06916-0.84137 0.99527
  -3   7  -1 -106.70 109.303   2-0.28635 0.02739 0.05845 0.52636-0.99351 0.83958
  -3  -7  -1 131.887 75.6863   8-0.29335 0.03531-0.05536-0.52883-0.99301 0.83864
  -4  -7  -1 579.835 146.497   9-0.17835-0.15893-0.11801-0.46608-0.99300 0.82329
  -4   7  -1 400.594 145.137   1-0.18751-0.14954 0.11330 0.47066-0.99349 0.82492
  -4  -7  -1 219.817 156.030   4-0.01922-0.31764-0.54085-0.04259 0.82119-0.99066
   4  -7   1 366.207 127.259   4 0.16144 0.17680-0.12796-0.45684 0.99126-0.82189
   4   7   1 617.733 185.579   6 0.23730 0.10066 0.08597 0.49942 0.99524-0.82479
   4  -7   1 663.029 201.149   9 0.01546 0.32174-0.54350-0.04078-0.82101 0.99012
  -4   7  -1 673.208 200.019   2-0.28730-0.05086 0.05962 0.52527-0.99334 0.82416
  -4  -7  -1 506.841 166.746   8-0.29398-0.04322-0.05561-0.52853-0.99293 0.82337
  -5  -7  -1 84.1261 145.715   4-0.03585-0.38018-0.57327-0.01004 0.79607-0.98068
   5   7   1 21.8372 100.122   6 0.24249 0.17465 0.10174 0.48368 0.99348-0.80778
  -5   7  -1 120.015 101.067   1-0.18161-0.23456 0.14365 0.44028-0.98950 0.80576
   5  -7   1 138.723 104.313   9 0.03294 0.38336-0.57589-0.00840-0.79568 0.98001
  -5   7  -1 -173.40 134.376   2-0.29382-0.12353 0.06767 0.51728-0.99211 0.80768
  -5  -7  -1 40.3320 98.0997   8-0.30465-0.11170-0.05988-0.52423-0.99144 0.80668
   6  -7   1 -46.929 128.991   3 0.31155 0.18531-0.07541-0.51018 0.98940-0.78895
   6   7   1 115.839 93.4181   6 0.25006 0.24624 0.12513 0.46031 0.99034-0.78940
   6  -7   1 147.240 124.464   9 0.05273 0.44267-0.61142 0.02712-0.76510 0.96464
  -6   7  -1 -264.14 211.295   2-0.30478-0.19177 0.08128 0.50374-0.98978 0.79010
   7  -7   1 27.9745 301.162   3 0.32850 0.24767-0.09043-0.49520 0.98571-0.76997
  -7   7  -1 42.5740 187.960   2-0.31931-0.25643 0.09950 0.48559-0.98615 0.77122
  -8  -8   1 167.326 282.210   4 0.00643-0.61866-0.48911-0.17774 0.85687-0.86999
   8   8  -1 840.841 288.474   6 0.33925 0.27317 0.44462 0.22353 0.87898-0.86556
   8  -8  -1 968.941 317.929   9-0.01052 0.62225-0.49357-0.17410-0.85577 0.86846
  -8   8   1 1310.71 297.181   5-0.57176-0.04118 0.22518 0.44276-0.88395 0.87138
  -8  -8   1 427.430 249.204   8-0.60997-0.00235-0.18633-0.48107-0.87315 0.85958
  -7  -8   1 76.0754 164.101   4 0.03155-0.56462-0.43629-0.23074 0.88828-0.88628
   7   8  -1 121.741 120.542   6 0.33419 0.19908 0.42315 0.24498 0.89094-0.89277
   7  -8  -1 244.188 205.209   9-0.03673 0.56935-0.44110-0.22654-0.88733 0.88482
  -7   8   1 -153.50 142.920   5-0.57164 0.03786 0.22510 0.44284-0.88404 0.88666
  -7   8   1 258.454 218.986   2-0.47505-0.05876 0.30792 0.36068-0.90008 0.90243
   7  -8  -1 393.992 197.859   3 0.51991 0.01329-0.26951-0.39889 0.89524-0.89752
  -7  -8   1 103.743 143.649   8-0.61318 0.08002-0.18772-0.47973-0.87093 0.87256
  -6  -8   1 14.2113 216.465   4 0.05447-0.50835-0.38628-0.28094 0.91384-0.89669
   6   8  -1 822.791 256.338   6 0.33056 0.12354 0.40816 0.25995 0.89885-0.91594
   6  -8  -1 877.627 269.607   9-0.06072 0.51424-0.39116-0.27646-0.91312 0.89540
  -6   8   1 763.230 210.664   5-0.57786 0.12324 0.22915 0.43880-0.87962 0.89746
  -6   8   1 764.608 234.616   2-0.47406 0.01945 0.30649 0.36203-0.90097 0.91856
   6  -8  -1 635.120 194.215   3 0.52161-0.06772-0.27120-0.39710 0.89394-0.91148
  -6  -8   1 36.1017 146.931   8-0.62443 0.17042-0.19260-0.47490-0.86293 0.87975
   5  -8  -1 160.958 141.064   9-0.08243 0.45686-0.34438-0.32322-0.93383 0.90090
  -5   8   1 278.632 122.328   5-0.59198 0.21653 0.23840 0.42957-0.86916 0.90221
  -5   8   1 16.8830 117.031   2-0.47727 0.10186 0.31111 0.35734-0.89806 0.93090
   5  -8  -1 -59.280 113.492   3 0.52902-0.15441-0.27856-0.38962 0.88815-0.92093
  -4  -8   1 190.748 210.080   4 0.09339-0.38884-0.29721-0.37036 0.95029-0.90279
   4   8  -1 969.425 248.944   6 0.32842-0.03264 0.39941 0.26859 0.90331-0.95087
   4  -8  -1 615.448 192.281   9-0.10176 0.39710-0.30142-0.36615-0.95012 0.90199
  -4   8   1 662.143 178.226   5-0.61598 0.31971 0.25427 0.41371-0.84993 0.89821
  -4   8   1 586.747 200.976   2-0.48536 0.18914 0.32280 0.34555-0.89049 0.93857
   4  -8  -1 488.722 164.390   3 0.54326-0.24792-0.29285-0.37519 0.87640-0.92439
   3  -8  -1 218.674 134.224   4-0.00698 0.22453-0.51641-0.15116 0.83869-0.90169
   3   8  -1 225.014 145.848   6 0.33021-0.11361 0.40671 0.26121 0.89960-0.96238
  -3  -8   1 54.2387 137.263   4 0.10920-0.32541-0.25950-0.40822 0.96249-0.89978
  -3   8   1 102.712 78.5050   6 0.31227-0.52854 0.33649 0.33162 0.93204-0.86827
   3  -8  -1 208.306 120.097   9-0.11859 0.33484-0.26299-0.40456-0.96259 0.89925
  -3  -8   1 230.630 104.106   9 0.00024-0.21668-0.51451-0.15323-0.84179 0.90444
  -3   8   1 197.755 139.524   5-0.65219 0.43510 0.27866 0.38934-0.81702 0.88054
   3  -8  -1 241.494 112.568   3 0.56564-0.34953-0.31562-0.35226 0.85618-0.91937
  -3   8   1 -76.315 85.3653   2-0.49902 0.28199 0.34282 0.32545-0.87677 0.94009
   2  -8  -1 479.263 185.605   4 0.00388 0.13451-0.49433-0.17318 0.85350-0.93175
  -2  -8   1 137.110 122.543   4 0.12238-0.25936-0.22734-0.44052 0.97147-0.89354
   2  -8  -1 408.511 190.832   9-0.13276 0.26993-0.22984-0.43770-0.97182 0.89327
  -2   8   1 293.161 139.906   6 0.29409-0.43120 0.27041 0.39790 0.95631-0.87732
  -2   8   1 271.016 141.508   2-0.51890 0.38105 0.37259 0.29558-0.85454 0.93309
  -2  -8   1 147.150 102.254   9-0.01069-0.12665-0.49323-0.17449-0.85599 0.93383
   2   8  -1 287.822 137.696   6 0.33404-0.19660 0.42255 0.24527 0.89126-0.96925
   2  -8  -1 284.238 129.035   3 0.59744-0.46053-0.34878-0.31892 0.82326-0.90160
   1  -8  -1 726.092 207.420   4 0.00909 0.05011-0.48359-0.18386 0.86038-0.95387
  -1  -8   1 998.454 219.505   4 0.13276-0.19051-0.20153-0.46644 0.97775-0.88458
   1   8  -1 868.539 209.641   1-0.16882 0.22750 0.20630 0.46140-0.97817 0.88554
   1  -8  -1 856.568 205.215   9-0.14409 0.20218-0.20281-0.46471-0.97832 0.88458
  -1   8   1 631.483 168.017   6 0.27940-0.33735 0.21996 0.44851 0.97104-0.87681
  -1   8   1 808.264 196.264   2-0.54540 0.48674 0.41367 0.25441-0.81998 0.91377
   1   8  -1 957.198 225.883   6 0.33992-0.28163 0.44751 0.22019 0.87731-0.97050
  -1  -8   1 1048.50 234.774   9-0.01571-0.04255-0.48334-0.18437-0.86231 0.95535
   0  -8  -1 440.856 160.472   4 0.00964-0.02962-0.48246-0.18490 0.86109-0.96982
   0   8  -1 514.008 169.281   2-0.38694 0.36552 0.18674 0.48130-0.96041 0.85236
   0  -8   1 323.170 140.844   4 0.14011-0.11862-0.18301-0.48505 0.98175-0.87335
   0   8   1 263.670 132.461   6 0.26833-0.24710 0.18332 0.48528 0.97977-0.87028
   0   8  -1 363.525 159.757   1-0.17362 0.15316 0.18326 0.48437-0.98283 0.87502
   0  -8  -1 325.110 173.675   9-0.15233 0.13134-0.18285-0.48467-0.98255 0.87361
   0   8  -1 134.471 106.763   6 0.34770-0.36855 0.48208 0.18550 0.85628-0.96465
   0  -8   1 392.590 152.804   9-0.01587 0.03671-0.48302-0.18469-0.86251 0.97075
   1  -8   1 680.256 168.591   3 0.39024-0.28999-0.14621-0.52229 0.96699-0.84303
  -1  -8  -1 718.824 185.480   4 0.00623-0.10540-0.48952-0.17775 0.85661-0.98055
   1  -8   1 611.224 185.314   4 0.14410-0.04337-0.17285-0.49528 0.98378-0.86013
   1   8   1 687.746 170.199   6 0.26076-0.16033 0.15888 0.50983 0.98469-0.85995
  -1   8  -1 528.719 154.094   2-0.35844 0.25782 0.14943 0.51870-0.97313 0.84981
  -1   8  -1 721.802 187.447   1-0.17653 0.07693 0.16902 0.49855-0.98542 0.86244
  -1   8  -1 695.689 209.926   6 0.35704-0.45700 0.52653 0.14091 0.82607-0.94960
  -1  -8  -1 754.465 200.504   9-0.15715 0.05710-0.17102-0.49650-0.98483 0.86068
   1  -8   1 621.264 188.183   9-0.01194 0.11185-0.49079-0.17692-0.85757 0.98101
  -2  -8  -1 86.3753 113.240   4-0.00064-0.17774-0.50358-0.16359 0.84741-0.98655
   2  -8   1 58.8704 126.509   3 0.36312-0.18357-0.12150-0.54718 0.97627-0.83702
   2  -8   1 -27.527 84.9345   4 0.14430 0.03565-0.17234-0.49583 0.98387-0.84499
   2   8   1 -33.569 98.3380   6 0.25647-0.07685 0.14521 0.52357 0.98714-0.84714
  -2  -8  -1 146.449 124.046   9-0.15812-0.02101-0.16864-0.49888-0.98527 0.84591
  -2   8  -1 -52.029 107.957   1-0.17750-0.00124 0.16423 0.50329-0.98625 0.84810
  -2   8  -1 270.501 166.631   6 0.36732-0.54638 0.58082 0.08648 0.78381-0.92247
   2  -8   1 148.876 154.448   9-0.00446 0.18347-0.50540-0.16231-0.84797 0.98662
  -2   8  -1 43.0501 91.8363   2-0.34076 0.16096 0.12671 0.54151-0.97961 0.84102
  -3  -8  -1 116.220 167.570   4-0.01053-0.24705-0.52357-0.14348 0.83368-0.98802
   3  -8   1 -6.4300 84.2583   3 0.34904-0.09019-0.10881-0.56002 0.98043-0.82588
  -3  -8  -1 244.327 100.594   9-0.15458-0.10363-0.17734-0.49020-0.98363 0.82907
   3  -8   1 387.696 161.628   4 0.14007 0.11908-0.18311-0.48510 0.98173-0.82761
  -3   8  -1 116.956 131.844   2-0.33165 0.07265 0.11510 0.55320-0.98257 0.82871
   3   8   1 381.393 176.549   6 0.25518 0.00362 0.14116 0.52770 0.98783-0.83256
  -3   8  -1 61.7400 88.8864   1-0.17641-0.08146 0.16960 0.49788-0.98532 0.83200
   3  -8   1 145.159 139.614   9 0.00612 0.25197-0.52578-0.14193-0.83391 0.98776
  -4  -8  -1 865.445 300.429   4-0.02314-0.31365-0.54857-0.11835 0.81541-0.98491
   4  -8   1 760.545 213.112   3 0.34453-0.00639-0.10477-0.56419 0.98167-0.81182
   4   8   1 1021.13 232.989   6 0.25661 0.08137 0.14570 0.52320 0.98706-0.81654
  -4   8  -1 816.229 203.361   1-0.17305-0.16396 0.18605 0.48140-0.98230 0.81380
  -4   8  -1 800.971 213.841   2-0.32934-0.00886 0.11217 0.55621-0.98327 0.81416
   4  -8   1 1091.50 266.973   9 0.01947 0.31772-0.55099-0.11673-0.81535 0.98442
  -5  -8  -1 14.3390 133.705   4-0.03819-0.37779-0.57775-0.08905 0.79241-0.97707
   5  -8   1 -103.13 135.152   3 0.34726 0.07020-0.10721-0.56183 0.98092-0.79579
   5   8   1 -199.28 132.033   6 0.26051 0.15665 0.15807 0.51087 0.98485-0.79907
   5  -8   1 5.21014 139.376   9 0.03530 0.38098-0.58019-0.08754-0.79215 0.97643
  -5   8  -1 24.9466 137.242   2-0.33251-0.08489 0.11619 0.55226-0.98230 0.79793
  -5  -8  -1 -178.09 136.946   8-0.37809-0.03825-0.08947-0.57812-0.97696 0.79215
  -6   8  -1 450.108 216.546   2-0.34013-0.15646 0.12590 0.54261-0.97983 0.78021
   6  -8   1 207.356 248.418   3 0.35556 0.14121-0.11468-0.55444 0.97856-0.77812
   6  -8   1 37.5597 85.9514   9 0.05340 0.44197-0.61260-0.05516-0.76403 0.96354
  -7   9   1 24.5506 120.290   5-0.60748 0.07365 0.24862 0.50279-0.85696 0.85968
  -6  -9   1 14.0605 142.585   4 0.04108-0.49487-0.41572-0.33500 0.89927-0.88212
   6   9  -1 59.5759 117.686   6 0.33709 0.11706 0.43539 0.31625 0.88421-0.90118
   6  -9  -1 114.858 168.245   9-0.04700 0.50052-0.41994-0.33113-0.89874 0.88099
  -6   9   1 68.9643 107.753   5-0.61591 0.16125 0.25422 0.49720-0.84999 0.86792
  -6   9   1 113.275 163.423   2-0.49424 0.03958 0.33580 0.41624-0.88170 0.89933
   6  -9  -1 -43.157 116.534   3 0.54935-0.09550-0.29900-0.45282 0.87112-0.88858
  -5  -9   1 29.8461 159.530   4 0.05965-0.43423-0.37472-0.37617 0.91920-0.88689
   5   9  -1 144.728 104.748   6 0.33550 0.03949 0.42862 0.32296 0.88796-0.92017
   5  -9  -1 -132.90 180.926   9-0.06655 0.44098-0.37874-0.37230-0.91893 0.88596
  -5   9   1 95.3256 127.425   5-0.63193 0.25645 0.26495 0.48649-0.83605 0.86920
  -5   9   1 217.050 164.327   2-0.49813 0.12266 0.34150 0.41044-0.87770 0.91059
   5  -9  -1 -102.50 96.6226   3 0.55783-0.18327-0.30762-0.44406 0.86350-0.89619
   4   9  -1 647.392 231.779   6 0.33550-0.03968 0.42863 0.32288 0.88795-0.93541
  -4  -9   1 -22.448 240.499   4 0.07595-0.37130-0.33778-0.41327 0.93506-0.88755
   4  -9  -1 407.711 184.646   9-0.08380 0.37914-0.34138-0.40964-0.93505 0.88688
   4  -9  -1 575.311 202.350   3 0.57261-0.27730-0.32280-0.42873 0.84942-0.89733
  -4   9   1 356.047 137.305   2-0.50642 0.21014 0.35382 0.39805-0.86882 0.91695
   3  -9  -1 -91.074 115.220   4-0.01832 0.23599-0.53908-0.21195 0.82250-0.88549
  -3  -9   1 -27.987 139.437   4 0.08987-0.30598-0.30550-0.44569 0.94736-0.88464
  -3   9   1 -47.900 152.256   2-0.51965 0.30257 0.37374 0.37803-0.85364 0.91700
  -3   9   1 -178.56 90.4293   6 0.32483-0.54110 0.38502 0.36658 0.91039-0.84653
   3   9  -1 -216.61 149.433   6 0.33721-0.12056 0.43585 0.31559 0.88395-0.94664
   3  -9  -1 -108.52 137.346   9-0.09863 0.31489-0.30846-0.44254-0.94762 0.88425
   3  -9  -1 23.9129 126.190   3 0.59464-0.37858-0.34583-0.40553 0.82637-0.88946
   2  -9  -1 1074.46 230.942   4-0.00793 0.14644-0.51835-0.23262 0.83734-0.91558
  -2  -9   1 1014.04 262.190   4 0.10127-0.23813-0.27854-0.47277 0.95656-0.87862
   2   9  -1 876.724 217.422   6 0.34066-0.20318 0.45072 0.30062 0.87545-0.95334
  -2   9   1 872.214 207.059   6 0.30926-0.44637 0.32523 0.42656 0.93659-0.85751
  -2   9   1 886.162 232.908   2-0.53826 0.40037 0.40242 0.34925-0.82991 0.90853
   2  -9  -1 1229.85 292.226   9-0.11090 0.24807-0.28067-0.47033-0.95709 0.87852
  -2  -9   1 820.118 229.086   9 0.00182-0.13917-0.51755-0.23363-0.83969 0.91749
   2  -9  -1 1498.75 314.530   3 0.62482-0.48794-0.37823-0.37295 0.79018-0.86844
   1  -9  -1 708.019 217.437   4-0.00262 0.06195-0.50760-0.24330 0.84471-0.93819
  -1  -9   1 679.686 208.616   4 0.10997-0.16759-0.25763-0.49378 0.96305-0.86988
  -1   9   1 654.765 209.967   6 0.29642-0.35436 0.27867 0.47329 0.95359-0.85928
  -1   9   1 745.391 226.203   2-0.56243 0.50371 0.44104 0.31052-0.79421 0.88806
   1   9  -1 646.103 217.276   6 0.34584-0.28753 0.47368 0.27755 0.86158-0.95468
   1  -9  -1 884.940 241.713   9-0.12043 0.17852-0.25872-0.49227-0.96386 0.87007
  -1  -9   1 488.810 171.780   9-0.00338-0.05487-0.50750-0.24366-0.84656 0.93956
   0  -9  -1 330.804 170.058   4-0.00156-0.01831-0.50545-0.24537 0.84615-0.95487
   0  -9   1 445.535 192.620   4 0.11576-0.09414-0.24358-0.50792 0.96710-0.85869
   0   9   1 782.797 252.019   6 0.28649-0.26525 0.24402 0.50808 0.96441-0.85485
   0   9  -1 204.806 116.056   6 0.35263-0.37346 0.50510 0.24601 0.84110-0.94938
   0  -9  -1 451.443 204.547   9-0.12698 0.10600-0.24344-0.50753-0.96820 0.85921
   0  -9   1 266.898 174.766   9-0.00414 0.02497-0.50603-0.24512-0.84755 0.95575
  -1  -9  -1 385.333 176.633   4-0.00418-0.09490-0.51076-0.23999 0.84257-0.96651
  -1   9  -1 229.372 122.572   1-0.16322 0.06364 0.23239 0.51867-0.97218 0.84927
  -1   9  -1 521.406 142.298   2-0.40441 0.30375 0.21001 0.54161-0.95114 0.82790
   1  -9   1 225.815 135.518   4 0.11832-0.01748-0.23732-0.51424 0.96882-0.84517
   1   9   1 217.013 163.505   6 0.27944-0.17901 0.22009 0.53212 0.97101-0.84618
  -1   9  -1 424.383 196.940   6 0.36072-0.46068 0.54519 0.20577 0.81225-0.93570
   1  -9   1 304.229 172.707   9-0.00110 0.10100-0.51193-0.23922-0.84356 0.96696
  -1  -9  -1 191.724 123.033   9-0.13023 0.03017-0.23580-0.51518-0.97026 0.84606
   2  -9   1 1147.58 246.155   3 0.42391-0.24447-0.17735-0.57475 0.95297-0.81371
  -2  -9  -1 1498.43 300.283   4-0.01000-0.16828-0.52252-0.22813 0.83443-0.97358
  -2   9  -1 1100.87 256.799   1-0.16382-0.01489 0.22963 0.52137-0.97285 0.83477
   2  -9   1 923.381 261.499   4 0.11723 0.06283-0.23998-0.51162 0.96809-0.82920
  -2   9  -1 1393.52 262.341   2-0.38544 0.20559 0.18475 0.56697-0.96116 0.82265
   2   9   1 1259.40 269.172   6 0.27517-0.09555 0.20581 0.54648 0.97460-0.83452
  -2   9  -1 675.286 216.718   6 0.36960-0.54867 0.59392 0.15690 0.77263-0.91122
   2  -9   1 1121.19 291.011   9 0.00527 0.17372-0.52416-0.22699-0.83506 0.97366
  -2  -9  -1 975.047 231.452   9-0.12975-0.04938-0.23693-0.51405-0.96996 0.83056
   3  -9   1 79.4184 119.131   3 0.40569-0.14695-0.16042-0.59185 0.96091-0.80637
  -3  -9  -1 117.526 136.928   4-0.01871-0.23879-0.53984-0.21069 0.82194-0.97628
   3  -9   1 100.000 169.484   4 0.11189 0.14737-0.25298-0.49864 0.96442-0.81029
  -3   9  -1 44.0420 86.9519   2-0.37425 0.11521 0.17003 0.58176-0.96643 0.81265
   3   9   1 -11.513 113.159   6 0.27350-0.01468 0.20026 0.55209 0.97593-0.82059
  -3  -9  -1 320.496 157.753   9-0.12491-0.13329-0.24828-0.50273-0.96686 0.81225
   3  -9   1 195.428 176.523   9 0.01458 0.24349-0.54184-0.20932-0.82224 0.97606
  -4  -9  -1 142.393 220.462   4-0.03000-0.30671-0.56196-0.18846 0.80509-0.97462
   4  -9   1 366.729 174.677   3 0.39691-0.05887-0.15233-0.60008 0.96444-0.79459
  -4   9  -1 500.952 166.630   2-0.36948 0.03123 0.16378 0.58809-0.96855 0.79951
   4   9   1 283.139 156.157   6 0.27422 0.06378 0.20266 0.54975 0.97536-0.80476
   4  -9   1 548.559 253.283   9 0.02655 0.31063-0.56415-0.18702-0.80513 0.97416
   5  -9   1 134.761 125.114   3 0.39546 0.02189-0.15099-0.60153 0.96500-0.77985
  -5   9  -1 80.6275 175.783   2-0.36997-0.04746 0.16443 0.58752-0.96833 0.78403
   5   9   1 109.132 146.021   6 0.27713 0.14005 0.21234 0.54011 0.97299-0.78713
   5  -9   1 -233.50 198.137   9 0.04092 0.37534-0.59036-0.16081-0.78360 0.96785
   6  -9   1 250.989 232.823   3 0.39978 0.09688-0.15498-0.59764 0.96331-0.76284
   5 -10  -1 81.4250 120.013   3 0.58744-0.21292-0.33824-0.49695 0.83419-0.86678
  -4  10   1 102.381 146.419   2-0.52789 0.23158 0.38634 0.44902-0.84349 0.89167
   4 -10  -1 276.462 205.742   3 0.60256-0.30730-0.35422-0.48080 0.81743-0.86523
   3 -10  -1 543.515 243.853   9-0.07830 0.29453-0.35342-0.48104-0.93008 0.86667
  -3 -10   1 42.3715 196.506   4 0.07022-0.28622-0.35088-0.48378 0.92966-0.86693
  -3  10   1 162.119 181.767   2-0.54067 0.32355 0.40620 0.42906-0.82662 0.89004
   3  10  -1 342.221 136.537   6 0.34438-0.12771 0.46710 0.36786 0.86564-0.92822
   2 -10  -1 181.791 102.963   4-0.02173 0.16036-0.54579-0.28863 0.81751-0.89571
  -2 -10   1 245.767 220.984   4 0.08011-0.21686-0.32820-0.50657 0.93886-0.86090
  -2  10   1 402.426 214.481   2-0.55809 0.42015 0.43399 0.40118-0.80107 0.87974
  -2  10   1 425.954 186.039   6 0.32294-0.46005 0.37754 0.45775 0.91395-0.83477
   2  10  -1 416.995 261.763   6 0.34750-0.21000 0.48118 0.35368 0.85685-0.93464
   2 -10  -1 58.7944 152.425   9-0.08896 0.22612-0.33002-0.50442-0.93956 0.86094
  -2 -10   1 330.349 191.649   9 0.01640-0.15374-0.54526-0.28937-0.81969 0.89746
   1 -10  -1 826.367 268.652   4-0.01620 0.07564-0.53488-0.29949 0.82558-0.91903
  -1 -10   1 691.993 259.204   4 0.08740-0.14491-0.31127-0.52358 0.94526-0.85208
   1 -10  -1 831.599 239.963   9-0.09696 0.15504-0.31221-0.52223-0.94627 0.85244
  -1  10   1 1069.13 281.349   6 0.31167-0.36959 0.33421 0.50123 0.93298-0.83857
  -1 -10   1 663.466 250.351   9 0.01091-0.06917-0.53491-0.29970-0.82734 0.92031
   1  10  -1 687.996 214.677   6 0.35208-0.29375 0.50253 0.33222 0.84284-0.93584
   0 -10  -1 112.740 153.913   4-0.01463-0.00513-0.53176-0.30255 0.82784-0.93654
   0 -10   1 175.979 179.696   4 0.09186-0.07014-0.30081-0.53412 0.94903-0.84061
   0 -10  -1 85.3036 112.838   9-0.10207 0.08108-0.30072-0.53371-0.95036 0.84133
   0  10   1 -51.884 119.926   6 0.30275-0.28150 0.30135 0.53423 0.94567-0.83602
   0  10  -1 169.703 164.420   6 0.35801-0.37883 0.53141 0.30321 0.82252-0.93071
   0 -10   1 146.022 173.690   9 0.00956 0.01126-0.53234-0.30227-0.82921 0.93737
  -1 -10  -1 890.005 257.984   4-0.01650-0.08247-0.53547-0.29876 0.82515-0.94907
   1 -10   1 804.721 243.710   4 0.09321 0.00775-0.29764-0.53733 0.95014-0.82647
   1  10   1 703.104 227.791   6 0.29624-0.19579 0.27803 0.55767 0.95381-0.82890
  -1 -10  -1 671.216 247.939   9-0.10398 0.00392-0.29641-0.53803-0.95186 0.82762
  -1  10  -1 755.104 232.099   6 0.36501-0.46497 0.56799 0.26650 0.79438-0.91773
   1 -10   1 567.680 192.575   9 0.01178 0.08813-0.53655-0.29805-0.82614 0.94951
  -2 -10  -1 383.193 241.318   4-0.02141-0.15678-0.54517-0.28897 0.81798-0.95712
  -2  10  -1 710.627 214.057   2-0.42712 0.24724 0.24079 0.59442-0.93724 0.79880
   2 -10   1 938.535 300.557   4 0.09102 0.08914-0.30278-0.53224 0.94833-0.80942
   2  10   1 784.425 245.707   6 0.29209-0.11245 0.26342 0.57237 0.95854-0.81837
  -2 -10  -1 534.371 220.652   9-0.10227-0.07687-0.30028-0.53416-0.95052 0.81108
  -2  10  -1 -12.500 76.8442   6 0.37263-0.55171 0.61221 0.22213 0.75632-0.89482
   2 -10   1 503.101 216.562   9 0.01715 0.16184-0.54666-0.28794-0.81863 0.95721
  -3 -10  -1 -352.80 181.235   4-0.02905-0.22836-0.56011-0.27391 0.80654-0.96088
  -3  10  -1 -40.517 124.713   2-0.41454 0.15545 0.22365 0.61164-0.94521 0.79150
   3  10   1 -107.46 163.674   6 0.29019-0.03136 0.25681 0.57906 0.96060-0.80516
   3 -10   1 -255.88 179.051   9 0.02533 0.23274-0.56191-0.27270-0.80690 0.96069
   4 -10   1 -67.127 94.1297   3 0.44803-0.11009-0.19999-0.63587 0.94110-0.77122
  -4  10  -1 314.519 187.156   2-0.40789 0.06960 0.21468 0.62068-0.94915 0.78017
   5 -10   1 47.6324 128.704   3 0.44309-0.02585-0.19533-0.64065 0.94366-0.75847
   1 -11  -1 123.034 178.947   4-0.03132 0.09088-0.56451-0.35333 0.80308-0.89650
  -1  11   1 72.3886 143.488   6 0.32545-0.38337 0.38750 0.53143 0.90920-0.81468
  -1 -11   1 -77.606 131.764   9 0.02682-0.08508-0.56466-0.35340-0.80473 0.89766
   0 -11   1 502.157 262.594   9 0.02488-0.00406-0.56107-0.35698-0.80756 0.91569
   0 -11  -1 412.010 236.018   9-0.07730 0.05632-0.35557-0.56231-0.92916 0.82010
   1 -11   1 34.3999 136.668   4 0.06841 0.03266-0.35497-0.56343 0.92792-0.80422
  -1 -11  -1 -9.9444 138.161   9-0.07803-0.02202-0.35399-0.56391-0.92984 0.80557
  -1  11  -1 43.9706 145.620   6 0.36957-0.46953 0.59380 0.32421 0.77274-0.89598
  11   0  -2 -45.492 144.788   7 0.63727 0.19088 0.09980-0.10037 0.87241-0.92166
 -11   0   2 131.222 162.337   5-0.62996-0.19958 0.26363-0.26310-0.83781 0.88779
 -11   0   2 52.8329 167.567   8-0.63402-0.19525-0.19678 0.19719-0.85584 0.90544
  10   0  -2 245.808 134.365   7 0.62440 0.12461 0.09721-0.09776 0.88061-0.94510
 -10   0   2 170.166 150.486   5-0.61704-0.13334 0.25497-0.25447-0.84904 0.91421
 -10   0   2 505.634 179.247   8-0.62106-0.12907-0.19113 0.19153-0.86536 0.93016
   9   0  -2 232.461 128.974   7 0.61645 0.05343 0.09562-0.09613 0.88550-0.96521
   9   0  -2 -61.042 80.8118   3 0.59828 0.07176-0.34968 0.35000 0.82231-0.90258
  -9   0   2 -54.518 94.4135   5-0.60872-0.06249 0.24944-0.24898-0.85595 0.93632
  -9   0   2 108.211 103.285   8-0.61287-0.05810-0.18759 0.18795-0.87114 0.95115
   8   0  -2 210.535 98.6405   7 0.61502-0.02428 0.09533-0.09580 0.88636-0.98129
  -8   0   2 -149.57 134.668   2-0.57614-0.01526 0.46383-0.46344-0.77093 0.86626
   8   0  -2 333.938 116.598   3 0.59538-0.00456-0.34660 0.34691 0.82556-0.92107
  -8   0   2 313.685 135.204   5-0.60648 0.01446 0.24796-0.24753-0.85777 0.95334
  -8   0   2 324.595 130.720   8-0.61100 0.01918-0.18678 0.18712-0.87244 0.96765
   7   0  -2 74.1989 64.3796   7 0.62237-0.11077 0.09680-0.09724 0.88187-0.99199
   7   0  -2 26.2444 63.2961   3 0.59976-0.08814-0.35123 0.35152 0.82064-0.93137
  -7   0   2 136.760 103.933   5-0.61233 0.09948 0.25184-0.25144-0.85298 0.96377
  -7   0   2 37.8723 78.8781   8-0.61759 0.10494-0.18963 0.18995-0.86783 0.97826
   6   0  -2 1029.05 168.998   7 0.64175-0.20925 0.10070-0.10109 0.86947-0.99477
   6   0  -2 291.693 47.2939   1-0.21046 0.64409-0.01654 0.01653-0.99970 0.87428
  -6   0   2 756.942 95.8795   4 0.21146-0.64519 0.00925-0.00885 0.99977-0.87370
  -6   0   2 1101.80 182.860   5-0.62898 0.19533 0.26296-0.26259-0.83869 0.96470
  -6   0   2 935.338 155.813   8-0.63565 0.20216-0.19748 0.19777-0.85462 0.98027
  -5   0   2 -36.509 52.9565   8-0.66918 0.31486-0.21220 0.21245-0.82756 0.96844
   5   0  -2 7.22839 39.9725   7 0.67761-0.32422 0.10797-0.10832 0.84415-0.98461
  -5   0   2 13.5377 32.5071   4 0.30278-0.65747 0.30116-0.30093 0.94573-0.80438
   5   0  -2 19.9347 34.8209   9-0.30951 0.66315 0.26322-0.26322-0.95603 0.81491
  -5   0   2 76.7721 78.5618   5-0.65988 0.30543 0.28392-0.28359-0.80935 0.95059
   4   0  -2 15826.3 608.378   7 0.73544-0.46110 0.11984-0.12016 0.79584-0.95145
  -4   0   2 15912.3 719.307   8-0.72275 0.44760-0.23619 0.23642-0.77638 0.93248
 -12   1   2 33.0329 156.893   8-0.66946-0.23901-0.21233 0.29622-0.82732 0.86178
 -11   1   2 65.1426 142.346   8-0.65390-0.17543-0.20547 0.28934-0.84032 0.88997
  11   1  -2 85.5617 126.654   7 0.63252 0.19563 0.09884-0.01589 0.87548-0.92470
  11  -1  -2 -28.437 119.839   7 0.64915 0.17901 0.10219-0.18629 0.86450-0.91378
 -11   1   2 -69.909 133.834   5-0.61337-0.21618 0.25253-0.16854-0.85212 0.90213
 -11  -1   2 257.952 175.051   8-0.62185-0.20738-0.19148 0.10844-0.86479 0.91434
  10   1  -2 972.575 235.345   7 0.61945 0.12955 0.09621-0.01324 0.88367-0.94813
  10  -1  -2 1376.73 286.877   7 0.63716 0.11187 0.09977-0.18383 0.87248-0.93700
  10  -1  -2 902.664 227.212   3 0.58315 0.16623-0.33375 0.25059 0.83872-0.90384
 -10  -1   2 1522.72 305.119   5-0.64364-0.10675 0.27285-0.35583-0.82525 0.89039
 -10   1   2 1131.24 261.538   5-0.59970-0.15069 0.24347-0.15952-0.86319 0.92839
 -10  -1   2 994.274 243.931   8-0.60829-0.14179-0.18561 0.10255-0.87430 0.93905
 -10   1   2 1162.90 262.540   8-0.64230-0.10788-0.20039 0.28424-0.84952 0.91437
   9   1  -2 -51.300 81.2364   7 0.61117 0.05868 0.09457-0.01155 0.88866-0.96834
   9  -1  -2 33.6947 89.1964   7 0.63031 0.03957 0.09839-0.18241 0.87689-0.95664
  -9   1   2 34.2081 81.9776   2-0.55049-0.12023 0.42176-0.33779-0.81260 0.89279
   9  -1  -2 -38.899 112.579   3 0.57335 0.09680-0.32356 0.24039 0.84869-0.92909
  -9  -1   2 104.856 113.217   5-0.63745-0.03376 0.26866-0.35167-0.83103 0.91137
  -9   1   2 -89.081 115.272   5-0.59028-0.08093 0.23727-0.15334-0.87046 0.95085
  -9  -1   2 166.406 129.617   8-0.59923-0.07169-0.18171 0.09862-0.88038 0.96033
  -9   1   2 154.566 153.005   8-0.63588-0.03514-0.19758 0.28141-0.85445 0.93451
   8   1  -2 -1.3473 74.4151   7 0.60923-0.01851 0.09418-0.01113 0.88982-0.98470
   8  -1  -2 268.234 119.269   7 0.63031-0.03956 0.09839-0.18236 0.87689-0.97184
  -8   1   2 115.582 103.279   2-0.54458-0.04693 0.41237-0.32844-0.82114 0.91655
   8   1  -2 115.743 101.515   3 0.63526-0.04453-0.38972 0.47346 0.77620-0.87155
  -8  -1   2 152.089 109.971   5-0.63804 0.04602 0.26906-0.35211-0.83048 0.92603
   8  -1  -2 129.546 104.837   3 0.56850 0.02241-0.31856 0.23537 0.85344-0.94909
  -8   1   2 146.735 112.926   5-0.58643-0.00560 0.23475-0.15085-0.87335 0.96895
  -8  -1   2 59.9611 90.7615   8-0.59610 0.00433-0.18036 0.09724-0.88244 0.97760
  -8   1   2 60.1279 106.674   8-0.63634 0.04448-0.19779 0.28159-0.85410 0.94937
  -7  -1   2 1555.33 186.905   4 0.12972-0.64245-0.20914 0.12624 0.97598-0.86515
   7   1  -2 1357.30 214.973   7 0.61579-0.10420 0.09549-0.01242 0.88590-0.99598
   7  -1  -2 1223.46 195.832   7 0.63955-0.12791 0.10025-0.18418 0.87092-0.98107
  -7   1   2 1662.84 228.511   2-0.54400 0.03168 0.41145-0.32755-0.82196 0.93259
   7  -1  -2 1391.70 149.512   9-0.13200 0.64384-0.23162 0.14817-0.97136 0.86047
   7  -1  -2 1349.21 208.380   3 0.57010-0.05841-0.32021 0.23702 0.85189-0.96275
  -7  -1   2 1718.81 235.674   5-0.64769 0.13486 0.27560-0.35868-0.82139 0.93215
  -7   1   2 1594.42 231.609   5-0.58992 0.07706 0.23704-0.15316-0.87073 0.98155
  -7  -1   2 1311.13 216.800   8-0.60084 0.08823-0.18240 0.09925-0.87932 0.98969
  -7   1   2 1360.79 205.242   8-0.64605 0.13335-0.20203 0.28581-0.84659 0.95708
  -6   1   2 150.833 89.3056   8-0.66827 0.23473-0.21180 0.29556-0.82835 0.95406
   6   1  -2 -5.6975 51.4653   7 0.63393-0.20146 0.09912-0.01604 0.87457-0.99984
   6  -1  -2 2.15264 56.5830   7 0.66140-0.22889 0.10467-0.18854 0.85599-0.98132
  -6   1   2 42.3093 29.9345   4 0.19986-0.63359-0.02365 0.10752 0.99967-0.87357
  -6  -1   2 51.0847 43.4285   4 0.20557-0.63928-0.00754-0.07556 0.99987-0.87386
   6   1  -2 2.37025 27.1579   1-0.20551 0.63915 0.01327 0.07020-0.99981 0.87444
  -6   1   2 83.1654 73.6154   2-0.55013 0.11700 0.42119-0.33733-0.81313 0.93896
   6   1  -2 21.4653 21.5977   9-0.18510 0.61788-0.10074 0.18420-0.99495 0.86896
   6  -1  -2 42.8281 46.1473   9-0.21068 0.64341-0.03339-0.05004-0.99928 0.87325
   6  -1  -2 9.46887 50.7757   3 0.58005-0.14756-0.33051 0.24732 0.84193-0.96799
  -6  -1   2 120.717 91.2788   5-0.66939 0.23576 0.29047-0.37358-0.79951 0.92550
  -6   1   2 357.473 121.694   5-0.60314 0.16947 0.24575-0.16190-0.86046 0.98650
  -6  -1   2 84.1152 84.0921   8-0.61619 0.18274-0.18903 0.10584-0.86882 0.99441
  -5   1   2 213.897 101.419   8-0.70712 0.35277-0.22913 0.31286-0.79245 0.93339
   5   1  -2 10.1469 41.6702   7 0.66791-0.31454 0.10599-0.02288 0.85132-0.99174
   5  -1  -2 69.6271 61.4439   7 0.70046-0.34703 0.11262-0.19645 0.82626-0.96675
   5   1  -2 -0.0404 27.1132   1-0.24470 0.59907-0.26941 0.35285-0.96124 0.82064
  -5   1   2 76.7560 70.6676   2-0.56441 0.21048 0.44431-0.36050-0.79098 0.93199
  -5  -1   2 -9.4509 39.0347   4 0.27116-0.62577 0.19217-0.27546 0.97780-0.83652
   5  -1  -2 18.5760 37.6495   9-0.27969 0.63333 0.16612-0.24954-0.98163 0.84046
  -5   1   2 103.495 72.7180   5-0.62924 0.27475 0.26313-0.17931-0.83846 0.97973
  -5  -1   2 14.6744 54.0068   8-0.64585 0.29157-0.20194 0.11872-0.84675 0.98756
  -4  -1   2 514.783 113.443   8-0.69432 0.41921-0.22338 0.14013-0.80488 0.96092
   4   1  -2 446.382 100.018   7 0.72310-0.44879 0.11728-0.03414 0.80702-0.96260
   4  -1  -2 359.298 102.295   7 0.76192-0.48754 0.12536-0.20913 0.77003-0.92568
   4  -1  -2 486.939 134.189   3 0.63404-0.35987-0.38837 0.30517 0.77788-0.93423
  -4   1   2 483.211 98.2752   5-0.67177 0.39650 0.29211-0.20831-0.79699 0.95350
 -11   2   2 182.571 162.890   8-0.68204-0.14734-0.21790 0.38524-0.81624 0.86595
  11   2  -2 -76.206 159.355   7 0.63459 0.19354 0.09925 0.06722 0.87415-0.92332
  11  -2  -2 135.576 154.899   7 0.66839 0.15977 0.10609-0.27369 0.85097-0.90027
  11  -2  -2 -153.97 176.965   3 0.58226 0.24648-0.33282 0.16613 0.83964-0.88954
 -11   2   2 -97.307 119.109   5-0.60423-0.22532 0.24647-0.07903-0.85958 0.90963
 -11  -2   2 248.992 193.544   8-0.61678-0.21242-0.18928 0.02280-0.86841 0.91791
 -10   2   2 -163.64 128.082   8-0.67266-0.07756-0.21374 0.38106-0.82456 0.88947
  10   2  -2 -25.827 98.7453   7 0.62193 0.12704 0.09671 0.06979 0.88215-0.94655
  10  -2  -2 -60.592 109.424   7 0.65797 0.09105 0.10398-0.27153 0.85841-0.92294
  10  -2  -2 272.736 164.264   3 0.56845 0.18104-0.31851 0.15180 0.85349-0.91870
 -10   2   2 -15.739 102.434   5-0.59050-0.15989 0.23742-0.07001-0.87029 0.93554
 -10  -2   2 -50.078 111.655   8-0.60326-0.14678-0.18344 0.01693-0.87770 0.94241
   9   2  -2 243.545 147.083   7 0.61405 0.05577 0.09514 0.07138 0.88694-0.96657
   9  -2  -2 15.5053 83.3871   7 0.65306 0.01683 0.10298-0.27048 0.86182-0.94158
  -9   2   2 -91.220 112.937   2-0.53112-0.13970 0.39132-0.22379-0.83936 0.91961
  -9  -2   2 39.7804 107.746   5-0.67767 0.00647 0.29620-0.46270-0.79060 0.87092
   9  -2  -2 254.674 126.034   3 0.55819 0.11205-0.30798 0.14128 0.86317-0.94366
  -9   2   2 138.919 102.816   5-0.58080-0.09042 0.23106-0.06368-0.87750 0.95793
  -9  -2   2 170.922 128.652   8-0.59410-0.07678-0.17950 0.01295-0.88374 0.96364
  -8   2   2 101.912 112.406   8-0.67300 0.08109-0.21389 0.38117-0.82426 0.91960
   8   2  -2 156.342 101.877   7 0.61244-0.02176 0.09482 0.07173 0.88791-0.98274
   8  -2  -2 28.7720 73.7966   7 0.65546-0.06469 0.10347-0.27092 0.86016-0.95513
  -8   2   2 160.102 101.543   2-0.52432-0.06729 0.38086-0.21337-0.84795 0.94342
  -8  -2   2 175.096 131.885   5-0.68249 0.09048 0.29955-0.46609-0.78527 0.88080
   8  -2  -2 12.2826 74.3308   3 0.55247 0.03852-0.30216 0.13546 0.86835-0.96410
  -8   2   2 27.5402 80.0590   5-0.57632-0.01573 0.22814-0.06078-0.88073 0.97637
  -8  -2   2 262.889 124.079   8-0.59061-0.00112-0.17801 0.01142-0.88598 0.98109
  -7  -2   2 1684.69 200.160   4 0.13799-0.65073-0.18835 0.02198 0.98064-0.86987
   7   2  -2 1531.20 228.609   7 0.61919-0.10764 0.09617 0.07040 0.88383-0.99386
   7  -2  -2 1419.12 211.006   7 0.66769-0.15604 0.10595-0.27334 0.85148-0.96164
   7  -2  -2 1483.76 180.075   9-0.14277 0.65458-0.20596 0.03907-0.97761 0.86670
   7  -2  -2 1496.60 223.475   3 0.55256-0.04081-0.30226 0.13556 0.86827-0.97924
  -7   2   2 1328.34 205.371   2-0.52228 0.00987 0.37775-0.21031-0.85045 0.96113
  -7   2   2 1809.35 243.947   5-0.57863 0.06576 0.22965-0.06231-0.87907 0.98993
  -7   2   2 1873.30 261.572   8-0.68716 0.17442-0.22018 0.38744-0.81157 0.92212
  -7  -2   2 1453.57 227.301   8-0.59459 0.08202-0.17971 0.01310-0.88342 0.99374
  -6   2   2 812.607 211.998   8-0.71489 0.28131-0.23263 0.39987-0.78458 0.91036
   6   2  -2 527.026 123.895   7 0.63723-0.20480 0.09979 0.06679 0.87243-0.99764
   6   2  -2 196.989 74.5992   1-0.19883 0.63247 0.05181 0.11516-0.99860 0.87328
  -6  -2   2 591.610 112.612   4 0.19508-0.62874-0.03704-0.12956 0.99929-0.87333
   6  -2  -2 541.408 112.464   9-0.20216 0.63486-0.05618-0.11069-0.99840 0.87234
   6  -2  -2 658.093 213.959   3 0.56011-0.12759-0.30995 0.14326 0.86140-0.98757
  -6   2   2 515.124 129.147   2-0.52620 0.09300 0.38375-0.21636-0.84561 0.97150
  -6   2   2 477.167 156.196   5-0.58983 0.15614 0.23697-0.06966-0.87080 0.99688
  -6  -2   2 550.957 139.908   8-0.60852 0.17510-0.18571 0.01906-0.87414 0.99968
   5   2  -2 47.3529 49.2277   7 0.67059-0.31726 0.10654 0.06005 0.84936-0.98972
   5  -2  -2 32.4505 56.2166   7 0.73660-0.38314 0.12008-0.28736 0.79477-0.93528
  -5  -2   2 89.9753 61.8065   4 0.24600-0.60053 0.11206-0.27887 0.99216-0.85096
   5  -2  -2 -9.9111 48.5898   9-0.25557 0.60919 0.09296-0.25982-0.99343 0.85221
  -5   2   2 143.638 76.0537   2-0.53741 0.18339 0.40110-0.23377-0.83106 0.97214
   5   2  -2 10.1126 32.6027   1-0.22949 0.58389-0.14397 0.31089-0.98885 0.84832
   5  -2  -2 31.3008 57.7368   3 0.57708-0.22375-0.32743 0.16078 0.84495-0.98628
  -5   2   2 96.3111 57.5309   5-0.61269 0.25818 0.25208-0.08478-0.85268 0.99400
  -5  -2   2 119.027 73.3038   8-0.63574 0.28149-0.19753 0.03083-0.85454 0.99530
  -4  -2   2 324.348 94.3735   8-0.68043 0.40534-0.21718 0.05046-0.81769 0.97367
   4   2  -2 414.174 111.566   7 0.72426-0.45000 0.11752 0.04908 0.80599-0.96150
  -4   2   2 457.826 119.530   2-0.55711 0.28227 0.43241-0.26514-0.80259 0.95887
  -4  -2   2 393.989 107.150   4 0.28969-0.56502 0.25473-0.42171 0.96122-0.80473
   4  -2  -2 294.356 86.2123   9-0.30176 0.57629 0.23718-0.40404-0.96405 0.80767
  -3  -2   2 -160.95 182.240   8-0.74621 0.55031-0.24692 0.08016-0.75019 0.92140
  11   3  -2 75.0061 122.936   7 0.64313 0.18495 0.10098 0.14903 0.86855-0.91765
  11  -3  -2 -142.49 129.497   7 0.69511 0.13304 0.11153-0.36263 0.83058-0.87988
  11  -3  -2 102.105 143.660   3 0.57461 0.25423-0.32487 0.07460 0.84743-0.89740
 -11   3   2 -81.764 131.519   5-0.60166-0.22791 0.24477 0.00612-0.86164 0.91173
  10   3  -2 619.153 214.868   7 0.63145 0.11748 0.09862 0.15140 0.87617-0.94051
  10  -3  -2 274.859 149.784   7 0.68699 0.06202 0.10987-0.36091 0.83698-0.90151
 -10   3   2 576.779 184.857   2-0.53044-0.21967 0.39027-0.13913-0.84024 0.90531
  10  -3  -2 313.532 162.073   3 0.56115 0.18842-0.31102 0.06074 0.86042-0.92570
 -10   3   2 621.378 196.709   5-0.58838-0.16201 0.23603 0.01483-0.87189 0.93717
 -10  -3   2 201.079 179.131   8-0.60524-0.14476-0.18429-0.06568-0.87637 0.94103
   9   3  -2 -147.93 133.568   7 0.62459 0.04519 0.09725 0.15279 0.88049-0.96005
   9  -3  -2 41.8210 98.4271   7 0.68485-0.01496 0.10943-0.36042 0.83863-0.91840
  -9   3   2 -4.8025 93.3734   2-0.52001-0.15089 0.37429-0.12320-0.85320 0.93349
   9  -3  -2 13.9061 96.3760   3 0.55107 0.11924-0.30075 0.05047 0.86960-0.95016
  -9   3   2 136.771 90.4559   5-0.57903-0.09220 0.22991 0.02094-0.87878 0.95927
  -9  -3   2 -44.225 112.663   8-0.59660-0.07425-0.18058-0.06943-0.88211 0.96197
  -8   3   2 1094.95 252.797   8-0.72141 0.12945-0.23559 0.48633-0.77779 0.87320
   8   3  -2 672.100 180.777   7 0.62406-0.03341 0.09714 0.15291 0.88083-0.97560
   8  -3  -2 801.254 181.998   7 0.69059-0.09983 0.11060-0.36154 0.83416-0.92913
  -8   3   2 611.554 178.684   2-0.51306-0.07863 0.36377-0.11274-0.86136 0.95687
  -8   3   2 784.898 194.268   5-0.57465-0.01742 0.22705 0.02377-0.88192 0.97761
   8  -3  -2 1119.51 215.363   3 0.54523 0.04582-0.29484 0.04458 0.87471-0.97053
  -8  -3   2 940.243 204.111   8-0.59349 0.00179-0.17924-0.07080-0.88414 0.97920
  -7   3   2 -152.02 198.799   8-0.74113 0.22835-0.24459 0.49532-0.75608 0.86671
   7   3  -2 558.964 167.846   7 0.63184-0.12033 0.09870 0.15135 0.87591-0.98587
   7  -3  -2 495.586 145.348   7 0.70685-0.19519 0.11394-0.36480 0.82099-0.93116
  -7  -3   2 231.281 161.860   4 0.13645-0.64918-0.19225-0.05762 0.97980-0.86908
   7  -3  -2 353.633 121.342   9-0.14256 0.65435-0.20648-0.04387-0.97749 0.86656
   7   3  -2 162.821 90.0408   6 0.36957 0.14219 0.59374-0.34369 0.77278-0.88387
  -7   3   2 453.204 151.537   2-0.51044-0.00205 0.35983-0.10886-0.86434 0.97507
  -7   3   2 668.237 180.810   5-0.57666 0.06376 0.22836 0.02244-0.88048 0.99139
   7  -3  -2 503.111 152.869   3 0.54474-0.03295-0.29434 0.04410 0.87514-0.98618
  -7  -3   2 534.978 163.016   8-0.59757 0.08503-0.18099-0.06909-0.88148 0.99175
   6   3  -2 1651.26 228.094   7 0.65075-0.21836 0.10252 0.14755 0.86341-0.98854
  -6  -3   2 1556.13 213.638   4 0.18245-0.61606-0.07181-0.17829 0.99733-0.87142
   6  -3  -2 2189.57 259.775   7 0.73707-0.30450 0.12018-0.37097 0.79433-0.91968
  -6   3   2 1657.46 234.052   2-0.51314 0.07986 0.36390-0.11298-0.86126 0.98720
   6   3  -2 1951.20 244.639   6 0.36683 0.06581 0.57809-0.32807 0.78609-0.91237
   6  -3  -2 2038.90 248.382   9-0.19051 0.62319-0.08675-0.16356-0.99628 0.87018
   6  -3  -2 1900.93 241.377   3 0.55099-0.11843-0.30066 0.05045 0.86968-0.99593
  -6   3   2 1948.23 239.075   5-0.58693 0.15320 0.23507 0.01572-0.87298 0.99911
  -6  -3   2 1913.52 247.340   8-0.61110 0.17773-0.18683-0.06329-0.87237 0.99785
   5   3  -2 582.401 129.355   7 0.68452-0.33124 0.10936 0.14069 0.83889-0.97918
  -5   3   2 340.710 63.9598   6 0.15168-0.50535-0.15274 0.40359 0.98741-0.84539
  -5  -3   2 379.094 113.640   4 0.22396-0.57841 0.04560-0.29591 0.99845-0.85731
   5  -3  -2 444.795 108.798   9-0.23404 0.58763 0.03092-0.28122-0.99858 0.85731
   5   3  -2 467.243 126.041   6 0.36609-0.01256 0.57396-0.32396 0.78951-0.93098
  -5   3   2 547.672 130.862   2-0.52230 0.16820 0.37778-0.12692-0.85042 0.99157
   5  -3  -2 574.896 135.492   3 0.56566-0.21231-0.31563 0.06548 0.85617-0.99759
  -5   3   2 712.664 145.030   5-0.60784 0.25330 0.24886 0.00192-0.85667 0.99803
  -5  -3   2 345.193 108.538   8-0.63710 0.28289-0.19812-0.05204-0.85351 0.99422
  -4  -3   2 305.657 104.550   8-0.67926 0.40420-0.21666-0.03353-0.81874 0.97467
   4   3  -2 360.821 110.796   7 0.73765-0.46342 0.12030 0.12977 0.79378-0.94922
  -4  -3   2 427.500 124.412   4 0.26055-0.53579 0.15776-0.40825 0.98489-0.82848
   4  -3  -2 286.709 92.3846   9-0.27264 0.54715 0.14427-0.39455-0.98581 0.82938
  -4   3   2 319.183 105.157   2-0.53902 0.26411 0.40362-0.15283-0.82888 0.98522
   4   3  -2 268.473 82.8629   6 0.36760-0.09316 0.58240-0.33244 0.78249-0.93913
   4   3  -2 184.897 99.7171   1-0.23490 0.51015-0.18540 0.43572-0.98164 0.82598
   4  -3  -2 34.4944 37.9657   3 0.59060-0.31644-0.34157 0.09146 0.83079-0.98735
  -4   3   2 228.459 85.1509   5-0.64224 0.36689 0.27190-0.02113-0.82657 0.98318
  -3  -3   2 12.0841 93.3058   8-0.74090 0.54503-0.24448-0.00576-0.75634 0.92750
   3   3  -2 93.3493 66.5475   1-0.24757 0.44364-0.29715 0.54740-0.95274 0.78191
  -3  -3   2 178.611 78.4621   4 0.29186-0.48785 0.26226-0.51291 0.95890-0.78719
   3  -3  -2 253.637 91.3406   9-0.30583 0.50127 0.25079-0.50107-0.95997 0.78836
   3   3  -2 -3.2482 27.3829   6 0.37133-0.17598 0.60426-0.35434 0.76351-0.93532
 -11   4   2 99.8263 152.614   2-0.53783-0.29156 0.40175-0.06702-0.83049 0.88035
  10   4  -2 -38.327 114.152   7 0.64754 0.10134 0.10187 0.23168 0.86559-0.92985
  10  -4  -2 255.794 175.601   7 0.72420 0.02480 0.11751-0.45203 0.80604-0.87057
 -10   4   2 128.073 130.097   2-0.52529-0.22488 0.38235-0.04767-0.84675 0.91185
  10  -4  -2 49.0531 127.526   3 0.55997 0.18967-0.30981-0.02405 0.86153-0.92684
 -10   4   2 -284.90 178.954   5-0.59241-0.15801 0.23867 0.09565-0.86884 0.93419
 -10  -4   2 267.469 212.070   8-0.61351-0.13646-0.18786-0.14556-0.87070 0.93532
   9   4  -2 2429.13 350.643   7 0.64226 0.02747 0.10080 0.23275 0.86913-0.94861
   9  -4  -2 3131.77 399.443   7 0.72560-0.05571 0.11780-0.45225 0.80480-0.88455
  -9   4   2 2164.44 335.176   2-0.51541-0.15556 0.36731-0.03268-0.85865 0.93898
  -9   4   2 2611.54 363.244   5-0.58383-0.08742 0.23304 0.10125-0.87528 0.95582
   9  -4  -2 1975.34 308.822   3 0.55049 0.11987-0.30015-0.03369 0.87012-0.95072
  -9  -4   2 2041.42 338.986   8-0.60588-0.06494-0.18457-0.14889-0.87594 0.95576
   8   4  -2 -63.399 83.2491   7 0.64339-0.05280 0.10103 0.23253 0.86837-0.96306
  -8  -4   2 -11.819 75.7599   4 0.08786-0.67964-0.31019-0.02295 0.94566-0.85012
   8  -4  -2 -64.456 84.9608   7 0.73550-0.14472 0.11985-0.45423 0.79579-0.89075
   8  -4  -2 -15.421 88.6516   9-0.09305 0.68392-0.32095-0.01288-0.94303 0.84725
   8   4  -2 -15.654 77.4799   6 0.36656 0.22442 0.57656-0.24297 0.78736-0.88317
  -8   4   2 284.434 145.347   2-0.50878-0.08299 0.35733-0.02276-0.86621 0.96177
  -8   4   2 84.1472 117.377   5-0.58008-0.01201 0.23059 0.10368-0.87802 0.97377
   8  -4  -2 79.6566 104.990   3 0.54503 0.04606-0.29463-0.03919 0.87489-0.97075
  -8  -4   2 -25.605 92.2477   8-0.60370 0.01204-0.18363-0.14988-0.87741 0.97243
  -7  -4   2 557.706 262.579   4 0.12992-0.64261-0.20863-0.12474 0.97610-0.86542
   7   4  -2 1754.91 261.445   7 0.65290-0.14144 0.10295 0.23061 0.86193-0.97181
   7  -4  -2 2337.49 325.986   7 0.75652-0.24483 0.12423-0.45854 0.77552-0.88568
  -7   4   2 2005.85 289.587   2-0.50612-0.00644 0.35337-0.01885-0.86915 0.97992
   7   4  -2 2486.28 321.335   6 0.36214 0.14971 0.55265-0.21908 0.80653-0.91757
   7  -4  -2 2536.26 314.800   9-0.13674 0.64851-0.22039-0.11341-0.97419 0.86324
   7  -4  -2 1946.97 280.558   3 0.54456-0.03273-0.29416-0.03963 0.87529-0.98638
  -7   4   2 2090.43 295.130   5-0.58243 0.06950 0.23213 0.10214-0.87631 0.98727
  -7  -4   2 1829.49 277.615   8-0.60854 0.09604-0.18572-0.14782-0.87413 0.98436
   6   4  -2 20.2878 66.5963   7 0.67343-0.24108 0.10711 0.22644 0.84727-0.97232
  -6  -4   2 -67.838 75.5313   4 0.16851-0.60206-0.10929-0.22431 0.99368-0.86781
   6  -4  -2 -53.079 87.0320   9-0.17703 0.60970-0.12135-0.21241-0.99259 0.86645
   6   4  -2 54.3557 90.6511   6 0.35930 0.07343 0.53792-0.20438 0.81772-0.94397
   6   4  -2 4.42068 65.9410   1-0.18345 0.61713 0.13430 0.19963-0.99083 0.86561
  -6   4   2 105.759 83.3800   2-0.50828 0.07492 0.35660-0.02215-0.86676 0.99275
  -6   4   2 -105.59 79.7682   5-0.59251 0.15877 0.23875 0.09552-0.86876 0.99494
   6  -4  -2 -10.250 80.5963   3 0.55027-0.11769-0.29993-0.03381 0.87031-0.99662
  -6  -4   2 42.6345 88.6023   8-0.62246 0.18911-0.19174-0.14185-0.86436 0.98980
   5   4  -2 626.084 150.768   7 0.70839-0.35513 0.11425 0.21929 0.81970-0.95991
  -5   4   2 416.436 87.6646   6 0.21834-0.57193 0.02972 0.30460 0.99922-0.85719
  -5  -4   2 408.088 137.724   4 0.20347-0.55783-0.01352-0.32030 0.99983-0.85874
   5  -4  -2 697.899 153.988   9-0.21372 0.56730-0.02519-0.30854-0.99945 0.85814
   5   4  -2 217.539 119.517   1-0.20488 0.55934 0.01699 0.31688-0.99976 0.85934
   5   4  -2 622.582 156.736   6 0.35838-0.00476 0.53325-0.19976 0.82118-0.96262
  -5   4   2 571.125 147.764   2-0.51619 0.16201 0.36849-0.03411-0.85773 0.99893
  -5   4   2 740.955 159.169   5-0.61242 0.25785 0.25190 0.08235-0.85291 0.99432
   5  -4  -2 607.282 144.697   3 0.56356-0.21021-0.31348-0.02019 0.85816-0.99964
  -5  -4   2 638.876 145.731   8-0.64813 0.29394-0.20294-0.13069-0.84495 0.98561
  -4  -4   2 256.998 97.0744   8-0.68874 0.41371-0.22088-0.11279-0.81011 0.96599
   4   4  -2 275.347 106.475   7 0.76159-0.48739 0.12530 0.20824 0.77037-0.92573
  -4   4   2 300.758 78.6517   6 0.15222-0.42671-0.15135 0.48588 0.98765-0.83030
   4   4  -2 111.584 98.9484   1-0.22153 0.49682-0.08782 0.42161-0.99571 0.84011
  -4  -4   2 163.481 98.7230   4 0.23459-0.50974 0.07727-0.41127 0.99608-0.83974
   4  -4  -2 219.105 80.9713   9-0.24655 0.52105 0.06663-0.40035-0.99615 0.83967
  -4   4   2 165.047 78.6653   2-0.53078 0.25579 0.39078-0.05649-0.83981 0.99621
   4   4  -2 263.343 94.2569   6 0.35962-0.08511 0.53953-0.20608 0.81652-0.97314
   4  -4  -2 181.487 92.5934   3 0.58600-0.31184-0.33674 0.00314 0.83572-0.99234
  -4   4   2 259.309 92.1845   5-0.64454 0.36916 0.27346 0.06079-0.82440 0.98106
   3   4  -2 15.4045 64.2632   1-0.23410 0.43020-0.17898 0.51270-0.98288 0.81210
  -3   4   2 4.70946 41.4951   6 0.10990-0.30524-0.25709 0.59174 0.96319-0.79052
  -3  -4   2 15.8279 55.5877   4 0.26175-0.45765 0.16158-0.49574 0.98417-0.81255
  -3   4   2 37.1961 74.6886   2-0.55273 0.35691 0.42533-0.09111-0.80928 0.98089
   3  -4  -2 -28.260 68.5615   9-0.27534 0.47075 0.15257-0.48628-0.98429 0.81263
   3   4  -2 136.797 90.4170   6 0.36307-0.16768 0.55756-0.22417 0.80269-0.97448
   3  -4  -2 97.1218 74.3375   3 0.61892-0.42391-0.37180 0.03828 0.79773-0.96946
  -3   4   2 -44.918 56.9310   5-0.69104 0.49487 0.30553 0.02869-0.77550 0.94741
   2   4  -2 -25.964 31.1608   1-0.24322 0.36017-0.25573 0.58940-0.96510 0.77917
  -2  -4   2 33.7187 65.0705   4 0.28482-0.40146 0.23795-0.57223 0.96614-0.77923
   2  -4  -2 45.2707 91.0207   9-0.29992 0.41626 0.23108-0.56479-0.96580 0.77896
   2   4  -2 -4.5563 40.4365   6 0.36855-0.25225 0.58784-0.25451 0.77787-0.96482
  10   5  -2 -92.332 161.192   7 0.66972 0.07910 0.10636 0.31070 0.84999-0.91416
 -10   5   2 135.766 164.715   2-0.52500-0.22524 0.38191 0.03631-0.84710 0.91223
  10  -5  -2 298.573 176.949   3 0.56382 0.18586-0.31375-0.10370 0.85792-0.92324
 -10   5   2 -194.14 143.858   5-0.60169-0.14875 0.24479 0.17297-0.86161 0.92702
 -10  -5   2 172.068 176.902   8-0.62738-0.12257-0.19388-0.22301-0.86078 0.92536
   9   5  -2 -26.379 93.5492   7 0.66645 0.00323 0.10570 0.31137 0.85237-0.93176
  -9   5   2 101.286 148.027   2-0.51588-0.15516 0.36803 0.05014-0.85809 0.93845
  -9   5   2 219.073 130.807   5-0.59422-0.07706 0.23986 0.17789-0.86745 0.94806
   9  -5  -2 189.168 157.580   3 0.55521 0.11518-0.30495-0.11247 0.86589-0.94651
  -9  -5   2 82.0986 146.295   8-0.62113-0.04967-0.19116-0.22577-0.86532 0.94510
   8   5  -2 -48.033 84.5404   7 0.66973-0.07919 0.10636 0.31070 0.84999-0.94458
  -8  -5   2 149.625 117.818   4 0.08406-0.67582-0.31906-0.09759 0.94236-0.84687
   8  -5  -2 64.0279 99.8858   9-0.08973 0.68059-0.32830-0.08897-0.94023 0.84442
   8   5  -2 -146.77 124.079   6 0.36219 0.22889 0.55289-0.13577 0.80634-0.90209
  -8   5   2 111.647 106.709   2-0.50983-0.08201 0.35891 0.05919-0.86503 0.96062
  -8   5   2 12.4502 103.483   5-0.59144-0.00067 0.23805 0.17969-0.86957 0.96538
   8  -5  -2 -124.17 130.309   3 0.55045 0.04067-0.30011-0.11728 0.87016-0.96604
  -8  -5   2 123.583 147.044   8-0.62030 0.02867-0.19080-0.22616-0.86591 0.96089
   7   5  -2 141.023 126.404   7 0.68146-0.17005 0.10875 0.30829 0.84124-0.95102
  -7  -5   2 -8.5277 95.9445   4 0.12037-0.63300-0.23227-0.18459 0.97017-0.85953
   7  -5  -2 136.842 131.186   9-0.12753 0.63929-0.24214-0.17510-0.96855 0.85756
   7   5  -2 92.0932 104.815   6 0.35796 0.15398 0.53119-0.11410 0.82269-0.93367
  -7   5   2 181.536 111.519   2-0.50747-0.00516 0.35539 0.06266-0.86766 0.97847
  -7   5   2 122.041 121.066   5-0.59454 0.08160 0.24008 0.17765-0.86720 0.97822
   7  -5  -2 84.3553 93.7346   3 0.55038-0.03853-0.30004-0.11730 0.87022-0.98134
  -7  -5   2 114.130 105.420   8-0.62636 0.11387-0.19343-0.22358-0.86153 0.97172
   6   5  -2 -88.332 107.663   7 0.70410-0.27179 0.11337 0.30365 0.82327-0.94822
  -6  -5   2 20.9228 102.346   4 0.15362-0.58709-0.14835-0.26874 0.98815-0.86232
   6   5  -2 37.6330 99.3141   1-0.17501 0.60871 0.17648 0.24093-0.98409 0.85892
   6  -5  -2 319.980 133.926   9-0.16230 0.59496-0.15830-0.25890-0.98709 0.86092
   6   5  -2 186.540 113.091   6 0.35524 0.07757 0.51769-0.10063 0.83237-0.95857
  -6   5   2 104.935 113.745   2-0.50949 0.07607 0.35842 0.05955-0.86540 0.99143
  -6   5   2 170.989 108.203   5-0.60497 0.17119 0.24695 0.17077-0.85899 0.98524
   6  -5  -2 211.676 99.4748   3 0.55601-0.12343-0.30578-0.11150 0.86516-0.99148
  -6  -5   2 -24.729 90.1331   8-0.64119 0.20786-0.19990-0.21716-0.85038 0.97579
  -5  -5   2 1724.06 249.922   8-0.66713 0.31297-0.21129-0.20580-0.82933 0.96994
   5   5  -2 2048.50 278.881   7 0.74066-0.38744 0.12093 0.29608 0.79096-0.93106
   5   5  -2 371.032 205.513   1-0.19379 0.54828 0.07976 0.33758-0.99676 0.85640
  -5   5   2 1546.86 251.311   2-0.51669 0.16244 0.36925 0.04865-0.85715 0.99840
   5   5  -2 1484.00 261.934   6 0.35429-0.00061 0.51308-0.09607 0.83561-0.97701
  -5  -5   2 488.816 272.179   4 0.18374-0.53802-0.06829-0.34901 0.99759-0.85655
   5  -5  -2 1732.46 245.530   9-0.19395 0.54751-0.07780-0.33939-0.99701 0.85566
  -5   5   2 1717.79 237.141   5-0.62448 0.26989 0.25994 0.15778-0.84265 0.98413
   5  -5  -2 1262.24 214.844   3 0.56856-0.21522-0.31862-0.09857 0.85338-0.99489
  -4   5   2 1009.53 149.358   6 0.20321-0.47768-0.01363 0.43164 0.99983-0.84248
  -4  -5   2 1147.62 231.229   4 0.21063-0.48569 0.00689-0.42438 0.99980-0.84351
   4  -5  -2 1129.94 194.387   9-0.22233 0.49680-0.00169-0.41548-0.99952 0.84299
   4   5  -2 1155.02 211.392   6 0.35532-0.08076 0.51808-0.10112 0.83210-0.98870
  -4   5   2 1133.48 202.905   2-0.52978 0.25473 0.38926 0.02856-0.84108 0.99754
  -4   5   2 1570.41 231.623   5-0.65508 0.37969 0.28063 0.13708-0.81417 0.97089
   4  -5  -2 1136.46 199.632   3 0.58927-0.31512-0.34015-0.07695 0.83224-0.98889
  -4  -5   2 1722.52 286.146   8-0.70686 0.43187-0.22901-0.18814-0.79271 0.94854
   4   5  -2 348.738 198.796   1-0.20888 0.48418-0.00687 0.42414-0.99983 0.84429
  -3  -5   2 2290.62 317.665   4 0.23421-0.43002 0.07612-0.49376 0.99619-0.82464
  -3   5   2 2205.39 283.892   2-0.54936 0.35349 0.41996-0.00223-0.81426 0.98592
  -3   5   2 1782.03 217.970   6 0.16653-0.36183-0.11391 0.53209 0.99311-0.82044
   3   5  -2 2242.36 280.988   6 0.35840-0.16297 0.53336-0.11647 0.82109-0.99286
   3  -5  -2 2098.86 260.834   9-0.24735 0.44274 0.06893-0.48608-0.99595 0.82423
   3  -5  -2 2548.25 306.591   3 0.61921-0.42422-0.37213-0.04488 0.79735-0.96913
  -2   5   2 -1.6430 54.4262   6 0.14145-0.25757-0.17892 0.59720 0.98257-0.79460
  -2   5   2 112.410 102.398   2-0.57547 0.45875 0.46268-0.04503-0.77214 0.95901
  -2  -5   2 -88.557 92.8730   4 0.25443-0.37097 0.13832-0.55610 0.98828-0.80146
   2  -5  -2 61.5160 70.4478   9-0.26893 0.38525 0.13293-0.55008-0.98776 0.80086
   2   5  -2 -27.235 49.0586   6 0.36343-0.24710 0.55943-0.14262 0.80121-0.98814
   2   5  -2 -141.38 97.1111   1-0.22985 0.34683-0.14666 0.56379-0.98844 0.80255
   1   5  -2 451.226 122.380   1-0.23657 0.27441-0.19873 0.61580-0.97892 0.77789
  -1  -5   2 383.648 130.824   4 0.27125-0.30852 0.19245-0.61032 0.97773-0.77563
   1   5  -2 305.041 107.845   6 0.37002-0.33278 0.59641-0.17968 0.77045-0.97252
  10   6  -2 -71.440 164.367   7 0.69746 0.05130 0.11201 0.38855 0.82869-0.89275
   9   6  -2 250.850 167.511   7 0.69652-0.02691 0.11182 0.38874 0.82944-0.90872
  -9   6   2 500.295 217.543   2-0.52032-0.15078 0.37475 0.12695-0.85284 0.93323
   9  -6  -2 138.093 137.841   3 0.56422 0.10620-0.31415-0.18685 0.85754-0.93815
  -9   6   2 800.112 270.249   5-0.60930-0.06201 0.24982 0.25137-0.85548 0.93615
  -9  -6   2 108.532 194.646   8-0.64158-0.02919-0.20007-0.30033-0.85008 0.92982
  -8  -6   2 16.3106 118.940   4 0.07678-0.66850-0.33587-0.16427 0.93583-0.84035
   8   6  -2 108.429 118.396   7 0.70229-0.11180 0.11300 0.38754 0.82476-0.91924
   8  -6  -2 97.6557 162.233   9-0.08267 0.67351-0.34386-0.15686-0.93404 0.83821
   8   6  -2 134.107 123.435   6 0.36028 0.23089 0.54295-0.04231 0.81394-0.90961
  -8   6   2 55.3949 117.275   2-0.51498-0.07691 0.36667 0.13497-0.85914 0.95476
  -8   6   2 435.591 184.652   5-0.60774 0.01560 0.24879 0.25239-0.85675 0.95263
   8  -6  -2 36.8230 99.5833   3 0.56033 0.03080-0.31017-0.19079 0.86119-0.95707
  -8  -6   2 -41.891 131.194   8-0.64239 0.05078-0.20043-0.30002-0.84945 0.94440
   7   6  -2 1849.87 312.476   7 0.71654-0.20518 0.11593 0.38459 0.81275-0.92242
  -7  -6   2 318.181 271.838   4 0.10876-0.62133-0.26056-0.23981 0.96217-0.85155
   7  -6  -2 2407.01 376.316   9-0.11601 0.62775-0.26892-0.23176-0.96079 0.84977
   7   6  -2 1373.25 271.893   6 0.35639 0.15564 0.52335-0.02273 0.82836-0.93926
  -7   6   2 2041.29 337.596   5-0.61185 0.09887 0.25152 0.24966-0.85338 0.96447
  -7   6   2 1781.67 318.762   2-0.51309 0.00040 0.36381 0.13775-0.86133 0.97218
   7  -6  -2 1662.09 312.500   3 0.56087-0.04903-0.31073-0.19016 0.86068-0.97180
  -7  -6   2 1586.77 278.583   8-0.64996 0.13750-0.20374-0.29674-0.84349 0.95364
  -6  -6   2 221.047 134.510   8-0.66601 0.23272-0.21080-0.28973-0.83027 0.95563
   6   6  -2 -81.125 91.6036   7 0.74152-0.30926 0.12111 0.37939 0.79014-0.91498
   6   6  -2 -10.403 109.716   1-0.16612 0.59983 0.21894 0.28196-0.97536 0.85024
  -6  -6   2 50.8766 120.956   4 0.13796-0.57135-0.18844-0.31215 0.98062-0.85482
   6  -6  -2 251.860 136.711   9-0.14659 0.57923-0.19676-0.30389-0.97965 0.85344
   6   6  -2 112.966 107.256   6 0.35389 0.07899 0.51115-0.01057 0.83694-0.96308
  -6   6   2 158.621 98.9040   2-0.51522 0.08174 0.36704 0.13445-0.85886 0.98493
  -6   6   2 77.1639 123.096   5-0.62290 0.18910 0.25888 0.24230-0.84402 0.97034
   6  -6  -2 -81.880 95.5976   3 0.56674-0.13416-0.31675-0.18407 0.85513-0.98146
  -5  -6   2 -49.040 100.953   8-0.69256 0.33843-0.22259-0.27798-0.80654 0.94711
  -5  -6   2 22.2536 132.572   4 0.16436-0.51854-0.12030-0.38049 0.99230-0.85129
   5  -6  -2 167.899 112.164   9-0.17434 0.52790-0.12817-0.37246-0.99169 0.85030
   5   6  -2 113.070 96.9208   6 0.35300 0.00074 0.50690-0.00637 0.83986-0.98121
  -5   6   2 -40.179 95.0051   2-0.52201 0.16771 0.37733 0.12407-0.85078 0.99207
   5  -6  -2 23.0705 93.0577   3 0.57890-0.22557-0.32933-0.17140 0.84310-0.98461
  -5   6   2 115.238 95.0923   5-0.64240 0.28778 0.27201 0.22918-0.82642 0.96797
   5   6  -2 43.7942 79.7099   1-0.18290 0.53742 0.13713 0.36369-0.99044 0.85013
  -3   6   2 647.180 145.118   6 0.20733-0.40260-0.00198 0.50366 0.99988-0.82719
  -3  -6   2 582.652 185.032   4 0.20849-0.40420 0.00076-0.50189 0.99986-0.82837
  -3   6   2 692.785 180.141   2-0.55179 0.35585 0.42384 0.07740-0.81067 0.98240
   3  -6  -2 782.108 173.502   9-0.22110 0.41648-0.00507-0.49553-0.99955 0.82778
   3   6  -2 844.927 182.129   6 0.35664-0.16116 0.52454-0.02414 0.82750-0.99923
   3  -6  -2 821.833 196.025   3 0.62601-0.43104-0.37954-0.12097 0.78863-0.96041
   3   6  -2 141.500 190.412   1-0.20775 0.40393-0.00005 0.50072-0.99987 0.82921
  -2  -6   2 2037.42 313.033   4 0.22611-0.34257 0.05198-0.55324 0.99807-0.81131
   2   6  -2 1799.69 267.831   1-0.21645 0.33346-0.05419 0.55480-0.99825 0.81242
  -2   6   2 1972.62 264.631   6 0.18453-0.30062-0.06554 0.56734 0.99778-0.80980
   2   6  -2 1906.48 276.938   6 0.36114-0.24479 0.54741-0.04710 0.81056-0.99745
  -2   6   2 521.882 192.985   2-0.57527 0.45850 0.46235 0.03880-0.77249 0.95942
   2  -6  -2 2089.28 269.775   9-0.23996 0.35627 0.04770-0.54829-0.99762 0.81066
  -1   6   2 387.413 131.752   6 0.16896-0.20586-0.10748 0.60938 0.99389-0.79061
  -1  -6   2 363.199 138.956   4 0.24071-0.27790 0.09582-0.59719 0.99417-0.79214
   1  -6  -2 418.544 136.049   9-0.25573 0.29296 0.09341-0.59399-0.99338 0.79122
   1   6  -2 232.038 109.559   1-0.22304 0.26091-0.09808 0.59862-0.99471 0.79372
   1   6  -2 613.473 158.609   6 0.36717-0.32992 0.58000-0.07976 0.78450-0.98654
  -9  -7   2 -137.04 147.057   8-0.66652-0.00422-0.21103-0.37284-0.82984 0.90955
   9   7  -2 367.844 234.557   7 0.73179-0.06223 0.11908 0.46496 0.79920-0.87835
   9  -7  -2 -104.04 209.384   9-0.04054 0.71048-0.43327-0.15092-0.89164 0.81098
  -8  -7   2 -102.53 143.835   8-0.66912 0.07754-0.21218-0.37173-0.82761 0.92253
  -8  -7   2 -2.1373 117.600   4 0.06702-0.65869-0.35812-0.22552 0.92657-0.83112
   8   7  -2 349.062 205.969   7 0.74021-0.14978 0.12083 0.46319 0.79138-0.88573
   8   7  -2 167.921 105.872   6 0.36028 0.23098 0.54291 0.04128 0.81398-0.90956
   8  -7  -2 -17.741 171.793   9-0.07294 0.66376-0.36503-0.21913-0.92508 0.82923
  -8   7   2 204.235 186.207   2-0.52326-0.06868 0.37925 0.20591-0.84925 0.94491
   8  -7  -2 133.252 165.607   3 0.57374 0.01738-0.32397-0.26056 0.84830-0.94414
  -8   7   2 -114.56 138.618   5-0.62809 0.03591 0.26236 0.32228-0.83948 0.93544
  -7  -7   2 183.810 173.889   8-0.67837 0.16594-0.21627-0.36768-0.81953 0.92964
   7   7  -2 731.291 289.108   7 0.75709-0.24578 0.12435 0.45964 0.77494-0.88447
  -7  -7   2 118.138 200.565   4 0.09560-0.60810-0.29199-0.29187 0.95209-0.84149
   7   7  -2 337.164 144.551   6 0.35677 0.15533 0.52521 0.05894 0.82702-0.93784
   7  -7  -2 16.2552 129.024   9-0.10277 0.61449-0.29914-0.28500-0.95091 0.83986
  -7   7   2 334.777 162.644   2-0.52192 0.00917 0.37719 0.20789-0.85089 0.96178
   7  -7  -2 59.0673 125.581   3 0.57502-0.06318-0.32530-0.25915 0.84702-0.95811
  -7   7   2 618.826 230.672   5-0.63332 0.12031 0.26589 0.31876-0.83479 0.94596
  -6  -7   2 524.371 283.661   8-0.69577 0.26251-0.22403-0.35997-0.80350 0.92882
  -6  -7   2 188.031 278.034   4 0.12162-0.55492-0.22921-0.35487 0.97098-0.84520
   6  -7  -2 1150.46 273.142   9-0.13004 0.56267-0.23625-0.34785-0.97014 0.84389
   6   7  -2 879.154 239.445   6 0.35453 0.07842 0.51428 0.06985 0.83477-0.96083
  -6   7   2 914.967 243.528   2-0.52428 0.09073 0.38080 0.20420-0.84800 0.97411
   6  -7  -2 959.685 227.386   3 0.58125-0.14868-0.33177-0.25258 0.84069-0.96699
  -6   7   2 946.387 214.467   5-0.64515 0.21131 0.27387 0.31077-0.82382 0.95022
  -5  -7   2 821.336 343.029   8-0.72304 0.36893-0.23632-0.34773-0.77607 0.91659
  -5  -7   2 61.9081 242.808   4 0.14505-0.49914-0.17043-0.41383 0.98424-0.84325
   5   7  -2 127.838 223.444   1-0.17200 0.52654 0.19107 0.39324-0.98132 0.84106
   5  -7  -2 758.867 206.660   9-0.15470 0.50824-0.17704-0.40704-0.98369 0.84225
   5   7  -2 813.049 208.727   6 0.35376 0.00004 0.51052 0.07355 0.83738-0.97866
  -5   7   2 766.247 194.521   2-0.53086 0.17650 0.39092 0.19401-0.83970 0.98104
   5  -7  -2 969.056 225.336   3 0.59325-0.23993-0.34435-0.23990 0.82791-0.96940
  -5   7   2 778.131 215.752   5-0.66482 0.31016 0.28731 0.29735-0.80430 0.94593
  -4  -7   2 266.656 198.391   4 0.16585-0.44071-0.11635-0.46810 0.99281-0.83660
  -4   7   2 375.247 133.700   6 0.26539-0.53982 0.17377 0.41119 0.98178-0.82434
  -4   7   2 672.137 193.120   2-0.54211 0.26693 0.40847 0.17636-0.82462 0.98118
   4  -7  -2 460.273 173.549   9-0.17670 0.45115-0.12220-0.46186-0.99248 0.83585
   4   7  -2 408.740 165.678   6 0.35456-0.07991 0.51442 0.06958 0.83467-0.99115
   4  -7  -2 456.800 150.237   3 0.61181-0.33770-0.36413-0.22000 0.80650-0.96314
  -4   7   2 433.626 194.637   5-0.69358 0.41812 0.30732 0.27735-0.77252 0.92939
   4   7  -2 87.1649 136.372   1-0.18466 0.46003 0.12810 0.45613-0.99167 0.83623
  -3   7   2 3561.48 415.227   2-0.55837 0.36238 0.43445 0.15030-0.80063 0.97241
  -3   7   2 3052.01 327.701   6 0.23881-0.43408 0.09053 0.49464 0.99476-0.82204
   3   7  -2 2781.06 377.332   6 0.35700-0.16150 0.52641 0.05752 0.82616-0.99783
   3  -7  -2 3108.21 370.353   9-0.19599 0.39136-0.07244-0.51160-0.99741 0.82558
   3  -7  -2 3199.67 411.928   3 0.63754-0.44259-0.39226-0.19174 0.77304-0.94481
  -2   7   2 97.7800 130.653   6 0.21845-0.33454 0.03004 0.55528 0.99920-0.81119
  -2  -7   2 -143.47 106.106   4 0.19936-0.31571-0.02508-0.55965 0.99964-0.81293
   2  -7  -2 189.779 136.218   9-0.21249 0.32878-0.02852-0.55551-0.99939 0.81237
   2   7  -2 77.6207 83.9510   1-0.20318 0.32022 0.02697 0.55711-0.99956 0.81378
   2   7  -2 107.538 133.976   6 0.36104-0.24465 0.54684 0.03699 0.81099-0.99784
  -1  -7   2 4391.69 459.170   4 0.21193-0.24902 0.01062-0.59546 0.99975-0.79778
   1   7  -2 4145.65 414.763   1-0.20944 0.24735-0.01029 0.59432-0.99980 0.79886
  -1   7   2 4145.41 405.017   6 0.20377-0.24067-0.01206 0.59749 0.99985-0.79655
   1   7  -2 4947.37 460.269   6 0.36645-0.32918 0.57593 0.00781 0.78788-0.98989
   1  -7  -2 4756.32 423.657   9-0.22613 0.26334 0.00880-0.59282-0.99935 0.79714
   0   7  -2 11.4479 84.1509   1-0.21394 0.17271-0.03817 0.62214-0.99904 0.78295
   0  -7   2 108.096 122.673   4 0.22158-0.17941 0.03862-0.62354 0.99882-0.78159
   0   7  -2 -31.884 67.2906   6 0.37285-0.41468 0.61357-0.02993 0.75508-0.97222
   0  -7   2 -37.856 112.790   9 0.05511-0.01337-0.61560 0.03127-0.76129 0.97825
  -8  -8   2 329.474 317.041   8-0.69972 0.10815-0.22579-0.44158-0.79972 0.89459
  -8  -8   2 122.350 270.542   4 0.05538-0.64698-0.38425-0.28289 0.91479-0.81934
   8   8  -2 158.770 181.612   6 0.36167 0.22966 0.55015 0.11757 0.80846-0.90394
   8  -8  -2 -44.690 187.668   9-0.06115 0.65197-0.39024-0.27737-0.91356 0.81767
  -7  -8   2 -152.95 170.082   8-0.71066 0.19825-0.23073-0.43670-0.78889 0.89897
  -7  -8   2 80.4839 144.963   4 0.08121-0.59363-0.32566-0.34171 0.93984-0.82924
  -7   8   2 89.6574 173.453   2-0.53314 0.02034 0.39446 0.27413-0.83673 0.94764
   7   8  -2 129.248 151.327   6 0.35856 0.15361 0.53417 0.13352 0.82050-0.93123
   7  -8  -2 -179.64 196.416   9-0.08815 0.59987-0.33179-0.33579-0.93887 0.82778
   7  -8  -2 -175.34 176.780   3 0.59196-0.08014-0.34300-0.32501 0.82932-0.94035
  -7   8   2 176.239 221.411   5-0.65811 0.14507 0.28270 0.38540-0.81114 0.92240
  -6  -8   2 -225.10 157.310   8-0.72939 0.29615-0.23922-0.42825-0.76922 0.89450
  -6  -8   2 -32.536 163.267   4 0.10464-0.53785-0.27048-0.39709 0.95913-0.83336
  -6   8   2 200.802 183.233   2-0.53578 0.10217 0.39856 0.26995-0.83324 0.95940
   6  -8  -2 182.076 136.112   9-0.11273 0.54535-0.27647-0.39108-0.95843 0.83215
   6   8  -2 299.647 176.700   6 0.35660 0.07641 0.52440 0.14325 0.82761-0.95357
   6  -8  -2 153.698 110.305   3 0.59861-0.16606-0.35002-0.31787 0.82193-0.94818
  -6   8   2 153.194 138.432   5-0.67073 0.23686 0.29139 0.37673-0.79810 0.92458
  -5  -8   2 53.7537 144.524   4 0.12564-0.47963-0.21928-0.44848 0.97352-0.83254
  -5   8   2 -16.709 108.097   2-0.54224 0.18782 0.40866 0.25976-0.82444 0.96583
   5  -8  -2 8.70531 100.988   9-0.13486 0.48839-0.22486-0.44267-0.97308 0.83160
   5   8  -2 -25.333 102.564   6 0.35595-0.00209 0.52118 0.14641 0.82991-0.97110
   5  -8  -2 179.101 134.388   3 0.61054-0.25724-0.36276-0.30501 0.80803-0.94947
  -5   8   2 263.681 167.607   5-0.69059 0.33591 0.30523 0.36290-0.77601 0.91773
  -4   8   2 2667.14 387.696   2-0.55287 0.27763 0.42556 0.24277-0.80906 0.96567
  -4  -8   2 1660.86 430.164   4 0.14419-0.41894-0.17263-0.49529 0.98382-0.82762
   4   8  -2 2470.77 388.426   6 0.35670-0.08200 0.52488 0.14264 0.82726-0.98366
   4  -8  -2 2592.39 363.798   9-0.15449 0.42894-0.17755-0.48997-0.98359 0.82692
   4  -8  -2 3180.52 443.461   3 0.62836-0.35427-0.38212-0.28552 0.78553-0.94213
   4   8  -2 2510.09 380.757   1-0.17267 0.44808 0.18783 0.47988-0.98195 0.82658
  -3  -8   2 -417.72 189.285   4 0.16023-0.35573-0.13116-0.53690 0.99080-0.81937
  -3   8   2 73.2298 113.229   6 0.26441-0.45967 0.17060 0.49804 0.98242-0.80965
  -3   8   2 121.534 108.007   2-0.56790 0.37184 0.45005 0.21819-0.78522 0.95705
   3  -8  -2 129.536 123.449   9-0.17158 0.36694-0.13514-0.53235-0.99072 0.81885
   3   8  -2 124.609 133.786   6 0.35890-0.16334 0.53587 0.13158 0.81924-0.99084
   3   8  -2 78.1145 182.256   1-0.18229 0.37853 0.14020 0.52744-0.99001 0.81946
   2   8  -2 1243.91 249.093   1-0.18998 0.30706 0.10025 0.56733-0.99490 0.80919
  -2  -8   2 1267.32 288.290   4 0.17368-0.28993-0.09550-0.57269 0.99521-0.80854
  -2   8   2 1135.09 245.503   6 0.24632-0.36240 0.11352 0.55528 0.99198-0.80393
   2  -8  -2 1433.61 265.990   9-0.18605 0.30233-0.09831-0.56918-0.99520 0.80813
   2   8  -2 1511.81 290.919   6 0.36248-0.24607 0.55442 0.11293 0.80515-0.99193
   1   8  -2 418.652 176.152   1-0.19587 0.23381 0.06834 0.59916-0.99761 0.79674
  -1   8   2 358.810 162.866   6 0.23275-0.26964 0.07225 0.59668 0.99654-0.79320
  -1  -8   2 472.530 178.231   4 0.18446-0.22145-0.06631-0.60197 0.99773-0.79580
   1  -8  -2 485.556 193.156   9-0.19779 0.23499-0.06772-0.59974-0.99773 0.79546
   1   8  -2 520.215 195.075   6 0.36730-0.33002 0.58072 0.08653 0.78390-0.98584
   1  -8   2 -41.373 69.3104   4 0.19741-0.07590-0.03053-0.63789 0.99950-0.76707
  -1   8  -2 -36.850 69.5495   1-0.20261 0.08227 0.03026 0.63714-0.99947 0.76827
   1  -8   2 -38.424 156.096   9 0.05695 0.06388-0.61883-0.04895-0.75832 0.99043
  -7   9   2 659.579 271.096   5-0.68542 0.17235 0.30160 0.44998-0.78195 0.89331
  -6  -9   2 -15.737 202.613   4 0.08704-0.52015-0.31211-0.43893 0.94495-0.81917
   6  -9  -2 586.703 241.767   9-0.09470 0.52732-0.31726-0.43375-0.94441 0.81809
   6   9  -2 787.632 289.149   6 0.35966 0.07341 0.53974 0.21145 0.81636-0.94223
   6  -9  -2 522.983 211.569   3 0.61807-0.18555-0.37089-0.38054 0.79879-0.92496
  -5  -9   2 12.5112 177.402   4 0.10602-0.45990-0.26717-0.48406 0.96016-0.81918
  -5   9   2 40.2009 115.090   2-0.55541 0.20093 0.42965 0.32228-0.80521 0.94664
   5  -9  -2 220.245 160.700   9-0.11471 0.46823-0.27193-0.47906-0.95986 0.81835
   5   9  -2 161.844 148.530   6 0.35913-0.00522 0.53704 0.21408 0.81837-0.95947
   5  -9  -2 156.302 144.376   3 0.62995-0.27666-0.38386-0.36743 0.78341-0.92478
  -4   9   2 1811.74 368.355   2-0.56550 0.29021 0.44610 0.30574-0.78920 0.94585
   4  -9  -2 2023.29 385.342   9-0.13235 0.40679-0.23080-0.52016-0.97157 0.81485
   4   9  -2 1813.20 372.681   6 0.35984-0.08509 0.54067 0.21039 0.81566-0.97198
  -3  -9   2 5.82081 172.665   4 0.13691-0.33230-0.19108-0.56043 0.98006-0.80864
   3   9  -2 0.20119 137.127   1-0.16959 0.36586 0.20264 0.54848-0.97895 0.80847
  -3   9   2 -122.94 159.364   6 0.28601-0.48127 0.24238 0.50974 0.96489-0.79204
   3  -9  -2 106.831 127.362   9-0.14756 0.34291-0.19442-0.55652-0.98016 0.80824
   3   9  -2 -53.258 101.618   6 0.36181-0.16622 0.55089 0.20008 0.80788-0.97940
  -2  -9   2 134.287 189.882   4 0.14870-0.26483-0.16106-0.59057 0.98597-0.79931
  -2   9   2 369.121 158.331   6 0.26995-0.38602 0.18861 0.56369 0.97861-0.79049
   2  -9  -2 206.312 123.396   9-0.16026 0.27653-0.16339-0.58755-0.98621 0.79910
   2   9  -2 580.069 206.393   1-0.17677 0.29390 0.16783 0.58321-0.98563 0.79998
   2   9  -2 573.752 232.910   6 0.36500-0.24856 0.56795 0.18293 0.79440-0.98111
  -1  -9   2 363.779 175.844   4 0.15792-0.19480-0.13720-0.61454 0.98991-0.78801
  -1   9   2 193.164 130.632   6 0.25752-0.29440 0.14858 0.60384 0.98656-0.78316
   1  -9  -2 215.274 157.800   9-0.17032 0.20753-0.13830-0.61262-0.99027 0.78795
   1   9  -2 227.310 166.837   6 0.36926-0.33195 0.59197 0.15881 0.77432-0.97620
   1   9  -2 293.834 147.494   1-0.18226 0.22025 0.14035 0.61063-0.98998 0.78917
   0   9  -2 98.7179 82.3719   1-0.18612 0.14496 0.12055 0.63039-0.99262 0.77665
   0  -9   2 238.345 160.993   4 0.16440-0.12202-0.12017-0.63163 0.99232-0.77517
  -1   9  -2 -41.256 73.9432   1-0.18836 0.06806 0.10881 0.64208-0.99399 0.76286
   1  -9   2 -42.202 85.7468   4 0.16795-0.04633-0.11078-0.64107 0.99350-0.76111
  -1   9  -2 -91.597 91.9698   2-0.31752 0.19589 0.09725 0.65437-0.98663 0.75478
  -3 -10   2 47.8854 162.206   4 0.11380-0.30907-0.24834-0.58663 0.96575-0.79433
   3 -10  -2 173.400 172.111   9-0.12367 0.31903-0.25117-0.58323-0.96604 0.79408
   3  10  -2 -109.48 114.995   6 0.36539-0.16977 0.57006 0.26444 0.79269-0.96411
   2  10  -2 213.531 278.337   1-0.16347 0.28063 0.23125 0.60328-0.97246 0.78688
  -2 -10   2 484.271 301.336   4 0.12413-0.24014-0.22301-0.61207 0.97258-0.78592
   2 -10  -2 786.712 224.732   9-0.13482 0.25109-0.22495-0.60944-0.97306 0.78590
   2  10  -2 1019.70 293.889   6 0.36821-0.25174 0.58590 0.24851 0.77952-0.96614
   1  10  -2 217.087 169.626   1-0.16857 0.20659 0.20745 0.62702-0.97792 0.77718
  -1 -10   2 151.750 173.254   4 0.13196-0.16871-0.20353-0.63162 0.97729-0.77539
   1  10  -2 120.072 96.6134   6 0.37196-0.33463 0.60804 0.22626 0.76011-0.96191
   0 -10   2 129.517 132.121   4 0.13712-0.09463-0.19056-0.64466 0.98017-0.76303
   0  10  -2 235.683 154.979   1-0.17209 0.13096 0.19071 0.64371-0.98139 0.76548
 -11   0   3 288.783 267.060   8-0.72355-0.08498-0.23656 0.23703-0.77551 0.93357
  11   0  -3 39.1831 134.195   7 0.73143 0.07564 0.11901-0.11969 0.79953-0.95702
 -10   0   3 331.056 250.443   8-0.72039-0.00899-0.23513 0.23557-0.77886 0.95213
  10   0  -3 88.0930 118.703   7 0.72880-0.00087 0.11847-0.11910 0.80192-0.97462
  -9   0   3 155.613 160.300   8-0.72269 0.07247-0.23617 0.23658-0.77644 0.96492
   9   0  -3 87.3068 112.622   7 0.73198-0.08317 0.11912-0.11972 0.79903-0.98694
   7   0  -3 5.29235 83.1021   7 0.76153-0.27093 0.12527-0.12580 0.77043-0.98869
 -11  -1   3 173.646 235.509   8-0.71047-0.09802-0.23064 0.14764-0.78909 0.94710
 -11   1   3 -527.45 501.385   8-0.74305-0.06552-0.24547 0.32940-0.75387 0.91199
  11   1  -3 -330.86 209.580   7 0.72593 0.08113 0.11787-0.03503 0.80451-0.96196
  11  -1  -3 -170.68 205.472   7 0.74308 0.06401 0.12143-0.20561 0.78866-0.94618
 -11   1   3 175.270 139.400   5-0.69626-0.11256 0.30922-0.22512-0.76934 0.92800
 -10  -1   3 621.898 251.111   8-0.70646-0.02288-0.22883 0.14581-0.79311 0.96632
 -10   1   3 -113.61 336.501   8-0.74123 0.01181-0.24463 0.32854-0.75597 0.92930
  10   1  -3 52.9502 124.677   7 0.72294 0.00498 0.11725-0.03439 0.80716-0.97984
  10  -1  -3 220.202 162.165   7 0.74129-0.01334 0.12106-0.20519 0.79036-0.96309
 -10   1   3 187.188 137.407   5-0.69158-0.03807 0.30592-0.22185-0.77486 0.94873
  -9  -1   3 272.950 214.495   8-0.70770 0.05752-0.22938 0.14633-0.79187 0.98030
   9   1  -3 323.550 171.370   7 0.72562-0.07684 0.11781-0.03491 0.80477-0.99265
   9  -1  -3 518.348 215.737   7 0.74546-0.09663 0.12192-0.20601 0.78639-0.97432
  -9   1   3 341.306 185.293   5-0.69168 0.04122 0.30600-0.22195-0.77474 0.96382
  -8  -1   3 400.346 184.732   8-0.71537 0.14436-0.23285 0.14977-0.78409 0.98773
   8   1  -3 256.992 144.196   7 0.73535-0.16568 0.11982-0.03690 0.79593-0.99898
   8  -1  -3 208.480 113.765   7 0.75697-0.18725 0.12433-0.20837 0.77506-0.97818
  -7  -1   3 -43.345 140.102   8-0.73090 0.23905-0.23990 0.15680-0.76757 0.98643
   7   1  -3 -29.116 77.2494   7 0.75373-0.26316 0.12365-0.04070 0.77830-0.99652
   7  -1  -3 -219.27 120.910   7 0.77743-0.28679 0.12862-0.21261 0.75364-0.97193
  -7  -1   3 84.6957 75.1582   4 0.24805-0.74030 0.11839-0.20155 0.99130-0.77173
   7  -1  -3 -12.095 80.5738   9-0.25479 0.74572 0.09065-0.17407-0.99370 0.77434
 -11  -2   3 379.843 240.993   8-0.70351-0.10495-0.22749 0.06105-0.79603 0.95398
  11   2  -3 -94.781 145.790   7 0.72639 0.08063 0.11797 0.04839 0.80408-0.96150
  11  -2  -3 196.890 157.358   7 0.76093 0.04617 0.12516-0.29283 0.77105-0.92857
 -11   2   3 191.999 211.661   5-0.68506-0.12376 0.30135-0.13378-0.78236 0.94106
 -10  -2   3 497.704 214.498   8-0.69913-0.03017-0.22553 0.05906-0.80029 0.97345
  10   2  -3 404.945 182.803   7 0.72349 0.00439 0.11736 0.04901 0.80668-0.97930
  10  -2  -3 590.190 239.408   7 0.76045-0.03247 0.12506-0.29268 0.77154-0.94428
 -10   2   3 365.916 216.365   5-0.67982-0.04983 0.29770-0.13016-0.78823 0.96213
  -9  -2   3 1018.26 281.236   8-0.69980 0.04967-0.22583 0.05933-0.79963 0.98801
   9   2  -3 827.298 231.934   7 0.72617-0.07742 0.11792 0.04848 0.80428-0.99211
   9  -2  -3 772.537 245.176   7 0.76607-0.11722 0.12623-0.29380 0.76574-0.95368
  -9   2   3 647.266 232.857   5-0.67914 0.02866 0.29722-0.12970-0.78898 0.97810
  -8  -2   3 2454.00 390.175   8-0.70669 0.13570-0.22892 0.06239-0.79288 0.99647
   8   2  -3 2278.37 348.970   7 0.73577-0.16614 0.11991 0.04651 0.79554-0.99855
  -8   2   3 1759.78 337.404   5-0.68399 0.11269 0.30061-0.13312-0.78357 0.98790
  -7  -2   3 563.369 233.131   8-0.72110 0.22929-0.23545 0.06886-0.77811 0.99693
   7   2  -3 328.989 139.683   7 0.75383-0.26329 0.12367 0.04277 0.77820-0.99637
  -7  -2   3 317.508 167.436   4 0.23073-0.72292 0.06568-0.23236 0.99708-0.77757
   7  -2  -3 165.891 98.3412   9-0.23871 0.72962 0.04416-0.21102-0.99785 0.77845
  -7   2   3 50.8187 113.032   5-0.69550 0.20338 0.30868-0.14122-0.77025 0.98980
  -6  -2   3 -147.84 232.088   8-0.74445 0.33180-0.24611 0.07951-0.75224 0.98628
 -10  -3   3 491.627 270.165   8-0.69795-0.03132-0.22500-0.02494-0.80143 0.97455
  10   3  -3 49.2337 117.125   7 0.73016-0.00231 0.11875 0.13114 0.80069-0.97325
  10  -3  -3 255.209 205.578   3 0.63563 0.09255-0.39014 0.14012 0.77568-0.94956
 -10   3   3 152.711 170.202   5-0.67424-0.05543 0.29382-0.04281-0.79433 0.96828
  -9  -3   3 190.765 172.398   8-0.69852 0.04841-0.22526-0.02471-0.80088 0.98920
   9   3  -3 160.994 126.608   7 0.73328-0.08457 0.11939 0.13050 0.79784-0.98560
   9  -3  -3 227.304 181.332   3 0.63272 0.01621-0.38693 0.13691 0.77967-0.96879
  -9   3   3 182.235 138.190   5-0.67322 0.02272 0.29311-0.04214-0.79543 0.98458
  -8  -3   3 331.186 170.989   8-0.70507 0.13413-0.22820-0.02181-0.79448 0.99802
   8   3  -3 157.356 133.965   7 0.74320-0.17360 0.12145 0.12846 0.78855-0.99149
   8  -3  -3 -13.296 87.5841   3 0.63409-0.06438-0.38843 0.13843 0.77781-0.98215
  -8   3   3 74.9751 117.139   5-0.67747 0.10615 0.29606-0.04510-0.79082 0.99519
  -7  -3   3 1560.60 333.412   8-0.71885 0.22707-0.23443-0.01562-0.78047 0.99923
   7   3  -3 1085.48 259.650   7 0.76138-0.27088 0.12525 0.12467 0.77059-0.98869
  -7  -3   3 432.868 279.883   4 0.21365-0.70578 0.01556-0.26576 0.99965-0.78019
   7  -3  -3 1241.38 257.295   9-0.22233 0.71322-0.00170-0.24861-0.99952 0.78009
  -7   3   3 1016.05 247.959   5-0.68803 0.19588 0.30342-0.05248-0.77898 0.99858
  -6  -3   3 -120.02 142.301   8-0.74119 0.32858-0.24461-0.00547-0.75601 0.98999
   6   3  -3 35.7400 99.8437   1-0.23268 0.64552-0.16810 0.41838-0.98487 0.75127
  -6  -3   3 49.4489 135.274   4 0.25363-0.66659 0.13581-0.38621 0.98869-0.75395
 -10  -4   3 298.202 208.633   8-0.70237-0.02686-0.22699-0.10641-0.79714 0.97021
  10   4  -3 616.330 248.856   7 0.74257-0.01475 0.12132 0.21208 0.78915-0.96163
  10  -4  -3 421.017 229.491   3 0.63053 0.09771-0.38450 0.05093 0.78263-0.95658
 -10   4   3 513.720 249.691   5-0.67417-0.05552 0.29377 0.04068-0.79441 0.96840
  -9  -4   3 26.2293 176.666   8-0.70322 0.05316-0.22737-0.10606-0.79630 0.98458
   9   4  -3 64.8218 148.858   7 0.74649-0.09782 0.12214 0.21127 0.78538-0.97306
   9  -4  -3 -165.50 122.010   3 0.62750 0.02149-0.38118 0.04762 0.78666-0.97587
  -9   4   3 176.453 210.512   5-0.67319 0.02267 0.29310 0.04134-0.79546 0.98466
  -8  -4   3 492.360 238.008   8-0.70986 0.13895-0.23036-0.10312-0.78971 0.99320
   8   4  -3 262.402 146.960   7 0.75711-0.18755 0.12436 0.20904 0.77492-0.97778
  -8  -4   3 154.658 167.374   4 0.15689-0.72809-0.13989-0.19357 0.98950-0.78531
   8  -4  -3 579.279 213.320   9-0.16412 0.73408-0.15380-0.17997-0.98785 0.78354
   8  -4  -3 660.111 227.919   3 0.62850-0.05876-0.38227 0.04874 0.78534-0.98976
  -8   4   3 419.473 172.074   5-0.67724 0.10589 0.29590 0.03852-0.79107 0.99549
  -7  -4   3 259.559 168.930   8-0.72342 0.23167-0.23650-0.09702-0.77565 0.99436
   7   4  -3 -153.55 93.2701   7 0.77575-0.28528 0.12827 0.20513 0.75546-0.97349
   7   4  -3 57.5242 148.047   1-0.20052 0.69259 0.04224 0.29159-0.99904 0.78068
  -7  -4   3 -133.20 147.738   4 0.19653-0.68859-0.03300-0.30070 0.99942-0.78001
   7  -4  -3 -159.03 138.384   9-0.20554 0.69642-0.04716-0.28658-0.99882 0.77934
   7  -4  -3 123.415 121.898   3 0.63421-0.14369-0.38857 0.05507 0.77764-0.99725
  -7   4   3 -32.922 99.1260   5-0.68725 0.19508 0.30288 0.03153-0.77987 0.99952
   6   4  -3 83.6499 128.639   1-0.22059 0.63344-0.08138 0.41513-0.99629 0.76274
  -6  -4   3 -5.9354 107.328   4 0.23160-0.64448 0.06829-0.40220 0.99687-0.76220
  10   5  -3 560.479 253.493   7 0.76023-0.03247 0.12500 0.29190 0.77176-0.94414
  -9  -5   3 433.372 233.951   8-0.71329 0.06325-0.23191-0.18500-0.78622 0.97446
   9   5  -3 122.848 149.153   7 0.76525-0.11662 0.12606 0.29084 0.76659-0.95417
  -9   5   3 227.259 180.498   2-0.57431-0.07572 0.46073-0.04260-0.77419 0.96308
   9  -5  -3 465.429 205.778   3 0.62720 0.02183-0.38084-0.03628 0.78707-0.97632
  -9   5   3 111.353 127.379   5-0.67831 0.02777 0.29664 0.12125-0.78990 0.97916
  -8  -5   3 499.860 288.091   8-0.72031 0.14943-0.23509-0.18185-0.77894 0.98240
   8   5  -3 -185.98 192.768   7 0.77684-0.20731 0.12849 0.28840 0.75428-0.95704
  -8  -5   3 59.5037 245.940   4 0.14434-0.71550-0.17222-0.24474 0.98390-0.77974
  -8   5   3 102.431 127.571   2-0.57281 0.00199 0.45822-0.04014-0.77682 0.98093
   8  -5  -3 -98.903 136.160   9-0.15189 0.72184-0.18391-0.23330-0.98234 0.77800
   8  -5  -3 -34.332 110.211   3 0.62812-0.05836-0.38186-0.03522 0.78584-0.99032
  -8   5   3 -106.04 150.791   5-0.68246 0.11109 0.29953 0.11835-0.78529 0.98977
  -7  -5   3 796.370 393.518   8-0.73397 0.24225-0.24130-0.17568-0.76418 0.98284
   7   5  -3 114.019 173.829   1-0.19031 0.68241 0.09846 0.31885-0.99508 0.77677
  -7  -5   3 61.7183 173.815   4 0.17922-0.67121-0.08058-0.33661 0.99662-0.77725
  -7   5   3 25.7176 137.541   2-0.57461 0.08299 0.46124-0.04322-0.77366 0.99298
   7  -5  -3 520.870 181.541   9-0.18833 0.67919-0.09239-0.32481-0.99577 0.77627
   7  -5  -3 606.698 206.324   3 0.63345-0.14292-0.38773-0.02929 0.77868-0.99835
  -7   5   3 -32.513 93.8708   5-0.69224 0.20005 0.30639 0.11149-0.77409 0.99379
  -9  -6   3 -293.59 192.742   8-0.72805 0.07805-0.23861-0.26177-0.77067 0.95888
  -9   6   3 297.497 190.961   2-0.57428-0.07582 0.46068 0.04100-0.77425 0.96317
   9  -6  -3 544.000 257.492   3 0.63103 0.01802-0.38505-0.11563 0.78197-0.97124
  -9   6   3 98.3572 178.719   5-0.68784 0.03727 0.30329 0.19806-0.77919 0.96852
  -8  -6   3 57.4233 218.466   8-0.73568 0.16483-0.24209-0.25832-0.76226 0.96567
  -8  -6   3 132.579 328.159   4 0.13049-0.70157-0.20722-0.29324 0.97643-0.77230
  -8   6   3 600.685 274.499   2-0.57287 0.00199 0.45833 0.04328-0.77670 0.98086
   8  -6  -3 739.103 306.574   9-0.13811 0.70804-0.21714-0.28353-0.97499 0.77062
   8  -6  -3 1027.56 327.159   3 0.63208-0.06229-0.38621-0.11442 0.78055-0.98504
  -8   6   3 325.247 219.329   5-0.69231 0.12091 0.30643 0.19491-0.77401 0.97856
  -7  -6   3 22.2482 281.324   4 0.16162-0.65353-0.12750-0.37318 0.99132-0.77199
  -7   6   3 231.360 178.929   2-0.57454 0.08286 0.46114 0.04040-0.77377 0.99313
   7  -6  -3 868.221 291.937   9-0.17066 0.66151-0.13746-0.36318-0.99039 0.77084
   7  -6  -3 921.921 269.874   3 0.63725-0.14671-0.39193-0.10863 0.77344-0.99313
   7   6  -3 376.003 261.894   1-0.18004 0.67215 0.15160 0.34919-0.98830 0.77004
   6   6  -3 25.6345 130.179   1-0.19711 0.61002 0.06146 0.43925-0.99806 0.76463
  -6  -6   3 55.0999 156.656   4 0.18955-0.60225-0.05238-0.44853 0.99859-0.76402
  -8  -7   3 -17.010 351.417   4 0.11555-0.68656-0.24408-0.33988 0.96696-0.76283
  -8   7   3 51.2932 138.699   2-0.57612 0.00516 0.46377 0.12136-0.77098 0.97517
   8  -7  -3 -311.87 267.181   3 0.63959-0.06979-0.39454-0.18966 0.77016-0.97465
  -7  -7   3 107.817 197.360   4 0.14366-0.63549-0.17397-0.41021 0.98356-0.76424
   7   7  -3 143.823 294.837   1-0.16957 0.66170 0.20274 0.38153-0.97893 0.76073
   5   7  -3 0.55197 71.4265   1-0.19851 0.53228 0.05360 0.53051-0.99851 0.74997
  -5  -7   3 -0.3393 77.2717   4 0.19139-0.52476-0.04730-0.53728 0.99885-0.74907
  -7  -8   3 5.31995 139.548   4 0.12530-0.61703-0.22012-0.44754 0.97331-0.75400
   0   0   0    0.00    0.00
   1  -2   1 -2.6179 17.7778   9 0.05544 0.04455-0.61619 0.44922-0.76075 0.88453
   5   6  -3 22.8281 89.4752   1-0.21085 0.54458-0.01889 0.51953-0.99965 0.75105
  -5  -6   3 -28.228 96.2118   4 0.21432-0.54779 0.01751-0.51860 0.99960-0.74977
  -6  -7   3 16.3228 146.928   4 0.16892-0.58153-0.10820-0.47620 0.99381-0.75927
   6   7  -3 -23.643 128.689   1-0.18545 0.59840 0.12399 0.46020-0.99219 0.75882
   0  -4  -1 327.460 155.984   9-0.27013 0.24919 0.13660-0.47032-0.98715 0.87841
   0   4   1 371.932 156.469   6 0.15746-0.13628-0.13771 0.47227 0.98983-0.88052
   0  -4   1 195.949 55.5675   7 0.63463-0.61358 0.09926-0.43298 0.87412-0.76614
   0   4  -1 329.284 118.533   1-0.22849 0.20788-0.13661 0.47033-0.98994 0.88190
   0   4   1 149.756 113.398   2-0.56320 0.58390 0.44231-0.10833-0.79296 0.90171
   0  -4   1 403.240 138.093   4 0.25395-0.23285 0.13684-0.47108 0.98852-0.87997
   0   4  -1 376.144 133.233   6 0.34431-0.36521 0.46678-0.13324 0.86584-0.97442
   0  -4   1 390.400 140.900   9-0.02334 0.04419-0.46819 0.13428-0.87164 0.98009
   0  -5   2 142.596 77.5300   4 0.28468-0.24268 0.23745-0.65541 0.96628-0.74890
   0   5  -2 34.1334 48.2576   1-0.24129 0.19999-0.23848 0.65550-0.96967 0.75348
  -1   7  -2 -0.3266 60.4239   1-0.21677 0.09639-0.05626 0.64017-0.99812 0.76688
   1  -7   2 24.3568 61.3301   4 0.22815-0.10672 0.05801-0.64298 0.99766-0.76518
   1  -7   2 -85.432 120.619   9 0.05654 0.06430-0.61810 0.03378-0.75899 0.99115
  -4  -2   0 63.2232 66.1156   4 0.02984-0.34630-0.43996 0.27360 0.88625-0.94700
   4   2   0 -56.370 92.2394   7 0.19466 0.12180 0.01435 0.15259 0.99990-0.93898
  -4  -2   0 -148.29 104.899   8-0.19381-0.12275-0.01601-0.15077-0.99988 0.93896
   4  -2   0 -34.400 28.9794   6 0.21919 0.09719 0.03219-0.19899 0.99912-0.93846
   4   2   0 98.9739 54.1129   6 0.20579 0.11089-0.00633 0.17366 0.99988-0.93889
   4  -2   0 62.8074 55.9520   9-0.03371 0.35008-0.44726 0.28030-0.88387 0.94457
   4  -2   0 5.57265 28.3964   4 0.21906 0.09789 0.03128-0.19861 0.99915-0.93833
  -4   2   0 -30.562 48.6165   1-0.21023-0.10628-0.01513 0.18189-0.99972 0.93904
   4  -2   0 87.7099 72.0141   7 0.21157 0.10497 0.01751-0.18465 0.99966-0.93893
  -4   2   0 -92.835 87.7449   8-0.21528-0.10142-0.02444 0.19149-0.99943 0.93869
  -4  -2   0 -50.137 30.8667   9-0.26318-0.05317 0.11558-0.28247-0.99045 0.92955
   4   0   1 384.789 108.014   7-0.12680 0.46452-0.04446 0.04446 0.94807-0.77868
  -4  -6   2 393.863 229.976   8-0.73176 0.45678-0.24029-0.26033-0.76663 0.92241
   4   6  -2 101.661 148.615   1-0.19667 0.47200 0.06391 0.43684-0.99790 0.84241
  -4   6   2 242.526 104.863   6 0.23851-0.51296 0.08964 0.41186 0.99486-0.83747
  -4  -6   2 188.179 98.3198   4 0.18788-0.46284-0.05695-0.44402 0.99833-0.84209
   4  -6  -2 166.165 104.206   9-0.19921 0.47367-0.06398-0.43663-0.99796 0.84137
  -4   6   2 128.559 124.577   2-0.53405 0.25894 0.39586 0.10546-0.83554 0.99204
   4   6  -2 206.404 114.465   6 0.35389-0.07928 0.51119-0.01071 0.83692-0.99346
   4  -6  -2 140.077 101.514   3 0.59838-0.32425-0.34978-0.15084 0.82220-0.97886
  -4   6   2 200.696 136.081   5-0.67196 0.39653 0.29224 0.20895-0.79678 0.95358
  -1   6  -2 55.5038 76.9432   1-0.23078 0.11037-0.15358 0.65403-0.98734 0.75604
   1  -6   2 -46.045 58.7760   4 0.26053-0.13918 0.15769-0.65920 0.98491-0.75235
   4  -2  -1 10.7483 69.4552   9-0.18932 0.48474-0.08982-0.07705-0.99601 0.94812
   4   2  -1 108.771 54.2343   1-0.19080 0.48683 0.09586 0.07114-0.99534 0.94795
   4   2  -1 -278.55 111.425   7 0.48727-0.19200 0.07011 0.09664 0.94787-0.99526
   4  -2  -1 37.1023 52.8730   7 0.55835-0.26297 0.08406-0.25124 0.91728-0.96484
  -4   2   1 -122.61 90.3302   2-0.41018 0.11432 0.21776-0.05046-0.94781 0.99561
  -4  -2   1 -61.027 80.5442   4 0.18134-0.47728-0.07484-0.09182 0.99710-0.94941
   4  -2  -1 20.3062 30.8736   1-0.23548 0.53141-0.18997 0.02305-0.98073 0.93314
   4   2  -1 -4.1151 48.6716   6 0.32088-0.02542 0.36942-0.20258 0.91772-0.96571
  -4  -2   1 -171.35 83.9115   5-0.62609 0.33009 0.26102-0.42779-0.84124 0.88895
  -4  -2   1 -94.023 95.6291   8-0.46071 0.16488-0.12332-0.04344-0.95115 0.99865
  -4   2   1 -205.98 84.5233   8-0.59750 0.30150-0.18096 0.34809-0.88152 0.92925
  -7  -1  -1 670.348 162.147   8-0.12140-0.45340 0.01217-0.09544-0.99735 0.78249
   7  -1   1 505.767 187.478   7 0.11973 0.45539 0.00043-0.08407 0.99731-0.78236
   7   1   1 203.910 116.362   7 0.11958 0.45551 0.00040 0.08306 0.99730-0.78225
  -7   1  -1 684.716 197.992   8-0.11762-0.45724 0.01363 0.07000-0.99705 0.78226
  -6  -8   3 21.4697 153.249   4 0.14831-0.56082-0.16207-0.50581 0.98579-0.75127
   6   8  -3 57.9042 167.854   1-0.17370 0.58667 0.18291 0.48476-0.98290 0.74959
   0  -6   2 284.574 107.554   4 0.25222-0.21013 0.13138-0.63283 0.98939-0.77209
   0   6  -2 549.494 142.501   1-0.22776 0.18649-0.13132 0.63182-0.99068 0.77454
   0   6  -2 -105.79 58.7010   6 0.37419-0.41602 0.62207-0.12192 0.74718-0.96436
   7   3   1 852.138 175.564   7 0.16546 0.40953 0.00891 0.24165 0.99960-0.78446
  -7  -3  -1 1403.03 225.209   8-0.16687-0.40788-0.00549-0.24469-0.99966 0.78471
   0   8  -2 1488.32 246.876   2-0.27609 0.23370 0.04584 0.62220-0.99517 0.77851
   0  -8   2 1134.97 248.848   4 0.19244-0.15017-0.04438-0.62399 0.99899-0.78181
   0   8  -2 1438.95 267.504   1-0.20006 0.15886 0.04488 0.62257-0.99893 0.78289
   0   8  -2 -23.151 55.3466   6 0.37303-0.41485 0.61471 0.05244 0.75403-0.97113
   0  -8   2 -83.882 148.626   9 0.05568-0.01395-0.61661-0.05117-0.76037 0.97727
;
_shelx_hkl_checksum              74354
loop_
_space_group_symop_operation_xyz
'x, y, z'
'-x+1/2, y+1/2, -z'
'-x, -y, -z'
'x-1/2, -y-1/2, z'
loop_
_atom_site_label
_atom_site_type_symbol
_atom_site_fract_x
_atom_site_fract_y
_atom_site_fract_z
_atom_site_U_iso_or_equiv
_atom_site_adp_type
_atom_site_occupancy
_atom_site_site_symmetry_order
_atom_site_calc_flag
_atom_site_refinement_flags_posn
_atom_site_refinement_flags_adp
_atom_site_refinement_flags_occupancy
_atom_site_disorder_assembly
_atom_site_disorder_group
C1 C 0.6749(11) 0.2823(9) 0.791(4) 0.018(6) Uani 1 1 d . U . . .
H1D H 0.697845 0.311342 0.934519 0.022 Uiso 1 1 calc R U . . .
H1E H 0.576897 0.233892 0.763129 0.022 Uiso 1 1 calc R U . . .
C2 C 0.7872(11) 0.1705(9) 0.745(4) 0.016(6) Uani 1 1 d . U . . .
N1 N 0.6758(9) 0.4236(7) 0.662(3) 0.017(7) Uani 1 1 d . U . . .
H1A H 0.640685 0.398943 0.532017 0.021 Uiso 1 1 calc R U . . .
H1B H 0.768722 0.459414 0.675051 0.021 Uiso 1 1 calc R U . . .
H1C H 0.618523 0.497616 0.702029 0.021 Uiso 1 1 calc R U . . .
O1 O 0.5338(9) 0.8651(7) 0.984(4) 0.035(5) Uani 1 1 d . U . . .
H1 H 0.481279 0.943716 0.980476 0.042 Uiso 0.5 1 calc DR U P . .
O2 O 0.4620(8) 0.6453(6) 0.736(3) 0.032(6) Uani 1 1 d . U . . .
O3 O 0.4443(7) 0.9267(7) 0.622(3) 0.038(6) Uani 1 1 d . U . . .
H3 H 0.503282 0.986923 0.583707 0.045 Uiso 0.5 1 calc DR U P . .
O4 O 0.8525(7) 0.1799(6) 0.602(3) 0.018(6) Uani 1 1 d . U . . .
O5 O 0.8076(8) 0.0522(6) 0.885(3) 0.020(6) Uani 1 1 d . U . . .
H5 H 0.858710 -0.017148 0.847472 0.024 Uiso 1 1 calc R U . . .
P1 P 0.5300(3) 0.8076(3) 0.7722(14) 0.032(5) Uani 1 1 d . U . . .
H1P H 0.632771 0.802684 0.749189 0.038 Uiso 1 1 calc R U . . .
loop_
_atom_site_aniso_label
_atom_site_aniso_U_11
_atom_site_aniso_U_22
_atom_site_aniso_U_33
_atom_site_aniso_U_23
_atom_site_aniso_U_13
_atom_site_aniso_U_12
C1 0.026(4) 0.015(3) 0.01(2) -0.001(5) -0.004(6) 0.002(3)
C2 0.020(4) 0.014(3) 0.011(19) 0.001(5) -0.001(6) -0.001(3)
N1 0.027(4) 0.016(3) 0.01(2) 0.009(6) 0.008(8) 0.001(3)
O1 0.034(4) 0.012(3) 0.062(16) -0.003(5) 0.014(6) 0.007(3)
O2 0.024(3) 0.012(2) 0.062(17) -0.005(5) 0.013(6) -0.006(2)
O3 0.026(4) 0.017(3) 0.068(17) 0.007(5) 0.001(6) -0.001(2)
O4 0.023(4) 0.018(3) 0.01(2) 0.001(5) 0.004(7) 0.003(2)
O5 0.031(4) 0.016(3) 0.01(2) 0.003(5) 0.001(7) 0.003(2)
P1 0.0189(14) 0.0109(12) 0.065(15) -0.001(2) 0.009(3) 0.0002(10)
loop_
_atom_type_symbol
_atom_type_description
_atom_type_scat_dispersion_real
_atom_type_scat_dispersion_imag
_atom_type_scat_source
C C 0.0033 0.0016 'International Tables Vol C Tables 4.2.6.8 and 6.1.1.4'
H H 0.0000 0.0000 'International Tables Vol C Tables 4.2.6.8 and 6.1.1.4'
N N 0.0061 0.0033 'International Tables Vol C Tables 4.2.6.8 and 6.1.1.4'
O O 0.0106 0.0060 'International Tables Vol C Tables 4.2.6.8 and 6.1.1.4'
P P 0.1023 0.0942 'International Tables Vol C Tables 4.2.6.8 and 6.1.1.4'
loop_
_geom_angle_atom_site_label_1
_geom_angle_atom_site_label_2
_geom_angle_atom_site_label_3
_geom_angle
_geom_angle_site_symmetry_1
_geom_angle_site_symmetry_3
_geom_angle_publ_flag
C2 C1 N1 108.8(15) . . ?
C2 C1 H1D 109.9 . . ?
N1 C1 H1D 109.9 . . ?
C2 C1 H1E 109.9 . . ?
N1 C1 H1E 109.9 . . ?
H1D C1 H1E 108.3 . . ?
O4 C2 O5 124.1(9) . . ?
O4 C2 C1 125.8(16) . . ?
O5 C2 C1 110.2(18) . . ?
C1 N1 H1A 109.5 . . ?
C1 N1 H1B 109.5 . . ?
H1A N1 H1B 109.5 . . ?
C1 N1 H1C 109.5 . . ?
H1A N1 H1C 109.5 . . ?
H1B N1 H1C 109.5 . . ?
P1 O1 H1 109.5 . . ?
P1 O3 H3 109.5 . . ?
C2 O5 H5 109.5 . . ?
O1 P1 O2 112.7(9) . . ?
O1 P1 O3 108.5(7) . . ?
O2 P1 O3 110.9(8) . . ?
O1 P1 H1P 108.2 . . ?
O2 P1 H1P 108.2 . . ?
O3 P1 H1P 108.2 . . ?
loop_
_geom_bond_atom_site_label_1
_geom_bond_atom_site_label_2
_geom_bond_distance
_geom_bond_site_symmetry_2
_geom_bond_publ_flag
C1 C2 1.472(15) . ?
C1 N1 1.476(18) . ?
C1 H1D 0.9700 . ?
C1 H1E 0.9700 . ?
C2 O4 1.22(2) . ?
C2 O5 1.36(2) . ?
N1 H1A 0.8900 . ?
N1 H1B 0.8900 . ?
N1 H1C 0.8900 . ?
O1 P1 1.49(2) . ?
O1 H1 0.8200 . ?
O2 P1 1.513(6) . ?
O3 P1 1.527(13) . ?
O3 H3 0.8200 . ?
O5 H5 0.8200 . ?
P1 H1P 0.9800 . ?
loop_
_geom_hbond_atom_site_label_D
_geom_hbond_atom_site_label_H
_geom_hbond_atom_site_label_A
_geom_hbond_distance_DH
_geom_hbond_distance_HA
_geom_hbond_distance_DA
_geom_hbond_angle_DHA
_geom_hbond_site_symmetry_A
_geom_hbond_publ_flag
N1 H1A O2 0.89 1.89 2.77(3) 171.4 3_666 yes
N1 H1B O3 0.89 1.96 2.819(9) 161.6 4_675 yes
N1 H1C O2 0.89 1.95 2.822(10) 167.4 . yes
O1 H1 O1 0.82 1.65 2.394(13) 149.5 3_677 yes
O3 H3 O3 0.82 1.70 2.43(2) 145.6 3_676 yes
O5 H5 O2 0.82 1.70 2.514(12) 171.4 4_665 yes
loop_
_geom_torsion_atom_site_label_1
_geom_torsion_atom_site_label_2
_geom_torsion_atom_site_label_3
_geom_torsion_atom_site_label_4
_geom_torsion
_geom_torsion_site_symmetry_1
_geom_torsion_site_symmetry_2
_geom_torsion_site_symmetry_3
_geom_torsion_site_symmetry_4
_geom_torsion_publ_flag
N1 C1 C2 O4 -11(2) . . . . ?
N1 C1 C2 O5 169.4(13) . . . . ?

_cod_database_fobs_code 2109041
