#------------------------------------------------------------------------------
#$Date: 2022-09-02 04:49:51 +0300 (Fri, 02 Sep 2022) $
#$Revision: 277573 $
#$URL: file:///home/coder/svn-repositories/cod/cif/2/10/90/2109033.cif $
#------------------------------------------------------------------------------
#
# This file is available in the Crystallography Open Database (COD),
# http://www.crystallography.net/. The original data for this entry
# were provided by IUCr Journals, http://journals.iucr.org/.
#
# The file may be used within the scientific community so long as
# proper attribution is given to the journal article from which the
# data were obtained.
#
data_2109033
loop_
_publ_author_name
'Bogdanov, Nikita E.'
'Korabel'nikov, Dmitry V.'
'Fedorov, Igor A.'
'Zakharov, Boris A.'
'Boldyreva, Elena V.'
_publ_section_title
;
 The effect of hydrostatic compression on the crystal structure of
 glycinium phosphite
;
_journal_issue                   5
_journal_name_full               'Acta Crystallographica Section B'
_journal_page_first
;
;
_journal_paper_doi               10.1107/S2052520622008289
_journal_volume                  78
_journal_year                    2022
_chemical_formula_moiety         'C2 H6 N O2, H2 O3 P'
_chemical_formula_sum            'C2 H8 N O5 P'
_chemical_formula_weight         157.06
_space_group_crystal_system      monoclinic
_space_group_IT_number           14
_space_group_name_Hall           '-P 2yab'
_space_group_name_H-M_alt        'P 1 21/a 1'
_atom_sites_solution_hydrogens   geom
_atom_sites_solution_primary     direct
_atom_sites_solution_secondary   difmap
_audit_creation_method           SHELXL-2018/3
_cell_angle_alpha                90
_cell_angle_beta                 100.38(3)
_cell_angle_gamma                90
_cell_formula_units_Z            4
_cell_length_a                   9.4961(9)
_cell_length_b                   8.5028(5)
_cell_length_c                   7.127(6)
_cell_measurement_pressure       1630000
_cell_measurement_reflns_used    817
_cell_measurement_temperature    293(2)
_cell_measurement_theta_max      26.5050
_cell_measurement_theta_min      3.2260
_cell_volume                     566.0(5)
_computing_cell_refinement       'CrysAlisPro 1.171.40.53 (Rigaku OD, 2019)'
_computing_data_collection       'CrysAlisPro 1.171.40.53 (Rigaku OD, 2019)'
_computing_data_reduction        'CrysAlisPro 1.171.40.53 (Rigaku OD, 2019)'
_computing_structure_refinement  'SHELXL-2018/3 (Sheldrick, 2018)'
_diffrn_ambient_pressure         1630000
_diffrn_ambient_temperature      293(2)
_diffrn_detector                 'CCD plate'
_diffrn_detector_area_resol_mean 10.3457
_diffrn_detector_type            Ruby
_diffrn_measured_fraction_theta_full 0.354
_diffrn_measured_fraction_theta_max 0.322
_diffrn_measurement_device       'four-circle diffractometer'
_diffrn_measurement_device_type  'Xcalibur, Ruby, Gemini ultra'
_diffrn_radiation_monochromator  graphite
_diffrn_radiation_probe          x-ray
_diffrn_radiation_type           'Mo K\a'
_diffrn_radiation_wavelength     0.71073
_diffrn_reflns_av_R_equivalents  0.0910
_diffrn_reflns_av_unetI/netI     0.0651
_diffrn_reflns_Laue_measured_fraction_full 0.354
_diffrn_reflns_Laue_measured_fraction_max 0.322
_diffrn_reflns_limit_h_max       12
_diffrn_reflns_limit_h_min       -12
_diffrn_reflns_limit_k_max       11
_diffrn_reflns_limit_k_min       -11
_diffrn_reflns_limit_l_max       3
_diffrn_reflns_limit_l_min       -3
_diffrn_reflns_number            2939
_diffrn_reflns_point_group_measured_fraction_full 0.354
_diffrn_reflns_point_group_measured_fraction_max 0.322
_diffrn_reflns_theta_full        25.242
_diffrn_reflns_theta_max         27.961
_diffrn_reflns_theta_min         3.240
_diffrn_source                   'fine-focus sealed X-ray tube'
_diffrn_source_type              'Enhance (Mo) X-ray Source'
_exptl_absorpt_coefficient_mu    0.438
_exptl_absorpt_correction_T_max  1.00000
_exptl_absorpt_correction_T_min  0.08356
_exptl_absorpt_correction_type   multi-scan
_exptl_absorpt_process_details
;
CrysAlisPro 1.171.40.53 (Rigaku Oxford Diffraction, 2019)
Empirical absorption correction using spherical harmonics,
 implemented in SCALE3 ABSPACK scaling algorithm.
;
_exptl_crystal_colour            white
_exptl_crystal_density_diffrn    1.843
_exptl_crystal_description       plates
_exptl_crystal_F_000             328
_exptl_crystal_size_max          0.21
_exptl_crystal_size_mid          0.10
_exptl_crystal_size_min          0.05
_refine_diff_density_max         0.297
_refine_diff_density_min         -0.346
_refine_diff_density_rms         0.079
_refine_ls_extinction_method     none
_refine_ls_goodness_of_fit_ref   1.060
_refine_ls_hydrogen_treatment    constr
_refine_ls_matrix_type           full
_refine_ls_number_parameters     86
_refine_ls_number_reflns         440
_refine_ls_number_restraints     44
_refine_ls_restrained_S_all      1.067
_refine_ls_R_factor_all          0.0947
_refine_ls_R_factor_gt           0.0554
_refine_ls_shift/su_max          0.000
_refine_ls_shift/su_mean         0.000
_refine_ls_structure_factor_coef Fsqd
_refine_ls_weighting_details
'w=1/[\s^2^(Fo^2^)+(0.0928P)^2^+0.5049P] where P=(Fo^2^+2Fc^2^)/3'
_refine_ls_weighting_scheme      calc
_refine_ls_wR_factor_gt          0.1297
_refine_ls_wR_factor_ref         0.1607
_reflns_Friedel_coverage         0.000
_reflns_number_gt                318
_reflns_number_total             440
_reflns_threshold_expression     'I > 2\s(I)'
_cod_data_source_file            xk5096sup1.cif
_cod_data_source_block           1.63
_cod_original_cell_volume        566.1(5)
_cod_original_sg_symbol_H-M      'P 21/a'
_cod_database_code               2109033
_shelx_shelxl_version_number     2018/3
_shelx_space_group_comment
;
The symmetry employed for this shelxl refinement is uniquely defined
by the following loop, which should always be used as a source of
symmetry information in preference to the above space-group names.
They are only intended as comments.
;
_oxdiff_exptl_absorpt_empirical_full_min 0.742
_oxdiff_exptl_absorpt_empirical_full_max 9.634
_oxdiff_exptl_absorpt_empirical_details
;
Empirical correction (ABSPACK) includes:
- Absorption correction using spherical harmonics
- Frame scaling
;
_shelx_res_file
;
TITL GPI_1 in P2(1)/c
    1.63.res
    created by SHELXL-2018/3 at 15:55:29 on 15-Aug-2022
REM  transformed to space group : P21/a:b3
REM P2(1)/c (#14 in standard setting)
CELL   0.71073  9.4961  8.5028  7.1274   90.000  100.381   90.000
ZERR   4        0.0009  0.0005  0.0058    0.000    0.028    0.000
LATT    1
SYMM   1/2-X,1/2+Y,-Z
SFAC C H N O P
UNIT 8 32 4 20 4
LIST 4 ! automatically inserted. Change 6 to 4 for CHECKCIF!!
PLAN 30
FMAP 2
L.S. 20
BOND
BOND $H
CONF
ACTA
EQIV $1 1-X, 1-Y,1-Z
EQIV $2 1/2+X, 3/2-Y,Z
EQIV $3 1-X, 2-Y, 2-Z
EQIV $4 1-X, 2-Y, 1-Z
EQIV $5 1/2+X, 1/2-Y, Z
HTAB N1 O2_$1
HTAB N1 O3_$2
HTAB N1 O2
HTAB O1 O1_$3
HTAB O3 O3_$4
HTAB O5 O2_$5
DFIX 1.66  H1 O1_$3
DFIX 1.70  H3 O3_$4
SIMU 0.003
WGHT    0.092800    0.504900
FVAR       1.66288
C1    1    0.691338    0.298260    0.784437    11.00000    0.02254    0.02211 =
         0.02106    0.00170   -0.00042    0.00410
AFIX  23
H1D   2    0.599382    0.246813    0.777594    11.00000   -1.20000
H1E   2    0.720836    0.338383    0.912912    11.00000   -1.20000
AFIX   0
C2    1    0.800014    0.180737    0.741257    11.00000    0.01858    0.02032 =
         0.02107    0.00353    0.00175    0.00260
N1    3    0.677279    0.427252    0.650336    11.00000    0.01891    0.01445 =
         0.01760   -0.00191   -0.00016   -0.00073
AFIX 137
H1A   2    0.636378    0.392992    0.535402    11.00000   -1.20000
H1B   2    0.763534    0.465949    0.644896    11.00000   -1.20000
H1C   2    0.623268    0.502258    0.688119    11.00000   -1.20000
AFIX   0
O1    4    0.498187    0.861837    0.958080    11.00000    0.05279    0.02276 =
         0.01289    0.00056    0.00981    0.00605
AFIX 147
H1    2    0.478097    0.955683    0.956252    10.50000   -1.20000
AFIX   0
O2    4    0.464213    0.643211    0.718084    11.00000    0.02709    0.01779 =
         0.01705   -0.00163   -0.00081   -0.00324
O3    4    0.439308    0.925032    0.611729    11.00000    0.02815    0.02643 =
         0.01959    0.01099    0.00270    0.00677
AFIX 147
H3    2    0.498826    0.974366    0.565284    10.50000   -1.20000
AFIX   0
O4    4    0.862643    0.194095    0.615709    11.00000    0.02519    0.02365 =
         0.01884    0.00357    0.00527    0.00433
O5    4    0.814969    0.061109    0.866207    11.00000    0.02845    0.02253 =
         0.02208    0.00906    0.00481    0.00899
AFIX 147
H5    2    0.876328    0.000285    0.842144    11.00000   -1.20000
AFIX   0
P1    5    0.515742    0.810220    0.761540    11.00000    0.02012    0.01492 =
         0.01667    0.00061    0.00366   -0.00074
AFIX  13
H1P   2    0.618114    0.813457    0.756262    11.00000   -1.20000
AFIX   0
HKLF 4




REM  GPI_1 in P2(1)/c
REM wR2 = 0.1607, GooF = S = 1.060, Restrained GooF = 1.067 for all data
REM R1 = 0.0554 for 318 Fo > 4sig(Fo) and 0.0947 for all 440 data
REM 86 parameters refined using 44 restraints

END

WGHT      0.0930      0.5444

REM Highest difference peak  0.297,  deepest hole -0.346,  1-sigma level  0.079
Q1    1   0.7008  0.8298  0.7425  11.00000  0.05    0.30
Q2    1   0.4223  0.6247  0.7963  11.00000  0.05    0.24
Q3    1   0.8066  0.1814  0.9199  11.00000  0.05    0.23
Q4    1   0.5624  0.9231  0.8961  11.00000  0.05    0.23
Q5    1   0.7584  0.2457  0.7598  11.00000  0.05    0.23
Q6    1   0.4449  0.7016  0.6414  11.00000  0.05    0.22
Q7    1   0.4540  0.7092  0.6875  11.00000  0.05    0.22
Q8    1   1.0031 -0.0193  0.9547  11.00000  0.05    0.21
Q9    1   0.5812  0.1506  0.6606  11.00000  0.05    0.21
Q10   1   1.0000  0.0000  1.0000  10.50000  0.05    0.20
Q11   1   0.6990  0.3004  1.0073  11.00000  0.05    0.20
Q12   1   0.4152  1.0253  0.9437  11.00000  0.05    0.20
Q13   1   0.8067  0.1516  0.8270  11.00000  0.05    0.20
Q14   1   0.5211  0.5785  0.6680  11.00000  0.05    0.20
Q15   1   0.4021  0.6981  0.9253  11.00000  0.05    0.19
Q16   1   0.8625  0.3803  0.9009  11.00000  0.05    0.19
Q17   1   0.8447  0.2984  1.0294  11.00000  0.05    0.19
Q18   1   0.2837  0.9034  0.4800  11.00000  0.05    0.18
Q19   1   0.9338  0.1784  0.5967  11.00000  0.05    0.18
Q20   1   0.7753  0.3068  0.5379  11.00000  0.05    0.18
Q21   1   0.8604  0.3482  0.8044  11.00000  0.05    0.18
Q22   1   0.5734  0.2454  0.8062  11.00000  0.05    0.18
Q23   1   0.8566  0.2774  0.9176  11.00000  0.05    0.18
Q24   1   0.9029  0.3078  0.5799  11.00000  0.05    0.18
Q25   1   0.5879  0.1302  0.7754  11.00000  0.05    0.17
Q26   1   0.8935  0.0079  1.0464  11.00000  0.05    0.17
Q27   1   0.3565  0.7515  0.7196  11.00000  0.05    0.17
Q28   1   0.8001  0.7408  0.8076  11.00000  0.05    0.17
Q29   1   0.6730  0.8892  0.9008  11.00000  0.05    0.16
Q30   1   0.7742  0.1028  1.0219  11.00000  0.05    0.16
;
_shelx_res_checksum              46952
_shelx_hkl_file
;
   1   0   0 0.35039 1.23154   8 0.03807 0.03786 0.04076-0.04075 0.98898-0.97532
  -1   0   0 5.28740 4.55371   7-0.03797-0.03797-0.01372 0.01373-0.98969 0.97602
  -2   0   0 7252.12 211.512   7-0.07593-0.07595-0.00669 0.00669-0.99447 0.96713
  -2   0   0 7659.01 136.107   6-0.07597-0.07597-0.30275 0.30276-0.94816 0.92081
   2   0   0 7511.90 205.496   8 0.07603 0.07583 0.02615-0.02614 0.99416-0.96684
  -2   0   0 7916.59 136.775   4-0.07591-0.07594-0.30270 0.30258-0.94817 0.92088
   2   0   0 7798.42 136.819   9 0.07592 0.07591-0.31789 0.31782 0.94334-0.91603
  -3   0   0 -1.1419 2.78053   4-0.11389-0.11390-0.20935 0.20918-0.97580 0.93483
   3   0   0 1.10100 13.6729   8 0.11399 0.11379 0.01144-0.01143 0.99771-0.95672
  -3   0   0 -7.5643 15.3927   7-0.11390-0.11393 0.00038-0.00038-0.99777 0.95675
   3   0   0 8.43482 9.18321   9 0.11387 0.11385-0.23031 0.23023 0.97117-0.93018
  -3   0   0 9.79667 6.98075   6-0.11395-0.11395-0.20954 0.20955-0.97576 0.93474
  -4   0   0 4956.51 240.143   7-0.15185-0.15190 0.00749-0.00748-0.99957 0.94487
   4   0   0 4917.26 233.168   8 0.15197 0.15175-0.00337 0.00338 0.99959-0.94495
  -4   0   0 4905.36 148.669   6-0.15189-0.15189-0.11091 0.11094-0.99344 0.93875
   4   0   0 5238.99 117.302   1 0.15182 0.15184 0.21135-0.21159 0.97708-0.92237
  -4   0   0 5027.62 150.039   4-0.15188-0.15188-0.11049 0.11029-0.99349 0.93883
   5   0   0 -7.6954 7.80140   1 0.18974 0.18979 0.00832-0.00857 0.99992-0.93158
  -5   0   0 -30.817 29.6549   7-0.18980-0.18988 0.01462-0.01462-0.99985 0.93148
  -5   0   0 1.22016 7.22454   6-0.18983-0.18983-0.00619 0.00623-0.99993 0.93158
   5   0   0 7.82936 21.9839   8 0.18993 0.18972-0.01826 0.01828 0.99978-0.93148
  -6   0   0 8321.91 383.017   7-0.22776-0.22787 0.02179-0.02179-0.99857 0.91652
   6   0   0 7976.84 366.441   8 0.22791 0.22768-0.03326 0.03327 0.99825-0.91628
  -6   0   0 8825.18 229.242   6-0.22774-0.22774 0.10577-0.10573-0.99316 0.91116
   7   0   0 -1.6986 21.9523   2 0.26575 0.26576 0.05686-0.05699 0.99447-0.89879
   7   0   0 62.3104 55.2506   8 0.26590 0.26564-0.04835 0.04837 0.99493-0.89931
  -7   0   0 16.3027 48.0561   7-0.26571-0.26585 0.02899-0.02899-0.99571 0.89998
  -8   0   0 61.0598 51.4854   3-0.30384-0.30396-0.08744 0.08706-0.98789 0.87848
   8   0   0 45.5890 49.5915   8 0.30400 0.30350-0.06361 0.06362 0.98975-0.88054
   8   0   0 20.3724 24.2443   2 0.30373 0.30374 0.10360-0.10375 0.98630-0.87693
  -8   0   0 51.7856 59.6869   7-0.30364-0.30383 0.03622-0.03623-0.99121 0.88179
  -9   0   0 124.816 72.6380   3-0.34178-0.34193-0.12091 0.12050-0.97825 0.85518
   9   0   0 -63.893 68.4735   8 0.34167 0.34170-0.07878 0.07879 0.98273-0.85969
  -9   0   0 -76.577 68.7855   7-0.34158-0.34181 0.04350-0.04351-0.98501 0.86189
 -10   0   0 343.356 123.266   3-0.37972-0.37990-0.15490 0.15446-0.96547 0.82875
  10   0   0 459.685 134.087   8 0.37979 0.37956-0.09426 0.09426 0.97361-0.83699
 -10   0   0 397.427 138.125   7-0.37952-0.37981 0.05081-0.05082-0.97702 0.84021
  11   0   0 51.8453 48.9059   5 0.41751 0.41728 0.14148-0.14179 0.95806-0.80786
 -11   0   0 -2.4820 61.8541   7-0.41746-0.41779 0.05815-0.05818-0.96718 0.81665
  12   0   0 -47.528 60.8769   5 0.45549 0.45522 0.16453-0.16485 0.94258-0.77874
  12   0   0 56.9262 141.186   8 0.45581 0.45546-0.12549 0.12546 0.94887-0.78498
   0  -1   0 4.05136 3.86807   9 0.18908-0.18904-0.04168-0.04168 0.99909-0.99908
   0   1   0 -0.8124 4.10084   6-0.20638 0.20642 0.04171 0.04171-0.99877 0.99876
   0  -1   0 0.83802 3.00014   1 0.19784-0.19779-0.04173-0.04173 0.99897-0.99896
   0   1   0 0.18090 1.58181   4-0.20618 0.20619 0.04176 0.04173-0.99877 0.99876
   1  -1   0 339.332 27.7964   9 0.26054-0.18460 0.16095-0.24430 0.98328-0.96962
  -1  -1   0 386.427 33.7520   1 0.23007-0.30589-0.28539 0.20200 0.95664-0.97029
   1   1   0 384.237 30.8212   7 0.13343-0.05749-0.04511 0.12860-0.94983 0.96350
  -1   1   0 313.551 36.9766   6-0.16543 0.08950-0.07431 0.15777-0.99712 0.98344
  -1   1   0 336.425 35.5991   1 0.15130-0.22723 0.21389-0.13035 0.97652-0.99020
  -1  -1   0 344.303 37.3457   9 0.12912-0.20499-0.19377 0.11041 0.97989-0.99355
  -1   1   0 319.122 37.4715   4-0.16530 0.08937-0.07415 0.15756-0.99713 0.98346
   1  -1   0 337.883 36.1140   8 0.10177-0.02585 0.01618-0.09955 0.99675-0.98309
   1   1   0 353.407 30.9756   1 0.20859-0.13276-0.11351 0.19691 0.99309-0.97944
   1   1   0 361.342 29.4755   6-0.30047 0.37641 0.34974-0.26643-0.92700 0.94063
   1  -1   0 362.437 37.9648   1 0.17653-0.10058 0.08424-0.16777 0.99643-0.98275
   1   1   0 393.294 31.2928   4-0.30007 0.37613 0.34947-0.26588-0.92716 0.94085
  -1  -1   0 343.690 27.2555   4-0.23885 0.16281 0.14100-0.22456-0.98809 0.97440
  -1   1   0 338.663 35.0804   7-0.08860 0.01266-0.00433 0.08781-0.99573 0.98206
  -1   1   0 375.085 30.2805   9 0.32391-0.39985 0.37112-0.28779 0.91430-0.92795
  -1  -1   0 343.201 27.3201   6-0.23930 0.16337 0.14160-0.22495-0.98797 0.97432
   1  -1   0 366.165 37.3978   7 0.05081 0.02513-0.03006-0.05340-0.97280 0.98648
  -1   1   0 352.044 37.6523   8-0.01603-0.05990 0.06143 0.02195 0.97879-0.99244
  -1  -1   0 357.513 29.3403   7-0.07662 0.00069-0.00656-0.07690-0.99454 0.98088
   2   1   0 312.164 29.1399   1 0.22344-0.07173-0.22675 0.31011 0.97274-0.94545
   2  -1   0 344.600 41.0924   1 0.16862-0.01675 0.12679-0.21039 0.99186-0.96450
   2  -1   0 332.049 48.3750   8 0.10681 0.04504 0.01423-0.09759 0.99716-0.96985
  -2  -1   0 283.225 39.1320   7-0.09738-0.05449-0.00270-0.08076-0.99651 0.96918
   2   1   0 337.027 38.5771   8 0.08676 0.06509 0.02200 0.06139 0.99533-0.96800
  -2   1   0 357.187 48.8120   7-0.10007-0.05181-0.00219 0.08568-0.99674 0.96939
  -2  -1   0 296.559 40.0795   9 0.07586-0.22768-0.31802 0.23466 0.94330-0.97062
  -2   1   0 291.786 40.7558   6-0.15508 0.00318-0.10236 0.18583-0.99444 0.96708
   2  -1   0 318.999 41.7013   4-0.07228 0.22415-0.31136 0.22806-0.94504 0.97234
  -3   1   0 18410.6 347.130   6-0.16092-0.06694-0.08662 0.17009-0.99606 0.95503
   3  -1   0 19294.1 370.894   4-0.02485 0.25264-0.42030 0.33709-0.89666 0.93756
  -3   1   0 18608.9 425.109   7-0.12808-0.09975 0.00303 0.08046-0.99861 0.95759
   3  -1   0 17866.3 415.740   8 0.13106 0.09672 0.00479-0.08815 0.99876-0.95779
  -3  -1   0 19101.5 366.090   9 0.02651-0.25426-0.42508 0.34175 0.89480-0.93578
   3   1   0 17986.7 359.157   8 0.12686 0.10095 0.00644 0.07696 0.99853-0.95754
  -3  -1   0 18018.7 393.275   7-0.13046-0.09735 0.00348-0.08693-0.99874 0.95773
  -4  -1   0 545.717 77.0709   7-0.16611-0.13762 0.01016-0.09362-0.99985 0.94517
  -4   1   0 524.430 63.2313   6-0.17586-0.12793-0.04556 0.12902-0.99895 0.94425
  -4   1   0 609.947 88.5363   7-0.16080-0.14297 0.00916 0.07433-0.99977 0.94507
   4  -1   0 541.920 83.0203   8 0.16150 0.14221-0.00710-0.07626 0.99980-0.94517
  -4  -1   0 580.855 73.4361   9-0.02046-0.28325-0.52013 0.43681 0.83626-0.89090
   4   1   0 499.377 71.5185   8 0.16579 0.13794-0.00878 0.09217 0.99986-0.94520
   4  -1   0 574.505 73.3274   4 0.02085 0.28283-0.51824 0.43511-0.83722 0.89169
  -5   1   0 473.008 86.5770   7-0.19553-0.18418 0.01570 0.06779-0.99975 0.93137
  -5  -1   0 -1.8108 38.2812   9-0.06590-0.31375-0.60573 0.52245 0.76817-0.83645
  -5  -1   0 511.597 84.4002   7-0.20272-0.17693 0.01706-0.10052-0.99959 0.93124
   5   1   0 473.127 79.3476   8 0.20433 0.17535-0.02393 0.10733 0.99941-0.93109
   5  -1   0 424.916 32.4372   9 0.19074 0.18873-0.03728-0.04617 0.99925-0.93094
   5  -1   0 524.703 93.5914   8 0.19471 0.18494-0.02014-0.06321 0.99969-0.93140
  -5   1   0 373.650 56.1344   6-0.19629-0.18339 0.01232 0.07114-0.99979 0.93143
  -6   1   0 152.478 39.1577   6-0.22022-0.23533 0.08289 0.00054-0.99570 0.91367
  -6  -1   0 124.992 46.6093   7-0.23981-0.21577 0.02407-0.10754-0.99784 0.91581
   6   1   0 198.101 57.3612   8 0.24268 0.21293-0.03911 0.12252 0.99717-0.91519
   6  -1   0 134.762 55.4627   8 0.22937 0.22619-0.03384-0.04952 0.99815-0.91621
   6  -1   0 137.539 19.3825   9 0.27023 0.18503 0.19078-0.27416 0.97691-0.89497
  -6   1   0 135.828 57.8703   7-0.23129-0.22436 0.02246 0.06104-0.99838 0.91631
  -7   1   0 141.227 65.8601   7-0.26764-0.26394 0.02936 0.05413-0.99552 0.89977
   7   1   0 58.3441 52.6547   8 0.28094 0.25062-0.05437 0.13776 0.99311-0.89747
   7  -1   0 64.4404 16.0795   2 0.28492 0.24664 0.08033-0.16386 0.99085-0.89514
  -7  -1   0 85.6438 44.6033   7-0.27714-0.25436 0.03117-0.11463-0.99453 0.89882
   7  -1   0 64.2354 37.4880   8 0.26493 0.26658-0.04797-0.03539 0.99504-0.89943
   7   1   0 114.433 50.4089   2 0.26373 0.26774 0.05441 0.02884 0.99480-0.89913
  -7   1   0 124.554 44.3393   6-0.24645-0.28495 0.16424-0.08082-0.98392 0.88823
  -8  -1   0 286.859 77.7515   7-0.31464-0.29279 0.03832-0.12181-0.98959 0.88019
   8   1   0 271.315 85.2721   8 0.31941 0.28814-0.06980 0.15321 0.98711-0.87795
   8   1   0 390.397 93.8597   2 0.29645 0.31097 0.09456-0.01132 0.98818-0.87884
  -8   1   0 294.181 98.2576   7-0.30438-0.30314 0.03636 0.04713-0.99111 0.88166
   8  -1   0 149.680 75.7372   8 0.30118 0.30630-0.06247-0.02090 0.99020-0.88102
  -8  -1   0 285.814 81.8092   3-0.29829-0.30963-0.08258-0.00121-0.98905 0.87958
  -8   1   0 361.365 93.3250   3-0.32391-0.28373-0.10507 0.18808-0.98317 0.87383
  -9  -1   0 195.846 82.4437   7-0.35223-0.33110 0.04554-0.12903-0.98295 0.85986
   9  -1   0 168.406 76.9405   8 0.33743 0.34593-0.07707-0.00630 0.98362-0.86063
  -9  -1   0 113.840 57.8768   3-0.33312-0.35074-0.11322 0.02940-0.98072 0.85758
   9   1   0 141.182 74.8581   2 0.33010 0.35328 0.13668-0.05345 0.97815-0.85513
  -9   1   0 240.498 106.219   7-0.34137-0.34208 0.04345 0.04003-0.98504 0.86190
   9   1   0 247.908 94.4903   8 0.35727 0.32618-0.08511 0.16848 0.97925-0.85626
  -9   1   0 317.296 99.5849   3-0.36394-0.31959-0.14071 0.22367-0.97118 0.84819
  10   1   0 862.525 188.342   8 0.39537 0.36401-0.10062 0.18398 0.96927-0.83260
 -10  -1   0 840.590 178.806   3-0.36847-0.39131-0.14476 0.06092-0.96961 0.83279
 -10  -1   0 1019.24 219.761   7-0.38991-0.36935 0.05281-0.13631-0.97452 0.83773
  10  -1   0 865.852 196.041   8 0.37428 0.38505-0.09202 0.00864 0.97506-0.83846
 -10   1   0 870.665 202.646   7-0.37855-0.38084 0.05062 0.03286-0.97725 0.84040
 -11   1   0 155.163 130.996   7-0.41585-0.41946 0.05784 0.02563-0.96764 0.81708
  11   1   0 -52.692 69.7853   8 0.43358 0.40177-0.11630 0.19967 0.95705-0.80678
  11  -1   0 97.4786 91.7231   8 0.41126 0.42402-0.10713 0.02374 0.96447-0.81422
  11   1   0 8.62667 45.9811   5 0.40807 0.42662 0.13579-0.05272 0.96148-0.81134
 -11  -1   0 24.1326 80.0428   7-0.42763-0.40755 0.06013-0.14363-0.96421 0.81372
 -11  -1   0 90.6724 93.6878   3-0.40420-0.43150-0.17715 0.09328-0.95543 0.80494
  12   1   0 75.5084 133.075   8 0.47171 0.43961-0.13208 0.21545 0.94250-0.77859
  12   1   0 106.783 99.7906   5 0.44480 0.46580 0.15801-0.07495 0.94723-0.78345
   0   2   0 4482.08 143.186   2 0.28741-0.28741 0.08339 0.08337 0.99031-0.99034
   0   2   0 4345.68 160.399   6-0.22039 0.22045 0.08340 0.08342-0.99565 0.99562
   0  -2   0 4556.97 100.540   8 0.35361-0.35357-0.08362-0.08319 0.98010-0.98012
   0  -2   0 4513.10 129.964   3-0.29921 0.29924-0.08339-0.08343-0.98886 0.98888
   0   2   0 4591.82 104.254   8-0.07363 0.07365 0.08324 0.08351 0.96431-0.96429
   0  -2   0 4304.77 158.078   9 0.17320-0.17311-0.08337-0.08335 0.99651-0.99649
   1   2   0 243.360 37.4935   1 0.18864-0.11285 0.01489 0.15197 0.99985-0.98621
  -1  -2   0 212.766 37.8969   9 0.14096-0.21679-0.16481-0.00193 0.98565-0.99929
  -1   2   0 245.323 42.2131   6-0.19600 0.12010 0.01148 0.15539-0.99980 0.98611
   1  -2   0 228.406 33.1769   8 0.18538-0.10943-0.01647-0.15029 0.99985-0.98620
  -1   2   0 302.059 31.5730   2 0.46122-0.53714 0.31070-0.14386 0.90050-0.91423
   1  -2   0 236.585 33.7986   9 0.20124-0.12526-0.00906-0.15766 0.99973-0.98605
  -1   2   0 280.569 33.1393   7-0.18942 0.11353 0.01455 0.15241-0.99985 0.98616
   1  -2   0 290.478 35.8363   7 0.12550-0.04952-0.04367-0.12326-0.95234 0.96604
  -1  -2   0 280.203 37.3585   4-0.18614 0.11009-0.01610-0.15094-0.99985 0.98618
   1   2   0 243.946 35.6584   6-0.26377 0.33977 0.22071-0.05398-0.97117 0.98479
  -2  -2   0 2049.95 95.4395   6-0.20325 0.05139 0.03251-0.19924-0.99919 0.97189
  -2   2   0 1910.26 127.338   6-0.18609 0.03421-0.01684 0.18375-0.99984 0.97247
   2   2   0 2027.79 96.9734   6-0.32560 0.47748 0.44881-0.28220-0.87729 0.90451
   2  -2   0 1979.79 123.433   8 0.16043-0.00857-0.00668-0.16006 0.99978-0.97247
   2  -2   0 1991.05 91.3653   9 0.22269-0.07084 0.05025-0.21694 0.99777-0.97043
  -2  -2   0 1908.83 125.609   9 0.10597-0.25773-0.24893 0.08219 0.96608-0.99340
  -2   2   0 1976.25 118.786   7-0.15813 0.00627 0.00866 0.15831-0.99972 0.97235
  -2  -2   0 2065.28 94.1211   4-0.20280 0.05077 0.03186-0.19894-0.99922 0.97187
   2  -2   0 1908.96 129.782   4-0.10019 0.25208-0.24363 0.07684-0.96693 0.99426
  -2  -2   0 1944.06 95.1200   7-0.18212 0.03027 0.01317-0.18005-0.99991 0.97259
   2   2   0 1930.18 77.2141   8 0.18564-0.03376-0.01658 0.18337 0.99985-0.97251
   2   2   0 1963.96 105.420   1 0.19522-0.04353-0.02515 0.19196 0.99957-0.97227
   3  -2   0 26.0442 19.8310   8 0.16807 0.05972-0.00967-0.15706 0.99988-0.95891
  -3  -2   0 1.93558 8.70382   9 0.06908-0.29677-0.33318 0.16644 0.93744-0.97842
   3  -2   0 -2.1858 4.62917   9 0.23283-0.00511 0.07907-0.24578 0.99537-0.95437
   3   2   0 -3.7200 12.0209   8 0.18766 0.04016-0.01737 0.18416 0.99982-0.95882
  -3  -2   0 0.02849 4.38526   6-0.20716-0.02059 0.04398-0.21069-0.99865 0.95768
  -3  -2   0 -2.3751 5.93914   4-0.20651-0.02150 0.04274-0.20985-0.99872 0.95768
  -3   2   0 0.91649 8.29449   7-0.16741-0.06040 0.01041 0.15658-0.99987 0.95883
  -3  -2   0 14.0735 11.7472   7-0.18509-0.04268 0.01373-0.18062-0.99989 0.95890
   3   2   0 11.0255 11.8396   1 0.19573 0.03185-0.02840 0.19518 0.99947-0.95852
   3  -2   0 -4.9119 17.7959   4-0.06529 0.29311-0.32789 0.16119-0.93878 0.97974
  -3   2   0 16.7247 17.3724   6-0.18649-0.04133-0.01569 0.18260-0.99985 0.95881
  -4   2   0 1040.31 113.727   6-0.19421-0.10956 0.00633 0.16056-0.99988 0.94517
  -4  -2   0 1056.70 118.561   9 0.03085-0.33448-0.41597 0.24925 0.89960-0.95425
  -4  -2   0 1025.59 49.9421   4-0.18092-0.12300-0.03084-0.13628-0.99952 0.94481
   4   2   0 1118.34 106.398   8 0.21262 0.09114-0.02721 0.19400 0.99908-0.94441
  -4   2   0 1127.47 124.030   7-0.18968-0.11407 0.01460 0.15239-0.99985 0.94513
   4  -2   0 1141.08 125.522   4-0.02868 0.33242-0.41178 0.24520-0.90107 0.95563
  -4  -2   0 1057.73 110.832   7-0.20757-0.09611 0.01797-0.18486-0.99945 0.94479
   4  -2   0 1199.75 137.490   8 0.18818 0.11553-0.01757-0.14915 0.99981-0.94519
   4  -2   0 1142.42 53.5286   9 0.21803 0.08555 0.03719-0.20392 0.99855-0.94389
   4   2   0 1159.92 80.7071   1 0.18832 0.11517 0.01683 0.14991 0.99982-0.94520
  -4  -2   0 1078.68 53.0009   6-0.18182-0.12186-0.02885-0.13790-0.99958 0.94493
   5  -2   0 744.028 102.126   4 0.00922 0.37043-0.49395 0.32748-0.85353 0.92165
  -5   2   0 624.636 100.751   7-0.21775-0.16196 0.01989 0.14711-0.99906 0.93066
   5   2   0 717.416 92.8761   8 0.24391 0.13579-0.03960 0.20640 0.99707-0.92874
  -5  -2   0 601.503 91.0950   7-0.23681-0.14280 0.02350-0.19040-0.99804 0.92970
   5  -2   0 647.198 104.394   8 0.21438 0.16526-0.02790-0.13882 0.99900-0.93072
  -5   2   0 661.206 88.9500   6-0.20715-0.17254 0.04397 0.12291-0.99865 0.93027
   5   2   0 631.687 50.8716   1 0.16711 0.21235 0.13473 0.03196 0.99080-0.92249
  -5  -2   0 673.489 97.1508   9-0.00836-0.37123-0.49629 0.32958 0.85247-0.92078
   6  -2   0 1106.41 82.9754   2 0.29010 0.16555 0.08671-0.25364 0.98970-0.90764
  -6  -2   0 1444.82 177.841   9-0.04834-0.40721-0.57340 0.40672 0.79583-0.87779
  -6   2   0 1036.16 118.145   6-0.22389-0.23170 0.09399 0.07286-0.99454 0.91249
  -6  -2   0 984.318 127.829   7-0.26917-0.18636 0.02965-0.19656-0.99537 0.91336
   6  -2   0 1281.55 155.363   4 0.04813 0.40743-0.57341 0.40702-0.79578 0.87744
   6   2   0 931.218 117.262   8 0.27784 0.17781-0.05313 0.21992 0.99351-0.91151
  -6   2   0 1017.92 140.492   7-0.24887-0.20678 0.02579 0.14121-0.99718 0.91509
   6   2   0 1011.44 128.072   2 0.24614 0.20936 0.03312 0.13352 0.99715-0.91517
  -6   2   0 767.736 86.9607   3-0.28395-0.17171-0.07009 0.23653-0.99176 0.90978
   6  -2   0 869.647 130.033   8 0.24399 0.21158-0.03963-0.12709 0.99707-0.91513
  -7   2   0 784.061 110.439   6-0.24338-0.28808 0.15447 0.01234-0.98574 0.89002
  -7   2   0 686.522 129.859   7-0.28184-0.24976 0.03206 0.13494-0.99400 0.89823
   7  -2   0 788.575 138.966   8 0.27570 0.25580-0.05227-0.11446 0.99378-0.89819
   7   2   0 683.393 112.933   2 0.27175 0.25969 0.06416 0.10246 0.99345-0.89781
  -7   2   0 702.438 97.8877   3-0.32520-0.20636-0.10622 0.27260-0.98284 0.88722
  -7  -2   0 752.651 125.403   7-0.30323-0.22820 0.03614-0.20306-0.99127 0.89557
   7   2   0 639.139 107.620   8 0.31336 0.21826-0.06737 0.23418 0.98819-0.89262
   8   2   0 1018.38 150.049   8 0.34907 0.25847-0.08178 0.24854 0.98112-0.87173
  -8   2   0 972.505 166.655   7-0.31597-0.29157 0.03858 0.12842-0.98938 0.87991
  -8  -2   0 886.570 151.402   3-0.30303-0.30500-0.08673-0.08052-0.98806 0.87854
   8   2   0 1005.72 151.502   2 0.29957 0.30782 0.09842 0.06821 0.98740-0.87808
  -8  -2   0 858.855 148.982   7-0.33833-0.26903 0.04287-0.20979-0.98561 0.87623
   8  -2   0 789.679 160.408   8 0.30894 0.29852-0.06559-0.10115 0.98894-0.87978
  -9  -2   0 639.518 148.465   3-0.33436-0.34962-0.11431-0.05295-0.98038 0.85717
   9   2   0 484.799 131.870   8 0.38574 0.29776-0.09668 0.26346 0.97200-0.84898
   9   2   0 690.401 142.368   2 0.32900 0.35433 0.13529 0.03132 0.97853-0.85554
  -9   2   0 552.477 143.317   7-0.35090-0.33257 0.04529 0.12170-0.98321 0.86004
   9  -2   0 491.759 150.525   8 0.34284 0.34052-0.07926-0.08747 0.98248-0.85956
  -9  -2   0 484.334 125.975   7-0.37410-0.30917 0.04976-0.21668-0.97828 0.85522
 -10   2   0 193.586 120.410   7-0.38640-0.37301 0.05214 0.11485-0.97538 0.83850
 -10  -2   0 112.750 89.1509   3-0.36671-0.39320-0.14319-0.02410-0.97023 0.83334
 -10  -2   0 332.035 128.046   7-0.41032-0.34886 0.05677-0.22371-0.96918 0.83242
  10   2   0 200.344 94.4319   8 0.42264 0.33681-0.11180 0.27856 0.96079-0.82411
  10   2   0 142.193 47.2158   2 0.35965 0.39964 0.17443-0.00783 0.96638-0.82972
  10  -2   0 23.0348 55.1775   8 0.37763 0.38168-0.09338-0.07336 0.97418-0.83761
 -11  -2   0 193.713 87.7620   7-0.44687-0.38822 0.06389-0.23083-0.95819 0.80773
  11  -2   0 321.871 148.599   8 0.41293 0.42232-0.10781-0.05894 0.96394-0.81372
  11   2   0 467.571 145.464   5 0.40708 0.42751 0.13520 0.03124 0.96183-0.81175
  11   2   0 390.189 150.459   8 0.45984 0.37556-0.12716 0.29392 0.94729-0.79699
 -11   2   0 253.445 176.229   7-0.42232-0.41303 0.05910 0.10789-0.96578 0.81518
 -11  -2   0 511.583 188.147   3-0.39984-0.43599-0.17317 0.00589-0.95732 0.80674
 -12  -2   0 49.9323 124.509   7-0.48367-0.42733 0.07109-0.23804-0.94519 0.78102
 -12  -2   0 -74.547 120.419   3-0.43359-0.47816-0.20420 0.03691-0.94135 0.77708
   0  -3   0 7.70462 9.12864   3-0.34645 0.34653-0.12506-0.12515-0.97685 0.97687
   0  -3   0 6.07118 9.84558   4-0.14638 0.14629-0.12519-0.12527-0.99158 0.99160
   0  -3   0 -7.7208 9.53361   9 0.15689-0.15678-0.12507-0.12503 0.99192-0.99189
   0   3   0 -18.852 17.8622   6-0.23401 0.23411 0.12509 0.12515-0.99054 0.99050
   0  -3   0 1.78894 5.00027   8 0.45544-0.45537-0.12532-0.12489 0.94901-0.94905
   0   3   0 -9.5914 10.9077   2 0.32091-0.32090 0.12508 0.12505 0.98123-0.98127
  -1   3   0 914.488 72.4319   2 0.42961-0.50549 0.26704-0.01681 0.92583-0.93957
  -1  -3   0 914.580 88.3030   4-0.16016 0.08409-0.08818-0.16234-0.99590 0.98224
  -1   3   0 959.378 66.2348   7-0.32054 0.24472 0.03945 0.21094-0.98866 0.97494
   1  -3   0 867.552 84.3148   9 0.17290-0.09690-0.08413-0.16595 0.99644-0.98275
  -1   3   0 760.026 86.7147   6-0.21627 0.14039 0.07100 0.17929-0.99678 0.98307
   1  -3   0 867.714 72.8371   8 0.27692-0.20094-0.05276-0.19740 0.99363-0.97998
  -1  -3   0 885.179 94.1598   9 0.13570-0.21149-0.17774-0.07236 0.98320-0.99684
   1   3   0 968.078 91.0779   6-0.26242 0.33847 0.21620 0.03393-0.97233 0.98593
   1  -3   0 951.191 63.1615   3-0.53203 0.60816-0.29802 0.04810-0.87531 0.88888
   1   3   0 734.527 84.0410   1 0.17674-0.10099 0.08307 0.16725 0.99653-0.98290
   1   3   0 842.616 86.6397   2 0.26513-0.18922 0.05611 0.19398 0.99457-0.98094
  -2  -3   0 1877.35 87.3581   7-0.35967 0.20782 0.04698-0.29720-0.98143 0.95415
  -2   3   0 2141.63 159.472   6-0.20758 0.05574 0.04522 0.20510-0.99858 0.97120
  -2  -3   0 2080.93 149.880   9 0.11054-0.26224-0.23820-0.01191 0.96907-0.99637
   2   3   0 2149.73 140.574   1 0.18058-0.02894 0.06163 0.18865 0.99809-0.97081
   2  -3   0 2077.84 123.204   9 0.18185-0.02997-0.06079-0.18929 0.99816-0.97081
   2  -3   0 2016.18 153.738   4-0.10398 0.25585-0.23423-0.01606-0.96950 0.99685
   2   3   0 2313.07 139.467   6-0.30165 0.45361 0.35415-0.10412-0.92510 0.95232
   2  -3   0 1980.47 132.320   8 0.22769-0.07580-0.03317-0.21695 0.99826-0.97096
  -2   3   0 2108.10 126.766   7-0.24194 0.09014 0.02447 0.22598-0.99769 0.97031
  -2  -3   0 2177.13 129.987   4-0.16674 0.01469-0.07020-0.18035-0.99744 0.97009
  -3   3   0 6021.84 250.384   7-0.22755-0.00021 0.02175 0.22873-0.99859 0.95753
   3   3   0 6741.20 229.610   6-0.34684 0.57466 0.54434-0.29445-0.81385 0.85463
  -3  -3   0 5976.29 203.725   7-0.28794 0.06020 0.03322-0.28349-0.99328 0.95232
   3  -3   0 5712.14 273.024   4-0.07741 0.30525-0.29912 0.04892-0.94944 0.99042
   3   3   0 6303.12 236.154   1 0.18001 0.04753 0.06488 0.18536 0.99789-0.95694
  -3   3   0 6020.31 276.721   6-0.20618-0.02163 0.04111 0.20923-0.99880 0.95774
   3  -3   0 6050.71 192.488   9 0.18043 0.04731-0.06449-0.18560 0.99793-0.95692
  -3  -3   0 6053.68 274.036   9 0.08225-0.30989-0.30358 0.05347 0.94858-0.98955
   3  -3   0 5789.57 258.927   8 0.21892 0.00889-0.02970-0.22040 0.99877-0.95781
  -3  -3   0 5722.44 194.636   4-0.16288-0.06512-0.08077-0.16980-0.99658 0.95555
   3   3   0 5923.43 165.423   8 0.33407-0.10621-0.07571 0.32593 0.98431-0.94322
  -4   3   0 1964.00 163.895   6-0.21053-0.09324 0.05390 0.19642-0.99806 0.94333
   4  -3   0 1938.59 169.795   8 0.22778 0.07595-0.03320-0.21690 0.99826-0.94365
  -4  -3   0 2022.03 105.744   4-0.14161-0.16232-0.13782-0.11276-0.98974 0.93504
  -4  -3   0 1912.04 166.471   9 0.05149-0.35506-0.37183 0.12172 0.92104-0.97568
   4  -3   0 1992.10 173.800   4-0.04818 0.35195-0.36766 0.11758-0.92217 0.97677
   4   3   0 1891.39 120.107   8 0.30899-0.00520-0.06561 0.31584 0.98893-0.93426
   4   3   0 1985.41 129.177   1 0.17399 0.12947 0.09810 0.15211 0.99515-0.94054
  -4  -3   0 1868.69 137.953   7-0.28134-0.02231 0.03197-0.28225-0.99406 0.93942
  -4   3   0 2082.25 169.626   7-0.23581-0.06792 0.02331 0.22719-0.99810 0.94336
   4  -3   0 2040.28 102.807   9 0.16150 0.14211-0.11337-0.13677 0.99341-0.93875
  -4   3   0 2070.26 68.2151   3-0.38951 0.08588-0.16377 0.41348-0.96163 0.90706
   5   3   0 1136.03 93.6288   1 0.16029 0.21910 0.16963 0.08054 0.98533-0.91705
   5  -3   0 1073.92 61.1912   9 0.10179 0.27772-0.25870 0.00844 0.96324-0.89494
  -5   3   0 991.256 134.311   7-0.25461-0.12507 0.02688 0.22363-0.99672 0.92829
  -5   3   0 1048.80 124.403   6-0.21936-0.16034 0.08029 0.17002-0.99595 0.92755
   5   3   0 1063.69 106.114   8 0.31800 0.06175-0.06923 0.31946 0.98737-0.91905
  -5   3   0 1117.48 70.3752   3-0.36590-0.01366-0.14246 0.39216-0.97051 0.90227
  -5  -3   0 1018.53 127.299   9 0.01869-0.39821-0.44137 0.19126 0.88588-0.95419
   5  -3   0 1083.22 134.258   4-0.01675 0.39645-0.43816 0.18820-0.88703 0.95522
   5   3   0 1087.50 132.881   2 0.24849 0.13107 0.03595 0.21406 0.99688-0.92859
  -5  -3   0 1126.58 66.6737   4-0.08114-0.29861-0.29015 0.03960-0.95253 0.88422
   5  -3   0 1093.27 138.288   8 0.24586 0.13379-0.04038-0.20972 0.99691-0.92864
  -5  -3   0 1024.10 112.254   7-0.29512-0.08443 0.03459-0.28490-0.99237 0.92406
   6  -3   0 186.275 68.0301   8 0.26938 0.18620-0.04975-0.20035 0.99454-0.91262
  -6   3   0 274.332 44.4802   3-0.38290-0.07256-0.15779 0.40745-0.96425 0.88238
   6  -3   0 243.595 66.8265   4 0.01653 0.43910-0.50926 0.25940-0.84338 0.92513
   6   3   0 200.872 65.4710   2 0.26541 0.19006 0.05645 0.19356 0.99453-0.91258
  -6  -3   0 280.262 76.3140   9-0.01580-0.43968-0.51097 0.26088 0.84261-0.92459
  -6   3   0 213.584 68.4534   7-0.27919-0.17645 0.03156 0.21896-0.99430 0.91219
  -6   3   0 322.966 77.8027   6-0.23170-0.22391 0.11792 0.13235-0.99156 0.90949
  -6  -3   0 213.436 62.3144   7-0.31791-0.13756 0.03895-0.28927-0.98908 0.90709
   6   3   0 180.945 47.5637   8 0.33873 0.11695-0.07759 0.32775 0.98335-0.90115
  -7  -3   0 1204.71 170.748   3-0.28960-0.24254-0.07501-0.17569-0.99074 0.89486
   7   3   0 1244.51 167.790   2 0.28609 0.24532 0.08176 0.16824 0.99060-0.89498
   7  -3   0 1259.02 183.020   8 0.29649 0.23504-0.06059-0.18952 0.99092-0.89544
  -7   3   0 1423.09 164.559   6-0.24677-0.28473 0.16527 0.08496-0.98372 0.88797
  -7  -3   0 1696.85 227.789   9-0.05170-0.47973-0.57967 0.32958 0.79067-0.88630
  -7  -3   0 1075.45 144.979   7-0.34546-0.18592 0.04424-0.29457-0.98427 0.88861
   7   3   0 1328.57 143.668   8 0.36655 0.16509-0.08888 0.33908 0.97701-0.88133
   7  -3   0 1958.00 231.671   4 0.05138 0.48015-0.57982 0.33006-0.79054 0.88582
  -7   3   0 1435.73 194.457   7-0.30726-0.22433 0.03691 0.21361-0.99069 0.89488
   8   3   0 458.477 99.6654   8 0.39698 0.21061-0.10127 0.35145 0.96880-0.85941
  -8   3   0 708.694 136.506   6-0.26396-0.34341 0.22134 0.02886-0.97101 0.86158
  -8  -3   0 470.801 114.927   3-0.31534-0.29278-0.09753-0.15319-0.98529 0.87571
   8   3   0 585.232 124.328   2 0.30954 0.29781 0.11084 0.13916 0.98468-0.87539
  -8   3   0 435.112 116.935   7-0.33760-0.26992 0.04273 0.20779-0.98574 0.87623
   8  -3   0 507.778 118.061   8 0.32601 0.28149-0.07246-0.17767 0.98589-0.87688
  -8  -3   0 362.193 98.7641   7-0.37584-0.23144 0.05010-0.30043-0.97788 0.86853
   9   3   0 479.028 133.937   2 0.33509 0.34820 0.14300 0.10698 0.97636-0.85340
   9   3   0 447.209 105.545   8 0.42957 0.25399-0.11465 0.36484 0.95844-0.83542
  -9  -3   0 400.046 130.621   3-0.34306-0.34102-0.12205-0.12868-0.97788 0.85461
  -9   3   0 523.321 160.240   7-0.36952-0.31396 0.04888 0.20164-0.97931 0.85609
   9  -3   0 337.841 129.426   8 0.35652 0.32682-0.08480-0.16528 0.97943-0.85648
  -9  -3   0 389.400 111.396   7-0.40803-0.27516 0.05632-0.30668-0.96981 0.84677
 -10   3   0 221.224 95.5481   7-0.40256-0.35687 0.05526 0.19525-0.97128 0.83435
 -10  -3   0 -16.989 50.6789   3-0.37227-0.38775-0.14819-0.10254-0.96824 0.83127
  10  -3   0 220.569 124.279   8 0.38876 0.37053-0.09791-0.15218 0.97116-0.83459
 -10  -3   0 2.40104 62.7324   7-0.44147-0.31764 0.06283-0.31319-0.95994 0.82321
  10   3   0 114.637 91.9770   2 0.36226 0.39698 0.17780 0.07219 0.96520-0.82857
  11   3   0 319.461 127.209   5 0.41327 0.42126 0.13892 0.11086 0.95962-0.80960
 -11  -3   0 771.426 234.321   3-0.40265-0.43331-0.17574-0.07501-0.95611 0.80544
  11  -3   0 465.490 172.840   8 0.42190 0.41334-0.11150-0.13862 0.96103-0.81085
  11   3   0 664.093 196.339   2 0.39070 0.44449 0.21493 0.03505 0.95075-0.80046
 -11   3   0 178.833 66.6325   7-0.43642-0.39893 0.06185 0.18866-0.96153 0.81088
 -11  -3   0 381.163 155.481   7-0.47577-0.35923 0.06954-0.31990-0.94815 0.79773
   0   4   0 3054.17 174.558   2 0.35372-0.35369 0.16679 0.16674 0.96897-0.96904
   0  -4   0 2869.20 188.562   9 0.14017-0.14003-0.16676-0.16670 0.98529-0.98526
   0  -4   0 2742.54 187.152   4-0.13047 0.13035-0.16691-0.16703-0.98480 0.98482
   0   4   0 2794.14 192.971   1 0.16083-0.16101 0.16694 0.16690 0.98580-0.98585
   0  -4   0 2964.36 158.587   3-0.39277 0.39292-0.16673-0.16689-0.96030 0.96029
   0   4   0 2970.41 131.996   5 0.45930-0.45921 0.16686 0.16677 0.94087-0.94097
   0  -4   0 3012.10 119.162   8 0.55494-0.55484-0.16704-0.16660 0.90157-0.90164
   0   4   0 2739.34 184.293   6-0.24724 0.24737 0.16677 0.16688-0.98343 0.98336
  -2  -4   0 3233.97 106.439   7-0.68958 0.53769 0.11237-0.44589-0.82792 0.80079
  -2  -4   0 2280.48 169.725   3-0.28551 0.13349-0.07145-0.26250-0.99148 0.96410
  -2   4   0 2741.66 168.904   2 0.55891-0.71071 0.45589-0.12219 0.78187-0.80939
  -2   4   0 2549.01 194.770   6-0.22545 0.07363 0.09874 0.23501-0.99400 0.96660
   2   4   0 2577.26 184.060   1 0.16906-0.01747 0.12447 0.20927 0.99216-0.96489
   2   4   0 2836.06 182.761   6-0.29686 0.44889 0.33637-0.00294-0.93260 0.95979
  -2  -4   0 2730.80 175.793   4-0.14192-0.01016-0.13698-0.19703-0.98987 0.96252
   2  -4   0 2641.50 163.856   8 0.30364-0.15172-0.06346-0.27006 0.98981-0.96256
  -2   4   0 2199.51 138.952   7-0.34547 0.19376 0.04424 0.28967-0.98427 0.95684
   2  -4   0 2528.85 162.775   9 0.15453-0.00264-0.13100-0.20245 0.99110-0.96375
  -2  -4   0 2547.98 194.084   9 0.10576-0.25742-0.24943-0.08405 0.96594-0.99324
   3   4   0 64.7727 34.2933   8 0.68569-0.45780-0.22377 0.55752 0.80482-0.76373
  -3   4   0 838.746 99.1678   7-0.30497 0.07728 0.03647 0.29749-0.99102 0.94993
  -3   4   0 817.589 120.448   6-0.22327-0.00451 0.09212 0.24164-0.99475 0.95367
   3   4   0 753.937 100.078   1 0.16805 0.05945 0.12983 0.20388 0.99146-0.95054
   3  -4   0 763.643 86.0213   9 0.15013 0.07763-0.14204-0.19142 0.98947-0.94846
   3  -4   0 828.828 103.642   8 0.27962-0.05179-0.05384-0.27965 0.99328-0.95234
   3   4   0 912.573 98.7240   6-0.33061 0.55852 0.47010-0.13681-0.86458 0.90534
   3  -4   0 818.370 118.248   4-0.07799 0.30582-0.29772-0.03598-0.94993 0.99092
  -3  -4   0 760.798 87.5639   4-0.13629-0.09174-0.15176-0.18226-0.98750 0.94647
  -3  -4   0 865.361 116.880   9 0.08325-0.31084-0.30132-0.03216 0.94938-0.99035
  -3  -4   0 854.374 75.4566   7-0.45400 0.22627 0.06528-0.39886-0.95583 0.91492
  -4   4   0 858.265 122.209   6-0.22572-0.07803 0.09956 0.23420-0.99391 0.93916
   4  -4   0 950.725 91.5220   9 0.13324 0.17040-0.18375-0.14976 0.98200-0.92733
  -4  -4   0 884.247 93.8591   7-0.39413 0.09052 0.05363-0.38726-0.97346 0.91886
   4  -4   0 757.587 116.662   4-0.05407 0.35786-0.35408 0.02049-0.92810 0.98272
  -4  -4   0 921.833 128.357   9 0.05796-0.36148-0.35771 0.02421 0.92728-0.98192
   4   4   0 849.145 125.753   2 0.26863 0.03499 0.06037 0.27302 0.99399-0.93939
   4   4   0 871.754 103.543   1 0.16284 0.14056 0.15671 0.17697 0.98751-0.93292
   4   4   0 909.260 76.6848   8 0.48704-0.18319-0.13846 0.47216 0.93595-0.88122
  -4  -4   0 860.243 88.1024   4-0.11864-0.18532-0.19729-0.13672-0.97858 0.92387
   4  -4   0 741.792 110.282   8 0.27724 0.02651-0.05289-0.28059 0.99359-0.93899
  -4   4   0 831.688 110.191   7-0.29686-0.00680 0.03492 0.29907-0.99214 0.93737
  -5  -4   0 3259.32 253.503   9 0.03028-0.40974-0.41716 0.08366 0.89898-0.96729
   5  -4   0 3157.39 254.055   4-0.02768 0.40742-0.41401 0.08055-0.89993 0.96815
  -5  -4   0 3430.47 163.431   4-0.08073-0.29909-0.29114-0.04285-0.95220 0.88385
  -5  -4   0 3363.19 207.439   7-0.38147 0.00196 0.05119-0.38485-0.97656 0.90829
   5  -4   0 3522.88 138.319   5 0.51188-0.13215 0.19929-0.53333 0.91408-0.84560
   5  -4   0 3016.38 238.174   8 0.28680 0.09287-0.05671-0.27675 0.99233-0.92408
  -5  -4   0 3126.02 244.490   3-0.27890-0.10127-0.06571-0.26841-0.99262 0.92411
  -5   4   0 3219.58 247.306   6-0.23199-0.14771 0.11880 0.21494-0.99144 0.92302
   5   4   0 3306.90 194.277   1 0.15223 0.22711 0.20937 0.12428 0.97751-0.90925
  -5   4   0 3126.84 237.873   7-0.30451-0.07511 0.03639 0.29763-0.99109 0.92263
   5   4   0 3677.57 190.045   8 0.44134-0.06154-0.11950 0.45317 0.95429-0.88589
   5   4   0 3316.19 258.672   2 0.27568 0.10387 0.06897 0.26441 0.99273-0.92446
   5  -4   0 3476.53 158.314   9 0.09475 0.28477-0.27503-0.05857 0.95821-0.88991
   6   4   0 91.2675 32.8237   8 0.43572 0.02002-0.11718 0.45084 0.95630-0.87424
   6  -4   0 119.711 57.7146   8 0.30382 0.15178-0.06353-0.26995 0.98978-0.90796
  -6   4   0 161.519 60.0255   6-0.24138-0.21423 0.14817 0.18553-0.98686 0.90475
  -6  -4   0 62.6243 43.8833   3-0.29306-0.16312-0.07803-0.25614-0.99008 0.90786
  -6  -4   0 86.9298 25.4906   9 0.00053-0.45594-0.47846 0.14496 0.86390-0.94588
   6   4   0 86.4892 42.9325   2 0.28812 0.16733 0.08427 0.24911 0.99015-0.90822
   6  -4   0 132.603 65.6798   4 0.00087 0.45481-0.47625 0.14291-0.86474 0.94654
  -6   4   0 46.6699 46.8405   7-0.32104-0.13457 0.03955 0.29448-0.98858 0.90643
  -6  -4   0 145.594 56.6548   7-0.38846-0.06696 0.05253-0.38622-0.97488 0.89292
   7  -4   0 1419.05 194.935   4 0.03133 0.50027-0.53972 0.20648-0.82183 0.91717
   7   4   0 1343.06 184.241   2 0.30463 0.22675 0.10472 0.22865 0.98606-0.89046
  -7  -4   0 1012.88 164.009   3-0.31159-0.22061-0.09423-0.23995-0.98616 0.89024
  -7  -4   0 1439.27 203.798   9-0.03104-0.50032-0.54062 0.20712 0.82142-0.91707
   7  -4   0 1306.89 193.716   8 0.32573 0.20584-0.07235-0.26117 0.98594-0.89061
  -7   4   0 1340.63 191.961   7-0.34300-0.18856 0.04377 0.29027-0.98474 0.88889
  -7   4   0 1398.80 183.086   6-0.25335-0.27818 0.18643 0.14723-0.97937 0.88358
  -7  -4   0 1214.87 150.529   7-0.40550-0.12580 0.05583-0.38954-0.97049 0.87486
   8   4   0 84.0636 69.5855   2 0.32425 0.28307 0.12928 0.20408 0.98014-0.87088
  -8  -4   0 137.333 157.108   9-0.06424-0.54308-0.60271 0.26923 0.77086-0.88018
  -8   4   0 -14.315 48.3128   6-0.26737-0.34005 0.23275 0.10087-0.96795 0.85849
  -8   4   0 106.520 75.1754   7-0.36857-0.23894 0.04869 0.28536-0.97951 0.86997
  -8  -4   0 43.5529 45.8675   7-0.42841-0.17880 0.06029-0.39400-0.96398 0.85466
   8  -4   0 19.5508 57.8754   8 0.35024 0.25718-0.08226-0.25118 0.98086-0.87159
  -8  -4   0 -74.354 80.9791   3-0.33333-0.27485-0.11340-0.22079-0.98066 0.87103
  -9  -4   0 312.046 132.510   3-0.35751-0.32664-0.13493-0.19927-0.97335 0.85002
  -9  -4   0 146.236 68.2057   7-0.45501-0.22810 0.06548-0.39921-0.95549 0.83248
   9   4   0 114.481 86.9199   2 0.34628 0.33698 0.15726 0.17610 0.97206-0.84913
  -9   4   0 243.096 120.328   7-0.39664-0.28683 0.05411 0.27993-0.97282 0.84956
   9  -4   0 249.880 115.311   8 0.37770 0.30567-0.09341-0.24004 0.97416-0.85129
 -10  -4   0 20.2849 73.2472   3-0.38359-0.37653-0.15841-0.17580-0.96398 0.82693
  10  -4   0 170.923 131.941   8 0.40683 0.35246-0.10531-0.22814 0.96584-0.82931
 -10   4   0 25.9098 62.8289   7-0.42652-0.33289 0.05992 0.27413-0.96454 0.82756
  10   4   0 39.3623 62.6774   2 0.37023 0.38896 0.18813 0.14523 0.96145-0.82485
 -10  -4   0 -34.122 46.8272   7-0.48411-0.27490 0.07117-0.40492-0.94502 0.80833
 -11  -4   0 676.943 248.932   3-0.41116-0.42490-0.18353-0.15067-0.95229 0.80154
 -11   4   0 332.271 183.841   7-0.45774-0.37761 0.06601 0.26803-0.95456 0.80386
  11   4   0 427.364 155.801   2 0.39571 0.43943 0.22156 0.11179 0.94789-0.79763
   0  -5   0 9.83591 11.6090   8 0.65169-0.65154-0.20875-0.20832 0.83465-0.83477
   0  -5   0 6.77414 23.6595   9 0.12303-0.12286-0.20845-0.20835 0.97658-0.97655
   0   5   0 18.5498 17.1071   5 0.52676-0.52662 0.20859 0.20846 0.90535-0.90552
   0   5   0 -47.160 31.7603   6-0.26008 0.26025 0.20845 0.20861-0.97426 0.97416
   0   5   0 -15.359 16.6754   1 0.15237-0.15260 0.20868 0.20862 0.97766-0.97773
   0  -5   0 -27.134 23.7629   3-0.43810 0.43833-0.20839-0.20863-0.93898 0.93893
   0   5   0 19.5949 28.1191   2 0.38581-0.38577 0.20850 0.20842 0.95345-0.95354
  -1   5   0 302.120 75.1348   6-0.24831 0.17250 0.17016 0.24696-0.98276 0.96899
   1  -5   0 280.908 64.6510   9 0.12997-0.05391-0.19172-0.22509 0.98033-0.96663
  -1   5   0 -49.993 29.5058   1 0.14535-0.22145 0.24208 0.17529 0.96977-0.98350
   1   5   0 297.485 72.4753   1 0.15680-0.08115 0.18701 0.23024 0.98213-0.96853
   1  -5   0 326.635 54.6452   3-0.54951 0.62581-0.31530-0.10141-0.85993 0.87340
  -1  -5   0 257.475 57.7135   3-0.37170 0.29585-0.14768-0.26956-0.96845 0.95474
  -1   5   0 301.247 41.5427   7-0.63146 0.55586 0.10052 0.31668-0.87000 0.85604
  -1  -5   0 355.014 80.7181   9 0.11161-0.18732-0.23568-0.18114 0.96975-0.98338
   1  -5   0 253.400 70.4834   4-0.10391 0.17974-0.23440-0.18296-0.96946 0.98314
   1   5   0 280.960 68.3996   6-0.27707 0.35320 0.26577 0.15119-0.95819 0.97173
  -1   5   0 308.419 61.0572   2 0.45194-0.52780 0.29774 0.11925 0.90846-0.92226
   1   5   0 313.088 57.9993   5 0.41492-0.33896 0.13992 0.27697 0.95902-0.94548
   1  -5   0 298.474 54.3322   8 0.46783-0.39176-0.13047-0.28651 0.94410-0.93051
  -2   5   0 116.318 35.8395   7-0.46414 0.31255 0.06726 0.35008-0.95234 0.92483
   2  -5   0 88.5553 29.8854   8 0.38465-0.23267-0.09624-0.32067 0.97229-0.94501
   2   5   0 60.8330 17.6190   6-0.29919 0.45127 0.34496 0.07188-0.92903 0.95618
  -2  -5   0 52.6079 40.5480   9 0.09642-0.24804-0.27118-0.14565 0.95943-0.98672
  -2   5   0 67.1009 47.3879   6-0.24140 0.08962 0.14822 0.26895-0.98685 0.95941
   2   5   0 52.8396 34.4046   2 0.31728-0.16545 0.12053 0.29627 0.98237-0.95512
  -2  -5   0 89.3740 44.9843   3-0.33442 0.18246-0.11437-0.30301-0.98036 0.95296
  -2   5   0 122.452 38.6957   2 0.54564-0.69742 0.43495-0.01787 0.80274-0.83028
   2  -5   0 82.4884 36.2006   4-0.08991 0.24173-0.26889-0.14839-0.95945 0.98680
   2  -5   0 111.054 41.3865   9 0.13137 0.02054-0.18830-0.22852 0.98106-0.95370
   2   5   0 131.475 47.4703   1 0.15851-0.00697 0.17852 0.23868 0.98373-0.95648
   3   5   0 2848.92 236.512   2 0.30435-0.07663 0.10437 0.31241 0.98613-0.94521
   3  -5   0 2801.53 192.837   9 0.12569 0.10209-0.20205-0.21479 0.97806-0.93705
   3   5   0 2965.62 206.913   6-0.32548 0.55347 0.44830-0.03159-0.87758 0.91832
  -3  -5   0 814.411 111.251   7-0.70893 0.48116 0.11636-0.53324-0.81190 0.77116
  -3  -5   0 2775.22 236.372   9 0.07799-0.30552-0.31322-0.10362 0.94508-0.98605
  -3   5   0 2676.05 230.919   6-0.23886 0.01111 0.14022 0.27697-0.98820 0.94709
   3   5   0 2697.54 214.882   1 0.15724 0.07020 0.18486 0.23232 0.98254-0.94163
   3  -5   0 2794.32 205.347   8 0.34754-0.11967-0.08116-0.33573 0.98146-0.94057
  -3  -5   0 2818.27 197.833   4-0.11419-0.11388-0.20859-0.20889-0.97598 0.93493
   3  -5   0 2860.89 240.859   4-0.07270 0.30051-0.31035-0.10684-0.94541 0.98640
  -3  -5   0 2544.30 212.602   3-0.31605 0.08800-0.09815-0.31933-0.98512 0.94401
  -3   5   0 2984.64 196.887   7-0.39675 0.16917 0.05413 0.36328-0.97279 0.93163
   4  -5   0 11.4206 33.9213   4-0.05268 0.35646-0.35731-0.05978-0.92671 0.98134
   4   5   0 54.9351 39.5206   6-0.35312 0.65698 0.57600-0.15942-0.78887 0.84313
  -4  -5   0 -23.024 21.0238   4-0.09861-0.20539-0.24753-0.16992-0.96583 0.91111
   4   5   0 -47.127 43.5192   1 0.15252 0.15084 0.20797 0.20918 0.97782-0.92325
  -4  -5   0 81.3947 54.2600   9 0.05676-0.36023-0.36033-0.05653 0.92614-0.98078
  -4   5   0 -19.116 23.5292   7-0.37087 0.06730 0.04914 0.36834-0.97901 0.92418
   4  -5   0 11.2464 23.5300   8 0.33461-0.03082-0.07593-0.34097 0.98420-0.92973
  -4   5   0 -78.241 51.9391   6-0.24012-0.06360 0.14419 0.27299-0.98754 0.93276
   4  -5   0 -21.246 22.0471   9 0.11028 0.19336-0.23880-0.17809 0.96890-0.91425
  -4  -5   0 2.59111 26.0092   3-0.31039 0.00629-0.09319-0.32438-0.98644 0.93161
   4   5   0 17.9843 34.9130   2 0.30078 0.00285 0.09993 0.31683 0.98708-0.93250
  -4  -5   0 -8.0641 13.5824   7-0.55542 0.25181 0.08527-0.50219-0.91368 0.85917
   5   5   0 988.587 153.451   2 0.30423 0.07530 0.10422 0.31252 0.98616-0.91792
  -5   5   0 982.719 146.432   6-0.24466-0.13503 0.15853 0.25864-0.98500 0.91654
  -5  -5   0 1263.21 173.924   9 0.03306-0.41246-0.41130-0.00558 0.90201-0.97033
  -5  -5   0 1146.41 161.737   3-0.31362-0.06654-0.09602-0.32159-0.98569 0.91715
   5  -5   0 971.103 144.788   8 0.33558 0.04413-0.07632-0.34055 0.98400-0.91587
  -5  -5   0 1297.16 126.215   4-0.06929-0.31058-0.31845-0.09898-0.94240 0.87403
   5  -5   0 1270.62 179.417   4-0.03015 0.40990-0.40850-0.00847-0.90274 0.97098
  -5   5   0 1149.24 149.203   7-0.36604-0.01351 0.04821 0.36931-0.98007 0.91156
  -5  -5   0 1426.71 137.222   7-0.50076 0.12129 0.07445-0.49142-0.93845 0.87024
   6  -5   0 -9.6707 40.2972   4-0.00538 0.46109-0.46286 0.04601-0.87286 0.95468
  -6  -5   0 28.7429 28.3554   3-0.32326-0.13295-0.10450-0.31315-0.98334 0.90108
   6  -5   0 -37.595 30.1748   8 0.34543 0.11019-0.08030-0.33653 0.98192-0.90006
  -6  -5   0 -32.670 30.8234   7-0.48383 0.02846 0.07112-0.48813-0.94513 0.86323
  -6  -5   0 6.18454 51.9831   9 0.00715-0.46250-0.46504 0.04816 0.87213-0.95412
   6   5   0 6.84968 41.7461   2 0.31304 0.14240 0.11522 0.30151 0.98366-0.90175
  -6   5   0 -71.885 54.2953   6-0.25197-0.20365 0.18199 0.23514-0.98032 0.89818
  -6   5   0 -39.317 23.2262   7-0.37333-0.08220 0.04961 0.36793-0.97845 0.89625
  -7  -5   0 981.009 174.054   9-0.02073-0.51056-0.52065 0.10377 0.83589-0.93154
   7   5   0 980.568 165.974   2 0.32603 0.20534 0.13154 0.28519 0.97954-0.88397
  -7   5   0 949.182 170.350   6-0.26164-0.26991 0.21361 0.20349-0.97298 0.87716
   7  -5   0 1046.36 177.434   8 0.36144 0.17009-0.08680-0.33002 0.97826-0.88271
  -7  -5   0 820.592 148.158   3-0.33765-0.19457-0.11723-0.30044-0.97945 0.88348
   7  -5   0 849.812 165.836   4 0.02143 0.51023-0.51942 0.10268-0.83639 0.93177
  -7   5   0 910.051 163.800   7-0.38821-0.14329 0.05248 0.36507-0.97494 0.87904
  -8   5   0 -39.703 66.5058   7-0.40817-0.19928 0.05635 0.36122-0.96977 0.86016
   8  -5   0 -90.721 80.1789   8 0.38179 0.22568-0.09507-0.32174 0.97307-0.86387
   8   5   0 115.565 53.4504   2 0.34230 0.26499 0.15217 0.26455 0.97364-0.86441
  -8   5   0 101.127 78.5854   6-0.27325-0.33421 0.25266 0.16437-0.96223 0.85272
   8  -5   0 25.0683 34.6859   4 0.05011 0.55747-0.57731 0.16069-0.79260 0.90152
  -8  -5   0 100.745 81.6891   9-0.05043-0.55682-0.57730 0.16042 0.79262-0.90195
  -8  -5   0 75.5936 29.6639   3-0.35565-0.25257-0.13327-0.28441-0.97396 0.86427
   9  -5   0 129.278 73.5310   8 0.40522 0.27816-0.10465-0.31215 0.96634-0.84347
  -9  -5   0 21.0651 79.1794   3-0.37646-0.30775-0.15197-0.26572-0.96670 0.84329
  -9   5   0 128.354 71.6895   7-0.43171-0.25172 0.06093 0.35665-0.96298 0.83966
   9   5   0 143.404 89.6554   2 0.36119 0.32204 0.17641 0.24031 0.96569-0.84279
  10  -5   0 133.567 108.171   8 0.43113 0.32820-0.11529-0.30154 0.95790-0.82147
 -10   5   0 30.2730 99.8737   7-0.45782-0.30155 0.06603 0.35156-0.95453 0.81749
  10   5   0 -35.621 77.7810   2 0.38220 0.37696 0.20375 0.21298 0.95539-0.81883
 -10  -5   0 -10.986 52.8703   3-0.39950-0.36070-0.17285-0.24483-0.95747 0.82035
  10   5   0 97.5655 54.1093   5 0.41654 0.34200 0.14089 0.27557 0.95842-0.82215
   0   6   0 1156.97 101.102   5 0.59249-0.59229 0.25032 0.25014 0.85980-0.86008
   0  -6   0 1054.71 149.853   4-0.09747 0.09727-0.25035-0.25055-0.96502 0.96501
   0  -6   0 1145.34 151.915   9 0.10545-0.10526-0.25015-0.25001 0.96573-0.96570
   0  -6   0 1194.83 126.328   3-0.48239 0.48272-0.25004-0.25038-0.91259 0.91246
   0   6   0 1133.78 156.991   6-0.27251 0.27272 0.25012 0.25035-0.96299 0.96283
   1   6   0 218.565 65.0754   2 0.37821-0.30227 0.19853 0.30170 0.95746-0.94391
   1   6   0 215.063 56.5594   6-0.28664 0.36282 0.29934 0.20104-0.94685 0.96033
   1  -6   0 272.216 57.2233   8 0.56355-0.48743-0.17070-0.32970 0.89653-0.88300
  -1  -6   0 188.066 55.9039   4-0.10134 0.02515-0.24078-0.26014-0.96772 0.95403
   1  -6   0 156.137 51.1394   4-0.08960 0.16539-0.26964-0.23120-0.95922 0.97288
   1  -6   0 282.005 80.8155   9 0.11010-0.03404-0.23923-0.26094 0.96879-0.95509
   1  -6   0 200.660 42.7248   3-0.57738 0.65377-0.34335-0.15676-0.83253 0.84591
  -1  -6   0 274.136 84.0592   9 0.09668-0.17237-0.27057-0.22961 0.95962-0.97325
  -1   6   0 208.342 67.6219   6-0.26238 0.18662 0.21608 0.28446-0.97236 0.95855
   1   6   0 159.611 53.9374   1 0.14711-0.07150 0.23383 0.26689 0.97184-0.95827
  -1   6   0 197.294 51.1048   2 0.47338-0.54922 0.32783 0.17254 0.88938-0.90322
  -1  -6   0 243.059 67.7776   3-0.42045 0.34468-0.19206-0.30859-0.94793 0.93416
   1   6   0 175.291 44.6773   5 0.48477-0.40875 0.18250 0.31779 0.92865-0.91519
  -2  -6   0 1557.24 171.689   3-0.38226 0.23037-0.15720-0.34362-0.96450 0.93706
  -2   6   0 1424.08 181.237   6-0.25613 0.10437 0.19547 0.30512-0.97734 0.94987
  -2   6   0 1861.33 170.823   2 0.54879-0.70055 0.43989 0.06059 0.79795-0.82554
  -2   6   0 1595.13 123.225   7-0.59425 0.44278 0.09302 0.40773-0.89283 0.86515
   2   6   0 1709.61 190.714   2 0.35311-0.20128 0.16601 0.33417 0.96923-0.94201
  -2  -6   0 1605.20 192.841   9 0.08437-0.23597-0.29877-0.20142 0.95028-0.97758
   2   6   0 1575.82 171.974   6-0.30467 0.45680 0.36554 0.13471-0.92005 0.94716
   2  -6   0 1638.24 151.836   8 0.46929-0.31726-0.13107-0.36926 0.94350-0.91628
   2   6   0 1423.24 177.489   1 0.14826 0.00323 0.22839 0.27229 0.97316-0.94593
   2  -6   0 1247.51 149.445   9 0.10981 0.04212-0.23991-0.26028 0.96860-0.94125
   2  -6   0 1494.53 186.966   4-0.07828 0.23007-0.29703-0.20375-0.95017 0.97750
  -2  -6   0 1485.95 169.664   4-0.10045-0.05171-0.24299-0.25794-0.96711 0.93973
   3  -6   0 5.86116 28.2654   8 0.42042-0.19248-0.11089-0.38940 0.96152-0.92062
   3  -6   0 50.5235 24.1433   9 0.10338 0.12441-0.25499-0.24521 0.96433-0.92333
  -3  -6   0 44.9787 59.6390   9 0.06899-0.29650-0.33336-0.16685 0.93737-0.97834
   3   6   0 54.6259 29.5270   1 0.14680 0.08060 0.23530 0.26536 0.97148-0.93059
  -3   6   0 49.6259 26.9285   7-0.50044 0.27298 0.07439 0.42648-0.93858 0.89731
   3   6   0 107.945 61.7362   2 0.33880-0.11107 0.14773 0.35242 0.97498-0.93408
  -3  -6   0 68.5408 39.6641   4-0.09369-0.13443-0.25965-0.24128-0.96228 0.92122
   3  -6   0 -24.383 51.5536   4-0.06392 0.29171-0.33109-0.16960-0.93752 0.97851
   3   6   0 32.5909 36.6667   6-0.32593 0.55398 0.45019 0.04994-0.87649 0.91717
  -3   6   0 68.8335 39.1477   6-0.25341 0.02569 0.18665 0.31397-0.97932 0.93817
  -3  -6   0 119.141 59.5306   3-0.36076 0.13278-0.13785-0.36309-0.97227 0.93112
  -4   6   0 1459.43 161.034   7-0.45611 0.15265 0.06569 0.43526-0.95512 0.90020
   4   6   0 1728.63 189.630   6-0.34875 0.65270 0.55374-0.05376-0.80666 0.86088
  -4  -6   0 1423.81 196.123   9 0.05088-0.35429-0.37314-0.12708 0.92044-0.97508
   4   6   0 1526.78 196.174   2 0.33289-0.02926 0.14022 0.35991 0.97715-0.92260
  -4   6   0 1410.70 189.553   6-0.25390-0.04981 0.18821 0.31240-0.97897 0.92415
   4  -6   0 1390.02 168.063   8 0.39728-0.09344-0.10140-0.39883 0.96871-0.91413
   4  -6   0 1271.49 186.534   4-0.04686 0.35063-0.37068-0.12992-0.92082 0.97545
  -4  -6   0 1372.28 184.516   3-0.35121 0.04714-0.12930-0.37173-0.97538 0.92052
   4  -6   0 1347.00 150.535   9 0.08891 0.21474-0.28843-0.21182 0.95383-0.89918
  -5   6   0 87.4148 36.9960   7-0.43790 0.05845 0.06213 0.43887-0.96106 0.89248
  -5  -6   0 127.342 74.1065   3-0.35037-0.02976-0.12855-0.37254-0.97565 0.90706
  -5   6   0 61.2524 45.7658   6-0.25720-0.12247 0.19901 0.30159-0.97652 0.90802
   5  -6   0 127.849 68.5153   8 0.39007-0.01032-0.09845-0.40176 0.97079-0.90255
  -5  -6   0 123.088 86.7984   9 0.03031-0.40966-0.41709-0.08315 0.89902-0.96733
   5  -6   0 39.2167 44.8950   4-0.02735 0.40711-0.41475-0.08574-0.89955 0.96779
   5   6   0 118.826 68.0083   2 0.33354 0.04599 0.14104 0.35907 0.97692-0.90870
  -6  -6   0 417.876 107.985   3-0.35606-0.10013-0.13364-0.36749-0.97383 0.89152
  -6   6   0 331.391 91.2214   7-0.43509-0.02034 0.06159 0.43946-0.96194 0.87966
   6   6   0 488.675 126.382   2 0.33938 0.11606 0.14847 0.35163 0.97476-0.89287
   6  -6   0 401.045 129.558   4-0.00561 0.46133-0.46236-0.03800-0.87315 0.95499
  -6   6   0 586.792 135.152   6-0.26298-0.19264 0.21805 0.28251-0.97185 0.88967
  -6  -6   0 286.195 100.880   9 0.00752-0.46281-0.46430-0.03596 0.87258-0.95457
   6  -6   0 338.443 108.099   8 0.39325 0.06242-0.09975-0.40043 0.96988-0.88799
   7  -6   0 46.9840 41.6225   8 0.40361 0.12797-0.10398-0.39619 0.96683-0.87129
   7   6   0 46.1927 53.1489   2 0.34939 0.18197 0.16123 0.33886 0.97080-0.87526
  -7  -6   0 126.003 91.1684   9-0.01731-0.51393-0.51395 0.01367 0.84056-0.93623
  -7  -6   0 7.41693 28.5385   3-0.36674-0.16547-0.14322-0.35795-0.97022 0.87418
  -7   6   0 174.285 82.3395   6-0.27088-0.26068 0.24460 0.25592-0.96461 0.86874
  -7   6   0 15.0510 43.7081   7-0.44213-0.08929 0.06296 0.43812-0.95973 0.86375
   7  -6   0 28.3723 31.7958   4 0.01820 0.51349-0.51272 0.01246-0.84102 0.93642
  -8   6   0 987.261 201.334   7-0.45580-0.15159 0.06563 0.43546-0.95522 0.84554
  -8  -6   0 968.155 218.063   9-0.04402-0.56316-0.56530 0.06502 0.80238-0.91172
   8  -6   0 810.210 203.348   4 0.04391 0.56372-0.56503 0.06489-0.80249 0.91143
  -8  -6   0 646.342 154.133   3-0.38131-0.22693-0.15634-0.34482-0.96487 0.85511
   8  -6   0 573.731 144.610   8 0.41917 0.18832-0.11037-0.38981 0.96193-0.85278
  -8   6   0 1215.31 241.529   6-0.28060-0.32689 0.27805 0.22242-0.95421 0.84466
   8   6   0 479.457 132.712   2 0.36274 0.24454 0.17842 0.32168 0.96498-0.85578
  -9   6   0 72.1786 71.7974   7-0.47420-0.20917 0.06923 0.43188-0.94873 0.82533
   9  -6   0 41.9789 68.3520   8 0.43856 0.24488-0.11835-0.38185 0.95529-0.83253
   9   6   0 -11.351 61.4326   5 0.41999 0.26269 0.14298 0.35684 0.95714-0.83455
  -9  -6   0 -6.3853 63.0652   3-0.39896-0.28529-0.17236-0.32882-0.95770 0.83422
   9   6   0 0.18768 73.7637   2 0.37883 0.30437 0.19934 0.30075 0.95714-0.83428
  -9  -6   0 -218.39 275.826   9-0.07251-0.61063-0.61764 0.11736 0.75731-0.88033
  -9   6   0 147.049 95.6145   6-0.29183-0.39155 0.31797 0.18243-0.93991 0.81666
 -10   6   0 177.603 114.094   7-0.49604-0.26329 0.07352 0.42760-0.94036 0.80323
   0   7   0 -8.3589 19.4502   2 0.44773-0.44765 0.29191 0.29176 0.91192-0.91210
   0  -7   0 29.7649 54.3563   4-0.08035 0.08010-0.29205-0.29231-0.95189 0.95184
   0   7   0 -62.825 57.2057   6-0.28451 0.28477 0.29179 0.29210-0.94953 0.94932
   0  -7   0 28.4369 42.6901   9 0.08742-0.08720-0.29185-0.29166 0.95267-0.95264
   0  -7   0 57.8884 43.0694   3-0.52556 0.52599-0.29167-0.29213-0.88070 0.88044
  -1  -7   0 218.234 85.5315   9 0.08063-0.15630-0.30726-0.27627 0.94726-0.96090
  -1   7   0 108.637 47.2521   6-0.27565 0.19992 0.26090 0.32307-0.95972 0.94586
  -1  -7   0 235.753 75.1346   4-0.08275 0.00651-0.28627-0.29811-0.95384 0.94011
   1   7   0 268.338 81.1945   2 0.41197-0.33601 0.24323 0.34038 0.93791-0.92440
   1  -7   0 134.758 71.7155   9 0.09038-0.01430-0.28506-0.29847 0.95495-0.94127
   1   7   0 80.4881 27.4233   6-0.29656 0.37279 0.33526 0.24853-0.93306 0.94648
  -1  -7   0 205.304 56.8257   3-0.46746 0.39178-0.23588-0.34818-0.92215 0.90831
   1  -7   0 207.742 84.2020   4-0.07428 0.15002-0.30660-0.27773-0.94677 0.96041
  -1   7   0 166.229 56.4259   2 0.49682-0.57263 0.36151 0.22224 0.86546-0.87935
   2  -7   0 748.083 148.862   4-0.06499 0.21674-0.32860-0.25568-0.93850 0.96581
  -2  -7   0 782.807 130.261   4-0.08085-0.07136-0.29085-0.29354-0.95229 0.92488
   2   7   0 1032.79 163.147   2 0.38755-0.23570 0.21079 0.37277 0.95250-0.92531
  -2   7   0 811.827 151.331   6-0.26993 0.11821 0.24135 0.34265-0.96554 0.93801
   2  -7   0 784.077 112.120   8 0.55570-0.40362-0.16736-0.41639 0.90113-0.87396
   2  -7   0 635.683 123.535   9 0.08888 0.06307-0.28853-0.29501 0.95379-0.92646
  -2  -7   0 674.943 126.685   9 0.07054-0.22209-0.32992-0.25363 0.93872-0.96603
   2   7   0 866.340 121.083   5 0.48837-0.33646 0.18471 0.39885 0.92681-0.89975
   2   7   0 725.353 138.833   6-0.31168 0.46386 0.39253 0.19114-0.90735 0.93438
  -2  -7   0 883.089 142.655   3-0.42901 0.27721-0.19996-0.38429-0.94370 0.91618
  -3  -7   0 3018.12 249.376   4-0.07377-0.15440-0.30781-0.27656-0.94634 0.90524
   3   7   0 3192.14 301.463   2 0.37240-0.14466 0.19095 0.39256 0.96039-0.91953
   3   7   0 3093.89 265.086   6-0.32933 0.55744 0.46459 0.11895-0.86794 0.90855
   3  -7   0 2881.76 245.712   9 0.08189 0.14589-0.30440-0.27917 0.94829-0.90731
  -3  -7   0 3240.34 307.893   9 0.05752-0.28498-0.35869-0.22488 0.92685-0.96783
  -3   7   0 3140.46 299.487   6-0.26715 0.03946 0.23202 0.35201-0.96815 0.92695
   3  -7   0 3078.94 302.303   4-0.05284 0.28059-0.35693-0.22727-0.92688 0.96784
  -3  -7   0 3257.64 289.684   3-0.40530 0.17740-0.17817-0.40623-0.95494 0.91373
   3   7   0 3072.32 254.746   5 0.44963-0.22193 0.16095 0.42250 0.94516-0.90443
   3  -7   0 3015.30 243.421   8 0.49707-0.26909-0.14265-0.44104 0.93143-0.89059
   4   7   0 16.9405 58.7359   2 0.36477-0.06113 0.18104 0.40245 0.96405-0.90952
  -4  -7   0 62.9359 40.1127   4-0.06020-0.24390-0.33984-0.24450-0.93402 0.87924
  -4   7   0 60.2449 43.7257   6-0.26711-0.03657 0.23185 0.35218-0.96820 0.91332
   4  -7   0 26.8592 35.1633   8 0.46497-0.16107-0.12928-0.45437 0.94526-0.89076
   4   7   0 19.0381 42.2419   6-0.34837 0.65238 0.55182 0.03157-0.80814 0.86230
  -4  -7   0 -13.669 43.5706   3-0.39268 0.08867-0.16665-0.41784-0.96034 0.90542
   4  -7   0 -35.735 42.3835   4-0.03811 0.34185-0.39062-0.19349-0.91156 0.96616
  -4  -7   0 16.5921 39.9362   9 0.04187-0.34523-0.39257-0.19102 0.91133-0.96598
   4   7   0 54.8518 62.7332   5 0.42838-0.12487 0.14805 0.43531 0.95392-0.89954
   4  -7   0 -33.358 37.8853   9 0.06800 0.23564-0.33556-0.24806 0.93649-0.88187
   5   7   0 110.018 88.1483   5 0.41935-0.04002 0.14260 0.44070 0.95738-0.88936
   5   7   0 128.055 78.5319   2 0.36322 0.01632 0.17903 0.40444 0.96476-0.89658
  -5   7   0 196.380 84.9593   6-0.26952-0.11014 0.23997 0.34405-0.96593 0.89738
   5  -7   0 151.950 83.1235   4-0.02101 0.40075-0.42880-0.15520-0.89214 0.96036
  -5  -7   0 110.047 55.7920   9 0.02382-0.40311-0.43071-0.15290 0.89177-0.96009
   5  -7   0 109.188 60.7978   8 0.44992-0.07012-0.12304-0.46057 0.95112-0.88297
  -5  -7   0 74.6526 41.5352   3-0.38845 0.00837-0.16281-0.42174-0.96206 0.89341
  -6   7   0 307.454 118.641   6-0.27411-0.18151 0.25562 0.32838-0.96134 0.87910
   6  -7   0 293.382 122.642   4-0.00172 0.45745-0.47071-0.11319-0.86814 0.94996
   6   7   0 135.722 77.9033   5 0.41916 0.03600 0.14248 0.44077 0.95745-0.87580
  -6  -7   0 247.587 87.8028   3-0.39074-0.06542-0.16488-0.41972-0.96113 0.87876
  -6  -7   0 275.778 101.601   9 0.00357-0.45880-0.47232-0.11131 0.86771-0.94971
   6   7   0 271.846 94.9028   2 0.36662 0.08882 0.18344 0.40002 0.96318-0.88133
   6  -7   0 277.062 93.0013   8 0.44642 0.00929-0.12160-0.46200 0.95243-0.87063
  -7  -7   0 -12.331 60.9696   9-0.01870-0.51247-0.51668-0.06697 0.83867-0.93435
  -7   7   0 -31.080 50.9103   7-0.50401-0.02730 0.07509 0.50948-0.93712 0.84104
  -7  -7   0 22.9471 64.0602   3-0.39812-0.13409-0.17159-0.41305-0.95806 0.86196
   7  -7   0 88.8006 86.7823   8 0.45107 0.08055-0.12352-0.46006 0.95068-0.85524
   7   7   0 30.8854 43.2795   2 0.37408 0.15726 0.19314 0.39031 0.95955-0.86405
   7   7   0 11.6824 41.8994   5 0.42551 0.10548 0.14632 0.43689 0.95503-0.85976
  -7   7   0 94.3925 39.4672   6-0.28064-0.25093 0.27817 0.30578-0.95417 0.85825
   7  -7   0 118.908 95.2292   4 0.01959 0.51211-0.51562-0.06815-0.83903 0.93443
   8   7   0 178.275 89.5030   2 0.38490 0.22236 0.20730 0.37616 0.95394-0.84477
  -8   7   0 312.891 128.568   7-0.51085-0.09644 0.07644 0.50816-0.93425 0.82446
  -8  -7   0 102.262 63.2936   3-0.40954-0.19870-0.18204-0.40262-0.95304 0.84320
   8  -7   0 11.5233 39.6498   8 0.46168 0.14586-0.12792-0.45565 0.94657-0.83749
   8  -7   0 186.803 113.834   4 0.04283 0.56483-0.56286-0.02080-0.80420 0.91315
  -8   7   0 96.5412 57.7645   6-0.28883-0.31868 0.30716 0.27674-0.94399 0.83438
   8   7   0 206.721 96.4702   5 0.43686 0.16997 0.15318 0.42999 0.95053-0.84163
  -8  -7   0 180.386 114.236   9-0.04288-0.56424-0.56315-0.02051 0.80409-0.91344
  -9   7   0 248.206 122.747   6-0.29844-0.38497 0.34219 0.24163-0.93019 0.80688
  -9  -7   0 -252.46 214.844   9-0.06886-0.61420-0.61109 0.02743 0.76333-0.88636
   9  -7   0 -41.117 66.8656   8 0.47677 0.20669-0.13419-0.44938 0.94038-0.81767
  -9   7   0 191.142 125.649   7-0.52361-0.15966 0.07896 0.50566-0.92871 0.80520
   9   7   0 -59.497 40.1313   5 0.45208 0.23060 0.16245 0.42070 0.94409-0.82158
   0   8   0 5151.18 326.907   2 0.47745-0.47735 0.33362 0.33343 0.88547-0.88571
   0   8   0 5381.40 411.232   6-0.29607 0.29637 0.33344 0.33384-0.93380 0.93351
   0  -8   0 4913.52 386.694   4-0.06279 0.06249-0.33376-0.33408-0.93647 0.93639
   0  -8   0 5070.89 384.689   9 0.06890-0.06868-0.33356-0.33332 0.93728-0.93728
   1  -8   0 -10.138 32.5786   9 0.07056 0.00553-0.32987-0.33702 0.93874-0.92508
  -1  -8   0 7.28757 29.9691   3-0.51289 0.43731-0.27933-0.38814-0.89076 0.87678
  -1  -8   0 -94.095 67.6068   4-0.06404-0.01225-0.33083-0.33702-0.93763 0.92386
  -1   8   0 64.1609 83.4142   6-0.28822 0.21253 0.30499 0.36238-0.94479 0.93086
   1   8   0 57.2303 35.4781   6-0.30652 0.38280 0.37262 0.29458-0.91683 0.93017
  -1  -8   0 -16.018 49.1454   9 0.06369-0.13934-0.34511-0.32177 0.93260-0.94625
   1   8   0 34.1430 29.5821   2 0.44441-0.36843 0.28733 0.37965 0.91458-0.90112
   1  -8   0 43.4855 51.0959   4-0.05814 0.13383-0.34464-0.32316-0.93206 0.94566
  -1   8   0 15.3508 29.8430   2 0.52100-0.59681 0.39728 0.26987 0.83684-0.85079
  -2  -8   0 57.5452 43.9740   4-0.06134-0.09092-0.33715-0.33069-0.93511 0.90766
   2  -8   0 51.1390 59.9255   9 0.06808 0.08386-0.33539-0.33151 0.93656-0.90924
  -2  -8   0 -24.443 25.7561   3-0.47465 0.32296-0.24269-0.42499-0.91764 0.89002
  -2   8   0 -106.23 77.4664   6-0.28297 0.13129 0.28636 0.38107-0.95141 0.92382
  -2  -8   0 -83.812 83.7836   9 0.05536-0.20689-0.36342-0.30349 0.92479-0.95211
   2   8   0 -72.327 61.3434   2 0.42077-0.26890 0.25507 0.41186 0.93205-0.90491
   2   8   0 -27.709 34.6252   6-0.31942 0.47166 0.42336 0.24373-0.89150 0.91845
   2  -8   0 39.3061 35.9477   4-0.05046 0.20216-0.36241-0.30535-0.92450 0.95176
   3  -8   0 360.166 106.947   9 0.06066 0.16713-0.35180-0.31513 0.92980-0.88885
   3   8   0 235.322 78.7740   6-0.33433 0.56251 0.48635 0.18060-0.85434 0.89487
  -3  -8   0 191.698 83.1501   4-0.05398-0.17424-0.35431-0.31351-0.92800 0.88686
  -3   8   0 200.019 61.1575   6-0.28021 0.05254 0.27670 0.39075-0.95466 0.91340
   3  -8   0 196.605 95.0422   4-0.04007 0.26779-0.38615-0.28154-0.91368 0.95462
  -3  -8   0 283.300 97.7590   9 0.04423-0.27165-0.38750-0.27943 0.91377-0.95475
  -3  -8   0 357.364 99.5143   3-0.44943 0.22161-0.21894-0.44889-0.93279 0.89148
   3   8   0 243.782 87.8729   5 0.51035-0.28258 0.19834 0.46850 0.91495-0.87432
   3   8   0 227.085 86.3634   2 0.40515-0.17739 0.23410 0.43279 0.94223-0.90141
   4  -8   0 129.088 56.0198   4-0.02722 0.33094-0.41503-0.25259-0.89940 0.95398
   4   8   0 315.005 120.663   2 0.39624-0.09260 0.22226 0.44460 0.94758-0.89309
  -4  -8   0 230.002 96.4063   9 0.03057-0.33391-0.41654-0.25040 0.89930-0.95396
   4   8   0 177.515 81.0176   5 0.48442-0.18083 0.18228 0.48447 0.92883-0.87455
  -4   8   0 89.5622 53.9233   6-0.27979-0.02387 0.27524 0.39223-0.95514 0.90021
  -4  -8   0 162.842 68.1592   3-0.43439 0.13047-0.20494-0.46300-0.94094 0.88592
   5   8   0 145.041 77.7782   5 0.47066-0.09127 0.17381 0.49285 0.93559-0.86766
   5  -8   0 128.671 84.7638   4-0.01209 0.39182-0.44832-0.21921-0.88132 0.94952
  -5  -8   0 117.873 53.4026   9 0.01460-0.39384-0.44980-0.21716 0.88109-0.94943
  -5   8   0 56.0639 63.5581   6-0.28153-0.09812 0.28128 0.38617-0.95313 0.88452
   5   8   0 134.526 80.6663   2 0.39295-0.01341 0.21791 0.44893 0.94948-0.88133
   5  -8   0 123.197 76.9729   8 0.51368-0.13382-0.14962-0.51740 0.92353-0.85544
  -5  -8   0 46.6103 41.6941   3-0.42737 0.04735-0.19845-0.46958-0.94452 0.87579
   6   8   0 1031.94 203.355   2 0.39435 0.06109 0.21975 0.44707 0.94868-0.86687
   6  -8   0 1143.85 235.816   4 0.00515 0.45057-0.48536-0.18206-0.85905 0.94085
  -6   8   0 1144.73 219.380   6-0.28520-0.17041 0.29423 0.37319-0.94867 0.86637
   6  -8   0 1059.49 201.220   8 0.50378-0.04802-0.14547-0.52153 0.92830-0.84656
  -6  -8   0 1117.57 226.375   9-0.00352-0.45166-0.48661-0.18038 0.85875-0.94077
   6   8   0 1031.62 198.883   5 0.46597-0.01076 0.17094 0.49566 0.93780-0.85624
  -6  -8   0 1103.80 215.830   3-0.42672-0.02939-0.19784-0.47025-0.94485 0.86238
  -7   8   0 129.930 119.622   6-0.29062-0.24095 0.31358 0.35380-0.94159 0.84559
   7   8   0 -19.933 47.3033   5 0.46816 0.06287 0.17228 0.49427 0.93678-0.84159
  -7  -8   0 0.83376 82.8564   9-0.02365-0.50746-0.52633-0.14068 0.83186-0.92755
   7  -8   0 -18.722 86.4581   8 0.50284 0.02883-0.14507-0.52190 0.92875-0.83336
  -7  -8   0 93.7033 90.0238   3-0.43116-0.10101-0.20195-0.46617-0.94260 0.84640
   7  -8   0 101.998 70.0552   4 0.02439 0.50731-0.52552-0.14178-0.83210 0.92749
   7   8   0 152.967 84.7747   2 0.39967 0.13167 0.22679 0.44002 0.94556-0.85009
   8   8   0 200.866 133.623   5 0.47570 0.13117 0.17691 0.48961 0.93316-0.82436
  -8  -8   0 61.1966 131.190   9-0.04567-0.56139-0.56839-0.09864 0.79990-0.90927
   8  -8   0 -17.051 77.2502   4 0.04551 0.56216-0.56822-0.09897-0.79996 0.90889
  -8   8   0 270.438 122.521   6-0.29756-0.30995 0.33894 0.32839-0.93155 0.82185
   8  -8   0 89.9367 92.2132   8 0.50857 0.09901-0.14747-0.51948 0.92602-0.81700
   0  -9   0 1.93812 34.6634   4-0.04477 0.04441-0.37546-0.37585-0.91866 0.91853
   0   9   0 30.4312 56.4868   6-0.30717 0.30752 0.37511 0.37560-0.91567 0.91530
   0  -9   0 -39.368 63.7671   9 0.04990-0.04966-0.37527-0.37497 0.91947-0.91949
  -1  -9   0 62.5144 67.1807   4-0.04507-0.03128-0.37478-0.37652-0.91897 0.90515
  -1  -9   0 35.1741 38.3510   9 0.04598-0.12161-0.38375-0.36650 0.91554-0.92922
   1  -9   0 73.9651 81.1422   4-0.04127 0.11692-0.38343-0.36786-0.91497 0.92852
   1  -9   0 65.2196 73.2692   9 0.05048 0.02563-0.37402-0.37621 0.92004-0.90640
   1   9   0 49.0476 75.9231   6-0.31633 0.39266 0.41091 0.33969-0.89807 0.91132
   1   9   0 3.34889 45.1548   2 0.47562-0.39962 0.33103 0.41934 0.88723-0.87384
  -1   9   0 -50.469 54.2890   6-0.30016 0.22452 0.34860 0.40218-0.92749 0.91347
   2  -9   0 -13.739 48.5048   9 0.04719 0.10475-0.38113-0.36913 0.91677-0.88948
   2  -9   0 83.3054 52.0304   4-0.03493 0.18658-0.39778-0.35347-0.90809 0.93531
   2   9   0 101.448 62.8903   6-0.32746 0.47975 0.45665 0.29385-0.87270 0.89954
   2   9   0 65.9985 33.2041   2 0.45285-0.30096 0.29901 0.45129 0.90770-0.88061
  -2  -9   0 121.588 67.9145   4-0.04170-0.11061-0.38245-0.36884-0.91543 0.88792
  -2  -9   0 120.095 69.3168   9 0.03908-0.19059-0.39851-0.35175 0.90844-0.93578
  -2   9   0 200.032 75.1392   6-0.29534 0.14369 0.33074 0.42009-0.93489 0.90721
  -2  -9   0 84.6761 65.9319   3-0.51913 0.36755-0.28540-0.46568-0.88587 0.85811
  -3   9   0 635.359 165.894   6-0.29263 0.06500 0.32090 0.42998-0.93878 0.89744
  -3  -9   0 503.421 122.192   4-0.03405-0.19423-0.39978-0.35149-0.90711 0.86592
   3  -9   0 406.822 140.727   4-0.02600 0.25366-0.41774-0.33345-0.89800 0.93888
  -3  -9   0 481.955 131.514   3-0.49293 0.26522-0.26010-0.49116-0.90541 0.86397
   3  -9   0 526.962 140.806   9 0.03934 0.18845-0.39796-0.35233 0.90871-0.86778
  -3  -9   0 331.186 110.938   9 0.02953-0.25692-0.41874-0.33153 0.89815-0.93916
   3   9   0 420.712 134.560   2 0.43703-0.20925 0.27718 0.47308 0.92032-0.87956
   3   9   0 385.394 114.890   6-0.34019 0.56843 0.51279 0.23757-0.83668 0.87710
   4  -9   0 189.414 104.633   4-0.01471 0.31838-0.44261-0.30851-0.88455 0.93907
  -4  -9   0 185.774 100.006   9 0.01754-0.32083-0.44375-0.30656 0.88454-0.93922
  -4  -9   0 141.325 77.4699   3-0.47605 0.17222-0.24401-0.50738-0.91674 0.86161
   4   9   0 256.599 110.166   2 0.42722-0.12356 0.26380 0.48643 0.92754-0.87311
  -4   9   0 391.372 137.713   6-0.29196-0.01167 0.31845 0.43244-0.93973 0.88472
  -5   9   0 71.1051 83.3009   6-0.29317-0.08645 0.32284 0.42803-0.93802 0.86933
   5  -9   0 43.2795 71.9187   4-0.00123 0.38092-0.47177-0.27927-0.86749 0.93564
  -5  -9   0 14.9394 55.7574   9 0.00330-0.38251-0.47287-0.27745 0.86737-0.93573
  -5  -9   0 48.1542 64.5837   3-0.46672 0.08678-0.23519-0.51630-0.92261 0.85376
   5   9   0 98.7961 41.4316   2 0.42256-0.04301 0.25749 0.49271 0.93082-0.86272
   6  -9   0 139.395 109.622   4 0.01431 0.44138-0.50463-0.24631-0.84649 0.92825
  -6  -9   0 46.1808 109.471   9-0.01303-0.44210-0.50553-0.24482 0.84632-0.92836
  -6   9   0 -119.38 89.7418   6-0.29611-0.15948 0.33362 0.41723-0.93373 0.85134
  -6  -9   0 -76.218 100.739   3-0.46355 0.00751-0.23220-0.51936-0.92454 0.84196
   6   9   0 160.340 97.0536   5 0.51481-0.05954 0.20111 0.54885 0.91241-0.83095
   6   9   0 173.072 93.1794   2 0.42230 0.03315 0.25714 0.49305 0.93100-0.84924
   7   9   0 -135.21 108.158   5 0.51316 0.01791 0.20010 0.54982 0.91335-0.81827
   0  10   0 384.999 152.462   6-0.31779 0.31817 0.41676 0.41736-0.89502 0.89453
   0 -10   0 245.844 119.281   4-0.02627 0.02585-0.41716-0.41761-0.89830 0.89811
   0 -10   0 156.532 60.4966   9 0.03037-0.03012-0.41698-0.41661 0.89908-0.89913
   1 -10   0 153.239 83.9944   4-0.02375 0.09933-0.42273-0.41203-0.89538 0.90887
  -1 -10   0 83.2413 68.3362   9 0.02754-0.10315-0.42292-0.41067 0.89595-0.90966
   1  10   0 15.4833 57.2737   6-0.32585 0.40221 0.44986 0.38416-0.87668 0.88981
  -1  10   0 272.862 117.200   6-0.31151 0.23590 0.39188 0.44232-0.90767 0.89355
   1 -10   0 44.3139 69.0696   9 0.03001 0.04608-0.41772-0.41587 0.89869-0.88509
  -1 -10   0 6.62816 44.6339   4-0.02575-0.05066-0.41830-0.41646-0.89770 0.88383
   2  10   0 25.4986 58.6714   6-0.33552 0.48785 0.49161 0.34229-0.85093 0.87766
   2 -10   0 89.8587 78.0136   9 0.02602 0.12593-0.42611-0.40751 0.89425-0.86700
  -2  10   0 25.5564 50.0338   6-0.30707 0.15547 0.37470 0.45955-0.91586 0.88809
  -2 -10   0 38.7268 44.3403   9 0.02188-0.17337-0.43475-0.39885 0.88956-0.91693
   2  10   0 149.565 91.5857   2 0.48381-0.33190 0.34271 0.49097 0.87916-0.85214
  -2 -10   0 -78.135 43.2807   4-0.02179-0.13060-0.42708-0.40766-0.89307 0.86550
   2 -10   0 275.020 120.000   4-0.01853 0.17012-0.43426-0.40047-0.88918 0.91634
   3 -10   0 -20.887 85.2346   4-0.01083 0.23844-0.45106-0.38362-0.87975 0.92058
  -3 -10   0 79.5979 98.1828   9 0.01365-0.24102-0.45176-0.38186 0.87996-0.92100
  -3  10   0 -108.25 89.7008   6-0.30446 0.07685 0.36475 0.46954-0.92041 0.87897
   3  10   0 -0.1683 45.5961   2 0.46801-0.24022 0.32023 0.51340 0.89440-0.85370
  -4 -10   0 -41.639 40.1629   3-0.51738 0.21364-0.28369-0.55113-0.88726 0.83196
  -4  10   0 -3.6969 51.2580   6-0.30361 0.00000 0.36153 0.47278-0.92185 0.86674
  -4 -10   0 60.6450 71.0057   9 0.00307-0.30634-0.47333-0.36032 0.86709-0.92179
   4  10   0 68.5716 94.2108   2 0.45758-0.15390 0.30560 0.52800 0.90368-0.84931
  -5 -10   0 -100.67 109.132   3-0.50619 0.12633-0.27285-0.56209-0.89583 0.82683
   0  11   0 -15.726 96.8700   6-0.32787 0.32831 0.45842 0.45912-0.87165 0.87103
   0 -11   0 111.096 111.618   9 0.01026-0.01001-0.45869-0.45825 0.87591-0.87601
   0 -11   0 37.8937 55.1546   4-0.00723 0.00675-0.45884-0.45938-0.87523 0.87496
  -1 -11   0 474.703 167.305   4-0.00600-0.07048-0.46153-0.45669-0.87365 0.85969
   1  11   0 382.979 141.968   6-0.33499 0.41139 0.48926 0.42817-0.85247 0.86547
   1 -11   0 439.707 144.853   9 0.00909 0.06701-0.46110-0.45584 0.87448-0.86093
  12   0  -1 287.872 76.8107   8 0.54417 0.34904-0.16248 0.16236 0.90764-0.84503
  12   0  -1 451.026 137.665   5 0.54231 0.35046 0.21836-0.21847 0.89563-0.83276
  11   0  -1 22.9331 37.2958   8 0.51756 0.29970-0.15125 0.15114 0.92161-0.87265
  11   0  -1 -18.270 70.7849   5 0.51583 0.30104 0.20176-0.20185 0.91181-0.86258
 -11   0   1 84.4989 64.3444   7-0.51803-0.29871 0.07786-0.07806-0.93117 0.88184
 -10   0   1 64.5686 36.3293   7-0.49335-0.24746 0.07299-0.07318-0.94143 0.90580
 -10   0   1 16.5888 58.1660   3-0.48914-0.25188-0.25648 0.25637-0.90803 0.87258
  10   0  -1 41.9973 57.1704   5 0.49129 0.24967 0.18652-0.18660 0.92530-0.88970
  10   0  -1 90.9308 69.8951   8 0.49292 0.24840-0.14092 0.14082 0.93332-0.89800
  -9   0   1 -53.916 51.9518   7-0.47134-0.19355 0.06867-0.06886-0.94977 0.92784
  -9   0   1 -3.7565 34.2865   3-0.46750-0.19761-0.23592 0.23584-0.92213 0.90035
   9   0  -1 44.6766 46.9840   8 0.47093 0.19445-0.13176 0.13166 0.94283-0.92116
   9   0  -1 -6.0061 37.8424   5 0.46936 0.19570 0.17302-0.17307 0.93621-0.91426
  -8   0   1 98.2331 47.7576   7-0.45298-0.13597 0.06508-0.06527-0.95617 0.94794
   8   0  -1 62.5638 48.9821   2 0.44608 0.14325 0.28963-0.28968 0.91325-0.90507
   8   0  -1 11.1610 33.8428   5 0.45101 0.13815 0.16179-0.16183 0.94456-0.93626
   8   0  -1 101.760 62.1794   8 0.45257 0.13687-0.12414 0.12404 0.95011-0.94210
  -8   0   1 52.8852 46.6161   3-0.44935-0.13984-0.21887 0.21882-0.93283 0.92473
  -7   0   1 -3.6200 39.1977   7-0.43981-0.07321 0.06251-0.06269-0.96046 0.96591
   7   0  -1 -31.644 31.9072   2 0.43297 0.08042 0.27162-0.27165 0.92337-0.92886
  -7   0   1 19.0431 19.1410   3-0.43618-0.07707-0.20660 0.20660-0.94000 0.94556
   7   0  -1 15.3763 40.2660   8 0.43935 0.07415-0.11868 0.11859 0.95501-0.96066
   7   0  -1 4.06780 20.1540   5 0.43775 0.07552 0.15373-0.15374 0.95016-0.95552
  -6   0   1 244.599 43.0066   7-0.43431-0.00277 0.06144-0.06162-0.96218 0.98130
   6   0  -1 531.906 91.6325   5 0.43200 0.00537 0.15024-0.15023 0.95249-0.97150
   6   0  -1 602.893 105.982   8 0.43375 0.00382-0.11637 0.11628 0.95699-0.97631
   6   0  -1 884.360 102.149   4 0.04169 0.39579-0.56058 0.56089-0.80598 0.78643
  -6   0   1 992.020 112.071   9-0.04225-0.39523-0.56195 0.56222 0.80504-0.78581
   6   0  -1 577.787 84.7069   2 0.42687 0.01056 0.26333-0.26334 0.92779-0.94696
  -5   0   1 -6.9509 17.4578   7-0.44081 0.07966 0.06270-0.06288-0.96015 0.99293
   5   0  -1 1.29800 9.39771   4-0.06522 0.42690-0.32806 0.32825-0.93872 0.90565
   5   0  -1 -3.4706 7.42761   6-0.06492 0.42658-0.32893 0.32909-0.93838 0.90543
  -5   0   1 -19.736 13.9758   9 0.06303-0.42453-0.34659 0.34683 0.93199-0.89917
   5   0  -1 -5.2423 19.2445   5 0.43788-0.07640 0.15381-0.15377 0.95011-0.98279
   5   0  -1 -32.484 22.4382   8 0.43998-0.07835-0.11894 0.11885 0.95478-0.98776
  -5   0   1 -34.346 25.4253   3-0.43579 0.07444-0.20624 0.20631-0.94020 0.97309
   5   0  -1 -5.4730 18.2366   2 0.43147-0.06998 0.26958-0.26958 0.92447-0.95731
  -4   0   1 4901.06 144.866   9 0.18171-0.46723-0.06115 0.06135 0.99813-0.95172
  -4   0   1 5293.76 251.439   7-0.46723 0.18201 0.06786-0.06804-0.95125 0.99769
   4   0  -1 4980.26 219.410   5 0.46287-0.17728 0.16904-0.16897 0.93924-0.98560
   4   0  -1 5070.57 236.596   8 0.46577-0.18008-0.12961 0.12953 0.94493-0.99159
   4   0  -1 5297.38 209.111   2 0.45287-0.16732 0.29903-0.29901 0.90768-0.95420
  -4   0   1 5263.85 228.929   3-0.45947 0.17408-0.22836 0.22846-0.92699 0.97352
   4   0  -1 5082.89 145.458   6-0.18257 0.46810-0.02676 0.02695-0.99964 0.95310
   4   0  -1 4939.64 141.969   4-0.18265 0.46856-0.02594 0.02598-0.99966 0.95297
   3   0  -1 -12.105 8.85368   4-0.29638 0.50640 0.33575-0.33584-0.93291 0.87246
  -3   0   1 2.29400 5.20601   9 0.30191-0.51147 0.29358-0.29346 0.94650-0.88646
   3   0  -1 -1.2862 8.61870   6-0.29649 0.50599 0.33499-0.33483-0.93317 0.87306
   3   0  -1 3.75398 10.0494   8 0.52615-0.31640-0.15486 0.15478 0.91726-0.97760
  -3   0   1 -0.5751 9.71365   3-0.51373 0.30429-0.28015 0.28030-0.89010 0.95027
   3   0  -1 -4.9266 10.0813   2 0.50065-0.29104 0.36710-0.36707 0.86120-0.92140
   3   0  -1 6.05196 8.53058   5 0.52111-0.31143 0.20505-0.20495 0.90873-0.96878
  -3   0   1 4.98116 11.7217   7-0.52937 0.32007 0.08010-0.08027-0.92612 0.98620
   2   0  -1 2585.71 138.485   8 0.64946-0.51569-0.20778 0.20769 0.83647-0.91052
  -2   0   1 2972.77 145.248   3-0.61631 0.48277-0.38369 0.38386-0.78733 0.86111
  -2   0   1 2546.22 137.675   7-0.65857 0.52514 0.10602-0.10619-0.85142 0.92513
   2   0  -1 2532.82 136.497   5 0.63743-0.50368 0.27963-0.27951 0.82094-0.89469
   4   0   1 1179.84 146.163   8-0.12872 0.45050 0.10390-0.10380 0.94693-0.79113
  -4   0  -1 1591.77 177.708   7 0.12973-0.45200-0.04444 0.04462-0.95101 0.79498
  -5   0  -1 -8.3102 40.1858   7 0.03835-0.43656-0.02778 0.02797-0.97565 0.80596
   5   0   1 0.56359 27.7606   8-0.03813 0.43583 0.06983-0.06972 0.97367-0.80421
   6   0   1 426.638 117.581   8 0.03750 0.43613 0.04097-0.04087 0.98889-0.80575
  -6   0  -1 465.885 125.145   7-0.03758-0.43656-0.01380 0.01398-0.98964 0.80628
   7   0   1 6.24831 52.2091   8 0.10374 0.44583 0.01542-0.01531 0.99691-0.80010
  -7   0  -1 -30.277 43.3976   7-0.10391-0.44616-0.00148 0.00166-0.99704 0.80001
  -8   0  -1 300.007 124.234   7-0.16390-0.46209 0.00975-0.00958-0.99982 0.78911
   8   0   1 516.728 146.178   8 0.16377 0.46175-0.00799 0.00810 0.99983-0.78936
  -9   0  -1 -6.2090 71.2987   7-0.21954-0.48238 0.02023-0.02006-0.99898 0.77459
   9   0   1 267.067 127.909   8 0.21950 0.48197-0.02993 0.03003 0.99874-0.77460
  12   1  -1 -18.538 68.2832   8 0.56240 0.33087-0.17020 0.25348 0.89722-0.83459
  12   1  -1 189.576 115.593   5 0.52793 0.36473 0.20932-0.12604 0.90464-0.84181
 -12  -1   1 276.975 135.151   7-0.55574-0.33687 0.08533-0.16900-0.91352 0.85049
  12  -1  -1 97.7089 116.553   8 0.53413 0.35904-0.15822 0.07474 0.91308-0.85049
  11   1  -1 346.577 127.611   8 0.53642 0.28089-0.15920 0.24248 0.91186-0.86288
  11   1  -1 257.432 90.2530   5 0.50166 0.31511 0.19294-0.10963 0.91977-0.87057
  11  -1  -1 208.935 114.739   8 0.50765 0.30958-0.14709 0.06360 0.92646-0.87751
 -11  -1   1 362.607 126.304   3-0.49333-0.32379-0.26047 0.17697-0.90513 0.85595
  11  -1  -1 242.470 104.341   5 0.53993 0.27705 0.21686-0.30037 0.89716-0.84790
 -11  -1   1 163.362 108.339   7-0.52959-0.28709 0.08015-0.16381-0.92602 0.87670
 -11   1   1 322.938 106.798   7-0.51465-0.30214 0.07719 0.00609-0.93263 0.88328
  10   1  -1 -5.0947 41.8836   5 0.47725 0.26362 0.17786-0.09454 0.93240-0.89684
 -10   1   1 166.070 93.4878   7-0.49013-0.25072 0.07236 0.01093-0.94269 0.90705
 -10  -1   1 28.8435 43.7615   7-0.50557-0.23518 0.07540-0.15905-0.93647 0.90085
  10  -1  -1 -12.366 49.1984   8 0.48309 0.25821-0.13682 0.05333 0.93768-0.90238
 -10  -1   1 82.0778 50.4053   3-0.46940-0.27180-0.23771 0.15423-0.92095 0.88546
  10  -1  -1 100.765 54.5754   5 0.51628 0.22479 0.20204-0.28554 0.91155-0.87593
  10   1  -1 12.5747 32.1931   8 0.51263 0.22873-0.14918 0.23246 0.92405-0.88872
  -9   1   1 65.8233 74.1882   7-0.46826-0.19664 0.06806 0.01522-0.95088 0.92894
  -9  -1   1 97.0047 61.7445   7-0.48442-0.18042 0.07123-0.15488-0.94491 0.92298
   9  -1  -1 68.8957 46.0395   5 0.49563 0.16952 0.18921-0.27269 0.92302-0.90104
   9   1  -1 87.7574 60.7422   5 0.45530 0.20966 0.16441-0.08107 0.94266-0.92074
  -9   1   1 69.8340 55.5953   3-0.50188-0.16307-0.26869 0.35193-0.89901 0.87728
   9  -1  -1 51.0405 64.1627   8 0.46106 0.20430-0.12766 0.04417 0.94681-0.92516
   9   1  -1 50.4837 43.8876   8 0.49180 0.17362-0.14045 0.22375 0.93383-0.91215
   9   1  -1 78.6465 54.0719   2 0.43819 0.22705 0.27878-0.19543 0.91943-0.89760
  -9  -1   1 -19.206 38.9382   3-0.44781-0.21744-0.21744 0.13398-0.93370 0.91189
  -8   1   1 1574.59 213.603   7-0.44999-0.13898 0.06450 0.01880-0.95717 0.94892
   8   1  -1 1591.48 174.586   2 0.42011 0.16918 0.25416-0.17080 0.93251-0.92435
  -8   1   1 1344.40 154.573   3-0.48603-0.10301-0.25350 0.33676-0.91015 0.90208
   8   1  -1 1349.92 177.847   8 0.47508 0.11439-0.13348 0.21679 0.94110-0.93308
   8  -1  -1 1397.14 166.305   5 0.47918 0.11006 0.17906-0.26252 0.93145-0.92314
  -8  -1   1 1351.70 188.363   7-0.46722-0.12169 0.06786-0.15150-0.95125 0.94302
   8  -1  -1 1405.44 198.541   8 0.44248 0.14694-0.11997 0.03650 0.95387-0.94587
   8   1  -1 1383.59 178.378   5 0.43669 0.15238 0.15308-0.06972 0.95060-0.94232
  -8  -1   1 1362.01 176.584   3-0.42940-0.15992-0.20032 0.11690-0.94350 0.93537
  -7   1   1 178.584 71.6893   7-0.43679-0.07624 0.06192 0.02137-0.96141 0.96685
  -7  -1   1 125.496 74.8850   7-0.45568-0.05730 0.06561-0.14923-0.95526 0.96071
   7  -1  -1 110.799 43.3746   5 0.46883 0.04451 0.17269-0.25613 0.93646-0.94181
   7  -1  -1 176.371 62.6721   8 0.42871 0.08477-0.11430 0.03082 0.95874-0.96439
  -7  -1   1 101.901 39.2748   9-0.02296-0.49040-0.52500 0.44186 0.83280-0.82727
   7   1  -1 108.285 38.5728   2 0.40606 0.10728 0.23532-0.15193 0.94166-0.94718
  -7   1   1 105.982 38.0829   6-0.34111-0.17180 0.51701-0.43384-0.83374 0.83911
   7   1  -1 86.9665 47.8168   8 0.46428 0.04924-0.12900 0.21231 0.94553-0.95117
   7  -1  -1 110.509 39.6409   2 0.48491 0.02852 0.34428-0.42776 0.87804-0.88351
  -7  -1   1 133.154 52.3510   3-0.41533-0.09803-0.18736 0.10398-0.95036 0.95591
   7   1  -1 108.681 49.6638   5 0.42271 0.09048 0.14462-0.06122 0.95611-0.96148
   7  -1  -1 149.440 43.0099   4 0.02275 0.49071-0.52215 0.43911-0.83448 0.82855
   6   1  -1 1370.36 150.176   8 0.46242-0.02484-0.12823 0.21154 0.94627-0.96558
  -6  -1   1 1602.56 167.087   3-0.40746-0.02994-0.18014 0.09680-0.95398 0.97320
   6  -1  -1 1426.52 116.666   2 0.48654-0.04907 0.34663-0.43010 0.87637-0.89551
   6   1  -1 1534.41 147.783   2 0.39768 0.03973 0.22415-0.14075 0.94674-0.96592
  -6   1   1 1551.71 119.423   6-0.33212-0.10492 0.47668-0.39352-0.86049 0.87953
  -6  -1   1 1720.05 181.082   7-0.45259 0.01552 0.06500-0.14861-0.95631 0.97543
  -6   1   1 1528.08 138.431   3-0.47676 0.03957-0.24468 0.32802-0.91628 0.93551
  -6  -1   1 1467.96 114.996   9 0.04511-0.48250-0.38562 0.30247 0.91466-0.89550
  -6   1   1 1474.01 175.969   7-0.43102-0.00607 0.06079 0.02250-0.96319 0.98230
   6  -1  -1 1561.00 172.433   8 0.42188 0.01568-0.11148 0.02800 0.96104-0.98034
   6  -1  -1 1482.48 141.993   5 0.46773-0.03029 0.17201-0.25543 0.93698-0.95599
   6   1  -1 1563.75 160.855   5 0.41536 0.02195 0.14019-0.05677 0.95886-0.97788
   6  -1  -1 1550.98 122.582   4-0.04452 0.48215-0.37603 0.29286-0.91839 0.89894
   5   1  -1 35.5465 25.2091   2 0.39744-0.03598 0.22383-0.14041 0.94688-0.97974
  -5   1   1 14.1940 23.2524   7-0.43669 0.07554 0.06190 0.02138-0.96144 0.99422
  -5  -1   1 31.3128 21.7476   7-0.46278 0.10164 0.06700-0.15060-0.95282 0.98560
   5  -1  -1 41.7702 18.7294   4-0.11249 0.47428-0.21289 0.12956-0.97495 0.94192
  -5   1   1 41.3273 18.5834   6-0.32705-0.03414 0.45490-0.37175-0.87373 0.90644
  -5  -1   1 33.9454 19.7892   9 0.11468-0.47610-0.22841 0.14524 0.97166-0.93888
   5   1  -1 84.8501 47.4553   5 0.41796-0.05653 0.14176-0.05830 0.95789-0.99058
   5  -1  -1 60.2052 22.5793   2 0.50448-0.14297 0.37272-0.45616 0.85685-0.88967
  -5   1   1 48.5272 28.0261   3-0.49274 0.13148-0.25991 0.34327-0.90554 0.93843
   5  -1  -1 -7.1858 33.7978   8 0.42569-0.06407-0.11305 0.02957 0.95976-0.99275
   5   1  -1 19.9879 16.8704   8 0.47476-0.11312-0.13335 0.21668 0.94123-0.97421
   5  -1  -1 52.1530 29.5107   5 0.48146-0.11993 0.18046-0.26385 0.93032-0.96300
   4  -1  -1 11671.1 295.706   2 0.54856-0.26299 0.43953-0.52295 0.79831-0.84480
   4   1  -1 9836.62 326.959   5 0.43620-0.15064 0.15279-0.06930 0.95079-0.99716
  -4  -1   1 9738.55 339.090   3-0.42379 0.13834-0.19514 0.11190-0.94630 0.99286
   4   1  -1 10098.4 326.988   2 0.40921-0.12369 0.23953-0.15608 0.93968-0.98621
  -4   1   1 9869.29 283.515   6-0.32736 0.04206 0.45625-0.37310-0.87293 0.91930
  -4  -1   1 9847.58 275.028   9 0.18493-0.47039-0.05267-0.03052 0.99860-0.95220
   4  -1  -1 10233.1 299.677   5 0.52054-0.23491 0.20469-0.28808 0.90907-0.95543
  -4   1   1 9752.54 232.798   1 0.18348-0.46872 0.04511 0.03845 0.99897-0.95248
  -4   1   1 10096.7 359.358   7-0.46106 0.17586 0.06666 0.01661-0.95342 0.99985
   4  -1  -1 9438.35 338.034   8 0.44640-0.16072-0.12159 0.03810 0.95243-0.99909
  -4   1   1 10473.0 289.053   3-0.53541 0.25009-0.30135 0.38472-0.87243 0.91896
  -4  -1   1 10031.5 341.840   7-0.49536 0.21013 0.07339-0.15698-0.94063 0.98707
   4  -1  -1 9801.50 270.926   4-0.18018 0.46608-0.03292-0.05057-0.99945 0.95278
   4   1  -1 10026.5 324.343   8 0.51121-0.22552-0.14858 0.23191 0.92474-0.97140
  -3   1   1 147.319 38.6872   7-0.51826 0.30898 0.07790 0.00536-0.93107 0.99114
  -3   1   1 173.572 38.2606   6-0.33444 0.12502 0.48682-0.40369-0.85404 0.91406
  -3   1   1 138.833 27.2935   1 0.22188-0.43121-0.21389 0.29734 0.97575-0.91561
  -3   1   1 153.451 25.0651   2 0.35966-0.56921 0.17444-0.09109 0.96638-0.90623
  -3   1   1 171.105 36.7010   3-0.62253 0.41310-0.39029 0.47366-0.77922 0.83939
   3  -1  -1 138.818 31.1447   4-0.24514 0.45511 0.16092-0.24454-0.98457 0.92418
  -3  -1   1 138.285 33.8134   9 0.25354-0.46305 0.13982-0.22302 0.98715-0.92712
   3  -1  -1 126.165 36.8493   8 0.49598-0.28623-0.14219 0.05870 0.93193-0.99227
  -3  -1   1 118.858 33.5994   7-0.56841 0.35908 0.08786-0.17144-0.90702 0.96711
   3  -1  -1 154.185 35.7796   5 0.60487-0.39517 0.25833-0.34171 0.84979-0.90984
   3   1  -1 139.388 32.0415   8 0.59123-0.38149-0.18253 0.26588 0.87922-0.93957
  -3  -1   1 130.802 38.4134   3-0.46091 0.25144-0.22971 0.14653-0.92613 0.98633
   3   1  -1 148.726 36.1472   2 0.43903-0.22943 0.27993-0.19647 0.91879-0.97899
   2   1  -1 31688.4 488.915   2 0.49508-0.36142 0.35898-0.27549 0.86735-0.94125
  -2  -1   1 33440.5 487.453   7-0.71594 0.58245 0.11781-0.20136-0.80583 0.87956
   2  -1  -1 31674.2 502.927   8 0.59692-0.46313-0.18497 0.10147 0.87543-0.94947
  -2   1   1 34886.9 520.667   6-0.34857 0.21503 0.55281-0.46968-0.80738 0.88103
  -2   1   1 34791.7 438.853   5 0.59476-0.72847 0.25179-0.16844 0.85800-0.78430
  -2  -1   1 32392.2 462.224   9 0.31570-0.44932 0.34150-0.42470 0.92759-0.85393
  -2   1   1 31078.1 484.497   7-0.63603 0.50265 0.10145-0.01820-0.86699 0.94067
  -4  -1  -1 5113.57 328.004   7 0.13047-0.45269-0.04457-0.03874-0.95078 0.79478
   4  -1   1 5475.45 334.896   8-0.09574 0.41751 0.09156-0.17480 0.95775-0.80197
  -4   1  -1 5602.17 348.309   7 0.10914-0.43144-0.04070 0.12440-0.95732 0.80125
  -5   1  -1 253.116 76.5473   7 0.02440-0.42265-0.02522 0.10892-0.97866 0.80894
   5   1   1 308.281 84.5203   8-0.04442 0.44214 0.07221 0.01127 0.97212-0.80262
  -5  -1  -1 276.296 85.7984   7 0.03538-0.43353-0.02724-0.05608-0.97631 0.80666
   5  -1   1 318.502 91.9883   8-0.01674 0.41442 0.06170-0.14494 0.97863-0.80918
   6   1   1 65.3703 55.1778   8 0.03763 0.43604 0.04092 0.04255 0.98891-0.80574
  -6   1  -1 39.0493 48.4496   6-0.09693-0.37715-0.25196 0.33570-0.96456 0.78117
   6  -1   1 56.3892 75.7370   8 0.05121 0.42240 0.03571-0.11896 0.99096-0.80784
  -6  -1  -1 -5.3635 37.5730   7-0.04268-0.43141-0.01285-0.07045-0.99037 0.80705
  -6   1  -1 -2.5256 40.2609   7-0.04716-0.42703-0.01202 0.09572-0.99099 0.80759
   7   1   1 1438.32 210.921   8 0.10805 0.44155 0.01375 0.06973 0.99726-0.80042
   7  -1   1 1530.26 232.005   8 0.11207 0.43749 0.01218-0.09544 0.99757-0.80078
  -7  -1  -1 1612.89 238.618   7-0.11029-0.43972-0.00029-0.08302-0.99752 0.80052
  -7   1  -1 1508.75 225.357   7-0.11043-0.43969-0.00026 0.08395-0.99753 0.80045
  -7   1  -1 1259.80 165.193   6-0.13619-0.41375-0.15242 0.23613-0.98740 0.79038
   8   1   1 1016.43 196.214   8 0.17096 0.45459-0.01081 0.09429 0.99990-0.78939
   8  -1   1 1006.59 201.645   8 0.16816 0.45734-0.00971-0.07355 0.99988-0.78944
  -8   1  -1 907.813 194.375   7-0.16820-0.45784 0.01055 0.07313-0.99987 0.78912
  -8  -1  -1 1077.10 217.381   7-0.17112-0.45481 0.01110-0.09441-0.99990 0.78923
   9   1   1 334.043 121.168   8 0.22876 0.47274-0.03359 0.11707 0.99819-0.77402
  -9  -1  -1 18.7233 60.1405   7-0.22731-0.47453 0.02170-0.10502-0.99860 0.77425
 -12  -2   1 197.863 111.371   7-0.57462-0.31791 0.08910-0.25621-0.90373 0.84071
  12   2  -1 222.929 117.868   5 0.52139 0.37118 0.20523-0.03856 0.90856-0.84578
 -12  -2   1 2.45821 68.5945   3-0.50745-0.38575-0.27406 0.10716-0.89489 0.83194
 -11   2   1 402.817 129.280   7-0.51902-0.29780 0.07806 0.08873-0.93073 0.88135
  11  -2  -1 103.210 65.7326   8 0.50575 0.31147-0.14629-0.02058 0.92737-0.87844
 -11  -2   1 584.974 157.570   7-0.54975-0.26687 0.08414-0.25124-0.91649 0.86718
 -11  -2   1 250.449 115.521   3-0.48274-0.33453-0.25037 0.08347-0.91236 0.86312
  11   2  -1 265.172 111.857   8 0.56524 0.25211-0.17142 0.33811 0.89552-0.84653
  11   2  -1 318.196 112.467   5 0.49594 0.32073 0.18939-0.02271 0.92285-0.87369
 -10  -2   1 116.997 69.6831   7-0.52731-0.21339 0.07970-0.24678-0.92705 0.89144
 -10   2   1 54.9448 75.3606   7-0.49542-0.24546 0.07340 0.09338-0.94061 0.90494
 -10  -2   1 74.3554 47.7673   3-0.45982-0.28152-0.22868 0.06181-0.92678 0.89124
  10  -2  -1 -107.13 88.5668   8 0.48199 0.25929-0.13636-0.03050 0.93815-0.90287
  10   2  -1 13.7843 37.3407   8 0.54345 0.19795-0.16217 0.32887 0.90804-0.87269
  10   2  -1 114.333 68.0771   5 0.47240 0.26838 0.17488-0.00819 0.93476-0.89923
  10   2  -1 213.132 90.1333   2 0.44504 0.29611 0.28819-0.12145 0.91409-0.87861
  -9  -2   1 294.005 91.3056   7-0.50815-0.15664 0.07591-0.24297-0.93539 0.91348
   9  -2  -1 233.706 79.3164   5 0.53679 0.12846 0.21489-0.38182 0.89915-0.87716
   9  -2  -1 161.033 73.5401   8 0.46082 0.20452-0.12756-0.03930 0.94691-0.92527
   9   2  -1 277.791 83.9039   2 0.42517 0.24002 0.26103-0.09427 0.92899-0.90718
  -9   2   1 318.205 116.088   7-0.47458-0.19035 0.06930 0.09748-0.94859 0.92663
   9   2  -1 344.635 100.522   5 0.45134 0.21356 0.16200 0.00472 0.94441-0.92251
   9   2  -1 192.769 78.6664   8 0.52522 0.14024-0.15447 0.32118 0.91774-0.89605
  -9  -2   1 217.784 80.6928   3-0.43922-0.22617-0.20943 0.04258-0.93839 0.91654
  -8   2   1 300.768 95.0534   7-0.45748-0.13150 0.06596 0.10082-0.95465 0.94638
  -8  -2   1 299.390 96.8874   7-0.49352-0.09534 0.07303-0.24008-0.94136 0.93313
   8   2  -1 365.673 90.8849   5 0.43357 0.15545 0.15119 0.01556 0.95186-0.94360
   8  -2  -1 192.518 83.7304   8 0.44311 0.14630-0.12023-0.04662 0.95364-0.94566
   8  -2  -1 364.287 76.5111   5 0.52462 0.06472 0.20725-0.37418 0.90664-0.89830
   8   2  -1 282.012 68.9210   8 0.51200 0.07751-0.14891 0.31563 0.92436-0.91633
  -8  -2   1 452.007 101.318   3-0.42168-0.16775-0.19320 0.02637-0.94733 0.93918
   8   2  -1 388.051 93.1385   2 0.40811 0.18113 0.23806-0.07129 0.94038-0.93224
  -7   2   1 -46.694 42.4740   7-0.44561-0.06742 0.06364 0.10313-0.95860 0.96402
   7   2  -1 44.2807 61.1390   2 0.39476 0.11854 0.22030-0.05351 0.94844-0.95396
   7   2  -1 63.4128 54.7091   5 0.42028 0.09287 0.14315 0.02362 0.95703-0.96242
  -7   2   1 -56.470 66.8824   3-0.54527 0.03230-0.31110 0.47762-0.86377 0.86940
  -7  -2   1 42.8592 48.1020   3-0.40825-0.10522-0.18085 0.01406-0.95362 0.95916
  -7   2   1 57.5956 35.7536   6-0.31963-0.19337 0.42420-0.25771-0.89105 0.89641
  -7  -2   1 -21.362 23.9405   9 0.02218-0.53546-0.43412 0.26757 0.88990-0.88441
   7  -2  -1 -40.643 50.6783   8 0.43017 0.08331-0.11490-0.05196 0.95824-0.96391
   7  -2  -1 -62.261 56.9235   5 0.52045-0.00702 0.20464-0.37155 0.90912-0.91445
  -7  -2   1 0.36617 39.4890   7-0.48543-0.02753 0.07143-0.23848-0.94452 0.94996
   7   2  -1 -62.469 38.4029   8 0.50610 0.00746-0.14644 0.31316 0.92720-0.93284
  -6  -2   1 1378.89 163.749   3-0.40043-0.03705-0.17371 0.00696-0.95707 0.97629
   6   2  -1 1466.03 162.317   2 0.38641 0.05096 0.20928-0.04247 0.95312-0.97232
  -6   2   1 1508.50 143.168   6-0.31072-0.12640 0.38882-0.22233-0.90916 0.92821
  -6   2   1 1431.60 127.357   3-0.55918 0.12211-0.32495 0.49150-0.85084 0.87011
   6  -2  -1 1424.00 136.689   4-0.07253 0.51025-0.31075 0.14407-0.94526 0.92585
   6  -2  -1 1418.48 133.137   5 0.52875-0.09125 0.20983-0.37673 0.90414-0.92314
   6  -2  -1 1515.99 177.038   8 0.42399 0.01356-0.11236-0.05451 0.96033-0.97966
   6   2  -1 1444.72 160.967   5 0.41324 0.02403 0.13890 0.02789 0.95963-0.97867
   6   2  -1 1409.61 148.372   8 0.51143-0.07382-0.14867 0.31541 0.92464-0.94395
  -6  -2   1 1341.74 136.302   9 0.07500-0.51232-0.31995 0.15340 0.94257-0.92344
  -6   2   1 1524.30 179.130   7-0.44132 0.00424 0.06280 0.10397-0.95998 0.97908
  -6  -2   1 1516.32 169.199   7-0.48715 0.05010 0.07177-0.23880-0.94386 0.96298
   5  -2  -1 5160.60 252.015   4-0.12231 0.48414-0.18793 0.02109-0.98061 0.94760
  -5   2   1 5629.60 266.977   6-0.30514-0.05610 0.36737-0.20089-0.91923 0.95195
   5   2  -1 5444.73 285.826   2 0.38490-0.02346 0.20729-0.04047 0.95394-0.98681
   5   2  -1 5456.07 263.848   8 0.53493-0.17327-0.15856 0.32532 0.91265-0.94564
   5   2  -1 5233.55 282.794   5 0.41528-0.05388 0.14013 0.02671 0.95889-0.99159
   5  -2  -1 5480.20 301.071   8 0.42782-0.06621-0.11393-0.05294 0.95904-0.99204
   5  -2  -1 5603.20 236.401   5 0.55763-0.19604 0.22804-0.39494 0.88545-0.91812
  -5   2   1 5814.87 233.799   3-0.59752 0.23634-0.36403 0.53056-0.81027 0.84321
  -5  -2   1 5248.42 255.927   9 0.12666-0.48802-0.19971 0.03316 0.97858-0.94581
  -5   2   1 5493.65 310.863   7-0.44852 0.08739 0.06421 0.10255-0.95765 0.99042
  -5  -2   1 5317.98 279.930   7-0.50440 0.14326 0.07517-0.24217-0.93695 0.96974
  -3  -2   1 210.216 46.1711   7-0.63833 0.42896 0.10192-0.26886-0.86546 0.92556
   3   2  -1 233.531 29.8981   6-0.12592 0.33566-0.17902 0.34620-0.98246 0.92212
   3   2  -1 250.504 55.3317   2 0.41452-0.20493 0.24663-0.07977 0.93625-0.99647
   3  -2  -1 219.227 46.3382   4-0.21470 0.42463 0.06703-0.23416-0.99712 0.93676
  -3   2   1 224.477 42.8714   1 0.20389-0.41329-0.08134 0.24825 0.99638-0.93624
  -3   2   1 265.084 31.8549   9 0.14454-0.35426-0.15596 0.32296 0.98720-0.92709
  -3   2   1 245.495 50.5592   6-0.30803 0.09859 0.37838-0.21191-0.91414 0.97419
  -3  -2   1 250.307 51.2290   9 0.22403-0.43350 0.05403-0.22058 0.99751-0.93747
  -3   2   1 240.143 52.0593   7-0.53109 0.32185 0.08044 0.08627-0.92533 0.98538
   3   2  -1 267.342 46.9751   8 0.69950-0.48978-0.22992 0.39672 0.79157-0.85192
   3  -2  -1 236.415 50.5657   8 0.49190-0.28214-0.14049-0.02640 0.93378-0.99413
   3   2  -1 260.346 32.2511   4-0.12541 0.33522-0.17999 0.34692-0.98226 0.92193
   3  -2  -1 257.241 28.0871   3-0.34649 0.55615-0.12509-0.04181-0.97684 0.91660
  -2   2   1 171.068 37.2832   7-0.64375 0.51044 0.10302 0.06366-0.86179 0.93542
   2   2  -1 179.052 34.3206   6-0.05777 0.19154-0.34565 0.51289-0.93165 0.85756
  -2   2   1 193.664 44.6705   6-0.31831 0.18478 0.41886-0.25242-0.89390 0.96759
   2  -2  -1 171.626 41.0123   4-0.25539 0.38932 0.19399-0.36123-0.97770 0.90362
  -2  -2   1 206.075 47.2827   9 0.26771-0.40126 0.18295-0.34949 0.97868-0.90501
  -2  -2   1 192.000 32.2788   8 0.60381-0.73752-0.18794 0.02117 0.87074-0.79674
   2   2  -1 194.562 42.6543   5 0.54073-0.40694 0.21736-0.05036 0.89665-0.97041
   2  -2  -1 163.234 40.3152   8 0.57975-0.44594-0.17762 0.01069 0.88661-0.96066
  -2   2   1 188.575 41.0038   1 0.22279-0.35631-0.22135 0.38817 0.97403-0.90024
   1   2  -1 8052.44 270.764   5 0.66656-0.60870 0.29903-0.13196 0.79161-0.87912
   1   2  -1 7961.64 261.828   6-0.02936 0.08712-0.41033 0.57760-0.90182 0.81402
  -1  -2   1 7229.12 257.639   9 0.30615-0.36382 0.30809-0.47461 0.94110-0.85381
  -1   2   1 7251.62 255.505   6-0.33472 0.27709 0.48807-0.32165-0.85324 0.94054
  -1  -2   1 7434.57 257.004   3-0.58775 0.53022-0.35394 0.18760-0.82136 0.90875
   0  -2   1 35.1787 16.9254   4 0.05611-0.03810-0.58909 0.42242-0.78279 0.88391
   0  -2  -1 49.4043 35.6241   9-0.05657 0.03846-0.58866 0.42170 0.78309-0.88423
   0   2   1 20.2047 21.4469   6-0.35518 0.37342 0.58686-0.42046-0.77978 0.88069
  -1   2  -1 7478.72 359.320   6-0.02636-0.06789-0.41701 0.58429-0.89838 0.78322
  -1  -2  -1 7970.15 394.888   9-0.05650-0.03753-0.58853 0.42160 0.78320-0.89800
  -2   2  -1 1120.94 151.198   6-0.03895-0.13129-0.38881 0.55609-0.91243 0.78361
  -2  -2  -1 28.4360 19.4910   9-0.06577-0.10420-0.60548 0.43859 0.76838-0.89685
  -3   2  -1 5392.16 330.494   6-0.05695-0.18927-0.34755 0.51483-0.93086 0.78838
   3  -2   1 4877.88 292.558   8-0.12904 0.37487 0.10402-0.27062 0.94682-0.80472
  -3   2  -1 4762.54 290.875   7 0.16415-0.41053-0.05066 0.21790-0.93948 0.79705
  -4   2  -1 1835.75 189.757   6-0.07883-0.24336-0.29594 0.46320-0.95056 0.79443
   4  -2   1 1986.71 207.454   8-0.05003 0.37179 0.07433-0.24093 0.97069-0.81493
  -4  -2  -1 2002.37 204.463   7 0.10842-0.43056-0.04057-0.12623-0.95753 0.80158
  -4   2  -1 1780.03 196.971   7 0.07085-0.39319-0.03373 0.20096-0.96787 0.81178
  -5   2  -1 2183.67 209.504   6-0.10356-0.29458-0.23555 0.40279-0.96916 0.79939
   5  -2   1 2519.88 260.672   8 0.01687 0.38081 0.04888-0.21548 0.98538-0.81594
   5   2   1 2417.21 227.541   8-0.03150 0.42926 0.06732 0.09954 0.97526-0.80574
  -5  -2  -1 2479.22 251.914   7 0.01333-0.41142-0.02319-0.14360-0.98091 0.81130
  -5   2  -1 2567.36 263.791   7-0.00482-0.39345-0.01984 0.18707-0.98432 0.81457
  -6   2  -1 586.487 114.583   6-0.13047-0.34358-0.16727 0.33449-0.98474 0.80134
   6  -2   1 658.680 147.143   8 0.07638 0.39723 0.02601-0.19261 0.99420-0.81110
   6   2   1 651.023 136.876   8 0.05488 0.41882 0.03430 0.13255 0.99148-0.80827
  -6  -2  -1 791.981 153.396   7-0.06405-0.40997-0.00889-0.15788-0.99313 0.80986
  -6   2  -1 613.149 147.791   7-0.07012-0.40409-0.00777 0.17498-0.99383 0.81041
   7  -2   1 630.637 158.144   8 0.13107 0.41848 0.00479-0.17139 0.99876-0.80200
  -7   2  -1 453.880 135.488   7-0.12886-0.42129 0.00318 0.16403-0.99865 0.80155
  -7   2  -1 481.102 104.143   6-0.15910-0.39085-0.09155 0.25872-0.99558 0.79854
   7   2   1 640.176 145.382   8 0.12765 0.42199 0.00612 0.16074 0.99858-0.80170
  -7  -2  -1 576.954 143.649   7-0.13084-0.41910 0.00355-0.17033-0.99875 0.80181
   8  -2   1 -38.707 52.6985   8 0.18246 0.44303-0.01532-0.15129 0.99988-0.78946
   8   2   1 137.648 81.0467   8 0.19190 0.43369-0.01904 0.18590 0.99975-0.78920
  -8   2  -1 34.6146 61.0621   7-0.18319-0.44289 0.01337 0.15383-0.99991 0.78912
  -8  -2  -1 -106.85 108.011   7-0.19084-0.43500 0.01481-0.18160-0.99983 0.78921
   9   2   1 -56.643 74.8222   8 0.25048 0.45107-0.04221 0.20908 0.99650-0.77228
  -9  -2  -1 -93.690 72.4169   7-0.24627-0.45549 0.02530-0.19208-0.99738 0.77308
 -12  -3   1 63.2072 53.3306   7-0.60168-0.29078 0.09452-0.34504-0.88850 0.82550
 -12  -3   1 149.514 124.915   3-0.50301-0.39033-0.26979 0.01945-0.89818 0.83516
 -11   3   1 794.169 197.657   7-0.53072-0.28613 0.08036 0.16993-0.92550 0.87608
 -11  -3   1 529.242 142.009   7-0.57891-0.23764 0.08996-0.34046-0.90141 0.85211
 -11  -3   1 662.274 178.672   3-0.47969-0.33771-0.24746-0.00286-0.91438 0.86507
  11   3  -1 711.703 177.804   5 0.49746 0.31914 0.19034 0.05971 0.92204-0.87292
  11   3  -1 697.213 171.556   2 0.45981 0.35724 0.30871-0.05858 0.90175-0.85263
  11  -3  -1 385.625 138.835   8 0.51103 0.30618-0.14850-0.10173 0.92483-0.87594
 -10   3   1 450.137 142.402   7-0.50867-0.23222 0.07601 0.17429-0.93518 0.89947
 -10  -3   1 311.838 109.701   7-0.55905-0.18159 0.08599-0.33648-0.91185 0.87625
  10  -3  -1 207.791 55.3207   8 0.48864 0.25263-0.13913-0.11109 0.93524-0.89998
  10   3  -1 583.454 143.663   5 0.47531 0.26541 0.17667 0.07339 0.93335-0.89786
 -10  -3   1 405.509 125.094   3-0.45823-0.28322-0.22719-0.02312-0.92772 0.89213
  10   3  -1 557.649 142.426   2 0.43941 0.30169 0.28044-0.03031 0.91850-0.88305
  -9   3   1 832.418 172.997   7-0.48962-0.17530 0.07226 0.17803-0.94289 0.92090
  -9  -3   1 725.921 140.825   7-0.54310-0.12163 0.08282-0.33329-0.91971 0.89780
   9   3  -1 891.076 161.039   5 0.45574 0.20910 0.16468 0.08540 0.94247-0.92061
   9  -3  -1 826.467 172.384   8 0.46901 0.19633-0.13096-0.11927 0.94362-0.92200
   9   3  -1 797.159 142.947   8 0.57291 0.09259-0.17470 0.42483 0.89087-0.86918
  -9  -3   1 738.605 158.148   3-0.43915-0.22634-0.20936-0.04092-0.93843 0.91654
   9   3  -1 877.362 150.383   2 0.42116 0.24399 0.25559-0.00545 0.93179-0.91000
   8  -3  -1 -25.086 29.8332   4 0.00337 0.58618-0.48158 0.23167-0.86143 0.86915
  -8   3   1 13.7767 35.6918   7-0.47465-0.11433 0.06931 0.18097-0.94857 0.94027
  -8  -3   1 50.8597 61.6384   7-0.53261-0.05622 0.08074-0.33120-0.92463 0.91641
   8   3  -1 146.134 76.1004   5 0.43955 0.14942 0.15482 0.09528 0.94942-0.94120
  -8  -3   1 32.7681 41.0051   9-0.00261-0.58656-0.48480 0.23485 0.85991-0.86809
  -8   3   1 84.7133 59.9379   6-0.31938-0.26955 0.42320-0.17337-0.89159 0.88326
   8   3  -1 -12.234 28.5386   2 0.40566 0.18355 0.23478 0.01538 0.94191-0.93379
   8  -3  -1 2.95769 32.6767   8 0.45298 0.13643-0.12431-0.12592 0.94996-0.94199
   8   3  -1 -25.245 51.8332   8 0.56553 0.02403-0.17154 0.42169 0.89536-0.88732
  -8  -3   1 -11.309 32.3840   3-0.42312-0.16640-0.19453-0.05574-0.94663 0.93845
  -7   3   1 52.0746 48.2114   7-0.46527-0.04775 0.06747 0.18279-0.95195 0.95734
   7  -3  -1 202.156 57.0971   4-0.03995 0.55362-0.38642 0.13637-0.91356 0.90774
  -7   3   1 143.574 61.3882   6-0.30919-0.20387 0.38288-0.13303-0.91201 0.91738
  -7  -3   1 102.435 24.7064   9 0.04202-0.55524-0.39223 0.14228 0.91150-0.90603
   7  -3  -1 88.1679 26.7639   5 0.59841-0.08491 0.25415-0.50458 0.85507-0.86037
   7  -3  -1 223.060 85.0998   8 0.44185 0.07164-0.11971-0.13053 0.95410-0.95979
  -6   3   1 312.743 86.1923   7-0.46389 0.02684 0.06721 0.18305-0.95243 0.97150
   6   3  -1 343.351 125.352   2 0.38633 0.05101 0.20918 0.04101 0.95317-0.97237
   6  -3  -1 290.759 72.6719   4-0.08133 0.51910-0.28969 0.03948-0.95269 0.93329
   6  -3  -1 353.410 68.3986   5 0.62306-0.18550 0.27018-0.52061 0.83414-0.85311
  -6   3   1 294.162 78.2883   6-0.30124-0.13594 0.35262-0.10276-0.92576 0.94481
  -6  -3   1 292.461 73.9222   9 0.08493-0.52218-0.29750 0.04756 0.95072-0.93161
   6   3  -1 804.409 134.904   5 0.42227 0.01498 0.14435 0.10582 0.95628-0.97534
  -6  -3   1 228.755 67.5171   3-0.40440-0.03313-0.17734-0.07284-0.95534 0.97455
   6  -3  -1 340.450 89.4263   8 0.43755 0.00001-0.11793-0.13231 0.95565-0.97500
   6   3  -1 203.841 53.7816   8 0.58468-0.14704-0.17972 0.42991 0.88347-0.90279
  -6  -3   1 340.074 79.3669   7-0.53921 0.10218 0.08205-0.33246-0.92156 0.94068
  -5   3   1 281.520 72.4873   7-0.47447 0.11337 0.06928 0.18095-0.94863 0.98136
  -5  -3   1 307.182 68.2996   7-0.56719 0.20606 0.08762-0.33799-0.90766 0.94045
   5   3  -1 140.437 54.9187   2 0.38503-0.02361 0.20747 0.04274 0.95387-0.98674
   5  -3  -1 244.390 63.2519   4-0.12053 0.48237-0.19249-0.05788-0.97963 0.94662
  -5   3   1 194.527 54.5048   1 0.14674-0.50796 0.23556 0.01502 0.97141-0.93863
   5  -3  -1 168.299 46.7374   5 0.67708-0.31547 0.30612-0.55656 0.78010-0.81273
  -5   3   1 260.288 68.6659   6-0.29616-0.06511 0.33380-0.08393-0.93365 0.96638
   5   3  -1 200.847 49.6919   8 0.62575-0.26408-0.19744 0.44764 0.85498-0.88797
   5   3  -1 200.557 55.2337   5 0.42532-0.06394 0.14620 0.10401 0.95511-0.98782
   5  -3  -1 237.483 62.3864   8 0.44308-0.08145-0.12022-0.13004 0.95366-0.98666
  -5  -3   1 153.179 54.3366   3-0.40497 0.04344-0.17786-0.07227-0.95509 0.98799
  -5  -3   1 290.202 66.3928   9 0.12590-0.48719-0.20156-0.04837 0.97817-0.94541
   4   3  -1 538.357 92.6453   2 0.39181-0.10632 0.21640 0.03382 0.95012-0.99666
  -4  -3   1 541.809 87.8908   9 0.16455-0.44990-0.10560-0.14432 0.99431-0.94791
   4   3  -1 552.582 55.1909   6-0.27196 0.55759 0.24825 0.00206-0.96354 0.91693
  -4   3   1 603.737 102.206   6-0.29467 0.00930 0.32829-0.07843-0.93587 0.98227
   4   3  -1 502.908 85.0895   8 0.70715-0.42147-0.23335 0.48360 0.78390-0.83056
   4  -3  -1 427.764 79.0544   8 0.46341-0.17770-0.12864-0.12164 0.94588-0.99256
  -4   3   1 540.999 85.4989   1 0.17111-0.45643 0.11363 0.13683 0.99348-0.94700
   4  -3  -1 566.715 95.6803   4-0.15722 0.44311-0.09612-0.15438-0.99511 0.94844
  -4   3   1 624.650 97.8928   7-0.50372 0.21860 0.07504 0.17517-0.93723 0.98361
  -4  -3   1 607.773 85.0302   7-0.62652 0.34126 0.09952-0.34986-0.87320 0.91967
   3   3  -1 859.940 77.8882   6-0.19367 0.40342 0.00479 0.24575-0.99989 0.93958
  -3  -3   1 866.716 105.518   9 0.20048-0.40992-0.01108-0.23882 0.99972-0.93967
   3  -3  -1 105.619 59.3359   9-0.06427 0.27391-0.60277 0.35228 0.77080-0.83100
   3   3  -1 883.719 103.108   5 0.47539-0.26572 0.17672 0.07361 0.93331-0.99338
  -3  -3   1 913.589 115.324   3-0.44064 0.23116-0.21074-0.03921-0.93763 0.99786
   3  -3  -1 912.827 109.524   8 0.50692-0.29713-0.14678-0.10351 0.92681-0.98718
  -3   3   1 997.905 118.223   6-0.29743 0.08798 0.33844-0.08858-0.93175 0.99181
  -3   3   1 839.476 105.204   7-0.56375 0.35458 0.08693 0.16323-0.90944 0.96943
   3  -3  -1 892.293 105.431   4-0.19102 0.40092-0.00219-0.24846-0.99993 0.93959
  -3  -3   1 954.361 93.6115   7-0.73898 0.52955 0.12260-0.37291-0.78472 0.84487
  -3   3   1 914.506 105.982   1 0.19080-0.40023 0.00200 0.24836 0.99994-0.93980
  -2   3   1 7279.08 294.184   1 0.20614-0.33971-0.09656 0.34684 0.99496-0.92117
   2   3  -1 7562.21 255.395   6-0.14378 0.27756-0.13251 0.38316-0.99054 0.91651
  -2   3   1 7550.31 308.045   6-0.30505 0.17154 0.36700-0.11718-0.91939 0.99310
  -2  -3   1 7755.75 309.993   9 0.23320-0.36672 0.08017-0.33005 0.99526-0.92157
  -2  -3   1 7584.99 297.885   3-0.48613 0.35267-0.25360 0.00375-0.91008 0.98394
  -2  -3   1 7916.33 174.047   8 0.58840-0.72208-0.18132-0.06887 0.88106-0.80710
   2  -3  -1 7933.06 268.509   9-0.02618 0.15992-0.53125 0.28082 0.82831-0.90211
   2  -3  -1 7241.48 273.150   8 0.58778-0.45395-0.18106-0.06927 0.88147-0.95553
  -2  -3   1 8043.32 283.936   4 0.02761-0.16146-0.53212 0.28191-0.82738 0.90122
   2   3  -1 6876.72 261.436   5 0.53880-0.40499 0.21615 0.03426 0.89788-0.97166
  -2   3   1 7691.11 262.980   7-0.67563 0.54235 0.10951 0.14060-0.83881 0.91238
   2  -3  -1 6843.49 290.080   4-0.22148 0.35537 0.08743-0.33817-0.99525 0.92120
   1  -3  -1 37.6518 26.8213   8 0.72518-0.66731-0.24149-0.00886 0.76490-0.85269
  -1  -3   1 679.049 85.9238   4 0.01165-0.06960-0.49906 0.24892-0.85019 0.93769
   1   3  -1 779.197 91.4925   2 0.49196-0.43421 0.35446-0.10413 0.87070-0.95830
   1   3  -1 839.239 94.1249   6-0.11448 0.17227-0.20819 0.45891-0.97608 0.88834
  -1   3   1 819.879 98.2923   6-0.31779 0.26020 0.41680-0.16702-0.89499 0.98233
   1   3  -1 870.561 92.6998   5 0.64481-0.58690 0.28451-0.03401 0.81384-0.90138
  -1  -3   1 764.656 91.2441   3-0.55976 0.50229-0.32554 0.07583-0.85028 0.93770
   1  -3  -1 738.977 86.8039   9-0.00940 0.06723-0.49835 0.24795 0.85111-0.93857
  -1  -3   1 790.521 95.9671   9 0.26217-0.31979 0.16595-0.41580 0.98229-0.89497
   0  -3   1 9.01731 14.4064   4 0.00804 0.00993-0.49147 0.24138-0.85514 0.95629
   0   3   1 6.25532 20.1037   6-0.33513 0.35343 0.48987-0.24013-0.85207 0.95301
   0  -3  -1 17.1571 10.9136   4-0.27053 0.25233 0.24440-0.49526-0.96469 0.86321
   0   3  -1 -9.0596 16.6693   6-0.09973 0.08152-0.24505 0.49580-0.96654 0.86510
   0   3  -1 -5.7659 7.32574   2 0.56154-0.57973 0.46011-0.20973 0.77749-0.87881
   0  -3   1 -8.6612 7.91932   9 0.28687-0.26862 0.24369-0.49352 0.96293-0.86199
   0  -3  -1 18.2125 19.6679   9-0.00587-0.01220-0.49132 0.24096 0.85572-0.95682
  -1   3  -1 8672.06 351.996   6-0.09541 0.00120-0.25569 0.50647-0.96347 0.84834
   1   3   1 8398.88 320.922   1 0.23088-0.13688-0.29312 0.54326 0.95422-0.83950
   1   3   1 8741.68 352.466   6-0.35497 0.44915 0.58574-0.33605-0.78073 0.89524
  -1  -3  -1 8383.67 329.119   9-0.01127-0.08272-0.50205 0.25172 0.84865-0.96342
   1  -3   1 8542.36 309.633   9 0.30688-0.21275 0.31058-0.56039 0.94015-0.82558
  -1  -3  -1 8604.33 317.187   4-0.28833 0.19408 0.30652-0.55739-0.94427 0.82907
  -2   3  -1 1738.62 167.847   6-0.09874-0.07147-0.24751 0.49828-0.96584 0.83704
   2  -3   1 1655.68 134.523   9 0.32189-0.15191 0.36371-0.61351 0.91774-0.78955
  -2  -3  -1 1452.96 151.493   9-0.02302-0.14689-0.52512 0.27480 0.83272-0.96117
   2  -3   1 1779.29 167.641   4 0.02401 0.14583-0.52476 0.27481-0.83264 0.96107
   2  -3   1 1813.54 153.774   8-0.12740 0.29732 0.10341-0.35335 0.94739-0.81896
  -2   3  -1 1952.70 164.090   7 0.19238-0.36281-0.05575 0.30652-0.92909 0.80031
  -2  -3  -1 1636.02 139.248   4-0.30128 0.13098 0.35398-0.60485-0.92522 0.79631
  -3  -3  -1 3804.43 283.004   9-0.03948-0.20637-0.55672 0.30643 0.80915-0.95126
  -3   3  -1 3585.50 253.284   6-0.10779-0.13841-0.22502 0.47578-0.97193 0.82947
   3  -3   1 3111.39 232.401   8-0.05514 0.30098 0.07626-0.32621 0.96937-0.82726
   3  -3   1 3373.12 257.123   4 0.03972 0.20606-0.55665 0.30676-0.80904 0.95109
  -3  -3  -1 3289.20 240.205   7 0.18143-0.42756-0.05378-0.19649-0.93322 0.79099
  -3   3  -1 3572.32 251.012   7 0.09318-0.33955-0.03779 0.28857-0.96190 0.81946
  -4   3  -1 -21.454 25.8948   6-0.12122-0.20095-0.19107 0.44182-0.97995 0.82383
  -4  -3  -1 -27.492 55.6481   9-0.05953-0.26226-0.59412 0.34385 0.77840-0.93419
   4  -3   1 -15.479 20.0609   8 0.00590 0.31586 0.05307-0.30303 0.98332-0.82755
   4   3   1 6.51688 32.5349   8-0.10707 0.42893 0.09580 0.15440 0.95417-0.79829
  -4  -3  -1 -11.085 23.9548   7 0.05931-0.38139-0.03162-0.21862-0.97076 0.81486
  -4   3  -1 -17.703 29.6599   7 0.01654-0.33887-0.02378 0.27454-0.98027 0.82417
   5   3   1 2121.68 180.963   1 0.22888 0.16867-0.27436 0.52444 0.95997-0.79060
  -5   3  -1 1387.32 172.495   6-0.13806-0.26005-0.14753 0.39825-0.98821 0.81844
  -5  -3  -1 2090.91 215.845   7-0.03069-0.36732-0.01507-0.23515-0.98861 0.81905
   5   3   1 2204.77 201.032   8 0.00692 0.39087 0.05268 0.19755 0.98351-0.81395
   5  -3   1 1891.11 223.821   8 0.06053 0.33716 0.03212-0.28208 0.99224-0.82282
  -5   3  -1 1988.46 225.788   7-0.04801-0.35026-0.01187 0.26262-0.99110 0.82133
   6   3   1 1847.84 143.898   1 0.22067 0.25282-0.20403 0.45410 0.97794-0.79488
   6  -3   1 2159.74 264.319   8 0.11118 0.36244 0.01253-0.26249 0.99750-0.81442
   6   3   1 2136.18 217.700   8 0.09404 0.37970 0.01918 0.23107 0.99605-0.81281
  -6   3  -1 1827.58 213.161   6-0.15760-0.31644-0.09558 0.34626-0.99517 0.81175
  -6  -3  -1 2117.67 233.564   7-0.10379-0.37015-0.00150-0.24871-0.99703 0.81381
  -6   3  -1 2081.81 259.515   7-0.10544-0.36877-0.00120 0.25194-0.99716 0.81371
   7  -3   1 2579.21 316.357   8 0.15919 0.39036-0.00619-0.24377 0.99976-0.80302
  -7   3  -1 2409.66 260.017   6-0.17930-0.37065-0.03594 0.28657-0.99935 0.80229
   7   3   1 2544.91 257.460   8 0.16626 0.38343-0.00896 0.25921 0.99986-0.80295
  -7   3  -1 2175.94 284.645   7-0.15832-0.39182 0.00870 0.24204-0.99972 0.80259
  -7  -3  -1 2656.99 296.017   7-0.16710-0.38275 0.01035-0.26056-0.99986 0.80297
  -8   3  -1 153.815 66.9491   6-0.20274-0.42310 0.03102 0.21956-0.99925 0.78855
   8   3   1 182.029 58.6958   8 0.22952 0.39612-0.03389 0.28415 0.99814-0.78755
   8  -3   1 318.593 137.218   8 0.20536 0.42012-0.02434-0.22563 0.99937-0.78898
  -8   3  -1 78.0345 49.5486   7-0.20816-0.41793 0.01808 0.23265-0.99943 0.78860
  -8  -3  -1 136.972 88.0113   7-0.22428-0.40148 0.02113-0.27134-0.99876 0.78819
 -11   4   1 266.199 115.977   7-0.54929-0.26754 0.08405 0.24977-0.91671 0.86723
  11  -4  -1 70.4975 95.2253   8 0.52271 0.29449-0.15341-0.18019 0.91902-0.87016
  11   4  -1 308.359 136.899   2 0.45879 0.35820 0.30730 0.02622 0.90263-0.85355
  11   4  -1 116.556 81.4954   5 0.50518 0.31136 0.19513 0.13826 0.91784-0.86878
 -11  -4   1 212.254 124.035   3-0.48273-0.33478-0.25036-0.08342-0.91237 0.86300
 -10   4   1 31.2566 50.6026   7-0.52937-0.21150 0.08010 0.25372-0.92612 0.89036
 -10  -4   1 -2.0180 39.5453   7-0.60122-0.13936 0.09442-0.42829-0.88877 0.85319
  10  -4  -1 -9.5152 55.8549   8 0.50216 0.23911-0.14479-0.18882 0.92907-0.89384
  10   4  -1 103.306 79.5963   2 0.44014 0.30091 0.28146 0.05207 0.91793-0.88250
 -10  -4   1 26.9442 52.8002   3-0.46299-0.27856-0.23167-0.10209-0.92488 0.88923
  10   4  -1 46.2375 59.7407   5 0.48479 0.25588 0.18251 0.15090 0.92864-0.89320
  -9  -4   1 1329.34 194.773   7-0.58981-0.07486 0.09214-0.42598-0.89536 0.87346
   9   4  -1 1382.96 211.293   2 0.42367 0.24144 0.25899 0.07454 0.93005-0.90828
   9   4  -1 1352.41 206.797   5 0.46712 0.19768 0.17164 0.16179 0.93727-0.91545
   9  -4  -1 1488.10 235.931   8 0.48455 0.18079-0.13743-0.19618 0.93704-0.91546
  -9  -4   1 1064.99 191.806   3-0.44570-0.21987-0.21547-0.11827-0.93487 0.91294
  -9   4   1 1341.79 222.479   7-0.51280-0.15211 0.07683 0.25699-0.93342 0.91138
  -8   4   1 415.117 126.003   7-0.50070-0.08824 0.07444 0.25936-0.93847 0.93012
   8  -4  -1 468.170 110.572   4-0.00990 0.59952-0.45309 0.11968-0.87859 0.88634
  -8  -4   1 553.126 116.519   7-0.58513-0.00366 0.09120-0.42501-0.89799 0.88977
  -8   4   1 381.807 102.311   6-0.31429-0.27472 0.40281-0.06960-0.90223 0.89388
  -8  -4   1 352.980 97.2190   9 0.01129-0.60040-0.45660 0.12325 0.87714-0.88535
   8   4  -1 369.846 110.325   5 0.45295 0.13598 0.16297 0.17048 0.94371-0.93552
   8  -4  -1 495.289 134.053   8 0.47080 0.11862-0.13170-0.20190 0.94288-0.93494
  -8  -4   1 548.884 126.591   3-0.43151-0.15808-0.20228-0.13144-0.94242 0.93420
   8   4  -1 340.575 92.2832   2 0.40992 0.17926 0.24047 0.09306 0.93923-0.93113
   7   4  -1 1770.27 212.536   2 0.39959 0.11366 0.22669 0.10685 0.94561-0.95117
  -7   4   1 1717.76 198.742   6-0.30537-0.20775 0.36822-0.03499-0.91884 0.92419
  -7  -4   1 1739.30 196.691   9 0.04934-0.56248-0.37649 0.04315 0.91891-0.91346
  -7  -4   1 1615.18 210.886   3-0.42129-0.09230-0.19283-0.14085-0.94752 0.95301
   7  -4  -1 1659.15 218.057   8 0.46216 0.05133-0.12812-0.20549 0.94638-0.95209
   7   4  -1 2005.21 220.383   5 0.44337 0.06971 0.15714 0.17635 0.94783-0.95328
   7  -4  -1 1874.45 206.520   4-0.04661 0.56033-0.37126 0.03769-0.92056 0.91476
  -7   4   1 1697.59 214.256   7-0.49474-0.01824 0.07326 0.26051-0.94088 0.94622
  -7  -4   1 1913.79 199.773   7-0.59011 0.07722 0.09220-0.42598-0.89519 0.90065
   6  -4  -1 831.325 134.394   4-0.08117 0.51896-0.29007-0.04365-0.95256 0.93317
   6   4  -1 1150.56 166.567   2 0.39357 0.04375 0.21873 0.11483 0.94912-0.96834
  -6   4   1 1012.64 147.616   6-0.29850-0.13871 0.34242-0.00916-0.93010 0.94914
  -6  -4   1 873.710 134.427   9 0.08536-0.52256-0.29652-0.03680 0.95106-0.93196
   6   4  -1 1224.22 147.092   8 0.68575-0.24810-0.22378 0.55745 0.80477-0.82407
   6  -4  -1 608.492 129.432   8 0.46056-0.02299-0.12745-0.20617 0.94701-0.96638
   6   4  -1 960.001 142.326   5 0.43992-0.00270 0.15505 0.17849 0.94927-0.96837
  -6  -4   1 931.402 152.417   3-0.41621-0.02136-0.18816-0.14548-0.94995 0.96914
  -6   4   1 1087.22 162.695   7-0.49740 0.06039 0.07379 0.25996-0.93981 0.95883
  -6  -4   1 1011.91 135.539   7-0.60963 0.17262 0.09612-0.42987-0.88375 0.90289
  -5   4   1 61.4998 29.5777   7-0.51271 0.15167 0.07681 0.25691-0.93346 0.96614
   5   4  -1 60.4329 51.3911   2 0.39307-0.03168 0.21807 0.11551 0.94941-0.98230
  -5  -4   1 10.8805 25.3476   7-0.65191 0.29076 0.10467-0.43838-0.85615 0.88897
   5  -4  -1 39.7064 32.0537   4-0.11342 0.47525-0.21053-0.12335-0.97552 0.94250
  -5   4   1 -23.340 34.1611   6-0.29416-0.06715 0.32643 0.00684-0.93661 0.96933
  -5  -4   1 -32.269 45.0053   9 0.11921-0.48044-0.21762-0.11568 0.97438-0.94163
   5   4  -1 26.5489 36.7729   5 0.44486-0.08348 0.15805 0.17553 0.94720-0.97995
   5  -4  -1 52.1194 27.0082   8 0.46884-0.10719-0.13089-0.20275 0.94369-0.97672
   5   4  -1 24.6113 16.3406   6-0.33934 0.70087 0.50886-0.17540-0.83939 0.80630
  -5  -4   1 -43.148 41.5109   3-0.41794 0.05639-0.18974-0.14383-0.94913 0.98202
  -4  -4   1 1203.28 148.959   3-0.42876 0.14326-0.19973-0.13377-0.94382 0.99039
   4   4  -1 1177.71 146.782   2 0.39965-0.11416 0.22677 0.10682 0.94557-0.99213
   4   4  -1 1230.14 105.480   6-0.27691 0.56262 0.26527 0.06845-0.95835 0.91169
  -4   4   1 1315.29 161.598   6-0.29282 0.00745 0.32159 0.01168-0.93851 0.98491
  -4  -4   1 1397.37 129.689   7-0.73069 0.44539 0.12087-0.45454-0.79252 0.83904
   4  -4  -1 1070.18 178.246   9-0.05952 0.34504-0.59408 0.26016 0.77843-0.82497
   4   4  -1 1109.86 130.490   5 0.46158-0.17605 0.16826 0.16538 0.93983-0.98625
  -4  -4   1 1122.27 141.179   9 0.15061-0.43592-0.14084-0.19244 0.98965-0.94325
   4  -4  -1 1208.15 151.157   4-0.14315 0.42901-0.13374-0.20028-0.99036 0.94369
  -4   4   1 1163.96 138.866   7-0.54729 0.26222 0.08365 0.25002-0.91769 0.96400
   4  -4  -1 1195.59 143.394   8 0.49151-0.20579-0.14033-0.19333 0.93396-0.98066
  -3   4   1 85.2257 36.6619   7-0.61237 0.40325 0.09667 0.23695-0.88208 0.94199
   3  -4  -1 127.923 38.3567   9-0.01743 0.22706-0.51419 0.18034 0.84040-0.90054
   3  -4  -1 123.494 43.2696   4-0.17010 0.37997-0.06095-0.27320-0.99809 0.93774
   3   4  -1 120.359 38.2928   6-0.22604 0.43582 0.10052 0.23340-0.99379 0.93346
  -3   4   1 161.984 56.8355   6-0.29500 0.08556 0.32949 0.00377-0.93539 0.99545
  -3  -4   1 70.9874 36.0852   9 0.17933-0.38872-0.06739-0.26587 0.99774-0.93769
  -3  -4   1 95.2644 18.3070   8-0.01948-0.19012 0.06274-0.39612 0.97803-0.91780
   3  -4  -1 108.158 36.5411   8 0.53583-0.32603-0.15894-0.17474 0.91217-0.97256
  -3  -4   1 116.448 41.4320   3-0.45196 0.24249-0.22131-0.11208-0.93135 0.99158
  -3   4   1 127.979 21.9286   2 0.41433-0.62383 0.24639 0.08713 0.93637-0.87632
   3   4  -1 122.690 50.0938   2 0.41533-0.20574 0.24772 0.08590 0.93572-0.99595
  -3  -4   1 139.404 41.5843   4 0.01952-0.22934-0.51549 0.18181-0.83912 0.89930
   2  -4  -1 1077.89 116.306   8 0.61323-0.47937-0.19201-0.14172 0.86413-0.93822
   2   4  -1 1005.66 105.520   6-0.18897 0.32279-0.00865 0.34271-0.99992 0.92589
  -2  -4   1 1074.91 129.645   9 0.20506-0.33854 0.00136-0.33458 0.99967-0.92598
  -2   4   1 970.654 124.612   6-0.30106 0.16757 0.35197-0.01875-0.92604 0.99975
   2   4  -1 1072.88 114.439   5 0.55359-0.41976 0.22549 0.10832 0.88819-0.96201
  -2  -4   1 1075.97 121.451   3-0.49199 0.35856-0.25919-0.07407-0.90607 0.97992
   2  -4  -1 928.036 103.557   9 0.00485 0.12890-0.46974 0.13594 0.86929-0.94305
  -2  -4   1 1095.35 117.247   4-0.00154-0.13239-0.47111 0.13748-0.86790 0.94174
   2   4  -1 1008.75 62.4117   7-0.27030 0.40393 0.02987 0.30415-0.99525 0.92132
  -2   4   1 1221.26 116.486   7-0.72550 0.59228 0.11979 0.21376-0.79728 0.87074
   1   4  -1 6886.39 300.920   2 0.48409-0.42634 0.34311-0.00940 0.87887-0.96649
   1   4  -1 6934.18 302.189   6-0.16404 0.22187-0.07813 0.41228-0.99681 0.90908
  -1   4   1 6811.34 318.111   6-0.31127 0.25370 0.39096-0.05777-0.90812 0.99546
   1  -4  -1 7238.34 304.503   9 0.01434 0.04351-0.45034 0.11658 0.88078-0.96819
  -1  -4   1 7200.48 326.264   9 0.22749-0.28507 0.06382-0.39702 0.99676-0.90942
   1   4  -1 8584.89 316.336   5 0.64643-0.58849 0.28558 0.04833 0.81226-0.89983
  -1  -4   1 7321.16 304.348   3-0.55414 0.49673-0.31991-0.01319-0.85563 0.94305
  -1  -4   1 7065.07 312.270   4-0.01080-0.04719-0.45113 0.11754-0.87972 0.96724
   1  -4   1 29.5731 26.0964   9 0.26106-0.16690 0.16256-0.49571 0.98297-0.86836
  -1   4  -1 -17.569 38.1110   6-0.14195 0.04778-0.13732 0.47155-0.98983 0.87471
   1   4   1 -46.378 49.3570   1 0.21408-0.12011-0.15312 0.48671 0.98754-0.87281
  -1  -4  -1 18.8962 24.1412   4-0.24459 0.15034 0.15918-0.49356-0.98490 0.86975
   1  -4   1 32.3610 15.4866   8-0.07045 0.16448 0.08204-0.41535 0.96520-0.85042
   1   4   1 -20.663 32.9269   6-0.34259 0.43684 0.52395-0.19090-0.82883 0.94336
  -1   4  -1 46.5177 19.3520   7 0.16701-0.26144-0.05118 0.38549-0.93847 0.82336
  -1  -4  -1 -12.793 38.5100   9 0.00875-0.10270-0.46179 0.12807 0.87407-0.98882
  -2   4  -1 26.6266 16.1460   6-0.14126-0.02890-0.13915 0.47338-0.98955 0.86076
  -2  -4  -1 9.50278 19.6507   4-0.25322 0.08295 0.18694-0.52133-0.97928 0.85042
   2   4   1 -10.730 17.8848   6-0.36062 0.53074 0.61714-0.28413-0.75295 0.88104
  -2  -4  -1 -16.049 19.7263   9-0.00246-0.16741-0.48448 0.15078 0.86011-0.98853
   2   4   1 -2.9556 18.5451   1 0.21658-0.04674-0.17196 0.50553 0.98431-0.85593
   2  -4   1 37.6076 25.6459   8-0.01978 0.18972 0.06286-0.39616 0.97796-0.84951
   2  -4   1 10.2334 14.1015   9 0.27143-0.10140 0.19455-0.52768 0.97603-0.84779
  -2  -4  -1 -13.961 24.9444   7 0.25400-0.42409-0.06679-0.26694-0.90340 0.77490
  -2   4  -1 14.8847 19.6576   7 0.07373-0.24411-0.03425 0.36855-0.96713 0.83837
   3   4   1 2054.62 178.999   1 0.21685 0.02887-0.17403 0.50759 0.98393-0.84190
  -3   4  -1 2153.58 207.755   6-0.14568-0.10047-0.12747 0.46170-0.99127 0.84881
   3  -4   1 2326.65 179.349   9 0.27680-0.03092 0.21140-0.54454 0.97187-0.82999
   3  -4   1 2170.31 189.617   8 0.02637 0.21949 0.04524-0.37855 0.98706-0.84495
  -3  -4  -1 1996.18 197.089   9-0.01771-0.22808-0.51474 0.18105 0.84002-0.98211
   3  -4   1 2238.09 215.303   4 0.01885 0.22693-0.51408 0.18074-0.84009 0.98219
  -3  -4  -1 2295.96 156.604   7 0.08186-0.32794-0.03573-0.29792-0.96499 0.82282
  -3   4  -1 2145.27 184.572   7 0.00506-0.25140-0.02167 0.35595-0.98251 0.84007
  -3  -4  -1 2220.03 176.546   4-0.25687 0.01057 0.19883-0.53321-0.97659 0.83405
  -4  -4  -1 27.3643 28.9190   9-0.03623-0.28550-0.55055 0.21687 0.81392-0.96969
  -4   4  -1 24.5100 35.2690   6-0.15423-0.16790-0.10466 0.43886-0.99418 0.83805
  -4  -4  -1 30.3148 31.5687   4-0.25446-0.06783 0.19096-0.52531-0.97839 0.82217
   4  -4   1 45.7818 25.4578   9 0.27616 0.04557 0.20938-0.54252 0.97239-0.81685
   4   4   1 18.2368 24.7315   1 0.21470 0.10692-0.15775 0.49128 0.98678-0.83108
   4   4   1 -21.554 22.3294   8-0.02772 0.34962 0.06588 0.26774 0.97615-0.82022
   4  -4   1 15.9835 22.9497   8 0.07015 0.25162 0.02841-0.36172 0.99347-0.83771
  -4  -4  -1 25.8548 28.6232   7-0.02331-0.29870-0.01643-0.31720-0.98746 0.83163
  -4   4  -1 -14.045 31.2133   7-0.05247-0.26982-0.01104 0.34533-0.99169 0.83559
   4  -4   1 22.5900 41.2948   4 0.03654 0.28519-0.55027 0.21701-0.81394 0.96964
   5   4   1 5048.83 252.034   8 0.08167 0.31616 0.02397 0.30968 0.99479-0.82518
   5   4   1 4792.90 255.676   1 0.20960 0.18793-0.12065 0.45418 0.99221-0.82283
  -5   4  -1 5330.77 360.335   6-0.16614-0.23195-0.07235 0.40652-0.99728 0.82749
   5  -4   1 5166.18 266.044   9 0.26756 0.13002 0.18252-0.51566 0.97878-0.80959
   5  -4   1 5573.71 379.910   8 0.11259 0.28511 0.01198-0.34529 0.99760-0.82819
  -5  -4  -1 3834.99 422.455   9-0.05745-0.34023-0.59027 0.25662 0.78171-0.95116
  -5  -4  -1 5243.47 290.937   7-0.10077-0.29717-0.00206-0.33155-0.99679 0.82730
  -5   4  -1 5148.12 355.639   7-0.10409-0.29414-0.00145 0.33573-0.99706 0.82727
  -5  -4  -1 5440.12 253.427   4-0.24392-0.15433 0.15702-0.49136-0.98530 0.81542
  -6   4  -1 141.423 55.2496   6-0.18081-0.29322-0.03170 0.36583-0.99949 0.81606
   6   4   1 105.975 48.0958   8 0.16270 0.31109-0.00757 0.34122 0.99982-0.81653
   6  -4   1 80.7668 62.2387   8 0.15417 0.31946-0.00423-0.32909 0.99965-0.81658
  -6   4  -1 50.4230 43.2343   7-0.15222-0.32196 0.00755 0.32672-0.99958 0.81610
  -6  -4  -1 77.3355 47.1443   7-0.16469-0.30917 0.00989-0.34351-0.99983 0.81667
  -7   4  -1 585.900 140.785   6-0.19774-0.35220 0.01653 0.31754-0.99970 0.80261
   7  -4   1 536.823 152.517   8 0.19517 0.35439-0.02032-0.31300 0.99968-0.80295
  -7   4  -1 458.505 114.034   7-0.19813-0.35200 0.01619 0.31809-0.99970 0.80253
  -7  -4  -1 539.689 118.485   7-0.22110-0.32866 0.02053-0.35414-0.99891 0.80208
  -8   4  -1 2.83643 42.4452   6-0.21656-0.40929 0.07186 0.26216-0.99671 0.78597
   8  -4   1 24.6202 51.5271   8 0.23578 0.38972-0.03637-0.29696 0.99771-0.78734
  -8   4  -1 -0.5450 56.3184   7-0.24254-0.38354 0.02459 0.30968-0.99765 0.78679
  -8  -4  -1 -43.195 66.2091   7-0.27296-0.35270 0.03037-0.36399-0.99498 0.78447
  11   5  -1 819.242 214.549   2 0.46255 0.35441 0.31255 0.10433 0.89933-0.85027
 -10   5   1 52.7513 98.4250   7-0.55701-0.18382 0.08559 0.33176-0.91288 0.87705
 -10  -5   1 239.563 122.693   3-0.47283-0.26879-0.24096-0.17627-0.91880 0.88308
  10   5  -1 223.417 94.0529   5 0.49982 0.24081 0.19181 0.22494 0.92077-0.88538
  10  -5  -1 77.6977 46.7094   8 0.52173 0.21955-0.15300-0.26397 0.91952-0.88433
  10   5  -1 192.376 72.1948   2 0.44567 0.29533 0.28908 0.12782 0.91357-0.87818
  -9   5   1 470.493 136.442   7-0.54346-0.12140 0.08289 0.33444-0.91953 0.89742
  -9  -5   1 501.003 139.640   9-0.01872-0.64628-0.51671 0.09997 0.83865-0.86053
   9   5  -1 544.430 132.132   5 0.48430 0.18047 0.18221 0.23457 0.92889-0.90712
   9  -5  -1 653.130 177.432   8 0.50652 0.15883-0.14662-0.27035 0.92700-0.90545
  -9  -5   1 519.150 144.930   3-0.45747-0.20816-0.22648-0.19073-0.92816 0.90618
   9   5  -1 622.081 157.534   2 0.43101 0.23407 0.26895 0.14794 0.92481-0.90307
   8  -5  -1 -73.368 63.7821   4-0.01457 0.60423-0.44292 0.02598-0.88438 0.89214
  -8   5   1 23.9899 37.4672   7-0.53489-0.05400 0.08119 0.33612-0.92358 0.91516
  -8  -5   1 15.7563 34.5260   9 0.01636-0.60539-0.44619 0.02946 0.88316-0.89138
  -8   5   1 11.2705 30.4408   6-0.31334-0.27572 0.39907 0.01755-0.90411 0.89574
   8  -5  -1 78.4294 61.5440   8 0.49545 0.09398-0.14197-0.27500 0.93217-0.92427
   8   5  -1 24.1188 47.6282   5 0.47244 0.11647 0.17491 0.24189 0.93474-0.92660
  -8  -5   1 25.6041 33.4679   3-0.44526-0.14438-0.21505-0.20214-0.93511 0.92685
   8   5  -1 60.7843 65.6443   2 0.41903 0.17012 0.25271 0.16419 0.93324-0.92516
  -7   5   1 240.546 97.4119   7-0.53307 0.02014 0.08083 0.33646-0.92442 0.92970
   7  -5  -1 279.445 97.9114   4-0.04636 0.56011-0.37182-0.04527-0.92031 0.91451
  -7   5   1 267.842 80.1861   6-0.30561-0.20754 0.36915 0.04749-0.91842 0.92374
  -7  -5   1 230.015 77.5542   9 0.04943-0.56251-0.37629-0.04043 0.91900-0.91357
   7  -5  -1 228.321 83.6105   8 0.48977 0.02374-0.13960-0.27738 0.93474-0.94048
   7   5  -1 262.154 93.7174   5 0.46529 0.04777 0.17052 0.24632 0.93812-0.94362
  -7  -5   1 421.920 131.315   3-0.43697-0.07664-0.20735-0.20981-0.93958 0.94503
   7   5  -1 350.105 94.4457   2 0.41036 0.10286 0.24106 0.17585 0.93895-0.94453
  -6   5   1 361.675 93.0003   7-0.54059 0.10365 0.08232 0.33492-0.92091 0.93985
  -6  -5   1 374.066 81.4179   7-0.69857 0.26154 0.11422-0.53129-0.82061 0.83980
   6  -5  -1 420.004 108.945   4-0.07599 0.51378-0.30252-0.11473-0.94823 0.92884
  -6  -5   1 162.910 45.0187   9 0.08040-0.51754-0.30777-0.10893 0.94707-0.92798
   6  -5  -1 243.746 76.4316   8 0.49136-0.05377-0.14027-0.27673 0.93402-0.95342
   6   5  -1 268.866 66.1319   5 0.46430-0.02708 0.16992 0.24697 0.93858-0.95772
  -6   5   1 403.167 100.645   6-0.29975-0.13749 0.34708 0.06960-0.92814 0.94716
  -6  -5   1 388.166 97.2778   3-0.43371-0.00388-0.20431-0.21280-0.94129 0.96045
   6   5  -1 406.335 109.562   2 0.40578 0.03152 0.23494 0.18199 0.94184-0.96108
  -5   5   1 679.373 115.772   7-0.56155 0.20058 0.08649 0.33071-0.91058 0.94317
  -5  -5   1 279.470 79.5224   7-0.75750 0.39630 0.12648-0.54352-0.76640 0.79930
   5  -5  -1 597.384 123.285   4-0.10332 0.46513-0.23587-0.18152-0.96906 0.93604
  -5  -5   1 539.732 115.897   9 0.10915-0.47033-0.24146-0.17520 0.96818-0.93543
  -5   5   1 847.277 147.785   6-0.29612-0.06519 0.33364 0.08304-0.93372 0.96642
   5   5  -1 600.981 116.830   2 0.40627-0.04487 0.23560 0.18135 0.94153-0.97444
   5   5  -1 610.441 111.989   5 0.47154-0.11015 0.17435 0.24258 0.93517-0.96797
   5  -5  -1 691.499 129.284   8 0.50296-0.14129-0.14513-0.27190 0.92869-0.96175
  -5  -5   1 584.071 121.136   3-0.43686 0.07532-0.20724-0.20980-0.93964 0.97249
  -4  -5   1 1266.54 166.044   3-0.44837 0.16287-0.21796-0.19900-0.93338 0.97993
   4   5  -1 1214.90 167.013   2 0.41306-0.12758 0.24469 0.17228 0.93720-0.98378
   4   5  -1 1427.14 137.748   6-0.28577 0.57152 0.29623 0.12088-0.94796 0.90124
  -4   5   1 1261.76 173.729   6-0.29509 0.00971 0.32982 0.08686-0.93526 0.98164
   4   5  -1 1282.01 155.807   5 0.48996-0.20441 0.18570 0.23131 0.92599-0.97245
  -4  -5   1 1326.81 173.176   9 0.13548-0.42075-0.17825-0.23838 0.98310-0.93670
   4  -5  -1 1556.57 161.806   9-0.03066 0.31618-0.53990 0.12264 0.82196-0.86846
  -4   5   1 1233.29 159.574   1 0.15549-0.44089 0.19350 0.22387 0.98084-0.93440
   4  -5  -1 1451.79 170.271   8 0.52870-0.24294-0.15593-0.26112 0.91594-0.96267
  -4  -5   1 1348.50 151.900   4 0.03180-0.31758-0.54068 0.12354-0.82112 0.86762
   4  -5  -1 1178.12 163.615   4-0.12819 0.41402-0.17282-0.24471-0.98368 0.93701
  -4   5   1 1285.13 145.858   7-0.60239 0.31739 0.09466 0.32248-0.88808 0.93430
  -3  -5   1 1175.24 146.745   3-0.47077 0.26134-0.23901-0.17782-0.92009 0.98030
  -3   5   1 1105.08 80.6658   2 0.45466-0.66415 0.30153 0.11539 0.90617-0.84617
   3   5  -1 927.519 130.935   2 0.42769-0.21811 0.26444 0.15257 0.92721-0.98746
   3   5  -1 991.859 124.211   5 0.52386-0.31414 0.20677 0.21032 0.90709-0.96724
   3   5  -1 1034.98 118.628   6-0.24837 0.45819 0.17036 0.24694-0.98272 0.92235
  -3   5   1 915.727 140.714   6-0.29697 0.08755 0.33678 0.07989-0.93244 0.99248
  -3  -5   1 1080.35 151.104   9 0.15922-0.36857-0.11915-0.29745 0.99269-0.93264
   3  -5  -1 1100.70 134.045   8 0.57484-0.36501-0.17552-0.24157 0.88968-0.95010
  -3   5   1 1162.17 153.622   1 0.16900-0.37853 0.12479 0.29248 0.99212-0.93201
   3  -5  -1 1088.48 121.941   9-0.00165 0.21128-0.48284 0.06565 0.86114-0.92126
  -3  -5   1 911.006 116.620   4 0.00468-0.21457-0.48435 0.06725-0.85968 0.91984
   3  -5  -1 1147.62 156.647   4-0.15044 0.36027-0.11437-0.30328-0.99301 0.93266
  -3   5   1 1178.96 126.434   7-0.67331 0.46425 0.10903 0.30803-0.84057 0.90037
  -2   5   1 29.0019 22.6453   1 0.17992-0.31358 0.06538 0.35181 0.99785-0.92408
   2  -5  -1 -11.423 25.9719   4-0.16985 0.30367-0.06163-0.35610-0.99804 0.92401
   2   5  -1 2.21226 21.9573   6-0.21932 0.35318 0.08017 0.33729-0.99596 0.92191
  -2   5   1 6.62312 14.7341   2 0.31527-0.44886 0.11801 0.29876 0.98299-0.90928
  -2   5   1 50.0816 35.5171   6-0.30208 0.16861 0.35579 0.06085-0.92438 0.99808
  -2  -5   1 -7.0635 28.6358   9 0.18013-0.31358-0.06528-0.35130 0.99787-0.92418
   2  -5  -1 -8.0917 26.9462   9 0.01441 0.11935-0.45019 0.03305 0.88087-0.95461
  -2  -5   1 -2.6475 17.9761   3-0.50739 0.37400-0.27400-0.14268-0.89494 0.96877
   2   5  -1 30.0894 30.4513   2 0.45192-0.31824 0.29772 0.11933 0.90848-0.98241
   2  -5  -1 24.9106 24.1816   8 0.65051-0.51662-0.20824-0.20890 0.83562-0.90974
   2  -5  -1 18.9025 9.97730   3-0.35927 0.49314-0.13651-0.28085-0.97277 0.89875
   1  -5  -1 65.4509 33.2362   9 0.02125 0.03663-0.43605 0.01894 0.88884-0.97623
   1   5  -1 30.1553 24.0301   6-0.19830 0.25617 0.01813 0.39943-0.99966 0.91193
   1  -5  -1 83.6248 42.1358   4-0.18622 0.24399-0.01588-0.40192-0.99985 0.91213
  -1   5   1 56.2792 24.9796   6-0.31056 0.25304 0.38820 0.02839-0.90946 0.99679
  -1  -5   1 73.7211 17.0201   8 0.18003-0.23776-0.01437-0.40241 0.99990-0.91235
  -1  -5   1 109.376 34.6768   9 0.19798-0.25553-0.01788-0.39868 0.99967-0.91233
  -1   5   1 39.1272 30.5193   1 0.18841-0.24621 0.01629 0.40084 0.99983-0.91240
   1   5  -1 45.9853 22.1465   5 0.66288-0.60490 0.29656 0.12076 0.79552-0.88315
  -1  -5   1 131.074 51.4747   3-0.56188 0.50453-0.32767-0.08884-0.84823 0.93562
   0   5  -1 3709.71 250.233   2 0.53549-0.55364 0.41926-0.00211 0.81746-0.91881
   0   5  -1 2358.70 205.842   6-0.18441 0.16628-0.02157 0.43919-0.99975 0.89833
   0   5   1 3056.68 231.994   6-0.32232 0.34072 0.43520-0.01867-0.88502 0.98596
   0  -5   1 3263.47 237.729   9 0.21245-0.19412 0.02165-0.43818 0.99921-0.89823
   0  -5  -1 2930.92 223.081   9 0.02115-0.03917-0.43626 0.01917 0.88872-0.98978
   0  -5   1 3279.05 153.100   8 0.08935-0.07120 0.02099-0.43772 0.99559-0.89442
   0  -5   1 3208.06 245.609   4-0.01760 0.03549-0.43631 0.01930-0.88805 0.98925
   0   5  -1 2988.76 114.162   7-0.01481-0.00352-0.01800 0.43575-0.98606 0.88468
   0  -5  -1 3045.08 104.643   7-0.22598 0.20756 0.02145-0.43827-0.99867 0.89768
   0  -5  -1 2863.38 224.991   4-0.19924 0.18100 0.02150-0.43935-0.99958 0.89815
   0   5   1 2563.87 222.329   1 0.19464-0.17658-0.02157 0.43865 0.99966-0.89858
   1   5   1 1292.53 157.577   1 0.19871-0.10478-0.04731 0.46436 0.99870-0.88397
  -1   5  -1 1222.10 153.841   6-0.17666 0.08253-0.04332 0.46097-0.99905 0.88394
   1   5   1 1020.45 136.590   6-0.33683 0.43116 0.49751-0.08106-0.84705 0.96158
  -1  -5  -1 1138.11 143.085   9 0.01561-0.10952-0.44774 0.03066 0.88227-0.99700
   1  -5   1 1262.62 146.108   9 0.22320-0.12901 0.05169-0.46820 0.99767-0.88304
   1  -5   1 1180.35 110.565   8 0.07919 0.01487 0.02492-0.44162 0.99452-0.87971
   1  -5   1 1094.02 145.894   4-0.01258 0.10643-0.44727 0.03032-0.88192 0.99678
  -1   5  -1 1247.80 98.8482   7-0.03344-0.06088-0.01456 0.43234-0.98903 0.87396
  -1  -5  -1 959.917 75.6394   7-0.59894 0.50461 0.09397-0.51070-0.89011 0.77568
   2   5   1 1952.20 187.597   1 0.20067-0.03087-0.06001 0.47703 0.99798-0.86960
  -2   5  -1 1992.56 203.815   6-0.17411 0.00398-0.05041 0.46808-0.99871 0.86991
   2   5   1 2350.70 224.865   6-0.35289 0.52311 0.57481-0.15843-0.78984 0.91793
   2  -5   1 1813.11 171.552   9 0.22977-0.05971 0.07032-0.48682 0.99620-0.86792
  -2  -5  -1 1872.18 188.424   9 0.00566-0.17549-0.46808 0.05100 0.87029-0.99870
   2  -5   1 1942.45 163.323   8 0.09161 0.07836 0.02012-0.43680 0.99582-0.86736
   2  -5   1 1797.50 194.540   4-0.00331 0.17313-0.46732 0.05042-0.87019 0.99870
  -2  -5  -1 1837.25 88.3085   7 0.01815-0.18827-0.02408-0.39294-0.97995 0.85151
  -2   5  -1 2031.47 151.602   7-0.06433-0.10596-0.00884 0.42663-0.99317 0.86442
   3  -5   1 204.896 70.8367   4 0.00951 0.23627-0.49456 0.07775-0.85313 0.99527
  -3  -5  -1 281.977 78.4135   9-0.00791-0.23784-0.49538 0.07831 0.85307-0.99515
   3   5   1 225.246 66.0890   1 0.20046 0.04522-0.05863 0.47563 0.99806-0.85603
  -3   5  -1 272.164 78.5054   6-0.17595-0.07017-0.04529 0.46296-0.99896 0.85649
   3   5   1 305.500 35.3647   8-0.00454 0.25054 0.05706 0.35998 0.98123-0.83892
   3  -5   1 349.730 82.3164   8 0.11383 0.13205 0.01150-0.42818 0.99769-0.85559
   3  -5   1 314.175 74.1991   9 0.23144 0.01447 0.07510-0.49159 0.99575-0.85383
  -3  -5  -1 312.748 48.6367   7-0.08541-0.16064-0.00492-0.41205-0.99543 0.85334
  -3   5  -1 309.297 71.8437   7-0.09892-0.14733-0.00241 0.42020-0.99664 0.85421
   4   5   1 33.2313 32.5900   1 0.19785 0.12373-0.04182 0.45881 0.99896-0.84326
  -4   5  -1 4.93309 32.6892   6-0.18149-0.14061-0.02980 0.44745-0.99955 0.84341
   4  -5   1 143.710 64.2879   8 0.14124 0.18057 0.00083-0.41750 0.99923-0.84347
  -4  -5  -1 110.137 46.6281   4-0.20868-0.11357 0.04917-0.46700-0.99836 0.84220
   4  -5   1 125.085 47.4085   9 0.22707 0.09469 0.06263-0.47913 0.99685-0.84128
  -4  -5  -1 73.7945 19.2946   9-0.02454-0.29713-0.52806 0.11100 0.83061-0.98637
  -4   5  -1 90.4892 35.2542   7-0.13513-0.18708 0.00435 0.41345-0.99896 0.84284
  -4  -5  -1 63.8420 26.7688   7-0.15033-0.17163 0.00720-0.42417-0.99952 0.84377
   4  -5   1 128.597 73.9554   4 0.02534 0.29640-0.52747 0.11073-0.83072 0.98647
   5  -5   1 -2.2717 22.2755   9 0.21461 0.18300 0.02763-0.44417 0.99899-0.82976
  -5   5  -1 102.255 75.3368   6-0.19014-0.20792-0.00530 0.42292-0.99993 0.83013
  -5  -5  -1 -14.593 20.2442   4-0.19515-0.20305 0.00965-0.42746-0.99984 0.83002
  -5  -5  -1 16.4234 48.1629   9-0.04377-0.35384-0.56483 0.14778 0.80275-0.97219
   5  -5   1 -11.238 31.3838   8 0.17171 0.22602-0.01110-0.40558 0.99990-0.83050
   5   5   1 13.0725 24.7474   1 0.19238 0.20513-0.00765 0.42463 0.99989-0.83051
   5  -5   1 17.0851 51.4914   4 0.04375 0.35395-0.56472 0.14806-0.80273 0.97208
  -5   5  -1 24.0461 44.4208   7-0.17219-0.22598 0.01130 0.40650-0.99991 0.83010
  -5  -5  -1 -16.881 21.5724   7-0.20313-0.19475 0.01713-0.43410-0.99958 0.83016
  -6   5  -1 1014.60 174.761   6-0.20143-0.27259 0.02721 0.39036-0.99939 0.81593
  -6  -5  -1 -3.9642 101.318   9-0.06527-0.40828-0.60458 0.18754 0.76920-0.95232
   6  -5   1 1209.40 185.297   8 0.20418 0.26948-0.02387-0.39281 0.99941-0.81636
  -6  -5  -1 1268.25 155.492   7-0.25070-0.22307 0.02614-0.44311-0.99704 0.81395
  -6   5  -1 1230.32 189.545   7-0.20976-0.26437 0.01838 0.39943-0.99937 0.81587
  -7   5  -1 406.742 135.575   6-0.21493-0.33501 0.06701 0.35050-0.99711 0.79998
   7   5   1 213.058 82.8380   2 0.24355 0.30597 0.03000 0.38656 0.99743-0.80075
   7  -5   1 340.877 119.592   8 0.23800 0.31159-0.03726-0.37943 0.99754-0.80084
  -7   5  -1 356.258 122.126   7-0.24765-0.30243 0.02556 0.39225-0.99728 0.80007
  -8   5  -1 -23.232 46.4105   6-0.23031-0.39554 0.11363 0.30383-0.99215 0.78136
   8   5   1 24.8599 52.1776   2 0.26733 0.35810 0.05878 0.35777 0.99421-0.78387
   8  -5   1 60.0401 44.6399   8 0.27280 0.35272-0.05112-0.36558 0.99413-0.78378
  -8   5  -1 -43.678 85.9985   7-0.28577-0.34025 0.03281 0.38500-0.99354 0.78263
 -10   6   1 80.4655 106.552   7-0.59108-0.14970 0.09239 0.40849-0.89464 0.85872
  10   6  -1 4.66768 46.8111   2 0.45488 0.28610 0.30184 0.19843 0.90599-0.87062
  10  -6  -1 45.9670 61.6311   8 0.54664 0.19465-0.16352-0.33682 0.90627-0.87112
  -9   6   1 184.425 95.1976   7-0.58100-0.08381 0.09038 0.41048-0.90027 0.87806
  -9  -6   1 149.629 67.6849   9-0.01554-0.64939-0.51046 0.01034 0.84296-0.86487
  -9   6   1 192.807 102.275   6-0.32318-0.34182 0.43876 0.06123-0.88302 0.86091
   9   6  -1 96.4480 75.0959   5 0.50635 0.15840 0.19586 0.30425 0.91719-0.89549
   9  -6  -1 232.629 110.906   8 0.53410 0.13128-0.15821-0.34212 0.91310-0.89158
  -9  -6   1 315.361 122.220   3-0.47336-0.19232-0.24146-0.25923-0.91846 0.89640
   9   6  -1 297.123 121.694   2 0.44195 0.22310 0.28395 0.21632 0.91652-0.89481
   9  -6  -1 164.665 96.2123   4 0.01633 0.64929-0.50885 0.00853-0.84366 0.86495
   8  -6  -1 180.968 98.2372   4-0.01374 0.60343-0.44474-0.05572-0.88335 0.89111
  -8   6   1 177.591 84.9685   7-0.57644-0.01238 0.08947 0.41136-0.90275 0.89423
  -8   6   1 134.610 87.9466   6-0.31511-0.27399 0.40607 0.09397-0.90057 0.89216
  -8  -6   1 14.6322 54.4097   9 0.01569-0.60466-0.44757-0.05254 0.88237-0.89061
   8   6  -1 250.896 116.568   5 0.49694 0.09198 0.19001 0.31013 0.92232-0.91424
   8  -6  -1 96.2600 86.7633   8 0.52596 0.06350-0.15478-0.34557 0.91736-0.90949
  -8  -6   1 134.035 38.9876   3-0.46313-0.12653-0.23180-0.26887-0.92480 0.91647
   8   6  -1 148.947 69.7533   2 0.43169 0.15745 0.26987 0.23039 0.92431-0.91626
  -7   6   1 104.433 65.2640   7-0.57928 0.06643 0.09003 0.41076-0.90121 0.90638
   7  -6  -1 223.236 86.6959   4-0.04174 0.55548-0.38237-0.11825-0.91546 0.90965
  -7  -6   1 40.6605 55.8519   9 0.04489-0.55791-0.38608-0.11401 0.91444-0.90902
  -7   6   1 113.740 80.7775   6-0.30845-0.20475 0.37998 0.12009-0.91339 0.91868
   7   6  -1 100.469 51.2517   5 0.49234 0.02073 0.18717 0.31302 0.92475-0.93031
   7  -6  -1 42.1541 30.3359   8 0.52352-0.00997-0.15375-0.34661 0.91861-0.92439
  -7  -6   1 161.923 79.5509   3-0.45682-0.05681-0.22586-0.27477-0.92855 0.93395
   7   6  -1 84.2153 74.9174   2 0.42461 0.08859 0.26027 0.24002 0.92939-0.93499
  -6   6   1 70.3832 54.5525   7-0.59221 0.15534 0.09261 0.40812-0.89400 0.91283
   6  -6  -1 62.1822 27.8186   4-0.06761 0.50539-0.32242-0.17834-0.94089 0.92148
  -6   6   1 129.362 68.7254   6-0.30347-0.13379 0.36100 0.13910-0.92209 0.94107
  -6  -6   1 182.698 94.5370   9 0.07200-0.50908-0.32666-0.17340 0.93999-0.92091
   6   6  -1 -35.747 52.5951   5 0.49394-0.05670 0.18816 0.31208 0.92391-0.94311
   6  -6  -1 3.63976 27.4819   8 0.52857-0.09095-0.15588-0.34450 0.91600-0.93544
  -6  -6   1 120.463 87.3284   3-0.45537 0.01778-0.22451-0.27607-0.92939 0.94850
   6   6  -1 20.8612 39.4117   2 0.42142 0.01589 0.25593 0.24436 0.93161-0.95088
   5   6  -1 1766.29 220.238   2 0.42290-0.06152 0.25796 0.24237 0.93058-0.96351
  -5   6   1 2187.24 254.275   6-0.30047-0.06085 0.34975 0.15036-0.92699 0.95967
  -5  -6   1 2128.59 250.146   9 0.09691-0.45805-0.27003-0.23000 0.95979-0.92705
  -5  -6   1 2149.20 245.255   3-0.46003 0.09850-0.22888-0.27163-0.92666 0.95947
   5   6  -1 1863.32 217.958   5 0.50361-0.14220 0.19415 0.30615 0.91871-0.95156
   5  -6  -1 2286.76 240.755   8 0.54375-0.18203-0.16230-0.33811 0.90787-0.94098
   5  -6  -1 1925.70 241.041   4-0.09125 0.45304-0.26563-0.23529-0.96047 0.92743
  -5   6   1 1896.70 205.622   7-0.61931 0.25843 0.09807 0.40261-0.87778 0.91026
  -4   6   1 72.3759 26.4445   7-0.66672 0.38179 0.10768 0.39292-0.84549 0.89157
   4  -6  -1 152.501 87.8188   4-0.11254 0.39834-0.21276-0.28827-0.97498 0.92829
  -4   6   1 39.6063 29.5761   1 0.14697-0.43241 0.23447 0.26634 0.97168-0.92526
   4  -6  -1 147.853 49.9067   9-0.02229 0.30779-0.52369 0.02309 0.83374-0.88023
  -4   6   1 91.9042 48.6369   6-0.29973 0.01436 0.34698 0.15314-0.92818 0.97453
   4   6  -1 67.2007 33.7567   6-0.29569 0.58151 0.33207 0.16844-0.93435 0.88756
  -4  -6   1 151.988 85.0372   9 0.11948-0.40469-0.21697-0.28303 0.97454-0.92815
   4   6  -1 72.8354 52.6136   5 0.52393-0.23836 0.20682 0.29355 0.90705-0.95357
   4  -6  -1 43.6279 27.9132   8 0.57279-0.28699-0.17463-0.32581 0.89095-0.93772
  -4  -6   1 56.5027 49.4834   3-0.47237 0.18692-0.24052-0.25988-0.91909 0.96558
   4   6  -1 21.2481 29.3863   2 0.43007-0.14458 0.26768 0.23267 0.92549-0.97209
  -3  -6   1 370.038 76.7354   4 0.00249-0.21244-0.47970-0.02086-0.86260 0.92275
  -3   6   1 473.182 91.8036   7-0.74309 0.53408 0.12346 0.37706-0.78077 0.84040
  -3  -6   1 469.946 114.982   9 0.13954-0.34885-0.16831-0.33166 0.98501-0.92496
   3  -6  -1 511.715 117.088   4-0.13133 0.34112-0.16467-0.33646-0.98522 0.92486
   3   6  -1 443.671 90.0676   6-0.26638 0.47626 0.22940 0.27129-0.96886 0.90843
  -3   6   1 482.782 116.958   6-0.30148 0.09208 0.35354 0.14655-0.92536 0.98538
   3  -6  -1 379.463 79.4559   9 0.00056 0.20907-0.47840-0.02214 0.86394-0.92404
  -3   6   1 410.258 106.237   1 0.15872-0.36829 0.17751 0.32321 0.98392-0.92383
   3   6  -1 506.249 93.7889   5 0.55848-0.34873 0.22858 0.27189 0.88487-0.94508
  -3  -6   1 395.121 98.8678   3-0.49446 0.28507-0.26156-0.23872-0.90434 0.96449
   3   6  -1 409.252 101.985   2 0.44408-0.23449 0.28687 0.21351 0.91485-0.97513
   3  -6  -1 427.797 92.1131   8 0.62108-0.41121-0.19541-0.30508 0.85845-0.91892
  -2  -6   1 389.710 91.0345   4-0.01007-0.12397-0.45272-0.04782-0.87880 0.95263
  -2   6   1 372.159 62.4411   2 0.37879-0.51235 0.19929 0.30088 0.95716-0.88349
   2  -6  -1 423.362 110.562   4-0.14747 0.28122-0.12229-0.37892-0.99198 0.91794
   2   6  -1 505.028 94.4962   6-0.24271 0.37662 0.15234 0.34851-0.98612 0.91203
   2   6  -1 492.936 102.504   2 0.46622-0.33253 0.31771 0.18271 0.89604-0.97000
  -2   6   1 559.172 118.609   6-0.30593 0.17249 0.37037 0.12968-0.91786 0.99152
   2  -6  -1 601.997 70.8509   3-0.46231 0.59632-0.23104-0.26960-0.92529 0.85117
   2  -6  -1 438.831 89.5780   9 0.01369 0.12007-0.45168-0.04882 0.88001-0.95375
  -2  -6   1 501.710 98.2653   3-0.52874 0.39542-0.29479-0.20534-0.87807 0.95184
   2  -6  -1 597.827 113.451   8 0.69563-0.56171-0.22820-0.27235 0.79535-0.86953
  -2  -6   1 470.506 102.635   9 0.15692-0.29034-0.12498-0.37496 0.99193-0.91823
  -2   6   1 589.732 120.866   1 0.16825-0.30196 0.12874 0.37192 0.99161-0.91785
   1   6  -1 4812.29 308.088   2 0.49771-0.43993 0.36281 0.13766 0.86447-0.95214
   1   6  -1 4239.17 286.556   6-0.22477 0.28269 0.09667 0.40428-0.99424 0.90647
  -1   6   1 4676.16 254.786   2 0.30986-0.36754 0.11124 0.38884 0.98459-0.89724
  -1   6   1 4775.70 330.260   6-0.31319 0.25569 0.39845 0.10155-0.90442 0.99172
   1  -6  -1 5042.22 228.448   3-0.33669 0.39454-0.11638-0.38464-0.97972 0.89196
  -1  -6   1 4694.53 326.659   9 0.17140-0.22892-0.08801-0.41190 0.99610-0.90875
  -1  -6   1 4827.23 305.244   3-0.57776 0.52049-0.34373-0.15620-0.83214 0.91947
   1  -6  -1 4411.09 296.696   9 0.01949 0.03840-0.43970-0.06077 0.88681-0.97420
  -1   6   1 4308.63 322.177   1 0.17567-0.23353 0.08893 0.41167 0.99602-0.90861
  -1  -6   1 4950.07 326.054   4-0.01579-0.04230-0.44026-0.06027-0.88587 0.97338
   1  -6  -1 4863.03 331.163   4-0.16073 0.21846-0.08665-0.41463-0.99605 0.90833
   0  -6   1 194.419 66.0703   4-0.01606 0.03392-0.43967-0.06082-0.88619 0.98739
   0  -6   1 122.217 56.1757   9 0.18269-0.16435-0.05856-0.44132 0.99829-0.89729
   0   6   1 214.851 74.9393   6-0.32315 0.34160 0.43864 0.06130-0.88309 0.98401
   0   6   1 134.691 59.0805   1 0.18108-0.16307 0.05881 0.44174 0.99826-0.89720
   0  -6  -1 146.922 50.5254   4-0.17085 0.15258-0.05887-0.44245-0.99822 0.89680
   0   6  -1 151.399 65.2235   6-0.21221 0.19413 0.05889 0.44213-0.99772 0.89628
   0   6  -1 257.274 74.4422   2 0.53911-0.55724 0.42482 0.07570 0.81233-0.91371
   0  -6  -1 230.801 74.1123   9 0.01952-0.03751-0.43964-0.06081 0.88685-0.98790
   0  -6   1 206.342 41.5823   8 0.29473-0.27648-0.05989-0.44029 0.99119-0.88998
  -1   6  -1 4216.56 310.949   6-0.20449 0.11041 0.03614 0.46493-0.99904 0.88391
   1   6   1 4122.70 298.857   6-0.33551 0.42988 0.49155 0.00831-0.85097 0.96548
   1   6   1 3278.10 250.829   2 0.24365-0.14956 0.03012 0.46986 0.99742-0.88275
  -1  -6  -1 3966.98 289.731   9 0.01486-0.10874-0.44928-0.05116 0.88139-0.99610
   1  -6   1 3207.45 256.135   9 0.19047-0.09624-0.03800-0.46187 0.99922-0.88458
   1  -6   1 4117.67 212.674   8 0.22630-0.13217-0.03262-0.46749 0.99835-0.88352
   1  -6   1 3923.38 306.532   4-0.01184 0.10567-0.44888-0.05157-0.88101 0.99587
  -1   6  -1 4166.44 171.039   7-0.26185 0.16772 0.02826 0.47290-0.99608 0.88101
  -1  -6  -1 4024.11 287.338   4-0.17754 0.08323-0.04031-0.46103-0.99918 0.88407
   1   6   1 3474.10 282.402   1 0.18452-0.09064 0.03912 0.46139 0.99922-0.88450
   2  -6   1 117.287 60.8543   4-0.00384 0.17364-0.46617-0.03421-0.87088 0.99940
  -2   6  -1 181.840 75.5815   6-0.20106 0.03098 0.02613 0.47496-0.99943 0.87062
  -2  -6  -1 113.458 52.9568   4-0.18030 0.00999-0.03256-0.46878-0.99947 0.87067
   2   6   1 130.253 57.8784   1 0.18597-0.01622 0.03063 0.46986 0.99951-0.87114
  -2  -6  -1 114.523 55.1756   9 0.00626-0.17605-0.46686-0.03358 0.87103-0.99942
   2   6   1 129.913 61.3259   6-0.34944 0.51973 0.55718-0.05741-0.80398 0.93205
   2  -6   1 77.0848 41.8105   9 0.19423-0.02415-0.02794-0.47192 0.99951-0.87122
   2  -6   1 136.712 43.9223   8 0.20555-0.03552-0.02442-0.47567 0.99936-0.87090
  -2   6  -1 137.667 43.9388   7-0.22083 0.05070 0.02048 0.48075-0.99892 0.87017
   3  -6   1 -25.620 47.2455   4 0.00739 0.23837-0.49011-0.01020-0.85601 0.99817
   3  -6   1 -19.128 44.8227   8 0.20601 0.03993-0.02460-0.47547 0.99935-0.85724
  -3   6  -1 -10.632 43.9971   6-0.20138-0.04470 0.02706 0.47404-0.99940 0.85691
  -3  -6  -1 49.0235 32.2803   4-0.17849-0.06782-0.03766-0.46366-0.99929 0.85681
   3   6   1 76.3161 59.0352   1 0.18536 0.06028 0.03422 0.46625 0.99939-0.85736
  -3  -6  -1 54.0448 34.5959   9-0.00566-0.24003-0.49088-0.00956 0.85600-0.99807
   3  -6   1 34.1672 19.9755   9 0.19329 0.05265-0.03048-0.46938 0.99945-0.85751
  -3   6  -1 89.6429 45.2177   7-0.21780-0.02831 0.01990 0.48137-0.99906 0.85661
  -4  -6  -1 737.823 117.126   4-0.17102-0.15124-0.05842-0.44287-0.99825 0.84210
  -4   6  -1 621.296 132.200   6-0.20495-0.11711 0.03750 0.46358-0.99898 0.84282
   4   6   1 790.241 131.612   1 0.18245 0.13911 0.05103 0.44943 0.99869-0.84299
   4  -6   1 931.608 129.552   9 0.18652 0.13526-0.04847-0.45141 0.99881-0.84321
   4  -6   1 1014.68 148.164   8 0.21793 0.10393-0.02931-0.47075 0.99882-0.84307
  -4  -6  -1 684.617 139.506   9-0.02046-0.30116-0.52012 0.01968 0.83626-0.99201
  -4   6  -1 925.266 139.088   7-0.23058-0.09151 0.02232 0.47898-0.99842 0.84227
   4  -6   1 899.875 173.487   4 0.02145 0.30029-0.51947 0.01924-0.83635 0.99213
  -5   6  -1 1986.68 252.346   6-0.21136-0.18669 0.05636 0.44470-0.99790 0.82807
   5  -6   1 1597.37 213.762   8 0.23682 0.16096-0.03678-0.46327 0.99763-0.82824
  -5  -6  -1 2682.89 326.212   9-0.03778-0.35977-0.55349 0.05305 0.81165-0.98109
   5  -6   1 1703.89 252.828   4 0.03799 0.35972-0.55319 0.05304-0.81170 0.98108
  -5   6  -1 2117.09 227.966   7-0.25158-0.14649 0.02631 0.47501-0.99697 0.82712
  -6   6  -1 -14.561 35.8589   6-0.22019-0.25381 0.08279 0.41823-0.99571 0.81221
   6   6   1 -48.144 74.4528   2 0.25822 0.21535 0.04771 0.45220 0.99562-0.81264
   6  -6   1 126.488 103.142   8 0.26024 0.21345-0.04610-0.45395 0.99554-0.81250
  -6  -6  -1 91.4746 99.7670   9-0.05733-0.41617-0.59005 0.08963 0.78190-0.96501
  -6   6  -1 82.2587 65.3624   7-0.27742-0.19661 0.03122 0.47011-0.99450 0.81095
  -7  -6  -1 232.428 99.9716   3-0.27891-0.27187-0.06572-0.43591-0.99261 0.79501
  -7   6  -1 302.003 114.651   6-0.23113-0.31881 0.11616 0.38480-0.99181 0.79464
   7   6   1 277.618 109.395   2 0.27535 0.27415 0.06856 0.43135 0.99279-0.79615
   7  -6   1 256.137 133.688   8 0.28683 0.26280-0.05672-0.44333 0.99232-0.79564
  -7   6  -1 275.099 92.9978   7-0.30637-0.24362 0.03674 0.46459-0.99082 0.79357
  -8  -6  -1 213.829 122.564   3-0.30183-0.32495-0.08568-0.41594-0.98831 0.77700
   8   6   1 129.838 96.1273   2 0.29508 0.33034 0.09287 0.40706 0.98852-0.77821
  -9   7   1 138.334 53.8726   7-0.62478-0.03995 0.09917 0.48520-0.87432 0.85199
  -9  -7   1 53.5298 59.3954   9-0.01708-0.64778-0.51350-0.07001 0.84088-0.86281
  -9   7   1 44.5790 59.4417   6-0.32574-0.33932 0.44941 0.13401-0.87694 0.85478
   9   7  -1 76.8601 70.1652   5 0.53246 0.13230 0.21217 0.37128 0.90186-0.88024
   9   7  -1 213.508 113.251   2 0.45563 0.20940 0.30287 0.28075 0.90535-0.88367
   9  -7  -1 81.3157 48.4288   8 0.56653 0.09888-0.17197-0.41174 0.89475-0.87329
   9  -7  -1 33.6315 52.1915   4 0.01791 0.64774-0.51212-0.07172-0.84143 0.86271
   8  -7  -1 367.960 143.162   4-0.00910 0.59881-0.45482-0.12917-0.87758 0.88532
  -8   7   1 577.429 148.927   7-0.62459 0.03584 0.09913 0.48519-0.87444 0.86580
  -8   7   1 459.021 147.933   6-0.31869-0.27045 0.42040 0.16306-0.89308 0.88463
  -8  -7   1 533.585 162.043   9 0.01102-0.59993-0.45716-0.12633 0.87682-0.88508
   8   7  -1 449.886 131.011   5 0.52552 0.06339 0.20781 0.37567 0.90610-0.89810
   8  -7  -1 477.342 143.242   8 0.56147 0.02801-0.16982-0.41391 0.89776-0.88994
   8   7  -1 438.895 149.535   2 0.44696 0.14216 0.29084 0.29280 0.91255-0.90453
  -8  -7   1 632.811 165.928   3-0.48423-0.10545-0.25177-0.33237-0.91137 0.90297
   7  -7  -1 57.0488 65.4840   4-0.03409 0.54783-0.39967-0.18448-0.90716 0.90132
  -7   7   1 152.109 37.7906   7-0.63242 0.11965 0.10072 0.48357-0.86937 0.87441
  -7  -7   1 105.587 67.5315   9 0.03713-0.55009-0.40267-0.18078 0.90637-0.90097
  -7   7   1 169.437 102.236   6-0.31295-0.20027 0.39750 0.18600-0.90489 0.91014
   7   7  -1 260.511 117.492   2 0.44136 0.07183 0.28314 0.30051 0.91698-0.92262
   7   7  -1 217.711 88.4637   5 0.52350-0.01041 0.20655 0.37698 0.90731-0.91294
   7  -7  -1 159.274 80.4047   8 0.56237-0.04880-0.17020-0.41354 0.89723-0.90307
  -7  -7   1 92.3344 76.1215   3-0.47980-0.03382-0.24757-0.33654-0.91430 0.91963
   6  -7  -1 144.433 41.3214   4-0.05701 0.49477-0.34726-0.23703-0.93097 0.91153
  -6   7   1 427.841 119.856   6-0.30873-0.12854 0.38109 0.20244-0.91287 0.93181
  -6  -7   1 385.945 106.533   9 0.06118-0.49821-0.35065-0.23277 0.93029-0.91123
   6   7  -1 457.085 113.434   5 0.52767-0.09040 0.20915 0.37443 0.90480-0.92407
   6  -7  -1 543.733 131.446   8 0.57098-0.13332-0.17386-0.40990 0.89206-0.91155
  -6  -7   1 405.905 116.690   3-0.48010 0.04253-0.24785-0.33621-0.91411 0.93315
   6   7  -1 458.052 120.625   2 0.43944-0.00215 0.28048 0.30318 0.91848-0.93778
   5  -7  -1 -56.951 44.7722   4-0.07778 0.43954-0.29824-0.28618-0.94975 0.91668
  -5   7   1 91.3944 56.7580   6-0.30628-0.05504 0.37169 0.21186-0.91725 0.94988
  -5  -7   1 -43.782 52.7216   9 0.08308-0.44418-0.30171-0.28169 0.94925-0.91652
   5   7  -1 -8.1478 44.8199   5 0.53973-0.17829 0.21673 0.36693 0.89729-0.93023
  -5  -7   1 66.7071 63.8473   3-0.48618 0.12469-0.25364-0.33033-0.91005 0.94279
   5  -7  -1 22.9653 48.8324   8 0.58974-0.22799-0.18189-0.40191 0.88019-0.91334
   5   7  -1 14.5044 38.4376   2 0.44185-0.08047 0.28381 0.29988 0.91660-0.94957
   4   7  -1 947.780 146.164   6-0.30589 0.59176 0.37020 0.21371-0.91794 0.87105
   4  -7  -1 729.773 154.051   4-0.09629 0.38204-0.25326-0.33128-0.96418 0.91746
  -4   7   1 900.656 169.373   6-0.30580 0.02045 0.36986 0.21367-0.91809 0.96440
   4   7  -1 1014.70 159.821   5 0.56192-0.27631 0.23077 0.35298 0.88248-0.92909
   4  -7  -1 989.899 155.865   9-0.02389 0.30938-0.52680-0.05715 0.83152-0.87802
  -4  -7   1 918.216 175.747   9 0.10273-0.38791-0.25652-0.32684 0.96389-0.91750
  -4  -7   1 802.210 162.722   3-0.49938 0.21397-0.26629-0.31757-0.90082 0.94724
   4   7  -1 903.030 167.938   2 0.44941-0.16393 0.29424 0.28947 0.91055-0.95718
   4  -7  -1 881.328 149.014   8 0.62202-0.33619-0.19582-0.38802 0.85775-0.90459
  -4  -7   1 1167.81 172.462   4 0.02536-0.31129-0.52753-0.05649-0.83068 0.87710
  -3  -7   1 209.065 75.0072   4 0.00703-0.21706-0.48935-0.09466-0.85650 0.91662
   3  -7  -1 220.637 91.9416   4-0.11243 0.32216-0.21304-0.37158-0.97491 0.91454
   3  -7  -1 178.791 73.4215   9-0.00440 0.21403-0.48837-0.09552 0.85762-0.91773
  -3   7   1 112.627 65.9427   1 0.14845-0.35807 0.22750 0.35668 0.97337-0.91330
   3   7  -1 156.756 60.9187   6-0.28201 0.49194 0.28297 0.30111-0.95256 0.89206
  -3   7   1 203.052 86.4218   6-0.30748 0.09809 0.37628 0.20723-0.91512 0.97510
  -3  -7   1 265.799 98.6742   9 0.11997-0.32924-0.21580-0.36753 0.97483-0.91479
   3   7  -1 162.026 61.3458   5 0.59719-0.38740 0.25336 0.33050 0.85606-0.91637
   3   7  -1 111.641 52.1280   2 0.46301-0.25342 0.31320 0.27055 0.89892-0.95924
  -3  -7   1 256.240 87.0594   3-0.52133 0.31201-0.28755-0.29618-0.88412 0.94420
   3  -7  -1 204.868 69.8662   8 0.67229-0.46240-0.21782-0.36607 0.81703-0.87756
   2   7  -1 1717.66 211.288   2 0.48358-0.34988 0.34238 0.24140 0.87939-0.95339
   2   7  -1 1613.01 193.391   6-0.26218 0.39615 0.21542 0.36881-0.97253 0.89838
  -2   7   1 2047.95 243.799   6-0.31145 0.17803 0.39165 0.19183-0.90778 0.98140
   2  -7  -1 1776.11 200.919   9 0.00720 0.12657-0.46495-0.11890 0.87218-0.94592
  -2  -7   1 1660.81 197.707   3-0.55385 0.42061-0.31963-0.26393-0.85590 0.92959
   2   7  -1 1963.37 198.487   5 0.64894-0.51500 0.28725 0.29672 0.80978-0.88383
  -2  -7   1 1703.25 220.107   9 0.13464-0.26801-0.18034-0.40296 0.98269-0.90899
  -2   7   1 1800.42 229.952   1 0.15690-0.29067 0.18655 0.39757 0.98222-0.90848
  -2  -7   1 1922.37 217.132   4-0.00404-0.13006-0.46575-0.11826-0.87114 0.94494
   2  -7  -1 1713.20 226.132   4-0.12604 0.25975-0.17836-0.40633-0.98259 0.90853
  -1  -7   1 219.921 77.7394   4-0.00935-0.04879-0.45427-0.12972-0.87790 0.96540
  -1   7   1 170.255 53.2502   2 0.36703-0.42467 0.18397 0.39951 0.96298-0.87568
   1  -7  -1 228.129 80.8320   4-0.13692 0.19462-0.15010-0.43465-0.98778 0.90004
   1   7  -1 64.3366 25.6262   6-0.24667 0.30465 0.16495 0.41939-0.98378 0.89597
  -1   7   1 221.026 85.3497   6-0.31777 0.26031 0.41668 0.16676-0.89506 0.98232
   1   7  -1 257.547 79.7037   2 0.51195-0.45415 0.38375 0.20010 0.84806-0.93577
   1  -7  -1 155.688 72.9052   9 0.01264 0.04527-0.45385-0.12998 0.87875-0.96614
  -1  -7   1 240.534 82.2805   3-0.59866 0.54146-0.36521-0.21815-0.80895 0.89618
  -1   7   1 163.874 70.8827   1 0.16347-0.22137 0.15354 0.43052 0.98802-0.90063
  -1  -7   1 209.223 92.6237   9 0.14653-0.20403-0.15101-0.43226 0.98804-0.90069
   0  -7  -1 80.0738 37.8282   3-0.35398 0.33583-0.13179-0.45284-0.97450 0.87296
   0  -7  -1 90.7254 40.4353   4-0.14486 0.12653-0.12921-0.45558-0.99102 0.88959
   0   7  -1 126.147 90.3598   6-0.23535 0.21732 0.12927 0.45517-0.98992 0.88843
   0   7   1 116.989 52.5520   2 0.32538-0.30715 0.13071 0.45269 0.97976-0.87878
   0   7  -1 313.861 129.374   2 0.54837-0.56648 0.43923 0.14468 0.79860-0.90003
   0  -7   1 332.151 156.326   9 0.15540-0.13702-0.12881-0.45443 0.99141-0.89041
   0  -7  -1 89.5626 42.2011   9 0.01306-0.03102-0.45297-0.13083 0.87926-0.98030
   0   7   1 39.7110 29.9218   6-0.32637 0.34486 0.45201 0.13134-0.87542 0.97630
   0   7   1 82.3526 68.3565   1 0.16819-0.15023 0.12907 0.45494 0.99156-0.89052
   1  -7   1 584.456 132.053   4-0.00655 0.10034-0.46035-0.12358-0.87435 0.98920
   1   7   1 572.293 133.190   1 0.17107-0.07724 0.11378 0.47020 0.99346-0.87876
  -1  -7  -1 775.420 127.913   3-0.31406 0.21976-0.09640-0.48841-0.98559 0.87032
  -1  -7  -1 639.082 123.402   4-0.14952 0.05517-0.11682-0.46798-0.99270 0.87759
  -1   7  -1 660.450 133.906   6-0.22795 0.13392 0.10640 0.47809-0.99308 0.87792
   1   7   1 629.732 122.311   2 0.29903-0.20493 0.09776 0.48560 0.98753-0.87289
   1   7   1 541.941 132.928   6-0.33697 0.43140 0.49812 0.08515-0.84664 0.96111
  -1  -7  -1 669.205 131.252   9 0.00929-0.10315-0.46068-0.12312 0.87473-0.98945
   1  -7   1 713.439 142.974   9 0.16091-0.06667-0.11487-0.46835 0.99323-0.87858
  -2   7  -1 3227.97 308.932   6-0.22412 0.05409 0.09470 0.48981-0.99446 0.86562
   2   7   1 3260.45 290.280   2 0.28409-0.11410 0.07930 0.50402 0.99103-0.86273
   2   7   1 3696.46 322.006   6-0.34903 0.51939 0.55512 0.02807-0.80559 0.93362
  -2  -7  -1 3257.95 271.298   3-0.29259 0.12216-0.07761-0.50732-0.99017 0.86117
   2  -7   1 3187.36 273.332   9 0.16259 0.00751-0.11061-0.47262 0.99374-0.86544
  -2  -7  -1 3020.66 289.205   9 0.00196-0.17172-0.47557-0.10823 0.86570-0.99409
   2  -7   1 3450.43 234.495   8 0.32174-0.15165-0.07074-0.51287 0.98669-0.85840
   2   7   1 2959.89 283.205   1 0.17210-0.00239 0.10829 0.47567 0.99408-0.86572
   2  -7   1 3050.64 296.234   4 0.00028 0.16948-0.47500-0.10888-0.86551 0.99402
  -2  -7  -1 2896.06 262.616   4-0.15047-0.01988-0.11428-0.47051-0.99302 0.86422
   3  -7   1 440.184 125.373   4 0.01011 0.23565-0.49582-0.08799-0.85231 0.99447
   3   7   1 370.602 100.576   1 0.17116 0.07445 0.11338 0.47056 0.99351-0.85149
  -3  -7  -1 541.784 119.862   3-0.28370 0.03717-0.06987-0.51513-0.99180 0.84906
  -3  -7  -1 460.317 99.7534   4-0.14708-0.09924-0.12332-0.46144-0.99184 0.84937
  -3   7  -1 345.186 94.5429   6-0.22350-0.02253 0.09281 0.49171-0.99467 0.85215
   3  -7   1 558.324 117.441   9 0.15977 0.08618-0.11778-0.46546 0.99287-0.85092
   3   7   1 609.915 134.719   2 0.27783-0.03195 0.07160 0.51169 0.99231-0.85035
  -3  -7  -1 371.295 106.041   9-0.00846-0.23719-0.49648-0.08732 0.85235-0.99441
   3  -7   1 441.784 94.4151   8 0.30204-0.05603-0.06282-0.52069 0.99007-0.84802
  -4  -7  -1 699.268 143.083   3-0.28378-0.03883-0.06994-0.51511-0.99179 0.83531
  -4  -7  -1 659.314 116.116   4-0.13840-0.18388-0.14623-0.43849-0.98842 0.83227
  -4   7  -1 626.276 135.481   6-0.22575-0.09628 0.09964 0.48487-0.99390 0.83770
   4  -7   1 649.587 123.585   9 0.15144 0.17034-0.13877-0.44450 0.98997-0.83437
   4   7   1 735.852 154.842   2 0.27829 0.04349 0.07216 0.51112 0.99222-0.83660
  -4  -7  -1 664.613 154.513   9-0.02162-0.29995-0.52238-0.06142 0.83466-0.99041
   4  -7   1 730.854 135.946   8 0.29944 0.02247-0.06178-0.52171 0.99047-0.83480
   4   7   1 665.637 136.368   1 0.16802 0.15350 0.12998 0.45395 0.99144-0.83576
   4  -7   1 735.574 164.883   4 0.02258 0.29914-0.52181-0.06193-0.83472 0.99050
  -5  -7  -1 373.686 127.956   3-0.29048-0.10820-0.07578-0.50932-0.99057 0.82036
  -5   7  -1 351.808 116.141   6-0.23052-0.16749 0.11428 0.47020-0.99206 0.82219
   5   7   1 368.876 122.881   2 0.28404 0.11363 0.07924 0.50405 0.99104-0.82176
  -5  -7  -1 307.432 101.967   9-0.03720-0.36030-0.55239-0.03142 0.81250-0.98193
   5   7   1 268.748 94.2145   1 0.16233 0.23509 0.15931 0.42462 0.98709-0.81773
   5  -7   1 210.685 94.1344   8 0.30715 0.09068-0.06487-0.51861 0.98924-0.81994
   5  -7   1 131.176 81.4290   4 0.03744 0.36027-0.55208-0.03157-0.81255 0.98194
  -6  -7  -1 193.724 114.474   3-0.30220-0.17252-0.08601-0.49910-0.98824 0.80429
  -6   7  -1 65.1751 54.6416   6-0.23753-0.23644 0.13604 0.44840-0.98887 0.80532
  -6  -7  -1 258.314 131.606   9-0.05496-0.41847-0.58570 0.00188 0.78561-0.96872
   6   7   1 84.3823 77.5139   2 0.29402 0.17955 0.09156 0.49171 0.98878-0.80583
   6  -7   1 209.224 100.417   8 0.32199 0.15180-0.07084-0.51274 0.98664-0.80385
   6  -7   1 77.8216 40.4806   4 0.05446 0.41924-0.58584 0.00227-0.78554 0.96851
  -7  -7  -1 51.4124 76.2028   3-0.31783-0.23293-0.09972-0.48541-0.98469 0.78701
  -7   7  -1 64.1043 66.6782   6-0.24649-0.30343 0.16437 0.42001-0.98390 0.78668
   7   7   1 -80.635 106.520   2 0.30746 0.24203 0.10825 0.47503 0.98527-0.78866
   7  -7   1 3.60200 73.7006   8 0.34112 0.20858-0.07856-0.50495 0.98285-0.78631
   8  -8  -1 559.170 181.529   4-0.00167 0.59137-0.47083-0.19669-0.86807 0.87577
  -8   8   1 703.935 197.510   6-0.32348-0.26569 0.43998 0.22692-0.88234 0.87382
  -8  -8   1 691.421 199.476   9 0.00341-0.59227-0.47265-0.19420 0.86750-0.87579
   8   8  -1 600.573 156.813   5 0.55744 0.03150 0.22792 0.43890 0.88558-0.87768
   8  -8  -1 532.729 180.031   8 0.60121-0.01168-0.18682-0.48028 0.87252-0.86476
   7  -8  -1 -35.323 64.3527   4-0.02420 0.53793-0.42173-0.24594-0.89591 0.89003
  -7  -8   1 23.1192 40.6197   9 0.02698-0.53989-0.42409-0.24274 0.89533-0.88995
  -7   8   1 38.1988 68.0645   6-0.31853-0.19470 0.41973 0.24720-0.89344 0.89863
   7   8  -1 48.4121 41.2821   5 0.55792-0.04480 0.22822 0.43865 0.88525-0.89099
   7   8  -1 -74.872 77.4279   2 0.45990 0.05329 0.30885 0.35816 0.90166-0.90735
  -7  -8   1 -78.369 49.9424   3-0.50514-0.00846-0.27184-0.39575-0.89661 0.90183
   7  -8  -1 20.1962 55.8902   8 0.60544-0.09184-0.18865-0.47847 0.86961-0.87550
   6  -8  -1 221.339 101.540   4-0.04473 0.48246-0.37555-0.29225-0.91862 0.89914
  -6   8   1 301.276 123.694   6-0.31496-0.12231 0.40549 0.26147-0.90087 0.91975
  -6  -8   1 281.630 112.351   9 0.04855-0.48553-0.37819-0.28859 0.91813-0.89908
   6   8  -1 408.104 120.785   5 0.56454-0.12724 0.23244 0.43451 0.88065-0.90002
   6   8  -1 417.800 128.748   2 0.45911-0.02182 0.30774 0.35928 0.90235-0.92169
  -6  -8   1 391.856 122.050   3-0.50705 0.06953-0.27368-0.39385-0.89519 0.91413
   6  -8  -1 420.687 128.381   8 0.61754-0.17983-0.19388-0.47328 0.86103-0.88058
   5  -8  -1 169.468 112.317   4-0.06319 0.42491-0.33282-0.33510-0.93684 0.90374
  -5  -8   1 133.594 78.8819   9 0.06802-0.42908-0.33552-0.33123 0.93650-0.90380
   5   8  -1 121.003 84.5899   5 0.57883-0.21735 0.24155 0.42547 0.87028-0.90332
   5   8  -1 147.468 84.7768   2 0.46235-0.10096 0.31228 0.35477 0.89951-0.93252
  -5  -8   1 154.617 86.9456   3-0.51444 0.15300-0.28084-0.38661-0.88955 0.92220
   5  -8  -1 -70.029 67.5211   8 0.63971-0.27792-0.20351-0.46368 0.84428-0.87750
   4  -8  -1 26.8150 43.1579   4-0.07949 0.36519-0.29413-0.37389-0.95117 0.90442
  -4  -8   1 209.107 97.4213   9 0.08531-0.37046-0.29664-0.37007 0.95102-0.90465
  -4   8   1 348.685 120.291   6-0.31273 0.02738 0.39665 0.27032-0.90532 0.95156
   4   8  -1 227.828 90.8000   5 0.60271-0.31706 0.25693 0.41019 0.85157-0.89828
   4   8  -1 61.2935 33.3519   2 0.47025-0.18476 0.32340 0.34366 0.89232-0.93900
  -4  -8   1 201.631 90.2580   3-0.52841 0.24306-0.29447-0.37286-0.87834 0.92466
   3  -8  -1 12.8434 54.8411   4-0.09351 0.30319-0.26010-0.40800-0.96215 0.90174
   3   8  -1 41.0303 32.5618   6-0.29606 0.50604 0.33339 0.33408-0.93382 0.87323
  -3  -8   1 42.3275 33.6354   3-0.55024 0.34099-0.31603-0.35115-0.85925 0.91921
  -3   8   1 153.286 101.049   6-0.31434 0.10498 0.40304 0.26391-0.90211 0.96202
  -3  -8   1 85.0838 77.7753   9 0.10029-0.30954-0.26219-0.40449 0.96219-0.90217
   3   8  -1 167.644 78.0151   5 0.63853-0.42870 0.28035 0.38688 0.81989-0.88032
   3   8  -1 79.9111 85.6898   2 0.48352-0.27392 0.34229 0.32482 0.87945-0.93981
   3  -8  -1 42.1177 32.1932   9-0.01371 0.22334-0.50686-0.16037 0.84541-0.90553
  -3  -8   1 76.1708 51.3645   4 0.01570-0.22578-0.50753-0.15994-0.84455 0.90462
  -2  -8   1 159.864 79.6471   4 0.00545-0.13961-0.48599-0.18148-0.85864 0.93241
   2  -8  -1 128.701 76.3558   4-0.10511 0.23877-0.23140-0.43677-0.97026 0.89618
  -2   8   1 122.856 75.0380   1 0.14563-0.27945 0.24077 0.42680 0.97011-0.89640
   2   8  -1 113.752 63.8572   6-0.27916 0.41317 0.27304 0.39457-0.95586 0.88164
  -2   8   1 131.446 55.4969   6-0.31793 0.18454 0.41734 0.24957-0.89471 0.96827
   2   8  -1 78.5540 30.3292   2 0.50282-0.36911 0.37028 0.29688 0.85875-0.93280
  -2  -8   1 151.829 79.5160   9 0.11280-0.24615-0.23284-0.43381 0.97050-0.89682
   2  -8  -1 -47.268 39.4890   9-0.00293 0.13671-0.48543-0.18177 0.85951-0.93326
  -2  -8   1 10.5002 43.7556   3-0.58129 0.44812-0.34733-0.31967-0.82839 0.90195
  -1  -8   1 489.590 118.472   4 0.00024-0.05844-0.47490-0.19256-0.86558 0.95304
   1  -8  -1 520.881 137.480   4-0.11412 0.17175-0.20876-0.45945-0.97594 0.88818
   1   8  -1 360.644 104.501   6-0.26560 0.32363 0.22680 0.44093-0.96956 0.88168
  -1   8   1 338.935 107.684   1 0.15149-0.20944 0.21296 0.45456 0.97672-0.88936
   1   8  -1 506.962 117.624   2 0.52868-0.47087 0.40886 0.25836 0.82680-0.91456
  -1   8   1 338.386 118.104   6-0.32351 0.26609 0.44011 0.22675-0.88226 0.96946
  -1  -8   1 579.434 135.113   9 0.12266-0.18013-0.20935-0.45727 0.97637-0.88904
  -1  -8   1 599.189 133.762   3-0.62261 0.56549-0.39037-0.27642-0.77912 0.86622
   1  -8  -1 403.075 105.171   9 0.00245 0.05547-0.47459-0.19257 0.86631-0.95371
  -1   8   1 454.425 91.4584   2 0.41628-0.47389 0.24900 0.41787 0.93509-0.84784
   0  -8   1 331.416 114.513   4-0.00076 0.01852-0.47278-0.19467-0.86688 0.96802
   0   8   1 223.195 75.1615   2 0.37611-0.35785 0.19578 0.47102 0.95854-0.85760
   0  -8   1 275.951 102.051   9 0.12961-0.11121-0.19259-0.47402 0.98015-0.87916
   0  -8  -1 232.068 88.0606   4-0.12032 0.10193-0.19303-0.47521-0.97952 0.87807
   0   8  -1 143.018 87.6337   2 0.56112-0.57921 0.45944 0.20784 0.77819-0.87967
   0   8  -1 171.260 75.9245   6-0.25540 0.23742 0.19310 0.47472-0.97788 0.87634
   0   8   1 372.905 102.785   6-0.33101 0.34954 0.47181 0.19497-0.86352 0.96433
   0  -8  -1 235.617 82.4291   9 0.00335-0.02130-0.47277-0.19439 0.86743-0.96849
   0   8   1 199.338 90.5185   1 0.15563-0.13772 0.19280 0.47469 0.98098-0.87996
   1  -8   1 150.540 69.7553   4 0.00187 0.09188-0.47837-0.18904-0.86343 0.97825
  -1  -8  -1 216.607 80.5627   4-0.12339 0.02900-0.18517-0.48308-0.98119 0.86607
   1   8   1 254.976 87.1342   2 0.34885-0.25472 0.16055 0.50618 0.97102-0.85642
  -1   8  -1 356.950 121.760   6-0.24841 0.15442 0.17051 0.49737-0.98269 0.86748
   1  -8   1 322.057 110.917   9 0.13332-0.03908-0.18352-0.48307 0.98204-0.86740
   1   8   1 253.002 94.3486   6-0.34020 0.43469 0.51282 0.15388-0.83666 0.95107
  -1  -8  -1 358.789 105.759   9 0.00045-0.09428-0.47863-0.18852 0.86380-0.97851
   1   8   1 334.158 120.633   1 0.15805-0.06428 0.18082 0.48663 0.98331-0.86863
  -1  -8  -1 384.388 103.210   3-0.38301 0.28885-0.15789-0.51030-0.96421 0.84888
   2  -8   1 110.073 54.1331   4 0.00764 0.16209-0.49064-0.17673-0.85567 0.98416
   2  -8   1 187.397 85.4746   9 0.13339 0.03672-0.18337-0.48322 0.98207-0.85378
  -2  -8  -1 158.571 76.3027   4-0.12294-0.04745-0.18633-0.48190-0.98095 0.85214
   2   8   1 223.869 79.9540   2 0.33174-0.16173 0.13876 0.52794 0.97757-0.84930
   2   8   1 247.487 107.892   6-0.35064 0.52106 0.56323 0.10338-0.79921 0.92718
  -2   8  -1 4.73155 64.3527   6-0.24444 0.07445 0.15782 0.51010-0.98513 0.85624
  -2  -8  -1 54.7467 57.5585   9-0.00575-0.16397-0.49108-0.17607 0.85587-0.98426
   2   8   1 81.3720 33.8278   1 0.15870 0.01096 0.17758 0.48984 0.98391-0.85557
  -2  -8  -1 139.191 75.3643   3-0.35648 0.18617-0.13402-0.53433-0.97369 0.84463
  -3  -8  -1 -37.556 40.4039   3-0.34230 0.09587-0.12137-0.54708-0.97810 0.83530
  -3  -8  -1 51.2982 31.3372   4-0.11838-0.12798-0.19796-0.47023-0.97843 0.83594
  -3   8  -1 -4.8489 45.3757   6-0.24323-0.00276 0.15398 0.51395-0.98583 0.84326
   3   8   1 32.1783 56.3712   2 0.32266-0.07676 0.12729 0.53938 0.98066-0.83873
   3  -8   1 120.838 82.0822   9 0.12917 0.11679-0.19365-0.47297 0.97992-0.83798
   3   8   1 86.5142 72.8372   1 0.15746 0.08809 0.18375 0.48368 0.98275-0.84075
  -3  -8  -1 -14.994 56.8494   9-0.01487-0.23076-0.50914-0.15801 0.84386-0.98593
   3  -8   1 16.9758 77.4031   4 0.01623 0.22949-0.50864-0.15868-0.84380 0.98594
  -4  -8  -1 386.690 118.793   3-0.33725 0.01472-0.11688-0.55164-0.97957 0.82303
   4   8   1 350.675 107.155   1 0.15414 0.16732 0.20009 0.46733 0.97949-0.82383
  -4   8  -1 537.859 157.234   6-0.24454-0.07745 0.15814 0.50979-0.98507 0.82882
   4   8   1 416.187 134.240   2 0.32001 0.00179 0.12394 0.54270 0.98152-0.82593
  -4  -8  -1 415.187 119.316   9-0.02656-0.29496-0.53198-0.13518 0.82778-0.98353
   4  -8   1 332.762 115.386   4 0.02733 0.29439-0.53155-0.13570-0.82779 0.98356
  -5  -8  -1 9.39613 43.3787   3-0.33912-0.05949-0.11854-0.55002-0.97903 0.80875
   5   8   1 11.4661 30.1452   1 0.14842 0.24896 0.22762 0.43979 0.97334-0.80401
  -5   8  -1 100.002 80.2882   6-0.24811-0.14986 0.16955 0.49836-0.98289 0.81296
   5   8   1 -33.770 83.9423   2 0.32255 0.07514 0.12715 0.53949 0.98070-0.81145
  -5  -8  -1 84.1708 120.139   9-0.04060-0.35685-0.55884-0.10834 0.80749-0.97692
   5  -8   1 37.1983 91.7762   8 0.38148 0.01641-0.09495-0.57187 0.97316-0.80378
   5  -8   1 -3.9686 53.8049   4 0.04070 0.35701-0.55862-0.10855-0.80752 0.97690
  -6  -8  -1 376.319 166.966   3-0.34637-0.12830-0.12499-0.54360-0.97688 0.79287
   6   8   1 404.914 177.103   2 0.32935 0.14423 0.13574 0.53090 0.97841-0.79550
  -6   8  -1 202.808 112.971   6-0.25372-0.22023 0.18763 0.48025-0.97910 0.79549
  -6  -8  -1 73.4963 96.2013   9-0.05676-0.41662-0.58901-0.07816 0.78279-0.96591
   6  -8   1 227.188 130.023   8 0.38737 0.08643-0.09735-0.56944 0.97154-0.78852
   6  -8   1 258.099 156.596   4 0.05616 0.41753-0.58917-0.07791-0.78272 0.96570
   7   8   1 -79.326 85.1944   2 0.33967 0.20982 0.14883 0.51781 0.97465-0.77807
  -7  -8  -1 -203.66 132.488   3-0.35787-0.19285-0.13526-0.53334-0.97323 0.77548
   7   9  -1 39.4334 57.7044   5 0.59486-0.08172 0.25186 0.49838 0.85791-0.86376
   6  -9  -1 -5.3521 47.0435   4-0.03112 0.46881-0.40632-0.34499-0.90385 0.88431
  -6  -9   1 85.2058 74.8700   9 0.03446-0.47140-0.40833-0.34181 0.90352-0.88451
  -6   9   1 110.248 55.4845   6-0.32179-0.11549 0.43301 0.31739-0.88624 0.90505
   6   9  -1 97.8440 89.9747   5 0.60375-0.16642 0.25761 0.49270 0.85071-0.87020
   6   9  -1 128.444 76.7613   2 0.47990-0.04260 0.33711 0.41327 0.88307-0.90246
  -6  -9   1 210.959 124.786   3-0.53559 0.09812-0.30152-0.44948-0.87228 0.89109
   5  -9  -1 57.0986 74.6628   4-0.04767 0.40935-0.36882-0.38261-0.92166 0.88850
  -5  -9   1 -112.70 95.5744   9 0.05193-0.41295-0.37087-0.37924 0.92147-0.88879
  -5   9   1 -14.389 57.2751   6-0.32019-0.04112 0.42647 0.32394-0.88982 0.92231
   5   9  -1 0.53976 58.2288   2 0.48383-0.12244 0.34274 0.40766 0.87914-0.91219
  -5  -9   1 98.3782 71.8320   3-0.54411 0.18273-0.30995-0.44097-0.86481 0.89732
   4  -9  -1 528.284 160.560   4-0.06214 0.34780-0.33528-0.41623-0.93586 0.88906
  -4   9   1 794.031 183.740   6-0.32012 0.03479 0.42620 0.32420-0.88996 0.93614
  -4  -9   1 517.417 158.367   9 0.06728-0.35239-0.33718-0.41289 0.93584-0.88950
   4   9  -1 626.467 152.515   2 0.49201-0.20651 0.35453 0.39591 0.87065-0.91738
  -4  -9   1 642.452 161.364   3-0.55871 0.27343-0.32449-0.42629-0.85129 0.89747
   3  -9  -1 4.75706 65.6595   4-0.07442 0.28405-0.30626-0.44534-0.94690 0.88644
   3   9  -1 67.9271 41.7621   6-0.30892 0.51896 0.38186 0.36901-0.91250 0.85180
  -3   9   1 52.8907 57.5341   6-0.32169 0.11235 0.43261 0.31777-0.88646 0.94630
   3   9  -1 -34.203 55.6406   2 0.50496-0.29534 0.37342 0.37706 0.85631-0.91672
  -3  -9   1 -32.710 75.5126   9 0.08039-0.28961-0.30781-0.44223 0.94706-0.88706
   3  -9  -1 33.0026 54.2870   9-0.02595 0.23557-0.53079-0.21979 0.82864-0.88879
  -3  -9   1 49.8158 60.9748   3-0.58038 0.37120-0.34640-0.40423-0.82937 0.88918
  -3  -9   1 -33.387 56.7757   4 0.02714-0.23728-0.53116-0.21976-0.82807 0.88809
   2  -9  -1 1265.52 230.049   4-0.08438 0.21799-0.28233-0.46932-0.95515 0.88102
   2   9  -1 1347.40 216.903   6-0.29435 0.42841 0.32714 0.42387-0.93633 0.86201
  -2  -9   1 1338.71 209.237   3-0.61005 0.47695-0.37710-0.37334-0.79523 0.86863
  -2   9   1 1268.21 231.333   6-0.32495 0.19159 0.44610 0.30425-0.87885 0.95234
   2   9  -1 1170.52 195.958   2 0.52315-0.38942 0.40049 0.35004 0.83409-0.90820
  -2  -9   1 1324.84 234.464   9 0.09113-0.22446-0.28336-0.46666 0.95551-0.88185
   2  -9  -1 1286.13 213.883   9-0.01561 0.14938-0.51061-0.23993 0.84286-0.91665
  -2  -9   1 1232.54 204.420   4 0.01735-0.15156-0.51095-0.23997-0.84223 0.91594
  -1  -9   1 180.927 88.6776   4 0.01207-0.07033-0.49995-0.25098-0.84961 0.93702
   1  -9  -1 74.5568 34.5728   4-0.09186 0.14944-0.26414-0.48754-0.96092 0.87312
   1   9  -1 198.530 86.3026   6-0.28241 0.34048 0.28439 0.46674-0.95208 0.86412
   1   9  -1 86.5071 59.7735   2 0.54687-0.48905 0.43688 0.31370 0.80088-0.88870
  -1   9   1 188.918 97.5959   6-0.32991 0.27253 0.46710 0.28318-0.86641 0.95353
  -1  -9   1 161.689 53.9621   9 0.09930-0.15675-0.26449-0.48549 0.96150-0.87418
   1  -9  -1 122.169 85.4587   9-0.01011 0.06803-0.49975-0.25077 0.85018-0.93761
   0  -9   1 70.8926 81.1393   4 0.01064 0.00707-0.49695-0.25397-0.85158 0.95268
   0  -9  -1 59.0561 52.9451   4-0.09663 0.07819-0.25242-0.49927-0.96442 0.86294
   0   9  -1 -60.368 35.3472   6-0.27319 0.25526 0.25248 0.49874-0.96228 0.86066
   0   9   1 28.2265 53.3940   6-0.33649 0.35508 0.49599 0.25423-0.84806 0.94879
   0  -9   1 107.909 60.5398   9 0.10468-0.08627-0.25195-0.49801 0.96522-0.86425
   0  -9  -1 -26.334 67.5028   9-0.00870-0.00924-0.49695-0.25356 0.85204-0.95311
   1  -9   1 -26.217 49.5274   4 0.01255 0.08115-0.50096-0.24996-0.84894 0.96372
   1   9   1 -3.3237 42.7272   2 0.39445-0.30029 0.21988 0.53024 0.94862-0.83407
  -1  -9  -1 56.6536 45.2494   4-0.09842 0.00397-0.24801-0.50368-0.96569 0.85053
  -1   9  -1 60.6060 69.6903   6-0.26667 0.17272 0.23035 0.52093-0.96860 0.85331
   1   9   1 82.8714 94.4388   6-0.34450 0.43904 0.53301 0.21712-0.82228 0.93660
   1  -9   1 167.448 113.513   9 0.10696-0.01269-0.24662-0.50334 0.96674-0.85212
  -1  -9  -1 4.33363 54.2460   9-0.01081-0.08300-0.50114-0.24936 0.84926-0.96400
   2   9   1 1095.45 199.269   2 0.37604-0.20601 0.19570 0.55438 0.95857-0.83035
  -2  -9  -1 1146.48 207.458   4-0.09684-0.07360-0.25192-0.49975-0.96457 0.83573
   2   9   1 1042.94 205.334   1 0.14553 0.02408 0.24122 0.50969 0.96999-0.84168
   2   9   1 1524.69 266.205   6-0.35356 0.52403 0.57827 0.17176-0.78699 0.91487
  -2   9  -1 1184.04 223.121   6-0.26269 0.09274 0.21709 0.53424-0.97210 0.84314
  -2  -9  -1 1305.51 234.015   9-0.01601-0.15369-0.51140-0.23910 0.84232-0.97073
   2  -9   1 1071.78 201.324   9 0.10571 0.06440-0.24954-0.50042 0.96591-0.83764
   2  -9   1 1010.97 217.843   4 0.01741 0.15228-0.51108-0.23978-0.84214 0.97059
   3   9   1 -56.824 57.4812   2 0.36498-0.11906 0.18132 0.56873 0.96395-0.82206
  -3  -9  -1 -15.647 56.9887   4-0.09135-0.15506-0.26539-0.48624-0.96054 0.81803
  -3  -9  -1 -87.204 113.064   9-0.02395-0.22163-0.52692-0.22359 0.83143-0.97351
   3  -9   1 20.1729 64.4418   9 0.10036 0.14559-0.26203-0.48797 0.96224-0.82033
  -3   9  -1 20.5602 57.5554   6-0.26112 0.01516 0.21187 0.53949-0.97342 0.83078
  -3  -9  -1 37.8867 77.0196   3-0.39878 0.15246-0.17219-0.57967-0.95778 0.81490
   3  -9   1 72.0871 98.5762   4 0.02490 0.22078-0.52657-0.22425-0.83135 0.97346
   4   9   1 429.173 156.090   2 0.35995-0.03815 0.17483 0.57520 0.96624-0.81070
  -4   9  -1 447.701 138.524   6-0.26175-0.06021 0.21398 0.53737-0.97289 0.81657
  -4  -9  -1 475.281 176.908   9-0.03437-0.28712-0.54699-0.20353 0.81663-0.97239
  -4  -9  -1 303.485 118.213   3-0.38960 0.06717-0.16385-0.58811-0.96159 0.80497
   4  -9   1 479.341 183.637   4 0.03478 0.28690-0.54671-0.20405-0.81662 0.97236
   5   9   1 -97.899 74.3143   2 0.35995 0.03775 0.17481 0.57520 0.96625-0.79704
  -5   9  -1 -173.44 129.318   6-0.26442-0.13352 0.22285 0.52848-0.97061 0.80061
  -5  -9  -1 1.78468 78.2989   9-0.04704-0.35037-0.57096-0.17957 0.79782-0.96727
   5  -9   1 116.700 107.585   4 0.04685 0.35084-0.57088-0.17982-0.79782 0.96718
  -5  -9  -1 -103.43 94.9444   3-0.38744-0.01109-0.16189-0.59013-0.96247 0.79210
   6   9   1 73.4968 94.9127   2 0.36412 0.10948 0.18020 0.56980 0.96435-0.78148
  -6   9  -1 64.7195 131.411   6-0.26893-0.20500 0.23798 0.51331-0.96649 0.78281
  -6  -9  -1 233.197 225.620   9-0.06178-0.41154-0.59822-0.15232 0.77482-0.95795
   6   9   1 -16.267 140.169   5 0.42384 0.04934 0.14530 0.60434 0.95568-0.77337
  -6  -9  -1 -37.297 165.024   3-0.39083-0.08378-0.16497-0.58708-0.96110 0.77699
   7   9   1 759.613 579.161   5 0.43085 0.11815 0.14954 0.60006 0.95295-0.75703
  -5 -10   1 975.756 232.739   3-0.57467 0.21335-0.34059-0.49379-0.83537 0.86770
  -4  10   1 -83.333 78.8311   6-0.32773 0.04242 0.45778 0.37606-0.87202 0.91810
   4  10  -1 58.0884 56.8726   2 0.51424-0.22872 0.38715 0.44665 0.84529-0.89208
  -4 -10   1 -2.1554 70.4202   9 0.04863-0.33371-0.37802-0.45541 0.91821-0.87189
  -4 -10   1 36.4354 57.8224   3-0.58972 0.30451-0.35597-0.47827-0.81916 0.86516
   3 -10  -1 130.221 100.190   4-0.05508 0.26464-0.35176-0.48331-0.92908 0.86857
   3  10  -1 130.489 101.820   2 0.52684-0.31721 0.40606 0.42778 0.82926-0.88974
  -3  10   1 162.261 57.8659   6-0.32924 0.11992 0.46421 0.36961-0.86817 0.92791
  -3 -10   1 208.320 125.227   9 0.06017-0.26937-0.35287-0.48053 0.92935-0.86937
   2 -10  -1 178.992 130.263   4-0.06365 0.19719-0.33174-0.50337-0.93727 0.86309
   2  10  -1 -13.081 61.9656   2 0.54399-0.41026 0.43239 0.40151 0.80520-0.87937
   2  10  -1 58.1553 81.7935   6-0.30815 0.44225 0.37883 0.45556-0.91393 0.83949
  -2  10   1 95.6157 107.792   6-0.33221 0.19888 0.47706 0.35672-0.86025 0.93364
  -2 -10   1 90.2755 104.461   9 0.06941-0.20273-0.33245-0.50093 0.93773-0.86410
   2 -10  -1 122.731 96.3206   9-0.03020 0.16398-0.53900-0.29489 0.82262-0.89644
  -2 -10   1 20.8147 35.5656   4 0.03107-0.16534-0.53917-0.29523-0.82223 0.89589
   1 -10  -1 593.383 159.179   4-0.06983 0.12735-0.31717-0.51797-0.94288 0.85503
  -1 -10   1 773.362 194.943   9 0.07616-0.13361-0.31733-0.51601 0.94355-0.85627
   1  10  -1 1303.83 264.072   6-0.29758 0.35570 0.33901 0.49550-0.93152 0.84345
  -1  10   1 590.731 163.914   6-0.33664 0.27929 0.49665 0.33707-0.84762 0.93464
   1 -10  -1 694.857 186.236   9-0.02449 0.08242-0.52797-0.30589 0.83068-0.91813
  -1 -10   1 554.708 150.458   4 0.02563-0.08396-0.52808-0.30633-0.83028 0.91764
   0 -10  -1 3.23975 54.6926   4-0.07341 0.05491-0.30867-0.52648-0.94602 0.84449
   0  10  -1 125.798 115.242   6-0.28926 0.27137 0.30871 0.52590-0.94342 0.84170
   0  10   1 -0.5475 76.3439   6-0.34244 0.36106 0.52326 0.31039-0.82932 0.92996
   0 -10   1 88.5315 78.6067   9 0.08021-0.06180-0.30820-0.52513 0.94692-0.84598
   0 -10  -1 33.0119 44.8466   9-0.02257 0.00464-0.52424-0.30962 0.83335-0.93445
   0 -10   1 249.310 130.504   4 0.02376-0.00611-0.52424-0.31018-0.83301 0.93406
  -1 -10  -1 1118.22 235.788   4-0.07411-0.02039-0.30699-0.52813-0.94663 0.83142
  -1  10  -1 1184.69 242.045   6-0.28318 0.18929 0.28712 0.54756-0.95115 0.83577
   1 -10   1 1138.40 227.061   9 0.08126 0.01300-0.30583-0.52750 0.94778-0.83319
   1  10   1 926.931 226.539   6-0.34943 0.44401 0.55710 0.27647-0.80404 0.91826
  -1 -10  -1 938.168 211.658   9-0.02395-0.06985-0.52691-0.30693 0.83144-0.94620
   1 -10   1 1144.19 244.757   4 0.02501 0.06863-0.52680-0.30759-0.83120 0.94592
  -2 -10  -1 78.8741 90.9589   4-0.07158-0.09891-0.31302-0.52208-0.94443 0.81553
  -2  10  -1 50.3157 66.3564   6-0.27930 0.10940 0.27353 0.56120-0.95570 0.82665
   2 -10   1 61.5099 71.6453   9 0.07892 0.09119-0.31113-0.52221 0.94585-0.81762
   2  10   1 92.2419 117.186   6-0.35727 0.52779 0.59820 0.23527-0.77000 0.89777
  -2 -10  -1 196.444 138.578   9-0.02824-0.14143-0.53522-0.29863 0.82541-0.95384
   2  10   1 65.6609 50.7734   2 0.41757-0.24752 0.25075 0.58271 0.93422-0.80606
   2 -10   1 105.871 97.8921   4 0.02904 0.14060-0.53503-0.29933-0.82526 0.95366
  -3  10  -1 43.4705 90.4001   6-0.27750 0.03159 0.26730 0.56746-0.95771 0.81498
  -3 -10  -1 35.9462 92.0923   9-0.03515-0.21041-0.54848-0.28538 0.81549-0.95760
   3 -10   1 189.152 110.112   4 0.03556 0.21008-0.54829-0.28604-0.81543 0.95749
   3  10   1 -84.986 75.0012   2 0.40513-0.15920 0.23408 0.59935 0.94224-0.80041
   4  10   1 23.1786 82.0502   2 0.39832-0.07649 0.22500 0.60839 0.94636-0.79087
  -4 -10  -1 -8.8319 64.8464   3-0.44080 0.11850-0.21090-0.62447-0.93754 0.78080
  -5 -10  -1 -91.227 124.078   3-0.43528 0.03685-0.20576-0.62969-0.94047 0.76999
   1  11  -1 70.8770 112.897   6-0.31141 0.36956 0.39151 0.52639-0.90785 0.81965
   1 -11  -1 62.2906 127.832   9-0.04037 0.09830-0.55839-0.35880 0.80784-0.89534
  -1 -11   1 45.8303 75.1311   4 0.04061-0.09898-0.55843-0.35946-0.80767 0.89495
   0 -11   1 -0.4306 112.141   9 0.05592-0.03751-0.36217-0.55453 0.92533-0.82444
   0 -11  -1 -82.178 107.030   9-0.03794 0.02001-0.55379-0.36340 0.81142-0.91257
   1  11   1 69.7243 92.8793   6-0.35464 0.44927 0.58400 0.33299-0.78220 0.89630
  -1 -11  -1 131.847 112.483   4-0.05013-0.04444-0.36318-0.55539-0.92416 0.80888
   1 -11   1 48.3403 85.4993   9 0.05591 0.03837-0.36221-0.55449 0.92532-0.81077
 -12   0   2 286.438 115.952   7-0.63401-0.24019 0.10104-0.10142-0.86833 0.90641
  12   0  -2 133.118 93.5599   5 0.62608 0.24873 0.27216-0.27207 0.83143-0.86960
  12   0  -2 199.886 138.584   8 0.63117 0.24397-0.19979 0.19958 0.85089-0.88961
 -11   0   2 35.6113 79.2009   7-0.61811-0.18015 0.09783-0.09820-0.87853 0.93031
  11   0  -2 3.96849 58.7981   5 0.61025 0.18865 0.26182-0.26172 0.84528-0.89709
  11   0  -2 -47.538 74.1408   8 0.61528 0.18392-0.19290 0.19270 0.86266-0.91502
 -10   0   2 1928.24 244.551   3-0.58872-0.13380-0.35493 0.35511-0.82029 0.88597
  10   0  -2 1620.18 228.034   5 0.59789 0.12511 0.25382-0.25369 0.85549-0.92095
  10   0  -2 1519.41 236.377   8 0.60298 0.12028-0.18758 0.18740 0.87131-0.93733
 -10   0   2 1947.74 269.239   7-0.60590-0.11642 0.09537-0.09574-0.88600 0.95147
  -9   0   2 -6.9309 55.6484   7-0.59848-0.04791 0.09387-0.09424-0.89038 0.96953
  -9   0   2 58.4963 53.4780   3-0.58068-0.06592-0.34670 0.34691-0.82905 0.90840
   9   0  -2 66.0219 55.0077   5 0.59004 0.05706 0.24875-0.24861 0.86172-0.94083
   9   0  -2 68.9553 31.1500   8 0.59536 0.05196-0.18430 0.18411 0.87648-0.95616
  -8   0   2 50.3534 70.5827   7-0.59745 0.02699 0.09367-0.09402-0.89098 0.98381
   8   0  -2 39.1177 62.1327   2 0.56058 0.01057 0.45856-0.45854 0.77910-0.87215
  -8   0   2 136.593 68.6190   3-0.57809 0.00742-0.34407 0.34431-0.83179 0.92479
   8   0  -2 -27.073 50.0227   5 0.58814-0.01693 0.24753-0.24736 0.86320-0.95597
   8   0  -2 134.090 77.0619   8 0.59392-0.02253-0.18369 0.18350 0.87744-0.97078
  -7   0   2 -13.618 34.2658   7-0.60502 0.11048 0.09519-0.09554-0.88652 0.99301
   7   0  -2 -23.407 30.9416   2 0.56296-0.06777 0.46240-0.46235 0.77508-0.88181
  -7   0   2 30.3566 34.6247   3-0.58270 0.08795-0.34877 0.34904-0.82687 0.93353
   7   0  -2 -26.786 19.7809   5 0.59418-0.09889 0.25142-0.25124 0.85845-0.96490
   7   0  -2 49.1233 49.8733   8 0.60079-0.10536-0.18664 0.18646 0.87281-0.97983
  -6   0   2 1785.75 82.5756   1 0.20610-0.62472-0.09631 0.09642 0.99499-0.87470
   6   0  -2 1706.14 182.567   8 0.61899-0.19950-0.19450 0.19432 0.85998-0.98068
  -6   0   2 1562.45 107.025   9 0.20731-0.62653 0.00751-0.00719 0.99958-0.87942
   6   0  -2 1842.03 187.387   5 0.61091-0.19152 0.26225-0.26204 0.84472-0.96485
  -6   0   2 1783.02 187.477   7-0.62443 0.20580 0.09910-0.09945-0.87454 0.99468
   6   0  -2 1818.61 113.923   4-0.20727 0.62716 0.04499-0.04504-0.99860 0.87779
  -5   0   2 -3.3905 29.2495   7-0.66021 0.31749 0.10636-0.10670-0.85024 0.98402
   5   0  -2 2.64583 15.6970   4-0.29274 0.63673 0.32244-0.32260-0.93823 0.80362
  -5   0   2 3.06365 10.3202   9 0.29878-0.64203 0.28302-0.28278 0.95024-0.81649
  -5   0   2 20.9999 26.3527   3-0.62269 0.27976-0.39046 0.39078-0.77901 0.91292
   5   0  -2 19.8092 40.9394   5 0.64190-0.29843 0.28257-0.28235 0.81667-0.95050
   5   0  -2 -13.775 25.5947   8 0.65257-0.30905-0.20914 0.20897 0.83392-0.96831
   4   0  -2 15413.4 569.764   8 0.70646-0.43891-0.23304 0.23288 0.78461-0.93270
  -4   0   2 15910.2 498.960   7-0.71815 0.45130 0.11827-0.11860-0.80388 0.95127
 -12  -1   2 336.552 154.189   7-0.64559-0.22856 0.10339-0.18722-0.86054 0.89861
  12   1  -2 179.956 88.3873   5 0.60924 0.26548 0.26116-0.17765 0.84613-0.88432
  12  -1  -2 238.666 136.867   8 0.61920 0.25592-0.19459 0.11099 0.85983-0.89855
  12   1  -2 225.704 114.298   8 0.65061 0.22457-0.20828 0.29147 0.83553-0.87424
 -11   1   2 90.3919 70.0892   7-0.61330-0.18500 0.09686-0.01377-0.88151 0.93329
 -11  -1   2 79.5441 71.8715   7-0.63043-0.16779 0.10032-0.18414-0.87068 0.92246
 -11  -1   2 -26.569 77.7657   3-0.57724-0.22134-0.34320 0.26005-0.83268 0.88467
  11  -1  -2 -67.577 45.8464   5 0.63661 0.16238 0.27909-0.36244 0.82170-0.87350
  11   1  -2 53.0206 78.2225   5 0.59283 0.20599 0.25054-0.16702 0.85953-0.91135
  11  -1  -2 9.69138 44.5476   8 0.60287 0.19631-0.18754 0.10394 0.87138-0.92375
  11   1  -2 -8.5571 38.0118   8 0.63585 0.16339-0.20182 0.28503 0.84730-0.89966
 -10   1   2 543.579 156.241   7-0.60087-0.12148 0.09435-0.01126-0.88898 0.95445
 -10  -1   2 366.803 120.325   7-0.61913-0.10316 0.09803-0.18184-0.87789 0.94337
 -10  -1   2 367.758 111.655   3-0.56399-0.15866-0.32980 0.24667-0.84616 0.91183
  10  -1  -2 358.515 102.795   5 0.62601 0.09709 0.27211-0.35544 0.83150-0.89695
  10   1  -2 550.920 128.976   5 0.57965 0.14328 0.24207-0.15852 0.86967-0.93514
  10  -1  -2 500.579 140.795   8 0.58995 0.13329-0.18198 0.09839 0.88006-0.94608
  10   1  -2 307.128 96.9548   8 0.62498 0.09832-0.19710 0.28031 0.85556-0.92158
  -9   1   2 46.9149 57.1141   7-0.59313-0.05328 0.09280-0.00970-0.89347 0.97263
  -9  -1   2 0.92404 39.5736   7-0.61288-0.03349 0.09677-0.18057-0.88177 0.96092
   9   1  -2 83.0323 60.9925   2 0.53284 0.11423 0.41521-0.33176 0.82114-0.90054
  -9   1   2 103.331 78.5862   3-0.61939-0.02708-0.38697 0.47042-0.78334 0.86270
  -9  -1   2 95.0094 62.2074   3-0.55448-0.09224-0.32025 0.23716-0.85531 0.93466
   9  -1  -2 66.6690 42.4238   5 0.62045 0.02672 0.26847-0.35180 0.83646-0.91557
   9   1  -2 69.1025 51.5451   5 0.57060 0.07644 0.23629-0.15272 0.87633-0.95544
   9  -1  -2 43.4711 48.8706   8 0.58142 0.06589-0.17833 0.09474 0.88556-0.96524
   9   1  -2 41.4090 40.9349   8 0.61922 0.02813-0.19460 0.27782 0.85981-0.93949
  -8   1   2 287.884 110.578   7-0.59156 0.02109 0.09248-0.00939-0.89437 0.98720
  -8  -1   2 221.787 70.9606   7-0.61336 0.04290 0.09687-0.18066-0.88147 0.97430
   8  -1  -2 312.336 102.479   5 0.62162-0.05035 0.26924-0.35254 0.83542-0.92820
   8   1  -2 329.280 97.6733   2 0.52710 0.04402 0.40646-0.32299 0.82891-0.92198
  -8   1   2 297.547 95.2289   3-0.62045 0.04987-0.38809 0.47156-0.78196 0.87497
  -8  -1   2 197.935 66.0216   3-0.54979-0.02098-0.31558 0.23252-0.85967 0.95268
   8   1  -2 201.636 65.1662   5 0.56697 0.00418 0.23398-0.15038 0.87892-0.97170
   8  -1  -2 183.468 77.8642   8 0.57866-0.00729-0.17715 0.09355 0.88730-0.98064
   8   1  -2 85.2021 57.8465   8 0.62025-0.04885-0.19505 0.27828 0.85906-0.95241
   7   1  -2 1822.99 185.277   2 0.52661-0.03143 0.40571-0.32222 0.82956-0.93631
  -7  -1   2 1616.86 135.659   9 0.12884-0.62396-0.19446 0.11143 0.97974-0.87319
  -7  -1   2 1802.19 195.215   3-0.55140 0.05658-0.31719 0.23417-0.85818 0.96485
   7  -1  -2 1805.16 194.880   5 0.63179-0.13644 0.27591-0.35920 0.82621-0.93267
   7   1  -2 1781.65 191.772   5 0.57049-0.07523 0.23622-0.15260 0.87640-0.98285
   7  -1  -2 1255.60 168.698   8 0.58360-0.08817-0.17926 0.09567 0.88417-0.99118
   7   1  -2 1522.02 187.845   8 0.63045-0.13500-0.19948 0.28272 0.85145-0.95848
   7  -1  -2 1880.58 147.607   4-0.12746 0.62320-0.17471 0.09131-0.98331 0.87619
  -7   1   2 1766.66 209.264   7-0.59829 0.10377 0.09384-0.01075-0.89049 0.99698
  -7  -1   2 1664.40 193.354   7-0.62293 0.12839 0.09880-0.18257-0.87550 0.98198
  -6   1   2 -16.796 25.2453   7-0.61640 0.19779 0.09748-0.01439-0.87960 0.99973
  -6  -1   2 53.6573 38.2039   7-0.64500 0.22636 0.10327-0.18702-0.86094 0.98108
   6  -1  -2 114.606 35.4403   4-0.19726 0.61715 0.01574-0.09932-0.99972 0.87892
   6   1  -2 36.4937 14.4268   4-0.20839 0.62825 0.04829 0.03520-0.99841 0.87761
   6   1  -2 106.044 50.9190   2 0.53276-0.11354 0.41509-0.33156 0.82125-0.94168
  -6   1   2 40.8834 12.2211   9 0.19472-0.61400-0.02664 0.11037 0.99954-0.87934
  -6  -1   2 38.2184 21.8213   9 0.20138-0.62053-0.00865-0.07440 0.99973-0.87958
  -6  -1   2 49.1413 29.0290   3-0.56122 0.14233-0.32700 0.24402-0.84888 0.96919
   6  -1  -2 -16.366 31.3888   5 0.65401-0.23461 0.29062-0.37390 0.80469-0.92483
   6   1  -2 33.8952 20.8308   5 0.58354-0.16418 0.24457-0.16092 0.86673-0.98685
   6  -1  -2 100.140 51.4346   8 0.59893-0.17945-0.18584 0.10226 0.87407-0.99477
   6   1  -2 -4.4285 34.1715   8 0.65310-0.23362-0.20937 0.29262 0.83349-0.95420
  -6   1   2 37.7616 13.1147   1 0.19549-0.61415-0.02694 0.11049 0.99952-0.87923
  -5   1   2 179.974 55.1544   7-0.65017 0.30748 0.10432-0.02124-0.85737 0.99113
  -5  -1   2 261.408 65.1512   7-0.68425 0.34149 0.11128-0.19501-0.83214 0.96592
   5   1  -2 216.197 66.5044   2 0.54713-0.20386 0.43728-0.35375 0.80049-0.93459
   5  -1  -2 194.484 45.2240   4-0.25850 0.60246 0.20419-0.28792-0.97532 0.84077
  -5  -1   2 268.254 57.0399   9 0.26620-0.60940 0.17829-0.26137 0.97971-0.84596
   5   1  -2 225.734 66.6854   5 0.60932-0.26587 0.26122-0.17754 0.84606-0.97988
   5  -1  -2 247.664 67.9134   8 0.62838-0.28484-0.19858 0.11499 0.85301-0.98740
  -5   1   2 218.803 41.5384   1 0.23029-0.57303-0.28754 0.37096 0.95598-0.82207
   5   1  -2 317.221 85.5578   8 0.69252-0.34900-0.22680 0.31007 0.79836-0.93277
  -4  -1   2 702.996 103.851   9 0.32028-0.58755 0.35788-0.44099 0.92040-0.77305
  -4  -1   2 656.490 108.344   3-0.61509 0.34807-0.38241 0.29950-0.78889 0.93644
   4   1  -2 846.048 122.912   5 0.65170-0.38416 0.28908-0.20537 0.80703-0.95455
   4  -1  -2 745.594 119.120   8 0.67667-0.40911-0.21976 0.13617 0.81311-0.96120
  -4   1   2 749.998 110.883   7-0.70521 0.43840 0.11559-0.03251-0.81506 0.96244
  -4  -1   2 589.038 100.250   7-0.74631 0.47940 0.12413-0.20785-0.77762 0.92504
 -12  -2   2 -36.064 85.1500   7-0.66430-0.20981 0.10719-0.27444-0.84727 0.88535
 -12  -2   2 189.528 120.902   3-0.57840-0.29627-0.34438 0.17783-0.83147 0.86973
  12   2  -2 319.741 151.631   5 0.59967 0.27496 0.25496-0.08806 0.85405-0.89227
 -11   2   2 -41.807 71.8690   7-0.61565-0.18267 0.09733 0.06925-0.88006 0.93182
 -11  -2   2 25.5979 56.0752   7-0.65051-0.14767 0.10439-0.27162-0.85713 0.90891
 -11  -2   2 30.3438 74.5581   3-0.56221-0.23652-0.32800 0.16148-0.84791 0.89987
  11   2  -2 81.3365 67.1194   5 0.58331 0.21543 0.24443-0.07750 0.86690-0.91875
  11  -2  -2 73.1644 74.4556   8 0.59791 0.20124-0.18540 0.01843 0.87476-0.92714
  11   2  -2 -146.41 92.3460   8 0.66520 0.13407-0.21469 0.38132 0.82325-0.87562
 -10   2   2 221.400 105.199   7-0.60366-0.11870 0.09491 0.07166-0.88733 0.95279
 -10  -2   2 409.929 124.746   7-0.64088-0.08138 0.10243-0.26965-0.86374 0.92921
  10   2  -2 424.390 113.397   2 0.52299 0.19999 0.40026-0.23340 0.83429-0.90003
 -10  -2   2 307.299 114.056   3-0.54873-0.17405-0.31453 0.14804-0.86064 0.92630
  10   2  -2 394.807 116.867   5 0.57003 0.15283 0.23593-0.06898 0.87674-0.94222
  10  -2  -2 179.759 96.1241   8 0.58505 0.13819-0.17988 0.01290 0.88324-0.94927
  10   2  -2 225.500 93.3159   8 0.65669 0.06663-0.21095 0.37758 0.83049-0.89652
  -9   2   2 212.809 84.5784   7-0.59633-0.05008 0.09344 0.07313-0.89163 0.97077
  -9  -2   2 228.164 101.018   7-0.63669-0.00966 0.10158-0.26879-0.86656 0.94570
   9   2  -2 214.740 83.6192   2 0.51262 0.13442 0.38474-0.21786 0.84726-0.92667
   9  -2  -2 239.245 86.8720   5 0.66323-0.01599 0.29679-0.46360 0.79515-0.87426
  -9  -2   2 158.336 81.0567   3-0.53871-0.10812-0.30460 0.13814-0.86959 0.94894
   9   2  -2 128.307 63.1123   5 0.56066 0.08631 0.22996-0.06299 0.88336-0.96249
   9  -2  -2 118.065 69.0964   8 0.57642 0.07087-0.17619 0.00921 0.88870-0.96839
   9   2  -2 164.496 86.6416   8 0.65389-0.00652-0.20972 0.37637 0.83283-0.91252
  -8   2   2 245.238 99.2471   7-0.59512 0.02466 0.09320 0.07336-0.89233 0.98514
  -8  -2   2 286.701 88.8846   7-0.63972 0.06927 0.10220-0.26938-0.86453 0.95734
   8   2  -2 357.782 90.7213   2 0.50592 0.06516 0.37484-0.20793 0.85519-0.94828
   8  -2  -2 275.107 89.0290   5 0.66899-0.09768 0.30066-0.46747 0.78900-0.88178
  -8  -2   2 204.108 72.6325   3-0.53309-0.03778-0.29906 0.13264-0.87442 0.96745
   8   2  -2 400.405 103.683   5 0.55634 0.01475 0.22723-0.06023 0.88633-0.97911
   8  -2  -2 213.293 80.4670   8 0.57330-0.00194-0.17486 0.00788 0.89063-0.98398
   8   2  -2 318.043 107.796   8 0.65869-0.08727-0.21183 0.37849 0.82882-0.92218
  -7   2   2 931.816 157.876   7-0.60208 0.10756 0.09460 0.07195-0.88827 0.99475
  -7  -2   2 827.650 137.954   7-0.65250 0.15795 0.10478-0.27196-0.85574 0.96222
  -7  -2   2 690.981 103.598   9 0.13579-0.63085-0.17751 0.01109 0.98325-0.87672
   7   2  -2 904.391 136.644   2 0.50388-0.00873 0.37183-0.20491 0.85755-0.96430
   7  -2  -2 194.754 70.1714   5 0.68497-0.18960 0.31148-0.47828 0.77110-0.87756
  -7   2   2 929.313 103.749   1 0.14838-0.64302 0.22782-0.06067 0.97329-0.86671
  -7  -2   2 877.733 144.718   3-0.53310 0.03820-0.29908 0.13270-0.87441 0.98110
   7   2  -2 820.251 134.819   5 0.55861-0.06340 0.22867-0.06163 0.88477-0.99122
   7  -2  -2 738.471 135.529   8 0.57746-0.08203-0.17664 0.00965 0.88805-0.99507
   7   2  -2 1003.57 164.021   8 0.67369-0.17824-0.21844 0.38512 0.81579-0.92283
   7  -2  -2 890.696 118.804   4-0.13223 0.62802-0.16234-0.00458-0.98565 0.87853
  -6   2   2 509.807 109.661   7-0.62010 0.20153 0.09823 0.06832-0.87728 0.99741
  -6  -2   2 618.876 110.995   7-0.67856 0.25991 0.11011-0.27725-0.83656 0.95669
  -6  -2   2 590.335 92.1107   9 0.19056-0.60965-0.03774-0.12867 0.99923-0.87910
   6   2  -2 670.828 110.163   2 0.50767-0.08846 0.37741-0.21047 0.85316-0.97359
  -6  -2   2 536.375 109.735   3-0.54037 0.12144-0.30625 0.13992-0.86813 0.98848
   6   2  -2 586.396 103.144   5 0.56955-0.15022 0.23563-0.06856 0.87707-0.99719
   6  -2  -2 592.512 110.569   8 0.59133-0.17184-0.18257 0.01558 0.87915-0.99985
   6   2  -2 782.068 147.429   8 0.70236-0.28289-0.23121 0.39791 0.78873-0.90944
   6  -2  -2 606.128 93.6414   4-0.18467 0.60456-0.02027-0.14684-0.99978 0.87898
  -6   2   2 567.028 78.7694   1 0.18685-0.60555 0.02548 0.14152 0.99965-0.87937
  -5   2   2 41.1029 35.9217   7-0.65325 0.31060 0.10494 0.06159-0.85521 0.98895
  -5  -2   2 17.2064 20.8741   7-0.72258 0.37979 0.11918-0.28630-0.79992 0.93370
  -5   2   2 -3.3131 20.2695   1 0.21436-0.55715-0.15518 0.32205 0.98720-0.85328
   5  -2  -2 -19.949 21.9803   4-0.23193 0.57586 0.11944-0.28670-0.99137 0.85685
  -5  -2   2 26.1418 21.5136   9 0.24048-0.58363 0.10123-0.26765 0.99287-0.85913
   5   2  -2 17.7094 24.8698   2 0.51866-0.17540 0.39375-0.22679 0.83981-0.97392
  -5  -2   2 33.4411 28.7491   3-0.55693 0.21396-0.32271 0.15644-0.85299 0.98698
   5   2  -2 -9.5911 22.5679   5 0.59194-0.24850 0.24997-0.08287 0.86023-0.99404
   5  -2  -2 15.0309 16.2164   8 0.61825-0.27471-0.19419 0.02718 0.86051-0.99490
  -4   2   2 141.724 49.7915   7-0.70672 0.43995 0.11590 0.05061-0.81378 0.96114
   4  -2  -2 123.605 40.7482   4-0.27314 0.54106 0.25332-0.42069-0.96206 0.81379
   4   2  -2 197.781 66.9025   2 0.53822-0.27090 0.42347-0.25648 0.81359-0.96138
  -4  -2   2 163.729 51.5968   9 0.28449-0.55172 0.23598-0.40240 0.96518-0.81783
   4  -2  -2 159.230 57.8911   8 0.66251-0.39493-0.21351 0.04650 0.82556-0.97365
   3  -2  -2 5.77854 19.7956   8 0.72831-0.53671-0.24292 0.07589 0.76146-0.92325
 -12  -3   2 214.489 107.753   7-0.69028-0.18377 0.11251-0.36317-0.82736 0.86544
 -12  -3   2 242.874 118.218   3-0.57016-0.30466-0.33601 0.08607-0.84000 0.87822
 -11   3   2 112.106 102.600   7-0.62478-0.17354 0.09917 0.15092-0.87432 0.92604
 -11  -3   2 133.746 62.7636   7-0.67854-0.11960 0.11010-0.36074-0.83658 0.88835
  11   3  -2 -87.472 88.8291   2 0.52441 0.27448 0.40239-0.15213 0.83245-0.88455
 -11  -3   2 143.646 93.2125   3-0.55441-0.24444-0.32019 0.07027-0.85537 0.90730
  11   3  -2 212.484 91.8902   5 0.58070 0.21797 0.24276 0.00755 0.86887-0.92074
  11  -3  -2 67.2839 39.4347   8 0.59973 0.19942-0.18618-0.06417 0.87353-0.92593
 -10   3   2 535.726 146.199   7-0.61380-0.10856 0.09696 0.15312-0.88120 0.94662
 -10  -3   2 271.477 103.198   7-0.67135-0.05088 0.10863-0.35924-0.84204 0.90750
  10   3  -2 418.073 123.287   2 0.51145 0.21149 0.38301-0.13274 0.84867-0.91442
 -10  -3   2 218.233 83.2331   3-0.54129-0.18161-0.30714 0.05726-0.86733 0.93297
  10   3  -2 339.528 92.5883   5 0.56788 0.15491 0.23456 0.01577 0.87827-0.94378
  10  -3  -2 410.422 154.411   8 0.58747 0.13575-0.18092-0.06944 0.88167-0.94772
  -9   3   2 166.346 90.7042   7-0.60756-0.03885 0.09570 0.15437-0.88500 0.96411
  -9  -3   2 203.577 86.7325   7-0.67009 0.02377 0.10837-0.35896-0.84298 0.92212
   9   3  -2 215.187 85.6251   2 0.50121 0.14578 0.36792-0.11763 0.86057-0.94000
  -9  -3   2 194.979 84.5825   3-0.53143-0.11550-0.29743 0.04758-0.87582 0.95516
   9   3  -2 66.3909 42.5301   5 0.55884 0.08808 0.22881 0.02154 0.88462-0.96376
   9  -3  -2 121.216 92.6415   8 0.57939 0.06790-0.17746-0.07290 0.88684-0.96654
   9   3  -2 353.205 146.340   8 0.70000-0.05261-0.23015 0.48024 0.79107-0.87077
  -8   3   2 464.925 135.984   7-0.60747 0.03702 0.09568 0.15437-0.88505 0.97784
  -8  -3   2 472.467 119.809   7-0.67670 0.10626 0.10973-0.36029-0.83799 0.93080
   8  -3  -2 590.929 110.315   4-0.08303 0.65473-0.28560 0.03534-0.95407 0.86056
  -8  -3   2 431.767 100.861   9 0.08590-0.65686-0.29530 0.04549 0.95149-0.85860
  -8   3   2 13.6403 26.7774   6-0.35828-0.21231 0.60384-0.35425-0.76502 0.85765
   8   3  -2 482.268 112.151   2 0.49436 0.07669 0.35794-0.10763 0.86813-0.96122
   8   3  -2 547.799 123.717   5 0.55463 0.01642 0.22614 0.02425 0.88750-0.98029
  -8  -3   2 575.065 133.335   3-0.52568-0.04528-0.29179 0.04198-0.88060 0.97363
   8  -3  -2 511.529 130.998   8 0.57668-0.00532-0.17630-0.07406 0.88854-0.98190
   8   3  -2 469.106 139.313   8 0.70983-0.13841-0.23456 0.48467 0.78117-0.87454
  -7   3   2 682.208 137.064   7-0.61554 0.12105 0.09731 0.15272-0.88013 0.98658
  -7  -3   2 514.555 113.002   7-0.69382 0.19926 0.11324-0.36378-0.82450 0.93098
  -7  -3   2 626.274 112.190   9 0.13334-0.62833-0.18348-0.06631 0.98205-0.87555
   7  -3  -2 705.100 113.319   4-0.12867 0.62448-0.17159-0.07887-0.98392 0.87679
  -7   3   2 748.597 131.089   6-0.35360-0.14113 0.57849-0.32891-0.78680 0.89312
   7   3  -2 486.871 100.786   2 0.49172 0.00340 0.35410-0.10377 0.87096-0.97772
   7   3  -2 656.491 122.885   5 0.55661-0.06142 0.22739 0.02303 0.88615-0.99260
  -7  -3   2 656.066 137.063   3-0.52509 0.03012-0.29121 0.04145-0.88108 0.98779
   7  -3  -2 372.042 99.9900   8 0.58097-0.08554-0.17814-0.07224 0.88584-0.99287
   7   3  -2 -212.21 93.7824   8 0.73091-0.23545-0.24409 0.49424 0.75857-0.86562
  -6   3   2 528.467 111.956   7-0.63452 0.21597 0.10114 0.14887-0.86799 0.98808
  -6  -3   2 598.232 115.018   7-0.72500 0.30631 0.11968-0.37019-0.79773 0.91787
   6  -3  -2 498.810 92.8737   4-0.17078 0.59067-0.05906-0.19157-0.99821 0.87741
  -6  -3   2 629.658 107.754   9 0.17749-0.59652-0.07222-0.17756 0.99740-0.87728
  -6   3   2 575.488 110.539   6-0.35058-0.06827 0.56292-0.31336-0.79945 0.91944
   6   3  -2 546.178 111.866   2 0.49425-0.07507 0.35778-0.10743 0.86825-0.98868
   6   3  -2 516.932 98.8387   5 0.56660-0.14729 0.23375 0.01672 0.87919-0.99931
  -6  -3   2 631.321 122.750   3-0.53104 0.11206-0.29704 0.04734-0.87615 0.99653
   6  -3  -2 393.831 92.7029   8 0.59448-0.17498-0.18393-0.06646 0.87706-0.99777
  -5   3   2 171.453 63.5205   7-0.66818 0.32556 0.10798 0.14200-0.84441 0.97811
   5   3  -2 94.4572 23.5524   6-0.13662 0.48010-0.15130 0.40214-0.98759 0.85322
  -5   3   2 77.5809 37.9288   1 0.20107-0.54390-0.06257 0.31289 0.99781-0.86389
   5  -3  -2 90.4085 33.6691   4-0.20908 0.55298 0.05033-0.30111-0.99829 0.86380
  -5  -3   2 126.897 52.9155   9 0.21794-0.56104 0.03691-0.28667 0.99856-0.86482
  -5   3   2 141.043 49.0691   6-0.34964 0.00668 0.55817-0.30862-0.80320 0.93685
   5   3  -2 162.905 61.7677   2 0.50311-0.15986 0.37070-0.12033 0.85842-0.99253
  -5  -3   2 113.124 55.5702   3-0.54522 0.20223-0.31104 0.06140-0.86383 0.99784
   5   3  -2 88.9223 35.0004   5 0.58702-0.24358 0.24681 0.00371 0.86406-0.99788
   5  -3  -2 150.007 52.3477   8 0.62019-0.27662-0.19502-0.05538 0.85910-0.99350
  -4   3   2 400.651 86.5014   7-0.72119 0.45448 0.11889 0.13106-0.80117 0.94846
  -4   3   2 290.417 65.2015   1 0.21801-0.48498-0.18293 0.43315 0.98226-0.83470
   4   3  -2 481.551 79.9288   6-0.06301 0.33054-0.33341 0.58436-0.93661 0.78843
   4  -3  -2 386.610 79.9046   4-0.24321 0.51110 0.15477-0.40567-0.98571 0.83748
  -4  -3   2 432.155 91.0004   9 0.25428-0.52146 0.14204-0.39180 0.98677-0.83942
   4   3  -2 350.027 77.5783   2 0.51948-0.25216 0.39499-0.14459 0.83877-0.98657
  -4   3   2 409.208 97.1428   6-0.35107 0.08398 0.56538-0.31582-0.79749 0.94480
   4   3  -2 316.043 81.9815   5 0.62082-0.35326 0.26871-0.01814 0.83613-0.98366
   4  -3  -2 408.485 92.1181   8 0.66186-0.39426-0.21322-0.03720 0.82612-0.97421
   3  -3  -2 218.897 64.0492   4-0.27283 0.46468 0.25227-0.50326-0.96238 0.80041
  -3  -3   2 222.958 64.4250   9 0.28610-0.47737 0.24118-0.49092 0.96367-0.80271
  -3   3   2 206.656 73.8119   6-0.35492 0.16373 0.58547-0.33594-0.78096 0.94191
  -3   3   2 282.040 72.3684   1 0.23017-0.42130-0.28647 0.53662 0.95631-0.79512
  -3  -3   2 184.353 54.2559   3-0.60602 0.41497-0.37288 0.12340-0.80017 0.96138
   3  -3  -2 -2.4198 19.7784   8 0.72327-0.53164-0.24062-0.00980 0.76698-0.92878
 -11   4   2 239.972 145.984   7-0.64028-0.15804 0.10231 0.23130-0.86415 0.91581
  11   4  -2 53.1618 61.4955   2 0.51863 0.28020 0.39371-0.06005 0.83985-0.89196
 -11  -4   2 355.453 135.442   3-0.55267-0.24631-0.31845-0.01489-0.85701 0.90890
  11   4  -2 204.461 95.1848   5 0.58412 0.21448 0.24495 0.08871 0.86628-0.91819
  11  -4  -2 201.151 123.764   8 0.60764 0.19151-0.18959-0.14414 0.86808-0.92051
 -10   4   2 35.9573 51.9025   7-0.63082-0.09154 0.10039 0.23320-0.87042 0.93580
 -10  -4   2 -17.287 49.5444   7-0.71054-0.01166 0.11669-0.45066-0.81052 0.87598
  10   4  -2 -78.850 62.8619   2 0.50635 0.21653 0.37549-0.04181 0.85468-0.92046
 -10  -4   2 -19.800 83.2751   3-0.54027-0.18273-0.30614-0.02718-0.86822 0.93384
  10   4  -2 -40.489 52.5312   5 0.57217 0.15057 0.23730 0.09638 0.87518-0.94072
  10  -4  -2 -34.695 44.9761   8 0.59644 0.12678-0.18477-0.14896 0.87575-0.94183
   9   4  -2 1305.57 210.437   2 0.49667 0.15029 0.36130-0.02761 0.86561-0.94505
   9   4  -2 1085.97 185.658   5 0.56395 0.08293 0.23206 0.10166 0.88106-0.96024
  -9  -4   2 1365.32 221.408   3-0.53101-0.11599-0.29702-0.03626-0.87617 0.95549
   9  -4  -2 1216.96 216.589   8 0.58940 0.05788-0.18175-0.15198 0.88041-0.96013
  -9   4   2 1281.30 226.721   7-0.62621-0.02017 0.09946 0.23411-0.87340 0.95247
  -9  -4   2 1297.51 203.265   7-0.71307 0.06676 0.11722-0.45116-0.80833 0.88747
  -8   4   2 94.3789 56.6609   7-0.62789 0.05747 0.09980 0.23375-0.87232 0.96506
  -8  -4   2 79.0999 55.6648   7-0.72414 0.15370 0.11950-0.45342-0.79851 0.89133
   8  -4  -2 63.8881 53.1634   4-0.08260 0.65434-0.28663-0.04717-0.95372 0.86020
  -8  -4   2 42.5437 35.6853   9 0.08616-0.65705-0.29469-0.03849 0.95169-0.85884
  -8   4   2 78.0766 65.0899   6-0.35034-0.22033 0.56167-0.22876-0.80044 0.89308
   8   4  -2 -34.582 38.1053   2 0.49016 0.08087 0.35184-0.01814 0.87261-0.96572
   8   4  -2 97.9703 57.9363   5 0.56038 0.01064 0.22979 0.10396 0.88355-0.97637
  -8  -4   2 141.305 39.5884   3-0.52566-0.04536-0.29177-0.04147-0.88061 0.97364
   8  -4  -2 49.9301 43.0009   8 0.58768-0.01632-0.18101-0.15273 0.88153-0.97491
   7   4  -2 1424.39 193.089   2 0.48749 0.00761 0.34800-0.01428 0.87539-0.98216
  -7   4   2 1603.83 202.477   6-0.34564-0.14914 0.53848-0.20557-0.81825 0.92458
  -7  -4   2 1535.44 198.164   9 0.12606-0.62098-0.20117-0.13199 0.97826-0.87177
  -7  -4   2 1599.01 215.947   3-0.52511 0.03009-0.29123-0.04195-0.88106 0.98777
   7   4  -2 1582.45 199.071   5 0.56273-0.06756 0.23128 0.10251 0.88192-0.98839
  -7   4   2 1563.65 179.278   1 0.14635-0.64102 0.23740 0.09663 0.97095-0.86439
   7  -4  -2 1404.85 202.390   8 0.59279-0.09735-0.18320-0.15056 0.87819-0.98523
   7  -4  -2 1680.66 203.906   4-0.12083 0.61665-0.19172-0.14227-0.97980 0.87267
  -7   4   2 1367.31 199.558   7-0.63778 0.14331 0.10180 0.23173-0.86583 0.97222
  -7  -4   2 1357.27 185.500   7-0.74644 0.25186 0.12416-0.45803-0.77750 0.88399
  -6   4   2 32.5340 16.9568   1 0.17005-0.58881 0.11925 0.21464 0.99281-0.87256
  -6   4   2 53.9913 51.9583   7-0.65850 0.23999 0.10601 0.22748-0.85147 0.97150
   6  -4  -2 -77.940 46.7385   4-0.15605 0.57591-0.09928-0.23487-0.99477 0.87398
  -6  -4   2 57.7982 54.3248   9 0.16304-0.58202-0.10946-0.22368 0.99387-0.87376
  -6   4   2 -33.365 27.0803   6-0.34256-0.07632 0.52384-0.19094-0.82891 0.94892
   6   4  -2 7.41171 46.6920   2 0.48950-0.07033 0.35090-0.01716 0.87330-0.99374
   6   4  -2 17.3677 31.2256   5 0.57260-0.15329 0.23757 0.09627 0.87487-0.99502
  -6  -4   2 -9.4086 41.8074   3-0.53054 0.11154-0.29656-0.03657-0.87657 0.99695
   6  -4  -2 -33.500 40.5070   8 0.60674-0.18723-0.18920-0.14457 0.86871-0.98943
  -5   4   2 153.509 61.1004   7-0.69350 0.35093 0.11318 0.22028-0.82476 0.95840
   5   4  -2 138.768 37.7327   6-0.20076 0.54425 0.02528 0.30892-0.99946 0.86515
   5  -4  -2 164.363 58.6056   4-0.18812 0.53199-0.01046-0.32385-0.99991 0.86543
  -5  -4   2 183.833 69.7119   9 0.19694-0.53999-0.02066-0.31246 0.99964-0.86590
  -5   4   2 118.376 60.6808   6-0.34145-0.00153 0.51863-0.18573-0.83260 0.96629
   5   4  -2 139.949 60.1341   2 0.49711-0.15386 0.36194-0.02818 0.86513-0.99925
  -5   4   2 127.123 50.3896   1 0.18923-0.53211 0.01142 0.32235 0.99989-0.86598
  -5  -4   2 181.998 65.8011   3-0.54338 0.20037-0.30921-0.02383-0.86547 0.99950
   5   4  -2 126.498 43.2485   5 0.59206-0.24863 0.25005 0.08385 0.86013-0.99397
   5  -4  -2 100.966 49.3345   8 0.63218-0.28861-0.20023-0.13357 0.85012-0.98453
  -4   4   2 202.981 66.4999   7-0.74679 0.48012 0.12423 0.20917-0.77715 0.92437
   4   4  -2 173.956 45.5741   6-0.14188 0.40942-0.13752 0.47189-0.98980 0.84170
   4  -4  -2 129.562 47.0358   4-0.21688 0.48474 0.07357-0.40800-0.99657 0.84837
  -4  -4   2 164.173 60.5254   9 0.22756-0.49469 0.06402-0.39711 0.99674-0.84939
  -4   4   2 134.365 50.3293   6-0.34254 0.07546 0.52373-0.19084-0.82899 0.97633
   4   4  -2 104.944 52.5139   2 0.51131-0.24399 0.38280-0.04901 0.84883-0.99663
  -4   4   2 86.4203 39.6486   1 0.20442-0.47144-0.08487 0.41855 0.99608-0.84852
  -4  -4   2 168.526 57.9912   3-0.56523 0.29823-0.33104-0.00191-0.84494 0.99259
   4   4  -2 144.126 59.3561   5 0.62362-0.35606 0.27054 0.06342 0.83364-0.98119
   4  -4  -2 99.5688 50.7632   8 0.67237-0.40475-0.21786-0.11595 0.81696-0.96507
   3   4  -2 282.309 69.9786   6-0.10354 0.29509-0.23560 0.57006-0.96915 0.80729
   3  -4  -2 240.629 75.8663   4-0.24219 0.43400 0.15156-0.48607-0.98628 0.82436
   3   4  -2 273.549 75.0643   2 0.53294-0.34154 0.41535-0.08154 0.82101-0.98250
  -3  -4   2 363.800 87.1027   9 0.25470-0.44592 0.14330-0.47637 0.98655-0.82558
  -3   4   2 262.013 74.5656   6-0.34595 0.15478 0.53999-0.20712-0.81711 0.97810
  -3   4   2 228.738 65.1704   1 0.21616-0.40733-0.16872 0.50231 0.98489-0.82369
  -3  -4   2 178.948 62.2329   3-0.59768 0.40666-0.36419 0.03133-0.81009 0.97133
   3  -4  -2 -23.199 51.7890   8 0.73043-0.53878-0.24388-0.08997 0.75910-0.92092
  -2  -4   2 1.94103 18.7137   9 0.27821-0.39355 0.21589-0.54894 0.97071-0.79612
  -2   4   2 18.0364 16.5629   6-0.35159 0.23632 0.56805-0.23520-0.79534 0.96995
  11   5  -2 113.999 60.7502   2 0.51774 0.28106 0.39237 0.02467 0.84096-0.89310
 -10   5   2 24.8244 41.3550   7-0.65417-0.06816 0.10512 0.31198-0.85456 0.91986
  10   5  -2 -34.957 43.4081   2 0.50636 0.21651 0.37548 0.04158 0.85469-0.92049
 -10  -5   2 153.694 114.319   3-0.54451-0.17857-0.31034-0.10643-0.86446 0.93004
  10   5  -2 101.500 94.2708   5 0.58198 0.14072 0.24358 0.17346 0.86791-0.93349
  10  -5  -2 -10.838 49.9693   8 0.61120 0.11202-0.19113-0.22596 0.86558-0.93168
  -9   5   2 283.130 101.874   7-0.65166 0.00530 0.10461 0.31247-0.85633 0.93532
  -9  -5   2 282.435 101.946   9 0.04438-0.69116-0.38718-0.02941 0.91392-0.83472
   9   5  -2 370.589 116.027   2 0.49745 0.14948 0.36243 0.05464 0.86476-0.94422
  -9  -5   2 373.554 122.202   3-0.53615-0.11093-0.30207-0.11466-0.87181 0.95110
   9   5  -2 357.601 111.378   5 0.57488 0.07197 0.23903 0.17804 0.87320-0.95241
   9  -5  -2 295.705 121.917   8 0.60560 0.04170-0.18871-0.22839 0.86950-0.94926
  -8   5   2 -92.138 71.8625   7-0.65558 0.08521 0.10541 0.31164-0.85356 0.94622
   8  -5  -2 -58.850 50.4260   4-0.07747 0.64922-0.29897-0.11836-0.94949 0.85596
  -8   5   2 34.3656 42.3398   6-0.34580-0.22492 0.53925-0.12298-0.81767 0.91031
  -8  -5   2 0.50675 30.5785   9 0.08136-0.65219-0.30560-0.11095 0.94786-0.85502
   8   5  -2 -41.443 61.3645   2 0.49153 0.07947 0.35384 0.06325 0.87116-0.96428
   8   5  -2 33.0953 54.8834   5 0.57235-0.00135 0.23741 0.17970 0.87505-0.96791
  -8  -5   2 96.6722 88.4872   3-0.53150-0.03957-0.29750-0.11919-0.87576 0.96876
   8  -5  -2 -61.171 62.0708   8 0.60529-0.03390-0.18858-0.22854 0.86972-0.96313
  -7   5   2 593.087 133.904   7-0.66782 0.17341 0.10791 0.30911-0.84467 0.95099
   7  -5  -2 680.574 151.652   4-0.11040 0.60620-0.21815-0.19936-0.97366 0.86651
  -7   5   2 496.315 121.615   6-0.34137-0.15345 0.51825-0.10198-0.83287 0.93920
  -7  -5   2 665.969 143.866   9 0.11581-0.61067-0.22572-0.19081 0.97235-0.86589
   7   5  -2 845.111 170.854   2 0.48919 0.00588 0.35046 0.06665 0.87362-0.98041
   7   5  -2 687.333 142.407   5 0.57551-0.08036 0.23943 0.17773 0.87274-0.97926
  -7  -5   2 591.324 138.886   3-0.53140 0.03635-0.29739-0.11924-0.87585 0.98254
   7  -5  -2 606.358 134.000   8 0.61168-0.11623-0.19134-0.22580 0.86523-0.97231
  -6   5   2 47.9563 34.7658   7-0.69081 0.27236 0.11262 0.30436-0.82693 0.94687
   6  -5  -2 72.6251 40.8386   4-0.14065 0.56048-0.14034-0.27734-0.98936 0.86855
  -6   5   2 101.879 62.4777   6-0.33847-0.08044 0.50489-0.08861-0.84210 0.96212
   6   5  -2 39.3638 35.6469   2 0.49110-0.07196 0.35323 0.06390 0.87161-0.99206
  -6   5   2 -30.924 25.2040   1 0.16136-0.58017 0.16426 0.25308 0.98626-0.86603
   6   5  -2 34.8289 28.8247   5 0.58578-0.16649 0.24602 0.17120 0.86501-0.98519
  -6  -5   2 73.2634 49.0672   3-0.53682 0.11779-0.30273-0.11383-0.87122 0.99159
   6  -5  -2 -56.095 66.9708   8 0.62661-0.20709-0.19781-0.21935 0.85434-0.97509
  -6  -5   2 63.1232 48.4576   9 0.14761-0.56655-0.14832-0.26817 0.98848-0.86838
   5   5  -2 1507.18 191.996   2 0.49804-0.15480 0.36329 0.05385 0.86411-0.99823
   5   5  -2 1699.17 146.383   6-0.23644 0.57997 0.13264 0.28491-0.98941 0.85507
  -5   5   2 1566.28 207.531   6-0.33735-0.00565 0.49983-0.08355-0.84550 0.97920
  -5  -5   2 1611.46 198.361   9 0.17670-0.51970-0.07426-0.34222 0.99724-0.86351
  -5  -5   2 1498.14 200.384   3-0.54896 0.20597-0.31476-0.10172-0.86043 0.99445
   5   5  -2 1633.04 191.001   5 0.60497-0.26152 0.25839 0.15889 0.84971-0.98358
   5  -5  -2 1937.19 229.225   8 0.65244-0.30884-0.20908-0.20811 0.83403-0.96847
  -5   5   2 1441.79 169.119   1 0.17810-0.52104 0.07551 0.34171 0.99713-0.86324
   5  -5  -2 1384.45 179.259   4-0.16814 0.51198-0.06636-0.35145-0.99772 0.86324
  -5   5   2 1688.55 199.253   7-0.72762 0.38510 0.12023 0.29669-0.79534 0.92888
   4   5  -2 362.818 74.3665   6-0.19043 0.45800-0.00449 0.42224-0.99993 0.85186
   4  -5  -2 290.881 86.0269   4-0.19279 0.46061 0.00289-0.42082-0.99991 0.85173
  -4  -5   2 385.092 93.2905   9 0.20294-0.47003-0.00441-0.41203 0.99972-0.85236
  -4   5   2 426.854 107.198   6-0.33822 0.07115 0.50378-0.08751-0.84285 0.99020
   4   5  -2 415.875 101.927   2 0.51079-0.24347 0.38202 0.03515 0.84946-0.99727
  -4  -5   2 379.197 95.7695   3-0.56915 0.30217-0.33500-0.08138-0.84102 0.98867
   4   5  -2 442.581 104.290   5 0.63513-0.36755 0.27811 0.13924 0.82310-0.97069
  -4   5   2 338.635 84.9938   1 0.19176-0.45883-0.00384 0.42097 0.99992-0.85237
   4  -5  -2 506.782 119.693   8 0.69186-0.42421-0.22651-0.19071 0.79899-0.94713
  -3   5   2 2229.18 218.179   1 0.20267-0.39388-0.07311 0.49016 0.99705-0.83585
   3   5  -2 2583.19 244.412   2 0.53003-0.33863 0.41090 0.00630 0.82499-0.98649
   3   5  -2 2828.48 218.698   6-0.15721 0.34881-0.09664 0.51451-0.99506 0.83325
  -3   5   2 2758.22 250.387   6-0.34120 0.15004 0.51744-0.10120-0.83344 0.99444
  -3  -5   2 2597.75 242.985   9 0.22624-0.41742 0.06029-0.47669 0.99704-0.83606
  -3  -5   2 2795.41 259.662   3-0.59864 0.40767-0.36519-0.05107-0.80897 0.97020
   3   5  -2 1571.19 202.286   5 0.67827-0.48658 0.30693 0.11049 0.77876-0.94008
   3  -5  -2 2131.97 228.039   4-0.21452 0.40630 0.06649-0.48452-0.99716 0.83527
   2   5  -2 97.8552 43.1426   6-0.13429 0.24989-0.15736 0.57531-0.98654 0.81101
   2   5  -2 100.356 53.3825   2 0.55606-0.44058 0.45136-0.03412 0.78651-0.96172
   2  -5  -2 45.7641 34.7233   4-0.23325 0.34897 0.12352-0.54161-0.99079 0.81519
  -2  -5   2 86.9336 48.9678   9 0.24649-0.36178 0.11886-0.53524 0.99047-0.81587
  -2   5   2 42.4115 32.3452   6-0.34623 0.23099 0.54138-0.12516-0.81608 0.99071
  -2   5   2 66.6734 43.5704   1 0.21115-0.32653-0.13173 0.54873 0.99074-0.81589
   1   5  -2 230.921 78.3421   6-0.11970 0.15927-0.19494 0.61294-0.97911 0.78986
   1  -5  -2 234.014 80.0884   4-0.24893 0.28859 0.17304-0.59117-0.98221 0.79289
  -1  -5   2 207.722 76.7582   9 0.26360-0.30302 0.17034-0.58669 0.98139-0.79317
  -1   5   2 259.067 91.6372   6-0.35310 0.31377 0.57590-0.15970-0.78895 0.97719
  -1   5   2 254.364 80.3047   1 0.21754-0.25706-0.17931 0.59627 0.98295-0.79445
 -10   6   2 106.906 75.4520   7-0.68329-0.03899 0.11108 0.38956-0.83289 0.89809
  10   6  -2 203.311 107.775   2 0.51036 0.21247 0.38138 0.11905 0.84998-0.91580
  10  -6  -2 153.983 75.1711   8 0.63107 0.09217-0.19974-0.30073 0.85098-0.91712
   9  -6  -2 157.665 106.051   4-0.03791 0.68559-0.39106-0.10961-0.91135 0.83138
  -9   6   2 166.474 88.8556   7-0.68321 0.03691 0.11106 0.38954-0.83296 0.91184
  -9   6   2 116.476 115.710   6-0.34917-0.29750 0.55584-0.05620-0.80503 0.88394
  -9  -6   2 93.7781 41.9601   9 0.04054-0.68727-0.39539-0.10456 0.90996-0.83079
   9   6  -2 30.2001 42.5629   2 0.50234 0.14455 0.36958 0.13086 0.85929-0.93877
  -9  -6   2 233.172 95.6939   3-0.54573-0.10140-0.31155-0.18866-0.86336 0.94260
   9   6  -2 -17.550 52.3768   5 0.59074 0.05609 0.24920 0.25121 0.86117-0.94044
   9  -6  -2 27.0002 68.9947   8 0.62715 0.02017-0.19804-0.30244 0.85394-0.93373
  -8   6   2 207.512 99.5146   7-0.68974 0.11941 0.11240 0.38816-0.82779 0.92035
   8  -6  -2 264.430 119.444   4-0.06926 0.64101-0.31852-0.18234-0.94237 0.84882
  -8   6   2 171.203 95.6688   6-0.34398-0.22679 0.53052-0.03086-0.82410 0.91673
  -8  -6   2 171.975 97.2502   9 0.07322-0.64399-0.32392-0.17600 0.94105-0.84824
   8   6  -2 197.441 105.749   2 0.49717 0.07380 0.36202 0.13843 0.86507-0.95821
  -8  -6   2 436.083 131.596   3-0.54200-0.02911-0.30784-0.19231-0.86670 0.95965
   8   6  -2 154.590 75.3156   5 0.58947-0.01848 0.24838 0.25207 0.86216-0.95508
   8  -6  -2 89.9851 59.1773   8 0.62854-0.05714-0.19864-0.30185 0.85290-0.94635
  -7   6   2 575.349 138.279   7-0.70463 0.21028 0.11547 0.38504-0.81555 0.92175
   7  -6  -2 285.693 100.229   4-0.09819 0.59397-0.24858-0.25243-0.96553 0.85836
  -7   6   2 430.446 122.709   6-0.33994-0.15492 0.51161-0.01194-0.83750 0.94383
  -7  -6   2 511.321 145.654   9 0.10353-0.59834-0.25465-0.24524 0.96443-0.85799
   7   6  -2 529.715 138.350   2 0.49533-0.00027 0.35935 0.14112 0.86708-0.97388
  -7  -6   2 424.367 122.197   3-0.54256 0.04749-0.30840-0.19170-0.86620 0.97286
   7   6  -2 706.750 146.815   5 0.59370-0.09855 0.25111 0.24939 0.85883-0.96540
   7  -6  -2 453.195 124.350   8 0.63652-0.14104-0.20212-0.29840 0.84678-0.95390
  -6   6   2 300.406 97.0628   7-0.73015 0.31174 0.12075 0.37970-0.79302 0.91283
   6  -6  -2 163.961 77.8818   4-0.12466 0.54446-0.18191-0.31927-0.98187 0.86105
  -6   6   2 214.684 73.8783   1 0.15236-0.57122 0.20873 0.29205 0.97765-0.85744
  -6   6   2 314.107 103.364   6-0.33729-0.08164 0.49959 0.00009-0.84566 0.96568
  -6  -6   2 200.286 77.9983   9 0.13141-0.55028-0.18823-0.31164 0.98107-0.86099
   6   6  -2 247.327 75.2692   2 0.49740-0.07826 0.36235 0.13813 0.86482-0.98529
  -6  -6   2 157.848 61.1944   3-0.54827 0.12924-0.31406-0.18595-0.86106 0.98140
   6   6  -2 207.025 87.5271   5 0.60471-0.18540 0.25823 0.24235 0.84992-0.97016
   6  -6  -2 356.862 121.259   8 0.65277-0.23322-0.20923-0.29132 0.83376-0.95455
   5  -6  -2 105.484 70.3039   4-0.14864 0.49243-0.11916-0.38215-0.99239 0.85791
  -5   6   2 21.0000 40.5599   6-0.33627-0.00674 0.49498 0.00470-0.84872 0.98242
  -5  -6   2 14.3119 49.2372   9 0.15679-0.49974-0.12533-0.37450 0.99188-0.85816
   5   6  -2 71.2121 51.9251   2 0.50399-0.16076 0.37201 0.12851 0.85741-0.99156
  -5  -6   2 73.9420 42.7462   3-0.56012 0.21713-0.32590-0.17402-0.84993 0.98392
   5   6  -2 47.2303 28.9827   5 0.62400-0.28055 0.27080 0.22984 0.83330-0.96723
   5  -6  -2 129.934 76.3912   8 0.67931-0.33569-0.22092-0.27964 0.81072-0.94520
  -5   6   2 60.0689 51.2023   1 0.16729-0.51027 0.13377 0.36689 0.99093-0.85705
  -4   6   2 49.5766 55.1897   1 0.17965-0.44677 0.06686 0.43372 0.99775-0.85021
   4  -6  -2 50.0843 52.5216   4-0.17006 0.43784-0.06105-0.44038-0.99808 0.84991
   4   6  -2 53.2893 36.4734   6-0.22442 0.49204 0.09559 0.40552-0.99436 0.84627
  -4  -6   2 97.5398 67.3750   9 0.17960-0.44665-0.06667-0.43311 0.99778-0.85043
  -4   6   2 88.6802 59.1191   6-0.33702 0.06995 0.49835 0.00131-0.84649 0.99384
   4   6  -2 104.266 59.4972   2 0.51574-0.24842 0.38940 0.11115 0.84344-0.99127
  -4  -6   2 54.9448 48.6266   3-0.57919 0.31224-0.34518-0.15464-0.83064 0.97825
   4   6  -2 149.432 90.5122   5 0.65328-0.38569 0.29014 0.21058 0.80542-0.95307
   4  -6  -2 212.693 119.622   8 0.71834-0.45066-0.23839-0.26221 0.77227-0.92046
   3   6  -2 132.215 47.2549   6-0.19609 0.38771 0.01172 0.48954-0.99980 0.83800
   3  -6  -2 59.2412 45.5087   4-0.18887 0.38061-0.00832-0.49321-0.99992 0.83805
   3   6  -2 110.287 62.8589   2 0.53318-0.34178 0.41573 0.08485 0.82067-0.98219
  -3  -6   2 132.146 75.1874   9 0.19977-0.39091-0.01302-0.48673 0.99971-0.83873
  -3   6   2 100.082 51.1549   6-0.33964 0.14850 0.51026-0.01061-0.83843 0.99943
  -3  -6   2 144.578 72.4533   3-0.60644 0.41552-0.37331-0.12638-0.79966 0.96087
  -3   6   2 82.0063 48.6204   1 0.18971-0.38097 0.00855 0.49196 0.99991-0.83872
  -2   6   2 1683.85 210.262   1 0.19768-0.31310-0.04070 0.54115 0.99901-0.82416
   2   6  -2 2078.42 256.248   2 0.55655-0.44106 0.45215 0.04848 0.78571-0.96093
   2   6  -2 1844.51 207.043   6-0.17526 0.29090-0.04720 0.54856-0.99887 0.82335
  -2   6   2 1925.50 226.570   6-0.34412 0.22891 0.53118-0.03156-0.82362 0.99825
  -2  -6   2 1957.69 229.820   9 0.21720-0.33246 0.03485-0.53458 0.99866-0.82405
   2  -6  -2 2174.15 246.916   4-0.20499 0.32068 0.03827-0.53987-0.99894 0.82337
   1   6  -2 562.967 123.970   6-0.16094 0.20056-0.08655 0.58798-0.99606 0.80684
   1  -6  -2 550.287 125.887   4-0.21834 0.25797 0.07794-0.57958-0.99618 0.80690
  -1  -6   2 496.231 121.394   9 0.23181-0.27118 0.07614-0.57584 0.99565-0.80741
  -1   6   2 434.723 104.330   1 0.20377-0.24334-0.08048 0.58088 0.99646-0.80796
  -1   6   2 520.278 122.049   6-0.35028 0.31100 0.56140-0.06182-0.80066 0.98890
   1  -6  -2 -92.345 144.234   9-0.06854 0.10827-0.61052 0.10981 0.76385-0.95241
   0   6   2 1319.19 180.234   1 0.20815-0.17186-0.11042 0.61079 0.99345-0.79131
   0   6  -2 1911.80 239.342   6-0.15217 0.11579-0.11016 0.61164-0.99353 0.79061
   0  -6   2 1640.69 204.167   9 0.24347-0.20697 0.10997-0.60964 0.99173-0.78986
   0   6   2 258.453 98.2582   6-0.35776 0.39438 0.60093-0.10139-0.76759 0.96943
   0  -6  -2 80.7469 116.353   9-0.06422 0.02805-0.60268 0.10200 0.77088-0.97310
   0  -6  -2 1491.42 197.684   4-0.22882 0.19241 0.10984-0.61150-0.99266 0.78967
   2   6   2 -16.066 59.2339   1 0.21219-0.02417-0.13922 0.63957 0.98967-0.76022
  -2  -6  -2 -10.626 46.9871   4-0.24058 0.05209 0.14645-0.64809-0.98717 0.75681
  -2  -6  -2 -68.064 114.654   9-0.06946-0.11851-0.61217 0.11153 0.76234-0.99190
   9  -7  -2 -11.692 70.2075   4-0.03080 0.67848-0.40705-0.17715-0.90348 0.82347
  -9   7   2 7.81938 71.0071   7-0.72016 0.07390 0.11869 0.46543-0.80209 0.88084
  -9   7   2 -43.468 81.8996   6-0.34890-0.29783 0.55446 0.02858-0.80610 0.88499
  -9  -7   2 151.409 99.5773   9 0.03340-0.68007-0.41057-0.17276 0.90238-0.82325
   9   7  -2 -135.29 104.256   5 0.61070 0.03612 0.26211 0.32163 0.84490-0.92424
   9  -7  -2 6.94697 59.9315   8 0.65332-0.00599-0.20947-0.37439 0.83330-0.91315
   8  -7  -2 -61.468 82.5520   4-0.05885 0.63058-0.34298-0.24139-0.93274 0.83915
  -8   7   2 126.940 94.0768   7-0.72946 0.15918 0.12061 0.46345-0.79366 0.88606
  -8   7   2 60.1069 84.2533   6-0.34420-0.22662 0.53157 0.05149-0.82333 0.91593
  -8  -7   2 0.54856 66.6428   9 0.06269-0.63340-0.34733-0.23597 0.93168-0.83890
   8   7  -2 -27.364 64.1798   2 0.50605 0.06490 0.37504 0.20878 0.85503-0.94820
  -8  -7   2 110.092 86.7624   3-0.55617-0.01495-0.32195-0.26169-0.85371 0.94660
   8   7  -2 -92.998 67.1879   5 0.61082-0.03983 0.26219 0.32160 0.84479-0.93778
   8  -7  -2 -136.85 91.7598   8 0.65655-0.08513-0.21089-0.37299 0.83061-0.92411
   7  -7  -2 1341.46 229.922   4-0.08463 0.58039-0.28173-0.30281-0.95534 0.84815
  -7  -7   2 1787.63 271.316   9 0.08973-0.58450-0.28656-0.29670 0.95445-0.84803
  -7  -7   2 1730.28 265.278   3-0.55751 0.06243-0.32329-0.26029-0.85244 0.95903
  -7   7   2 1379.37 228.793   6-0.34058-0.15432 0.51457 0.06852-0.83545 0.94175
   7   7  -2 1239.29 233.134   2 0.50480-0.00976 0.37319 0.21065 0.85649-0.96332
   7   7  -2 1677.88 245.438   5 0.61627-0.12111 0.26575 0.31812 0.84012-0.94676
   7  -7  -2 1552.38 258.408   8 0.66628-0.17078-0.21517-0.36874 0.82232-0.92948
  -7   7   2 1284.47 220.374   7-0.74713 0.25282 0.12430 0.45970-0.77682 0.88287
   6  -7  -2 447.892 130.552   4-0.10813 0.52789-0.22384-0.36085-0.97223 0.85139
  -6   7   2 467.093 139.209   6-0.33823-0.08072 0.50383 0.07926-0.84281 0.96281
  -6  -7   2 437.589 135.444   9 0.11450-0.53333-0.22883-0.35439 0.97155-0.85148
   6   7  -2 337.894 117.458   2 0.50714-0.08800 0.37663 0.20723 0.85378-0.97427
  -6  -7   2 396.215 134.482   3-0.56365 0.14464-0.32946-0.25404-0.84649 0.96676
   6   7  -2 476.034 140.915   5 0.62815-0.20883 0.27352 0.31040 0.82955-0.94987
   6  -7  -2 864.345 203.162   8 0.68398-0.26440-0.22300-0.36093 0.80642-0.92727
   5  -7  -2 661.586 163.513   4-0.12932 0.47307-0.16989-0.41493-0.98424 0.84974
  -5   7   2 858.753 178.724   6-0.33734-0.00567 0.49980 0.08330-0.84552 0.97920
  -5  -7   2 851.853 179.038   9 0.13693-0.47985-0.17471-0.40847 0.98379-0.85008
   5   7  -2 816.767 161.471   2 0.51358-0.17035 0.38617 0.19771 0.84609-0.98026
  -5   7   2 835.852 157.241   1 0.15653-0.49956 0.18836 0.39578 0.98186-0.84800
  -5  -7   2 797.031 168.629   3-0.57544 0.23248-0.34137-0.24202-0.83457 0.96850
   5   7  -2 910.959 186.572   5 0.64775-0.30428 0.28647 0.29754 0.81095-0.94496
   5  -7  -2 746.206 193.753   8 0.71135-0.36770-0.23524-0.34872 0.77960-0.91414
   4  -7  -2 -29.002 70.6143   4-0.14815 0.41587-0.12046-0.46447-0.99222 0.84404
   4   7  -2 121.763 57.8911   6-0.25060 0.51826 0.17753 0.40695-0.98126 0.83313
   4   7  -2 103.163 51.5668   2 0.52462-0.25729 0.40271 0.18120 0.83217-0.98003
  -4  -7   2 151.438 81.0121   9 0.15699-0.42400-0.12481-0.45834 0.99195-0.84461
  -4   7   2 139.846 87.6754   6-0.33803 0.07096 0.50291 0.08017-0.84343 0.99077
  -4  -7   2 134.176 74.6311   3-0.59371 0.32680-0.36008-0.22319-0.81466 0.96222
   4   7  -2 79.0490 57.1264   5 0.67642-0.40880 0.30567 0.27841 0.78083-0.92856
  -4   7   2 161.752 88.4698   1 0.16784-0.43501 0.13092 0.45311 0.99132-0.84379
   3   7  -2 2725.95 304.296   2 0.54066-0.34925 0.42722 0.15673 0.81009-0.97163
   3   7  -2 2391.51 239.903   6-0.22633 0.41801 0.10141 0.48323-0.99369 0.83186
  -3   7   2 2643.69 288.291   6-0.34037 0.14924 0.51361 0.06945-0.83612 0.99710
  -3  -7   2 2339.92 271.380   9 0.17460-0.36570-0.07974-0.50337 0.99681-0.83583
  -3  -7   2 2811.33 314.185   3-0.61918 0.42831-0.38674-0.19640-0.78362 0.94476
  -3   7   2 1948.75 245.302   1 0.17711-0.36843 0.08104 0.50292 0.99670-0.83551
   3  -7  -2 2585.87 294.267   4-0.16456 0.35624-0.07618-0.50883-0.99697 0.83511
   2   7  -2 -48.447 41.2764   6-0.20769 0.32338 0.04554 0.53921-0.99856 0.82304
   2   7  -2 -42.604 30.9818   2 0.56186-0.44635 0.46062 0.12337 0.77695-0.95221
   2  -7  -2 -18.618 73.6634   4-0.17847 0.29411-0.03769-0.54739-0.99928 0.82373
  -2   7   2 71.0633 52.5354   1 0.18452-0.29999 0.03913 0.54478 0.99922-0.82438
  -2  -7   2 59.7628 63.7775   9 0.18965-0.30487-0.04019-0.54289 0.99915-0.82453
  -2   7   2 8.10400 39.1920   6-0.34435 0.22916 0.53229 0.05075-0.82281 0.99743
   1   7  -2 3021.78 301.004   6-0.19419 0.23387 0.00628 0.57856-0.99988 0.81065
  -1   7   2 3075.49 314.418   6-0.34985 0.31060 0.55919 0.02379-0.80240 0.99063
  -1  -7   2 2893.36 289.919   9 0.20204-0.24139-0.00686-0.57619 0.99973-0.81147
   1  -7  -2 2712.71 282.169   4-0.18979 0.22939-0.00569-0.57942-0.99993 0.81068
  -1   7   2 2580.35 274.233   1 0.19021-0.22982 0.00555 0.57832 0.99993-0.81144
   1   7   2 363.949 104.309   1 0.19679-0.08470-0.03510 0.61891 0.99924-0.78344
  -1   7  -2 334.583 127.382   6-0.18042 0.06808-0.03278 0.61771-0.99946 0.78285
  -1  -7  -2 215.541 81.2398   4-0.20411 0.09163 0.03568-0.62081-0.99906 0.78243
   1  -7   2 421.270 108.392   9 0.21830-0.10592 0.03793-0.62093 0.99851-0.78299
  -1  -7  -2 290.757 166.428   9-0.06130-0.05074-0.59735 0.01333 0.77558-0.99144
   8  -8  -2 127.167 107.651   4-0.04675 0.61845-0.37095-0.29695-0.92070 0.82707
  -8   8   2 105.626 81.2540   6-0.34591-0.22494 0.53980 0.12669-0.81726 0.90982
  -8  -8   2 -10.677 88.8638   9 0.05032-0.62098-0.37436-0.29230 0.91989-0.82713
   8   8  -2 50.2767 58.6817   5 0.63560-0.06461 0.27842 0.38871 0.82266-0.91575
   8  -8  -2 27.9446 79.8190   8 0.68852-0.11708-0.22503-0.44223 0.80216-0.89573
   7  -8  -2 47.0215 99.9044   4-0.06999 0.56571-0.31680-0.35125-0.94302 0.83578
   7   8  -2 -2.5394 67.7084   2 0.51675-0.02171 0.39089 0.27631 0.84219-0.94906
  -7   8   2 29.0550 54.6357   6-0.34270-0.15221 0.52450 0.14201-0.82844 0.93470
  -7  -8   2 57.3635 44.2767   9 0.07471-0.56943-0.32060-0.34603 0.94232-0.83592
  -7  -8   2 -27.658 79.4161   3-0.57538 0.08031-0.34130-0.32576-0.83464 0.94114
   7   8  -2 182.143 104.184   5 0.64230-0.14713 0.28284 0.38436 0.81628-0.92303
   7  -8  -2 59.7928 102.917   8 0.70001-0.20448-0.23015-0.43713 0.79106-0.89829
   6  -8  -2 649.601 171.936   4-0.09108 0.51079-0.26604-0.40216-0.96034 0.83946
   6   8  -2 744.886 184.592   2 0.51940-0.10027 0.39487 0.27235 0.83887-0.95941
  -6   8   2 670.449 163.640   6-0.34066-0.07831 0.51496 0.15156-0.83517 0.95513
  -6  -8   2 626.667 166.613   9 0.09695-0.51574-0.26995-0.39663 0.95981-0.83976
  -6  -8   2 696.553 185.598   3-0.58201 0.16303-0.34808-0.31890-0.82761 0.94779
   6   8  -2 734.815 205.473   5 0.65509-0.23575 0.29134 0.37593 0.80359-0.92401
   6  -8  -2 271.312 135.246   8 0.71913-0.29952-0.23875-0.42857 0.77143-0.89235
   5  -8  -2 34.7644 49.9841   4-0.11000 0.45369-0.21917-0.44915-0.97341 0.83888
  -5   8   2 78.3050 55.0606   1 0.14569-0.48877 0.24047 0.42712 0.97018-0.83635
   5   8  -2 22.6717 61.3186   2 0.52579-0.18255 0.40448 0.26276 0.83064-0.96485
  -5   8   2 -28.183 76.6173   6-0.33992-0.00310 0.51152 0.15501-0.83756 0.97120
  -5  -8   2 -12.475 68.5099   9 0.11699-0.45986-0.22292-0.44362 0.97307-0.83937
  -5  -8   2 9.78908 44.7683   3-0.59383 0.25090-0.36020-0.30666-0.81453 0.94836
   5   8  -2 -48.218 50.6460   5 0.67505-0.33155 0.30474 0.36261 0.78236-0.91648
   4   8  -2 3365.71 368.928   2 0.53628-0.26896 0.42048 0.24680 0.81635-0.96424
  -4   8   2 2955.27 340.583   6-0.34058 0.07351 0.51455 0.15197-0.83546 0.98276
  -4  -8   2 2711.45 326.438   9 0.13476-0.40174-0.18002-0.48648 0.98275-0.83541
  -4  -8   2 3223.39 366.972   3-0.61147 0.34462-0.37859-0.28815-0.79346 0.94091
  -4   8   2 2372.77 303.302   1 0.15610-0.42332 0.19049 0.47701 0.98144-0.83394
   4  -8  -2 2483.79 326.547   4-0.12669 0.39435-0.17668-0.49173-0.98292 0.83472
   3  -8  -2 110.888 100.630   4-0.14111 0.33273-0.13914-0.52936-0.98954 0.82766
   3   8  -2 89.6350 42.3394   6-0.25114 0.44286 0.17926 0.48875-0.98090 0.81902
   3   8  -2 21.9349 32.4552   2 0.55118-0.35975 0.44365 0.22367 0.79425-0.95584
  -3  -8   2 57.8704 54.9953   9 0.15022-0.34131-0.14182-0.52464 0.98950-0.82853
  -3   8   2 49.8378 38.2034   6-0.34268 0.15157 0.52439 0.14210-0.82852 0.98947
  -3   8   2 156.347 90.7222   1 0.16468-0.35605 0.14729 0.52015 0.98898-0.82782
  -2   8   2 683.325 164.140   1 0.17155-0.28708 0.11121 0.55617 0.99376-0.81893
   2  -8  -2 596.425 139.937   4-0.15315 0.26874-0.10710-0.56146-0.99389 0.81833
   2   8  -2 764.062 168.902   6-0.23451 0.35025 0.12664 0.54150-0.99032 0.81475
  -2  -8   2 736.123 166.904   9 0.16326-0.27846-0.10889-0.55754 0.99394-0.81932
  -2   8   2 747.060 181.609   6-0.34624 0.23108 0.54136 0.12509-0.81609 0.99068
   2  -8  -2 -96.660 272.751   9-0.07340 0.18900-0.61923-0.04822 0.75583-0.93074
  -1   8   2 393.833 115.403   1 0.17682-0.21650 0.08260 0.58472 0.99657-0.80809
   1  -8  -2 418.367 125.521   4-0.16273 0.20227-0.08118-0.58741-0.99655 0.80729
   1   8  -2 542.669 154.424   6-0.22200 0.26173 0.08828 0.57995-0.99515 0.80589
  -1  -8   2 535.387 139.514   9 0.17378-0.21309-0.08187-0.58453 0.99664-0.80838
  -1   8   2 350.356 122.127   6-0.35113 0.31191 0.56566 0.10074-0.79726 0.98546
   1  -8  -2 139.134 110.056   9-0.06553 0.10527-0.60505-0.06237 0.76877-0.95732
   0   8  -2 2271.08 296.698   6-0.21331 0.17702 0.06216 0.60613-0.99748 0.79454
   0   8   2 2443.37 247.807   2 0.27048-0.23409 0.06262 0.60394 0.99368-0.79166
   0  -8   2 2331.71 271.282   9 0.18159-0.14505-0.06147-0.60491 0.99811-0.79622
   0  -8  -2 1059.68 510.501   9-0.06221 0.02608-0.59900-0.06839 0.77413-0.97632
   0   8   2 794.332 188.721   6-0.35712 0.39385 0.59738 0.06897-0.77071 0.97250
   0   8   2 2463.58 306.773   1 0.18055-0.14435 0.06183 0.60546 0.99808-0.79595
   0  -8  -2 2350.63 299.656   4-0.16969 0.13321-0.06207-0.60652-0.99801 0.79507
  -1   8  -2 12.4390 81.2207   6-0.20807 0.09577 0.04666 0.62167-0.99850 0.78187
  -1  -8  -2 73.2876 67.0436   4-0.17385 0.06134-0.05059-0.61801-0.99870 0.78207
   1   8   2 -8.9506 61.3581   1 0.18276-0.07070 0.04927 0.61801 0.99877-0.78298
   1  -8   2 -38.601 69.3192   9 0.18651-0.07412-0.04849-0.61786 0.99881-0.78327
  -1  -8  -2 139.675 137.611   9-0.06276-0.04925-0.60002-0.06736 0.77324-0.98909
   1   8   2 80.0047 47.3940   2 0.25305-0.14078 0.04146 0.62506 0.99632-0.78065
   3   8   2 -66.161 144.817   1 0.18254 0.08129 0.05054 0.61672 0.99871-0.75559
   3   8   2 -129.42 127.295   2 0.24327 0.02077 0.02967 0.63681 0.99746-0.75447
   7   9  -2 332.690 154.461   5 0.67100-0.17581 0.30201 0.44853 0.78682-0.89369
   6  -9  -2 297.711 112.759   4-0.07350 0.49317-0.30844-0.44325-0.94611 0.82518
   6   9  -2 57.4786 71.5948   2 0.53350-0.11437 0.41620 0.33438 0.82024-0.94082
  -6   9   2 247.290 129.499   6-0.34412-0.07486 0.53119 0.21877-0.82361 0.94351
  -6  -9   2 47.3667 91.0677   9 0.07877-0.49754-0.31145-0.43849 0.94573-0.82571
  -6  -9   2 141.043 101.627   3-0.60257 0.18361-0.36928-0.38118-0.80432 0.92438
   6   9  -2 69.2212 55.9808   5 0.68464-0.26527 0.31125 0.43937 0.77149-0.89204
   5  -9  -2 -33.474 67.4003   4-0.09053 0.43416-0.26739-0.48441-0.95992 0.82535
   5   9  -2 80.8728 100.211   2 0.53986-0.19663 0.42598 0.32462 0.81125-0.94550
  -5   9   2 -62.766 95.6579   6-0.34352 0.00050 0.52833 0.22164-0.82568 0.95927
  -5  -9   2 43.6845 63.6068   9 0.09681-0.43965-0.27027-0.47963 0.95971-0.82604
  -5  -9   2 28.0684 38.7306   3-0.61443 0.27155-0.38171-0.36864-0.78973 0.92344
   4  -9  -2 1013.30 224.903   4-0.10543 0.37303-0.23061-0.52129-0.97047 0.82224
   4   9  -2 942.941 226.937   2 0.54990-0.28257 0.44163 0.30902 0.79624-0.94418
  -4  -9   2 910.265 207.023   9 0.11268-0.37962-0.23314-0.51672 0.97042-0.82311
  -4   9   2 954.432 209.505   6-0.34416 0.07710 0.53137 0.21859-0.82348 0.97073
   3  -9  -2 170.530 91.2381   4-0.11815 0.30972-0.19855-0.55341-0.97830 0.81639
   3   9  -2 -28.236 61.7266   2 0.56380-0.37237 0.46376 0.28692 0.77365-0.93528
   3   9  -2 210.225 108.466   6-0.27225 0.46403 0.24925 0.50212-0.96324 0.80128
  -3   9   2 45.1763 34.6093   1 0.15229-0.34372 0.20908 0.54181 0.97758-0.81644
  -3  -9   2 260.998 119.495   9 0.12632-0.31738-0.20053-0.54929 0.97840-0.81744
  -3   9   2 71.6514 57.1081   6-0.34608 0.15498 0.54058 0.20936-0.81668 0.97758
   2  -9  -2 221.465 115.617   4-0.12861 0.24414-0.17174-0.58027-0.98389 0.80831
   2   9  -2 248.984 129.858   6-0.25742 0.37320 0.19972 0.55179-0.97636 0.80072
  -2  -9   2 74.3818 101.826   9 0.13763-0.25281-0.17299-0.57680 0.98412-0.80952
  -2   9   2 280.032 107.874   6-0.34925 0.23413 0.55620 0.19369-0.80474 0.97927
  -2   9   2 197.012 91.7657   1 0.15867-0.27425 0.17775 0.57309 0.98388-0.80908
   1  -9  -2 352.070 126.032   4-0.13668 0.17618-0.15073-0.60131-0.98767 0.79841
   1   9  -2 349.407 151.478   6-0.24593 0.28571 0.16259 0.58902-0.98424 0.79492
  -1  -9   2 497.768 151.330   9 0.14651-0.18581-0.15107-0.59868 0.98803-0.79978
  -1   9   2 599.171 180.051   6-0.35359 0.31442 0.57842 0.17142-0.78686 0.97500
  -1   9   2 260.580 106.319   1 0.16353-0.20325 0.15321 0.59759 0.98807-0.79961
   0  -9  -2 -5.8659 55.5934   4-0.14224 0.10569-0.13616-0.61589-0.99000 0.78705
   0   9  -2 53.2292 50.6741   6-0.23763 0.20139 0.13634 0.61534-0.98882 0.78583
   0  -9   2 153.727 72.4170   9 0.15277-0.11620-0.13544-0.61429 0.99046-0.78857
   0   9   2 23.4670 72.1001   6-0.35890 0.39568 0.60730 0.14249-0.76192 0.96365
   0  -9  -2 -103.46 186.703   9-0.06764 0.03152-0.60888-0.14187 0.76533-0.96753
   0   9   2 15.0179 42.7878   1 0.16690-0.13076 0.13579 0.61498 0.99065-0.78854
  -1  -9  -2 -52.044 57.6509   4-0.14504 0.03248-0.12875-0.62329-0.99108 0.77446
   1   9   2 4.24814 54.4888   2 0.31126-0.19896 0.11299 0.63693 0.98419-0.76854
   1   9   2 -82.256 73.3181   1 0.16880-0.05678 0.12586 0.62490 0.99198-0.77621
  -2  -9  -2 -43.886 179.551   4-0.14480-0.04377-0.12938-0.62263-0.99099 0.76070
   2   9   2 49.8390 52.4110   2 0.29940-0.11122 0.09821 0.65167 0.98744-0.75814
  -2  -9  -2 -55.313 244.044   9-0.07130-0.11657-0.61549-0.13524 0.75930-0.98883
   2   9   2 102.152 151.847   1 0.16919 0.01870 0.12380 0.62694 0.99225-0.76281
   4  10  -2 -56.488 108.181   2 0.56481-0.29747 0.46539 0.36862 0.77191-0.91992
   3 -10  -2 -34.630 94.2089   4-0.09545 0.28695-0.25534-0.58009-0.96357 0.80162
  -3 -10   2 15.9708 73.1687   9 0.10263-0.29366-0.25676-0.57643 0.96381-0.80288
  -3  10   2 -12.268 51.4755   6-0.35016 0.15909 0.56076 0.27261-0.80116 0.96198
   2 -10  -2 540.598 161.413   4-0.10453 0.21999-0.23285-0.60262-0.96988 0.79426
  -2  10   2 737.417 206.069   1 0.14574-0.26137 0.24024 0.59407 0.97024-0.79548
   2  10  -2 705.219 242.142   6-0.27744 0.39328 0.26710 0.56778-0.95777 0.78204
  -2 -10   2 864.971 217.544   9 0.11246-0.22761-0.23366-0.59948 0.97028-0.79570
  -2  10   2 1163.70 276.995   6-0.35299 0.23790 0.57531 0.25803-0.78943 0.96388
   1 -10  -2 -51.554 99.0053   4-0.11130 0.15074-0.21588-0.61961-0.97422 0.78493
  -1  10   2 243.667 136.776   1 0.15022-0.18999 0.21907 0.61520 0.97534-0.78692
   1  10  -2 -132.13 101.974   6-0.26695 0.30678 0.23130 0.60367-0.96835 0.77895
  -1 -10   2 84.8628 79.0434   9 0.11990-0.15918-0.21597-0.61715 0.97479-0.78656
  -1  10   2 231.966 149.635   6-0.35684 0.31770 0.59582 0.23746-0.77207 0.96014
   0 -10  -2 3.36652 75.4675   4-0.11561 0.07901-0.20502-0.63048-0.97682 0.77385
   0  10   2 338.567 137.862   1 0.15324-0.11716 0.20445 0.62980 0.97858-0.77649
  -1 -10  -2 -39.438 138.412   4-0.11722 0.00461-0.20091-0.63456-0.97776 0.76112
   1  10   2 -116.39 67.7923   1 0.15483-0.04288 0.19670 0.63753 0.98019-0.76445
  12   0  -3 149.365 133.220   8 0.71181 0.14525-0.23545 0.23515 0.77913-0.91921
 -11   0   3 49.8302 59.2701   7-0.71175-0.06808 0.11694-0.11748-0.80948 0.96231
  11   0  -3 25.6079 81.3055   8 0.70469 0.07642-0.23225 0.23196 0.78639-0.94014
 -10   0   3 38.8404 77.7725   7-0.70951 0.00561 0.11648-0.11701-0.81140 0.97791
  10   0  -3 98.9464 115.388   8 0.70194 0.00322-0.23102 0.23074 0.78915-0.95655
  -9   0   3 87.4823 52.3732   7-0.71301 0.08503 0.11720-0.11772-0.80839 0.98856
   9   0  -3 305.284 142.664   8 0.70461-0.07539-0.23221 0.23194 0.78647-0.96756
  -7   0   3 94.4309 64.0456   7-0.74316 0.26699 0.12347-0.12399-0.78070 0.98816
   7   0  -3 1.05391 28.7463   8 0.73151-0.25422-0.24437 0.24412 0.75789-0.96634
  12   1  -3 62.8693 93.1559   5 0.68388 0.17284 0.31074-0.22704 0.77237-0.91164
  12   1  -3 -65.842 146.454   8 0.73103 0.12605-0.24415 0.32727 0.75843-0.89852
 -11   1   3 67.3558 41.9160   7-0.70607-0.07378 0.11577-0.03285-0.81434 0.96717
 -11  -1   3 129.971 111.350   7-0.72397-0.05584 0.11947-0.20345-0.79867 0.95149
  11   1  -3 158.261 95.9062   5 0.67558 0.10525 0.30510-0.22139 0.78177-0.93469
  11  -1  -3 71.3689 76.6948   8 0.69114 0.08995-0.22619 0.14250 0.79968-0.95341
  11   1  -3 45.2183 52.1948   8 0.72512 0.05600-0.24146 0.32461 0.76496-0.91871
 -10   1   3 64.5938 76.8187   7-0.70343-0.00047 0.11523-0.03230-0.81656 0.98307
 -10  -1   3 41.0328 52.6219   7-0.72263 0.01875 0.11919-0.20315-0.79987 0.96637
  10   1  -3 56.8434 82.0891   5 0.67114 0.03380 0.30210-0.21836 0.78667-0.95325
  10  -1  -3 -9.5066 85.1447   8 0.68749 0.01765-0.22457 0.14088 0.80313-0.97053
  10   1  -3 95.0310 80.3165   8 0.72382-0.01864-0.24087 0.32402 0.76638-0.93380
  -9   1   3 143.484 70.6758   7-0.70641 0.07843 0.11584-0.03292-0.81405 0.99422
  -9  -1   3 223.805 103.612   7-0.72721 0.09923 0.12014-0.20409-0.79573 0.97589
   9   1  -3 85.3117 51.0142   5 0.67143-0.04240 0.30230-0.21854 0.78635-0.96659
   9  -1  -3 132.163 109.382   8 0.68902-0.05982-0.22525 0.14157 0.80169-0.98276
   9   1  -3 -197.56 115.485   8 0.72821-0.09900-0.24286 0.32603 0.76157-0.94266
   8   1  -3 1746.31 248.295   5 0.67753-0.12441 0.30643-0.22264 0.77959-0.97350
   8  -1  -3 2964.12 345.660   8 0.69695-0.14369-0.22878 0.14510 0.79407-0.98882
  -8   1   3 2440.37 274.228   7-0.71637 0.16432 0.11790-0.03498-0.80545 0.99927
  -8  -1   3 2662.40 291.895   7-0.73912 0.18704 0.12263-0.20656-0.78459 0.97840
  -7   1   3 92.8739 45.2256   7-0.73498 0.25883 0.12176-0.03884-0.78852 0.99597
  -7  -1   3 27.9888 18.1185   7-0.76006 0.28386 0.12702-0.21092-0.76377 0.97123
   7  -1  -3 154.421 60.7820   4-0.23818 0.71606 0.13891-0.22267-0.98843 0.77972
  -7  -1   3 85.8995 33.4964   9 0.24404-0.72094 0.11163-0.19456 0.99150-0.78399
   7  -1  -3 25.1891 49.3195   8 0.71272-0.23542-0.23586 0.15218 0.77818-0.98662
 -12  -2   3 6.88544 92.8161   7-0.74768-0.10803 0.12442-0.29181-0.77628 0.91540
 -11   2   3 250.997 104.292   7-0.70672-0.07313 0.11590 0.05049-0.81378 0.96660
 -11  -2   3 215.861 128.758   7-0.74283-0.03696 0.12340-0.29078-0.78102 0.93383
  11   2  -3 193.355 91.4880   5 0.66383 0.11693 0.29719-0.13005 0.79452-0.94744
  11  -2  -3 481.385 183.301   8 0.68412 0.09696-0.22306 0.05598 0.80629-0.96003
 -10   2   3 238.533 85.2747   7-0.70418 0.00028 0.11538 0.05100-0.81593 0.98243
 -10  -2   3 260.005 108.218   7-0.74290 0.03902 0.12342-0.29078-0.78095 0.94743
 -10  -2   3 314.870 111.822   3-0.62654-0.07776-0.39458 0.22843-0.77384 0.94058
  10   2  -3 231.106 110.507   5 0.65877 0.04610 0.29380-0.12664 0.79981-0.96638
  10  -2  -3 386.747 142.840   8 0.68009 0.02505-0.22127 0.05419 0.81001-0.97740
  -9   2   3 1037.63 198.664   7-0.70716 0.07921 0.11600 0.05039-0.81341 0.99357
  -9  -2   3 747.062 166.653   7-0.74908 0.12109 0.12471-0.29204-0.77489 0.95504
  -9  -2   3 853.524 179.664   3-0.62417-0.00420-0.39204 0.22593-0.77704 0.95744
   9   2  -3 1070.56 201.221   5 0.65821-0.02923 0.29343-0.12623 0.80039-0.98062
   9  -2  -3 1148.32 232.564   8 0.68104-0.05183-0.22169 0.05461 0.80913-0.99021
  -8   2   3 725.910 148.441   7-0.71699 0.16496 0.11803 0.04834-0.80490 0.99871
  -8  -2   3 60.7181 70.9885   7-0.76277 0.21066 0.12759-0.29489-0.76095 0.95475
  -8  -2   3 652.460 152.860   3-0.62631 0.07389-0.39433 0.22826-0.77415 0.96821
   8   2  -3 819.628 165.274   5 0.66315-0.11005 0.29673-0.12950 0.79524-0.98915
   8  -2  -3 829.550 188.365   8 0.68811-0.13484-0.22484 0.05775 0.80256-0.99730
  -7   2   3 45.6527 60.9506   7-0.73525 0.25915 0.12182 0.04454-0.78825 0.99569
   7  -2  -3 120.227 58.1674   4-0.21927 0.69715 0.08074-0.24804-0.99592 0.78723
  -7  -2   3 81.0223 36.9231   9 0.22623-0.70308 0.06027-0.22655 0.99704-0.78956
   7   2  -3 114.406 68.8530   5 0.67472-0.19753 0.30452-0.13727 0.78273-0.99032
  -7   2   3 51.9014 30.1409   1 0.20844-0.68466-0.11246 0.27935 0.99321-0.78553
   7  -2  -3 120.037 78.6568   8 0.70267-0.22537-0.23134 0.06425 0.78842-0.99685
  -6   2   3 -16.632 25.1069   7-0.76372 0.36349 0.12779 0.03856-0.75996 0.98102
   6  -2  -3 1.05397 41.3828   8 0.72623-0.32489-0.24196 0.07488 0.76375-0.98588
 -11   3   3 1128.85 237.042   7-0.71342-0.06643 0.11728 0.13260-0.80802 0.96081
 -11  -3   3 879.563 217.763   3-0.62206-0.15831-0.38980 0.14026-0.77984 0.93290
  11   3  -3 1292.58 254.324   5 0.65823 0.12246 0.29344-0.04290 0.80037-0.95330
  11  -3  -3 999.519 250.736   8 0.68316 0.09790-0.22263-0.02783 0.80718-0.96093
 -10   3   3 173.103 93.3594   7-0.71142 0.00751 0.11687 0.13300-0.80976 0.97624
 -10  -3   3 188.774 96.3463   3-0.61563-0.08878-0.38298 0.13347-0.78820 0.95495
  10   3  -3 122.245 94.2416   5 0.65304 0.05178 0.28997-0.03941 0.80568-0.97225
  10  -3  -3 174.297 105.532   8 0.67920 0.02594-0.22088-0.02960 0.81082-0.97823
  -9   3   3 494.588 154.103   7-0.71487 0.08692 0.11759 0.13227-0.80676 0.98690
  -9  -3   3 336.721 113.895   3-0.61274-0.01571-0.37993 0.13047-0.79187 0.97229
   9   3  -3 394.199 117.695   5 0.65213-0.02318 0.28937-0.03877 0.80659-0.98683
   9  -3  -3 305.159 113.639   8 0.68005-0.05084-0.22125-0.02922 0.81004-0.99112
  -8   3   3 273.698 109.319   7-0.72506 0.17304 0.11969 0.13014-0.79768 0.99147
   8  -3  -3 231.474 81.2320   4-0.15877 0.71256-0.09197-0.15870-0.99553 0.80058
  -8  -3   3 194.698 68.8658   9 0.16410-0.71683-0.10675-0.14289 0.99418-0.80030
  -8  -3   3 294.651 117.835   3-0.61408 0.06160-0.38135 0.13193-0.79017 0.98426
   8   3  -3 254.527 91.9456   5 0.65642-0.10335 0.29223-0.04160 0.80223-0.99614
   8  -3  -3 181.918 94.1281   8 0.68679-0.13352-0.22426-0.02623 0.80379-0.99855
  -7   3   3 927.043 175.446   7-0.74349 0.26740 0.12354 0.12628-0.78038 0.98779
   7  -3  -3 1065.63 172.767   4-0.20113 0.67900 0.02701-0.27785-0.99941 0.79073
  -7  -3   3 845.223 140.719   9 0.20865-0.68544 0.01117-0.26082 0.99951-0.79204
  -7  -3   3 1057.97 190.950   3-0.62044 0.14393-0.38808 0.13871-0.78197 0.98971
   7   3  -3 1026.74 181.540   5 0.66697-0.18980 0.29931-0.04863 0.79117-0.99876
   7  -3  -3 1105.29 208.300   8 0.70070-0.22338-0.23046-0.02003 0.79038-0.99882
 -11   4   3 797.425 210.881   7-0.72580-0.05405 0.11985 0.21354-0.79701 0.94975
 -11  -4   3 1053.26 235.393   3-0.61688-0.16359-0.38430 0.05136-0.78660 0.93964
 -10   4   3 117.878 66.1169   7-0.72469 0.02081 0.11962 0.21376-0.79801 0.96444
  10   4  -3 109.690 89.4022   2 0.56414 0.14058 0.46431-0.13050 0.77306-0.94008
 -10  -4   3 147.688 117.910   3-0.61052-0.09398-0.37759 0.04469-0.79465 0.96140
  10   4  -3 252.853 139.189   5 0.65319 0.05159 0.29007 0.04387 0.80553-0.97212
  10  -4  -3 -84.985 63.0017   8 0.68422 0.02092-0.22311-0.11075 0.80619-0.97362
  -9   4   3 -7.5959 44.6067   7-0.72902 0.10109 0.12052 0.21282-0.79406 0.97415
   9   4  -3 82.9431 68.7667   2 0.55964 0.06914 0.45707-0.12325 0.78065-0.96133
  -9  -4   3 90.3436 70.7197   3-0.60750-0.02102-0.37443 0.04157-0.79837 0.97881
   9   4  -3 136.246 89.3436   5 0.65233-0.02342 0.28950 0.04448 0.80639-0.98664
   9  -4  -3 25.5018 59.4236   8 0.68538-0.05618-0.22363-0.11024 0.80511-0.98621
  -8   4   3 239.286 112.362   7-0.73999 0.18801 0.12281 0.21051-0.78375 0.97749
   8  -4  -3 196.320 81.7864   4-0.14690 0.70069-0.12381-0.21037-0.99177 0.79680
   8   4  -3 60.7075 82.1340   2 0.55820-0.00535 0.45476-0.12093 0.78303-0.97738
  -8  -4   3 115.554 61.7248   9 0.15271-0.70539-0.13559-0.19743 0.99044-0.79658
  -8  -4   3 172.736 89.3369   3-0.60847 0.05594-0.37544 0.04264-0.79718 0.99129
   8   4  -3 10.2166 56.3018   5 0.65642-0.10339 0.29223 0.04178 0.80223-0.99614
   8  -4  -3 166.797 117.353   8 0.69223-0.13896-0.22668-0.10720 0.79863-0.99340
  -7   4   3 89.0205 86.6112   7-0.75897 0.28292 0.12679 0.20651-0.76490 0.97225
   7  -4  -3 342.871 112.230   4-0.18330 0.66114-0.02410-0.31026-0.99970 0.79104
   7   4  -3 383.653 140.818   2 0.56030-0.08339 0.45812-0.12426 0.77956-0.98759
  -7  -4   3 315.912 99.7555   9 0.19100-0.66774-0.03658-0.29642 0.99927-0.79181
  -7   4   3 334.204 94.0611   1 0.18639-0.66270 0.02820 0.30559 0.99958-0.79190
  -7  -4   3 336.744 112.300   3-0.61412 0.13756-0.38138 0.04863-0.79013 0.99789
   7   4  -3 338.592 124.225   5 0.66644-0.18927 0.29895 0.03512 0.79174-0.99934
   7  -4  -3 279.133 120.821   8 0.70594-0.22861-0.23281-0.10107 0.78513-0.99358
   6  -4  -3 2.39218 42.9599   4-0.21583 0.61767 0.07042-0.40493-0.99684 0.77446
  -6  -4   3 78.7413 77.3426   9 0.22542-0.62623 0.05795-0.39094 0.99722-0.77616
  -6  -4   3 19.6790 28.4224   3-0.62515 0.22459-0.39309 0.06041-0.77572 0.99711
  -6   4   3 28.2312 42.9526   1 0.20457-0.60501-0.08589 0.41956 0.99598-0.77466
   6   4  -3 20.1860 43.7503   5 0.68341-0.28213 0.31042 0.02369 0.77291-0.99421
   6  -4  -3 81.4430 89.5972   8 0.72778-0.32640-0.24267-0.09123 0.76205-0.98419
 -10   5   3 143.951 101.707   7-0.74352 0.03966 0.12355 0.29334-0.78034 0.94669
  10   5  -3 -140.16 84.1401   2 0.56033 0.14436 0.45817-0.04097 0.77951-0.94653
 -10  -5   3 -10.731 84.8017   3-0.61035-0.09423-0.37743-0.03890-0.79485 0.96158
  10   5  -3 73.3217 93.0683   5 0.65848 0.04625 0.29361 0.12370 0.80011-0.96673
  10  -5  -3 -20.246 64.4371   8 0.69455 0.01059-0.22771-0.18952 0.79640-0.96386
  -9   5   3 101.160 59.9774   7-0.74904 0.12113 0.12470 0.29215-0.77493 0.95495
   9   5  -3 31.3889 58.0926   2 0.55596 0.07280 0.45119-0.03397 0.78668-0.96737
  -9  -5   3 135.767 108.138   3-0.60751-0.02107-0.37443-0.04185-0.79836 0.97879
   9   5  -3 70.2118 108.023   5 0.65799-0.02911 0.29328 0.12406 0.80062-0.98090
   9  -5  -3 134.369 116.636   8 0.69633-0.06711-0.22851-0.18874 0.79467-0.97579
  -8   5   3 -4.5959 40.5092   7-0.76107 0.20912 0.12723 0.28959-0.76273 0.95638
   8  -5  -3 25.3947 43.5333   4-0.13360 0.68738-0.15879-0.25892-0.98628 0.79130
   8   5  -3 85.7556 78.8003   2 0.55444-0.00162 0.44880-0.03156 0.78910-0.98346
  -8  -5   3 96.6150 56.5415   9 0.13957-0.69220-0.16824-0.24814 0.98502-0.79118
  -8  -5   3 46.9103 61.0965   3-0.60842 0.05584-0.37538-0.04084-0.79725 0.99136
   8   5  -3 6.49409 55.2272   5 0.66223-0.10920 0.29612 0.12127 0.79621-0.99015
   8  -5  -3 235.684 116.663   8 0.70362-0.15034-0.23177-0.18549 0.78747-0.98226
  -7   5   3 -33.590 36.6264   1 0.17603-0.65238 0.08699 0.33024 0.99619-0.78854
   7  -5  -3 136.740 83.1472   4-0.16552 0.64332-0.07356-0.34432-0.99718 0.78852
   7   5  -3 64.6269 59.2256   2 0.55623-0.07934 0.45164-0.03438 0.78622-0.99426
  -7  -5   3 37.5599 44.8842   9 0.17315-0.64983-0.08349-0.33287 0.99650-0.78905
  -7  -5   3 57.7494 70.2053   3-0.61369 0.13712-0.38093-0.03523-0.79067 0.99844
   7   5  -3 76.2748 68.6704   5 0.67207-0.19490 0.30273 0.11471 0.78565-0.99328
   7  -5  -3 143.306 92.4874   8 0.71748-0.24013-0.23800-0.17927 0.77319-0.98166
   6   5  -3 100.305 74.4221   2 0.56173-0.16076 0.46041-0.04313 0.77716-0.99888
   6  -5  -3 491.577 254.764   4-0.19423 0.59603 0.00701-0.42504-0.99987 0.77751
  -6  -5   3 184.201 82.2580   9 0.20351-0.60427-0.00286-0.41347 0.99971-0.77866
  -6  -5   3 135.023 103.250   3-0.62397 0.22339-0.39182-0.02427-0.77731 0.99873
   6   5  -3 38.6216 49.5264   5 0.68840-0.28712 0.31382 0.10367 0.76709-0.98841
  -6   5   3 81.7800 38.6705   1 0.19267-0.59315-0.00939 0.42651 0.99987-0.77856
   9   6  -3 980.384 248.078   2 0.55627 0.07245 0.45171 0.04889 0.78616-0.96686
  -9  -6   3 527.184 160.027   9 0.09244-0.72096-0.28035-0.21944 0.95650-0.77630
  -9  -6   3 625.362 194.238   3-0.61190-0.01673-0.37904-0.12069-0.79292 0.97333
   9   6  -3 989.920 243.072   5 0.66833-0.03947 0.30022 0.20047 0.78971-0.97004
   9  -6  -3 390.818 179.985   8 0.71219-0.08297-0.23562-0.26500 0.77873-0.95989
   8  -6  -3 134.771 134.006   4-0.11922 0.67297-0.19583-0.30539-0.97890 0.78390
   8   6  -3 385.248 167.705   2 0.55489-0.00209 0.44951 0.05111 0.78838-0.98276
  -8  -6   3 294.488 112.904   9 0.12512-0.67769-0.20343-0.29631 0.97774-0.78393
  -8  -6   3 249.552 115.008   3-0.61296 0.06035-0.38016-0.11951-0.79159 0.98568
   8   6  -3 334.535 138.757   5 0.67295-0.11994 0.30333 0.19742 0.78468-0.97867
   8  -6  -3 73.0899 126.461   8 0.72015-0.16685-0.23921-0.26142 0.77034-0.96517
   7  -6  -3 362.685 129.226   4-0.14761 0.62538-0.12190-0.37949-0.99203 0.78336
   7   6  -3 391.981 144.835   2 0.55656-0.07969 0.45217 0.04847 0.78569-0.99373
  -7  -6   3 310.250 147.589   9 0.15499-0.63164-0.12985-0.36987 0.99126-0.78383
  -7  -6   3 338.552 139.549   3-0.61811 0.14152-0.38560-0.11401-0.78501 0.99277
   7   6  -3 188.524 101.337   5 0.68286-0.20570 0.31004 0.19076 0.77355-0.98121
  -7   6   3 147.329 80.7020   1 0.16571-0.64211 0.14199 0.35869 0.98977-0.78213
   7  -6  -3 -38.908 79.1788   8 0.73438-0.25702-0.24567-0.25499 0.75466-0.96317
  -6   6   3 53.1990 57.0593   1 0.18103-0.58156 0.05911 0.44145 0.99824-0.77694
   6  -6  -3 54.5328 63.9357   4-0.17323 0.57499-0.05232-0.44922-0.99860 0.77624
   6   6  -3 -26.059 42.3693   2 0.56166-0.16069 0.46030 0.04036 0.77728-0.99900
  -6  -6   3 138.630 52.1814   9 0.18208-0.58280-0.06017-0.43952 0.99819-0.77715
  -6  -6   3 -29.374 86.7668   3-0.62788 0.22731-0.39601-0.10351-0.77202 0.99342
   9  -7  -3 216.267 230.396   4-0.07586 0.70555-0.30283-0.28173-0.94812 0.76671
  -9  -7   3 11.2401 61.6312   9 0.08017-0.70865-0.30831-0.27484 0.94688-0.76672
   9  -7  -3 -96.462 149.373   8 0.73225-0.10302-0.24471-0.33929 0.75706-0.93826
   8  -7  -3 -15.972 105.699   4-0.10394 0.65766-0.23433-0.35040-0.96948 0.77445
   8   7  -3 691.387 212.541   2 0.55871-0.00592 0.45558 0.12841 0.78219-0.97658
  -8  -7   3 630.231 206.132   9 0.10960-0.66212-0.24042-0.34270 0.96846-0.77467
  -8  -7   3 924.227 231.718   3-0.62126 0.06863-0.38895-0.19420-0.78090 0.97495
   8   7  -3 132.461 75.8122   5 0.68776-0.13476 0.31338 0.27070 0.76784-0.96190
   7  -7  -3 -47.678 111.002   4-0.12948 0.60721-0.16948-0.41542-0.98432 0.77563
   7   7  -3 126.664 81.1159   2 0.56040-0.08353 0.45829 0.12572 0.77938-0.98744
  -7  -7   3 153.295 116.075   9 0.13648-0.61308-0.17581-0.40726 0.98358-0.77617
  -7   7   3 89.3931 99.3008   1 0.15528-0.63173 0.19451 0.38962 0.98064-0.77303
  -7  -7   3 238.351 95.5506   3-0.62644 0.14985-0.39447-0.18860-0.77398 0.98169
  -5   7   3 2.73965 53.9408   1 0.18129-0.50601 0.05763 0.52630 0.99833-0.76338
   5  -7  -3 32.4447 152.697   4-0.17313 0.49880-0.05261-0.53256-0.99859 0.76253
  -5   7   3 -175.57 112.944   6-0.36037 0.03560 0.61568-0.03295-0.75429 0.98892
   8  -8  -3 79.8060 91.8119   4-0.08786 0.64154-0.27390-0.39435-0.95788 0.76280
   7  -8  -3 80.3914 146.310   4-0.11105 0.58873-0.21651-0.45190-0.97407 0.76535
   6  -8  -3 286.394 283.698   4-0.13196 0.53362-0.16305-0.50548-0.98552 0.76313
  -6   8   3 32.1364 68.5703   6-0.36052-0.04018 0.61657 0.04958-0.75348 0.97442
  -6   8   3 54.3981 112.706   1 0.15791-0.55854 0.18155 0.48593 0.98317-0.76191
   0   0   0    0.00    0.00
  -4   2   1 266.676 74.4940   7-0.47413 0.18895 0.06921 0.09751-0.94876 0.99517
  -4  -2   1 171.156 60.3774   7-0.54791 0.26266 0.08377-0.25076-0.91738 0.96383
  -4  -2   1 128.209 33.4259   1 0.21292-0.49805-0.14460-0.02218 0.98887-0.94236
  -4   2   1 100.562 41.6137   1 0.17796-0.46324 0.07632 0.09069 0.99707-0.95059
   4  -2  -1 235.452 67.2359   4-0.16997 0.45587-0.06130-0.10569-0.99806 0.95139
  -4   2   1 205.051 70.5858   6-0.30391 0.01856 0.36266-0.19618-0.92135 0.96774
   4   2  -1 166.738 67.7638   2 0.39294-0.10744 0.21790-0.05105 0.94948-0.99601
   4  -2  -1 141.476 43.0986   5 0.62217-0.33653 0.26960-0.43650 0.83493-0.88128
  -4  -2   1 257.226 73.1721   9 0.17662-0.46202-0.07447-0.09208 0.99723-0.95082
   4  -2  -1 209.870 75.2768   8 0.44718-0.16149-0.12191-0.04497 0.95214-0.99881
   4   2  -1 207.748 65.3358   8 0.58972-0.30403-0.18189 0.34866 0.88020-0.92687
  -4  -2   1 192.425 90.3205   3-0.41221 0.12673-0.18449 0.01786-0.95181 0.99839
   1   5   2 -42.310 40.1721   1 0.22500-0.11281-0.24006 0.65697 0.96943-0.75364
  -6   1   3 37.1368 37.9200   7-0.76405 0.36379 0.12786-0.04495-0.75961 0.98069
   0  -5  -2 -37.215 30.3341   4-0.26149 0.22510 0.21408-0.63222-0.97289 0.76986
   0   5   2 -103.64 67.8779   6-0.36124 0.39780 0.62079-0.20462-0.74957 0.95140
   9   3   1 111.846 74.1749   8 0.28705 0.41456-0.05681 0.30706 0.99229-0.76803
  -9  -3  -1 -48.419 67.4542   7-0.27739-0.42427 0.03122-0.28143-0.99450 0.77025
   5  -6  -3 85.9986 97.5255   4-0.19609 0.52181 0.01236-0.51402-0.99979 0.76373
  -5   6   3 227.000 117.212   1 0.19355-0.51823-0.01481 0.51528 0.99980-0.76484
   3   7   2 -186.91 151.974   1 0.19717 0.06669-0.03750 0.62129 0.99915-0.75602
  -3  -7  -2 68.0013 96.0016   4-0.20567-0.05882 0.04028-0.62536-0.99885 0.75486
   5  -5  -3 -20.697 96.0892   4-0.21975 0.54552 0.08220-0.50034-0.99578 0.75969
  -5   5   3 71.2183 98.1529   1 0.20591-0.53054-0.09496 0.51198 0.99512-0.76016
  -1  -4   0 19.7487 37.8587   4-0.13928 0.06319-0.14391-0.19007-0.98879 0.97512
  -1   4   0 69.4784 40.9352   2 0.43508-0.51096 0.27451 0.05910 0.92179-0.93556
  -1   4   0 85.0163 49.4034   6-0.23314 0.15730 0.12237 0.21134-0.99094 0.97720
   1   4   0 86.9109 49.6475   6-0.26848 0.34457 0.23649 0.09707-0.96691 0.98049
  -1  -4   0 50.7825 30.2506   3-0.32087 0.24493-0.10239-0.23142-0.98394 0.97026
  -1   4   0 65.9550 35.5994   7-0.47038 0.39467 0.06848 0.26533-0.95012 0.93631
   1   4   0 69.2793 48.1723   1 0.16655-0.09084 0.13765 0.19614 0.99039-0.97678
   1  -4   0 76.3337 39.2584   3-0.52991 0.60612-0.29594-0.03738-0.87709 0.89064
   1   4   0 116.738 50.7493   2 0.30554-0.22962 0.10585 0.22762 0.98581-0.97220
  -1  -4   0 58.2926 52.2790   9 0.12496-0.20071-0.20382-0.12964 0.97765-0.99129
   1  -4   0 44.0142 35.9247   9 0.15048-0.07446-0.14116-0.19229 0.98960-0.97591
   1  -4   0 34.4341 29.9185   8 0.37171-0.29568-0.09097-0.24259 0.97572-0.96207
 -10   6   3 -35.925 50.8161   7-0.76733 0.06350 0.12855 0.37185-0.75614 0.92238
  -1   4   2 16.9681 32.6130   6-0.35903 0.31964 0.60806-0.27523-0.76124 0.94946
   2  -3  -2 24.8541 138.238   4-0.29777 0.41354 0.34091-0.59192-0.93078 0.75507
  -2   3   2 -13.786 42.5086   6-0.36093 0.24562 0.61897-0.36944-0.75126 0.92583
   6  -3  -3 43.0401 67.4819   4-0.23845 0.64030 0.13975-0.39072-0.98829 0.76588
  -6  -3   3 176.824 75.6846   9 0.24818-0.64904 0.12388-0.37352 0.98973-0.76866
   6   3  -3 99.3923 66.0365   5 0.68495-0.28367 0.31147-0.06075 0.77113-0.99242
   6  -3  -3 63.7484 89.7692   8 0.72317-0.32181-0.24058-0.00992 0.76708-0.98922
   0  -4   1 324.174 86.3317   4-0.01162 0.02957-0.44934 0.11580-0.88074 0.98192
   0  -4   1 215.430 61.6782   9 0.24628-0.22797 0.11822-0.45139 0.99057-0.88960
   0   4   1 309.877 79.5427   6-0.32542 0.34378 0.44806-0.11494-0.87772 0.97867
   0   4  -1 366.587 87.7840   2 0.54104-0.55921 0.42781-0.09405 0.80953-0.91087
   0  -4  -1 282.117 68.7981   4-0.23159 0.21337 0.11837-0.45273-0.99152 0.89007
   0  -4  -1 273.382 77.1498   9 0.01487-0.03291-0.44926 0.11553 0.88140-0.98248
   0   4   1 439.112 96.3271   1 0.20932-0.19122-0.11867 0.45229 0.99246-0.89138
   0   4  -1 377.690 88.8390   6-0.14902 0.13085-0.11862 0.45282-0.99247 0.89104
   0  -4  -1 310.041 45.6455   7-0.58242 0.56396 0.09066-0.42402-0.89949 0.79867
  -2  -7  -2 -12.731 68.2520   4-0.20666 0.01816 0.04318-0.62830-0.99870 0.76838
  -2  -7  -2 21.4880 70.7525   9-0.06567-0.12227-0.60532 0.02131 0.76854-0.99807
   0   7  -2 -49.991 55.7212   6-0.18528 0.14893-0.01913 0.60402-0.99980 0.79688
   0  -7  -2 30.6830 54.7255   4-0.19840 0.16196 0.01905-0.60419-0.99965 0.79670
   0   7   2 -52.619 31.1544   6-0.35658 0.39325 0.59439-0.01145-0.77331 0.97514
   0  -7  -2 0.53819 98.9813   9-0.06060 0.02445-0.59608 0.01203 0.77669-0.97890
   0   7   2 19.8955 41.1775   1 0.19428-0.15803-0.01932 0.60315 0.99971-0.79756
   5  -8  -3 -301.80 493.387   4-0.15059 0.47621-0.11397-0.55469-0.99306 0.75700
  -5   8   3 -179.82 123.481   6-0.36049 0.03572 0.61641 0.04974-0.75362 0.98824
  -5   8   3 67.3729 183.366   1 0.16905-0.49383 0.12455 0.54283 0.99215-0.75723
   9   4   1 375.013 162.992   2 0.27080 0.43060 0.06301 0.27019 0.99362-0.76957
   6  -7  -3 245.818 187.171   4-0.15253 0.55425-0.10875-0.47630-0.99370 0.77133
  -6   7   3 -243.46 136.678   6-0.36040-0.04029 0.61588-0.03313-0.75412 0.97507
  -6   7   3 262.920 129.261   1 0.16949-0.57007 0.12222 0.46180 0.99244-0.77116
   4  -7  -3 289.331 710.779   4-0.19125 0.44088-0.00154-0.58371-0.99993 0.75018
  -4   7   3 -23.389 122.349   1 0.19097-0.43984 0.00096 0.58290 0.99994-0.75134
  -2  -8  -2 174.133 116.594   4-0.17491-0.01362-0.04765-0.62093-0.99885 0.76855
   2   8   2 2.91677 70.3996   1 0.18345 0.00449 0.04533 0.62194 0.99896-0.76951
  -2  -8  -2 70.1566 102.622   9-0.06668-0.12123-0.60714-0.06022 0.76690-0.99643
   2   8   2 58.2351 54.4559   2 0.24467-0.05651 0.03135 0.63515 0.99731-0.76797
  -8  -7  -1 195.292 128.355   3-0.33655-0.29023-0.11626-0.46887-0.97976 0.76837
   8   7   1 197.069 98.4917   2 0.32373 0.30169 0.12863 0.45465 0.98031-0.77004
  -1  -6  -2 -36.868 37.1315   4-0.23630 0.12386 0.13304-0.63469-0.98936 0.77269
  -1  -6  -2 -22.293 49.0278   9-0.06480-0.04727-0.60372 0.10307 0.76996-0.98584
   1   6   2 39.8871 45.0288   1 0.21093-0.09879-0.13013 0.63049 0.99096-0.77516
;
_shelx_hkl_checksum              64323
loop_
_space_group_symop_operation_xyz
'x, y, z'
'-x+1/2, y+1/2, -z'
'-x, -y, -z'
'x-1/2, -y-1/2, z'
loop_
_atom_site_label
_atom_site_type_symbol
_atom_site_fract_x
_atom_site_fract_y
_atom_site_fract_z
_atom_site_U_iso_or_equiv
_atom_site_adp_type
_atom_site_occupancy
_atom_site_site_symmetry_order
_atom_site_calc_flag
_atom_site_refinement_flags_posn
_atom_site_refinement_flags_adp
_atom_site_refinement_flags_occupancy
_atom_site_disorder_assembly
_atom_site_disorder_group
C1 C 0.6913(7) 0.2983(7) 0.784(3) 0.022(5) Uani 1 1 d . U . . .
H1D H 0.599382 0.246813 0.777594 0.027 Uiso 1 1 calc R U . . .
H1E H 0.720836 0.338383 0.912912 0.027 Uiso 1 1 calc R U . . .
C2 C 0.8000(8) 0.1807(7) 0.741(3) 0.020(5) Uani 1 1 d . U . . .
N1 N 0.6773(5) 0.4273(5) 0.650(2) 0.017(5) Uani 1 1 d . U . . .
H1A H 0.636378 0.392992 0.535402 0.021 Uiso 1 1 calc R U . . .
H1B H 0.763534 0.465949 0.644896 0.021 Uiso 1 1 calc R U . . .
H1C H 0.623268 0.502258 0.688119 0.021 Uiso 1 1 calc R U . . .
O1 O 0.4982(6) 0.8618(5) 0.958(2) 0.029(4) Uani 1 1 d . U . . .
H1 H 0.478097 0.955683 0.956252 0.035 Uiso 0.5 1 calc DR U P . .
O2 O 0.4642(5) 0.6432(5) 0.7181(18) 0.021(4) Uani 1 1 d . U . . .
O3 O 0.4393(5) 0.9250(5) 0.6117(18) 0.025(4) Uani 1 1 d . U . . .
H3 H 0.498826 0.974366 0.565284 0.030 Uiso 0.5 1 calc DR U P . .
O4 O 0.8626(5) 0.1941(5) 0.6157(18) 0.022(5) Uani 1 1 d . U . . .
O5 O 0.8150(5) 0.0611(5) 0.8662(18) 0.024(5) Uani 1 1 d . U . . .
H5 H 0.876328 0.000285 0.842144 0.029 Uiso 1 1 calc R U . . .
P1 P 0.5157(2) 0.81022(19) 0.7615(8) 0.017(4) Uani 1 1 d . U . . .
H1P H 0.618114 0.813457 0.756262 0.021 Uiso 1 1 calc R U . . .
loop_
_atom_site_aniso_label
_atom_site_aniso_U_11
_atom_site_aniso_U_22
_atom_site_aniso_U_33
_atom_site_aniso_U_23
_atom_site_aniso_U_13
_atom_site_aniso_U_12
C1 0.023(2) 0.022(2) 0.021(15) 0.002(4) 0.000(5) 0.004(2)
C2 0.019(2) 0.020(2) 0.021(15) 0.004(3) 0.002(4) 0.0026(19)
N1 0.019(3) 0.014(2) 0.018(16) -0.002(4) 0.000(5) -0.0007(18)
O1 0.053(3) 0.023(2) 0.013(12) 0.001(4) 0.010(5) 0.006(2)
O2 0.027(2) 0.0178(19) 0.017(12) -0.002(4) -0.001(4) -0.0032(17)
O3 0.028(2) 0.026(2) 0.020(12) 0.011(4) 0.003(4) 0.0068(17)
O4 0.025(2) 0.024(2) 0.019(15) 0.004(4) 0.005(5) 0.0043(17)
O5 0.028(2) 0.023(2) 0.022(15) 0.009(4) 0.005(5) 0.0090(17)
P1 0.0201(10) 0.0149(9) 0.017(11) 0.0006(15) 0.004(2) -0.0007(6)
loop_
_atom_type_symbol
_atom_type_description
_atom_type_scat_dispersion_real
_atom_type_scat_dispersion_imag
_atom_type_scat_source
C C 0.0033 0.0016 'International Tables Vol C Tables 4.2.6.8 and 6.1.1.4'
H H 0.0000 0.0000 'International Tables Vol C Tables 4.2.6.8 and 6.1.1.4'
N N 0.0061 0.0033 'International Tables Vol C Tables 4.2.6.8 and 6.1.1.4'
O O 0.0106 0.0060 'International Tables Vol C Tables 4.2.6.8 and 6.1.1.4'
P P 0.1023 0.0942 'International Tables Vol C Tables 4.2.6.8 and 6.1.1.4'
loop_
_geom_angle_atom_site_label_1
_geom_angle_atom_site_label_2
_geom_angle_atom_site_label_3
_geom_angle
_geom_angle_site_symmetry_1
_geom_angle_site_symmetry_3
_geom_angle_publ_flag
N1 C1 C2 110.7(12) . . ?
N1 C1 H1D 109.5 . . ?
C2 C1 H1D 109.5 . . ?
N1 C1 H1E 109.5 . . ?
C2 C1 H1E 109.5 . . ?
H1D C1 H1E 108.1 . . ?
O4 C2 O5 125.1(6) . . ?
O4 C2 C1 123.7(12) . . ?
O5 C2 C1 111.2(13) . . ?
C1 N1 H1A 109.5 . . ?
C1 N1 H1B 109.5 . . ?
H1A N1 H1B 109.5 . . ?
C1 N1 H1C 109.5 . . ?
H1A N1 H1C 109.5 . . ?
H1B N1 H1C 109.5 . . ?
P1 O1 H1 109.5 . . ?
P1 O3 H3 109.5 . . ?
C2 O5 H5 109.5 . . ?
O1 P1 O2 112.2(5) . . ?
O1 P1 O3 110.2(5) . . ?
O2 P1 O3 111.1(6) . . ?
O1 P1 H1P 107.7 . . ?
O2 P1 H1P 107.7 . . ?
O3 P1 H1P 107.7 . . ?
loop_
_geom_bond_atom_site_label_1
_geom_bond_atom_site_label_2
_geom_bond_distance
_geom_bond_site_symmetry_2
_geom_bond_publ_flag
C1 N1 1.445(15) . ?
C1 C2 1.508(11) . ?
C1 H1D 0.9700 . ?
C1 H1E 0.9700 . ?
C2 O4 1.166(17) . ?
C2 O5 1.343(15) . ?
N1 H1A 0.8900 . ?
N1 H1B 0.8900 . ?
N1 H1C 0.8900 . ?
O1 P1 1.506(15) . ?
O1 H1 0.8200 . ?
O2 P1 1.516(5) . ?
O3 P1 1.530(10) . ?
O3 H3 0.8200 . ?
O5 H5 0.8200 . ?
P1 H1P 0.9800 . ?
loop_
_geom_hbond_atom_site_label_D
_geom_hbond_atom_site_label_H
_geom_hbond_atom_site_label_A
_geom_hbond_distance_DH
_geom_hbond_distance_HA
_geom_hbond_distance_DA
_geom_hbond_angle_DHA
_geom_hbond_site_symmetry_A
_geom_hbond_publ_flag
N1 H1A O2 0.89 1.91 2.791(19) 169.8 3_666 yes
N1 H1B O3 0.89 1.96 2.845(6) 172.0 4_675 yes
N1 H1C O2 0.89 1.97 2.837(6) 164.5 . yes
O1 H1 O1 0.82 1.67 2.423(12) 152.1 3_677 yes
O3 H3 O3 0.82 1.71 2.480(17) 154.9 3_676 yes
O5 H5 O2 0.82 1.80 2.585(8) 160.2 4_665 yes
loop_
_geom_torsion_atom_site_label_1
_geom_torsion_atom_site_label_2
_geom_torsion_atom_site_label_3
_geom_torsion_atom_site_label_4
_geom_torsion
_geom_torsion_site_symmetry_1
_geom_torsion_site_symmetry_2
_geom_torsion_site_symmetry_3
_geom_torsion_site_symmetry_4
_geom_torsion_publ_flag
N1 C1 C2 O4 -0.2(18) . . . . ?
N1 C1 C2 O5 179.4(9) . . . . ?

_cod_database_fobs_code 2109033
