#------------------------------------------------------------------------------
#$Date: 2022-07-23 06:48:14 +0300 (Sat, 23 Jul 2022) $
#$Revision: 276890 $
#$URL: file:///home/coder/svn-repositories/cod/cif/2/10/90/2109025.cif $
#------------------------------------------------------------------------------
#
# This file is available in the Crystallography Open Database (COD),
# http://www.crystallography.net/. The original data for this entry
# were provided by IUCr Journals, http://journals.iucr.org/.
#
# The file may be used within the scientific community so long as
# proper attribution is given to the journal article from which the
# data were obtained.
#
data_2109025
loop_
_publ_author_name
'Cametti, Georgia'
'Nagashima, Mariko'
'Churakov, Sergey V.'
_publ_section_title
;
 Role of lone-pair electron localization in temperature-induced phase
 transitions in mimetite
;
_journal_issue                   4
_journal_name_full               'Acta Crystallographica Section B'
_journal_page_first
;
;
_journal_paper_doi               10.1107/S2052520622006254
_journal_volume                  78
_journal_year                    2022
_chemical_formula_sum            'As3 Cl O12 Pb5'
_chemical_formula_weight         1488.16
_chemical_name_common            mimetite
_space_group_crystal_system      hexagonal
_space_group_IT_number           176
_space_group_name_Hall           '-P 6c'
_space_group_name_H-M_alt        'P 63/m'
_atom_sites_solution_primary     direct
_atom_sites_solution_secondary   difmap
_audit_creation_method           SHELXL-2014
_cell_angle_alpha                90
_cell_angle_beta                 90
_cell_angle_gamma                120
_cell_formula_units_Z            2
_cell_length_a                   10.2722(3)
_cell_length_b                   10.2722(3)
_cell_length_c                   7.4537(3)
_cell_measurement_reflns_used    7991
_cell_measurement_temperature    393(2)
_cell_measurement_theta_max      29.1690
_cell_measurement_theta_min      2.7800
_cell_volume                     681.13(4)
_computing_cell_refinement       'CrysAlisPro 1.171.41.104a'
_computing_data_collection       'CrysAlisPro 1.171.41.104a'
_computing_data_reduction        'CrysAlisPro 1.171.41.104a'
_computing_structure_refinement  'SHELXL-2014 (Sheldrick, 2014)'
_computing_structure_solution    'SHELXS-2013 (Scheldrick, 2008)'
_diffrn_ambient_temperature      393(2)
_diffrn_detector_area_resol_mean 0.0000
_diffrn_measured_fraction_theta_full 1.000
_diffrn_measured_fraction_theta_max 0.908
_diffrn_measurement_device_type  'XtaLAB Synergy, Dualflex, Hypix'
_diffrn_measurement_method       'o scan'
_diffrn_radiation_type           AgK\a
_diffrn_radiation_wavelength     0.56087
_diffrn_reflns_av_R_equivalents  0.0381
_diffrn_reflns_av_unetI/netI     0.0198
_diffrn_reflns_Laue_measured_fraction_full 1.000
_diffrn_reflns_Laue_measured_fraction_max 0.908
_diffrn_reflns_limit_h_max       17
_diffrn_reflns_limit_h_min       -15
_diffrn_reflns_limit_k_max       17
_diffrn_reflns_limit_k_min       -17
_diffrn_reflns_limit_l_max       12
_diffrn_reflns_limit_l_min       -12
_diffrn_reflns_number            11659
_diffrn_reflns_point_group_measured_fraction_full 1.000
_diffrn_reflns_point_group_measured_fraction_max 0.908
_diffrn_reflns_theta_full        19.665
_diffrn_reflns_theta_max         29.196
_diffrn_reflns_theta_min         1.806
_diffrn_source                   'micro-focus sealed X-ray tube'
_exptl_absorpt_coefficient_mu    37.599
_exptl_absorpt_correction_T_max  1.000
_exptl_absorpt_correction_T_min  0.36744
_exptl_absorpt_correction_type   multi-scan
_exptl_absorpt_process_details   'SCALE 3 ABSPACK'
_exptl_crystal_colour            pale-orange
_exptl_crystal_density_diffrn    7.256
_exptl_crystal_description       fragment
_exptl_crystal_F_000             1244
_exptl_crystal_size_max          0.100
_exptl_crystal_size_mid          0.06
_exptl_crystal_size_min          0.04
_refine_diff_density_max         2.411
_refine_diff_density_min         -3.928
_refine_diff_density_rms         0.503
_refine_ls_extinction_method     none
_refine_ls_goodness_of_fit_ref   1.145
_refine_ls_hydrogen_treatment    undef
_refine_ls_matrix_type           full
_refine_ls_number_parameters     39
_refine_ls_number_reflns         1202
_refine_ls_number_restraints     0
_refine_ls_restrained_S_all      1.145
_refine_ls_R_factor_all          0.0317
_refine_ls_R_factor_gt           0.0265
_refine_ls_shift/su_max          0.000
_refine_ls_shift/su_mean         0.000
_refine_ls_structure_factor_coef Fsqd
_refine_ls_weighting_details
'w=1/[\s^2^(Fo^2^)+(0.0248P)^2^+4.3496P] where P=(Fo^2^+2Fc^2^)/3'
_refine_ls_weighting_scheme      calc
_refine_ls_wR_factor_gt          0.0581
_refine_ls_wR_factor_ref         0.0594
_reflns_Friedel_coverage         0.000
_reflns_number_gt                1060
_reflns_number_total             1202
_reflns_threshold_expression     'I > 2\s(I)'
_cod_data_source_file            tq5003sup1.cif
_cod_data_source_block           Mim393K
_cod_depositor_comments
;
The following automatic conversions were performed:

data item '_atom_sites_solution_secondary' value 'Difmap' was changed
to 'difmap' in accordance with the
/home/data/users/saulius/crontab/automatic-downloads/rss-feeds/IUCr/lib/dictionaries/cif_core.dic
dictionary named 'cif_core.dic' version 2.4.2 last updated on
2011-04-26.

Automatic conversion script
Id: cif_fix_values 7556 2019-12-06 15:28:31Z antanas 
;
_cod_original_cell_volume        681.13(5)
_cod_database_code               2109025
_shelx_space_group_comment
;
The symmetry employed for this shelxl refinement is uniquely defined
by the following loop, which should always be used as a source of
symmetry information in preference to the above space-group names.
They are only intended as comments.
;
_shelxl_version_number           2014-1
_shelx_res_file
;
TITL Mim4_393 in P6(3)/m
REM  transformed to space group : P63/m
REM P6(3)/m (#176 in standard setting)
CELL   0.56087 10.2722 10.2722  7.4537   90.000   90.000  120.000
ZERR   2        0.0003  0.0003  0.0003    0.000    0.000    0.000
LATT    1
SYMM   -X,-Y,1/2+Z
SYMM   -Y,+X-Y,+Z
SYMM   +Y,-X+Y,1/2+Z
SYMM   -X+Y,-X,+Z
SYMM   +X-Y,+X,1/2+Z
SFAC O Cl As Pb
UNIT 24.00 2.00 6.00 10.00
REM  CrysAlisPro recorded range (K): Min=392.9; max=393.1; aver:393.0
TEMP 120
L.S. 15
LIST 4
acta
FMAP 2
EQIV $10 1-x,-y,1-z
BOND
BIND PB1 O2
BIND PB1 O3_$10
PLAN 20
WGHT    0.024800    4.349600
FVAR       0.12889
MOLE 1
PB1   4    0.333333    0.666667    0.506732    10.33333    0.02495    0.02495 =
         0.01198    0.00000    0.00000    0.01247
PB2   4    0.005034    0.251692    0.250000    10.50000    0.01882    0.01445 =
         0.03684    0.00000    0.00000    0.00819
AS3   3    0.383611    0.408882    0.250000    10.50000    0.00976    0.01128 =
         0.01231    0.00000    0.00000    0.00559
O1    1    0.493459    0.330346    0.250000    10.50000    0.02524    0.03287 =
         0.01914    0.00000    0.00000    0.02367
O2    1    0.485273    0.598546    0.250000    10.50000    0.01737    0.01287 =
         0.07993    0.00000    0.00000    0.00384
O3    1    0.269095    0.358688    0.072012    11.00000    0.05542    0.06998 =
         0.04393   -0.04045   -0.03673    0.05008
CL    2    0.000000    0.000000    0.000000    10.16667    0.02533    0.02533 =
         0.02757    0.00000    0.00000    0.01267
HKLF 4

REM  Mim4_393 in P6(3)/m
REM R1 =  0.0265 for    1060 Fo > 4sig(Fo)  and  0.0317 for all    1202 data
REM     39 parameters refined using      0 restraints

END

WGHT      0.0248      4.3503

REM Highest difference peak  2.411,  deepest hole -3.928,  1-sigma level  0.503
Q1    1  -0.0128  0.2110  0.3062  11.00000  0.05    2.32
Q2    1   0.3333  0.6667  0.3759  10.33333  0.05    1.54
Q3    1   0.2534  0.3023  0.1260  11.00000  0.05    1.46
Q4    1   0.1367  0.1566  0.1934  11.00000  0.05    1.22
Q5    1   0.1483  0.3474  0.0873  11.00000  0.05    1.21
Q6    1   0.0625  0.2629  0.3874  11.00000  0.05    1.18
Q7    1   0.5536  0.4544  0.3548  11.00000  0.05    1.16
Q8    1   0.4757  0.5642  0.3119  11.00000  0.05    1.16
Q9    1   0.3343  0.4129  0.0575  11.00000  0.05    1.16
Q10   1   0.1962  0.3938 -0.0699  11.00000  0.05    1.15
Q11   1   0.1848  0.2624  0.0577  11.00000  0.05    1.11
Q12   1   0.1879  0.2265  0.1147  11.00000  0.05    1.06
Q13   1   0.3838  0.1884  0.2500  10.50000  0.05    1.06
Q14   1   0.4612  0.6710  0.3636  11.00000  0.05    1.05
Q15   1   0.0439  0.2049  0.4513  11.00000  0.05    1.05
Q16   1   0.2167  0.4552  0.1498  11.00000  0.05    1.04
Q17   1   0.2097  0.4198  0.0682  11.00000  0.05    1.04
Q18   1   0.5827  0.4108  0.2500  10.50000  0.05    1.03
Q19   1   0.5371  0.5777  0.3658  11.00000  0.05    1.00
Q20   1   0.6150  0.5975  0.3496  11.00000  0.05    0.99
;
_shelx_res_checksum              43957
_shelx_hkl_file
;
   0   0   1 0.38873 0.20477   4
   0   0   2 1322.41 36.9135   4
   0   0   3 0.70727 0.47871   1
   0   0   3 0.51608 0.61113   4
   0   0  -4 6464.82 178.257   4
   0   0   4 6605.10 177.645   1
   0   0   5-0.16494 0.76581   1
   0   0  -5 0.42446 1.00489   4
   0   0  -6 407.271 11.6187   3
   0   0   6 402.077 13.7937   1
   0   0  -7-0.87249 1.70806   4
   0   0   7-0.22497 1.23596   1
   0   0  -8 1779.02 53.0153   4
   0   0  -9 1.07500 2.25696   4
   0   0 -10 10.4417 2.85824   4
   0   0  10 6.28969 2.29355   1
   0   0 -11-1.64778 2.73180   4
   0   0  11 0.59432 2.11953   1
   0   0  12 309.777 12.6258   1
   0   0 -12 304.548 13.9485   4
   1   0   0 22.6780 1.08791   2
   1  -1  -1 3.12680 0.49445   1
  -1   1   1 8.16467 0.73931   4
   1   0  -1 3.86318 0.56159   1
  -1   1   1 4.76958 0.50846   3
   0   1   1 4.37246 0.56798   4
  -1   1   2 655.179 18.0291   3
   1   0  -2 619.507 18.7779   1
   1  -1  -2 656.808 18.4485   1
  -1   0   2 647.656 18.6927   4
   0  -1   2 644.085 18.3600   4
  -1   1   2 651.901 19.0793   4
   0   1   2 645.828 19.0980   4
  -1   1   3 11.5956 1.16015   1
  -1   0   3 9.06523 1.23278   1
   1  -1  -3 12.3222 0.87198   3
   1   0  -3 10.9700 1.25822   1
   0   1   3 12.4496 0.97822   1
  -1   1   3 10.4012 1.32898   4
   0   1   3 10.7218 1.38215   4
  -1   1  -3 11.0881 1.23517   4
  -1   0   3 13.0077 1.39442   4
   0   1  -3 11.3756 1.13970   4
   0  -1   4 31.1786 2.37341   1
   0   1   4 26.1722 1.76791   1
  -1   0   4 24.7065 2.13306   1
   1  -1  -4 24.8030 1.36419   3
  -1   1   4 24.7446 1.96260   1
   0   1  -4 24.1635 2.03371   4
  -1   1   4 27.5048 2.39715   4
  -1   1  -4 25.8120 2.19251   4
   1   0  -4 21.3753 1.99804   4
  -1   0   4 19.9215 1.98078   4
   0   1   5 9.74567 1.32008   1
   0  -1   5 8.70596 1.55901   1
   1  -1  -5 9.27987 1.70135   4
   0   1  -5 6.40532 1.32313   4
  -1   1   5 9.66431 1.79379   4
   0  -1  -5 9.65354 1.82155   4
  -1   0   5 11.3059 1.69501   4
  -1   1  -5 5.79806 1.33824   4
   1   0  -5 9.67396 1.59736   4
  -1   0  -5 8.87786 1.65634   4
   1  -1  -5 10.7564 0.90557   3
   1   0   5 9.43686 1.32658   1
  -1   0   5 20.8887 2.14622   1
  -1   1   5 11.4440 1.53517   1
   1   0   6 243.198 9.00833   1
   1  -1   6 244.102 9.51548   1
   0  -1   6 230.974 9.61238   1
  -1   0   6 247.872 9.73164   1
   0   1   6 259.914 9.05257   1
  -1   1   6 241.279 9.40522   1
   0  -1  -6 240.763 7.87787   3
   1  -1  -6 252.977 7.59497   3
  -1   1   6 237.495 10.1499   4
   0   1  -6 241.908 9.73397   4
  -1   0   6 240.968 9.92469   4
   0  -1  -7 30.6819 3.40500   4
  -1   0  -7 37.9626 3.58280   4
  -1   1  -7 37.8935 3.47920   4
   1   0  -7 28.0564 3.11315   4
   1  -1  -7 40.3669 3.68995   4
   0  -1  -7 34.8145 1.98775   3
   1   0   7 30.7793 2.69697   1
  -1   1   7 33.2711 2.99581   1
   0   1   7 34.3834 2.89267   1
   0  -1  -8 27.4846 1.66637   3
  -1   0  -8 23.9729 1.59501   3
   1   0  -8 20.5540 3.10754   4
   1  -1  -8 18.6569 3.08799   4
  -1   1  -8 20.3740 3.06389   4
  -1   0  -8 21.5350 3.17373   4
   0  -1  -8 23.3024 3.37034   4
   0   1  -8 25.8129 3.25363   4
   1   0   8 22.5638 2.54762   1
   0   1   8 25.5610 2.72101   1
   0  -1   8 21.4345 2.96229   1
  -1   0  -9 27.6486 3.75711   4
  -1   1  -9 25.4142 3.53954   4
   0  -1  -9 20.7564 3.40305   4
   1  -1   9 17.3145 2.82143   1
   0  -1   9 17.7399 2.89080   1
   1   0  -9 27.3437 3.72676   4
   1  -1  -9 16.0738 3.24444   4
   0   1  -9 23.5587 3.43983   4
  -1   0  -9 27.2308 1.37050   3
   0   1   9 22.0731 2.75579   1
  -1   0   9 22.2283 3.09830   1
   1  -1  10 45.3812 4.09413   1
   1   0  10 45.2450 3.81723   1
   0  -1  10 39.7330 4.00139   1
  -1   0  10 41.1092 4.29593   1
  -1   1  10 40.8017 4.11770   1
   1  -1 -10 42.0021 4.73683   4
  -1   0 -10 38.7996 4.64860   4
   0  -1 -10 34.6327 4.51464   4
  -1   1 -10 33.1453 4.20766   4
   1   0 -10 42.1034 4.61499   4
   0   1 -10 45.7660 4.72789   4
   1   0  11 15.4216 2.81348   1
   0   1  11 25.5952 3.26688   1
   1  -1  11 27.6093 3.45628   1
   0  -1  11 22.9939 3.49159   1
  -1   0  11 19.4756 3.56684   1
   1  -1 -11 27.8420 4.40482   4
   0   1 -11 24.0119 3.92145   4
  -1   1 -11 24.4458 4.00736   4
   0  -1 -11 23.1879 4.31963   4
   1   0 -11 25.4242 4.13669   4
  -1   1  11 24.7302 3.58011   1
  -1   0 -11 19.9754 3.83549   4
  -1   0  12 13.2266 3.24450   1
   0  -1  12 11.9510 3.30853   1
   1  -1  12 12.0189 3.01097   1
   0   1 -12 11.4136 3.54047   4
  -1   1 -12 14.7811 3.93975   4
  -1  -1   0 89.9457 3.37023   1
   1   1   0 93.2929 3.30299   2
  -1   2   0 91.2946 3.55296   3
   2  -1   0 92.6794 4.17146   1
  -1   2   1 356.638 10.4086   4
   1  -2  -1 328.443 10.2774   4
  -1  -1  -1 328.686 9.74237   1
   2  -1  -1 338.066 10.7732   1
   2  -1  -1 338.829 9.55381   2
  -1  -1  -1 327.798 10.2434   2
   1   1  -1 327.128 10.3889   1
  -1   2   1 337.519 10.1564   3
   1  -2   1 329.165 10.2853   3
   1   1  -2 3126.69 88.9767   1
  -1   2  -2 3154.92 88.5505   3
   2  -1  -2 3303.94 88.9290   1
  -1   2   2 3277.42 87.7107   2
  -2   1   2 3274.60 88.7099   4
   1  -2  -2 3406.32 87.9754   1
  -1   2   2 3028.24 88.6116   1
  -1   2   2 3472.99 89.3246   4
  -1  -1   2 3144.06 87.9577   4
  -1   2  -3 449.900 13.6094   3
  -2   1   3 431.014 14.2809   1
   1   1  -3 431.196 13.5389   4
  -1   2   3 444.710 13.5470   1
   1  -2  -3 443.617 13.3646   3
  -2   1   3 443.324 12.8118   3
   2  -1  -3 451.424 14.0195   1
   1  -2  -3 461.395 13.0094   1
  -1   2  -3 434.820 13.4583   4
  -2   1   3 456.959 14.2338   4
  -1   2   3 440.994 14.5607   4
  -1  -1   3 462.114 13.6433   4
  -1   2  -4 152.735 5.47200   3
  -2   1   4 145.923 6.33636   1
   2  -1  -4 148.165 6.47741   4
   1   1  -4 143.344 5.92101   4
  -1   2   4 139.804 5.53152   1
   1  -2  -4 153.778 5.38443   3
   1  -2  -4 148.250 5.24317   1
  -1  -1   4 148.230 6.55489   1
   2  -1  -4 151.018 6.05494   1
  -1   2  -4 143.145 5.82603   4
  -1  -1   4 155.244 6.00227   4
  -2   1   4 151.298 6.52580   4
  -1   2   4 141.489 6.59856   4
  -1   2  -5 76.1945 3.25632   3
   2  -1  -5 71.7181 4.48454   4
   1   1  -5 74.6849 4.21698   4
   1  -2  -5 77.7083 3.41486   3
   2  -1  -5 73.0512 4.02769   1
   1   1   5 75.6437 3.39807   1
  -1  -1   5 74.5044 4.48170   1
  -2   1   5 75.6465 4.42299   1
  -1   2   5 78.8563 3.86690   1
  -2   1   5 83.2252 4.75144   4
  -1   2   5 72.9339 4.70080   4
  -1   2  -5 74.2572 4.06737   4
  -1  -1   5 74.8280 4.18634   4
  -2   1  -5 71.1518 4.36226   4
   1   1  -6 1450.84 42.2619   4
  -1   2  -6 1430.36 39.7050   3
   1  -2  -6 1467.23 40.4301   3
   1   1   6 1402.23 40.8435   1
  -1   2   6 1437.80 41.5257   1
  -2   1   6 1418.92 42.5169   1
  -1  -1  -6 1446.95 43.1629   4
  -1   2   6 1456.09 43.3559   4
  -2   1   6 1479.59 43.0036   4
  -1  -1   6 1468.97 42.1582   4
  -1   2  -6 1416.67 42.1546   4
   1  -2  -6 1434.67 43.1502   4
   1  -2  -7 25.7763 3.23053   4
  -1  -1  -7 28.2617 3.33833   4
   2  -1  -7 25.7092 3.18345   4
   1  -2  -7 28.7793 1.99255   3
   2  -1   7 34.9088 2.96279   1
   1   1   7 27.2154 2.33480   1
  -2   1  -7 28.0755 3.20166   4
  -2   1   7 27.9256 3.34111   4
  -1   2   7 30.4815 2.83577   1
   1   1   8 80.6469 4.53732   1
  -1   2   8 90.5791 5.12170   1
  -1  -1   8 87.4932 5.67273   1
   2  -1  -8 89.1419 5.95821   4
   1   1  -8 104.677 5.93540   4
   1  -2   8 95.0131 5.70462   1
  -2   1  -8 78.0625 5.58002   4
  -1   2  -8 74.0092 5.20842   4
   1  -2  -8 82.5203 5.90017   4
  -1  -1  -8 68.4271 5.51445   4
   1  -2  -8 90.8439 3.71238   3
  -1  -1  -9 6.50937 1.25107   3
   2  -1   9 3.53743 1.86658   1
   1  -2   9 3.73314 2.06685   1
  -1  -1  -9 1.16087 2.21860   4
  -1   2  -9 5.15735 2.20312   4
  -2   1  -9 6.84108 2.48276   4
  -1   2   9 3.57391 1.87078   1
  -1  -1   9 8.30632 2.60273   1
  -2   1   9 3.91113 2.24806   1
   1   1   9 4.67127 1.60524   1
   2  -1  -9 6.55572 2.34649   4
   1  -2  -9 3.51757 2.54363   4
   1   1  -9 2.63019 2.02902   4
  -1  -1  10 344.693 13.7746   1
   1   1  10 336.863 12.0051   1
  -1  -1 -10 329.040 10.0310   3
  -2   1  10 336.786 13.6790   1
   1   1 -10 344.292 13.8380   4
   1  -2 -10 334.246 14.4814   4
  -1  -1 -10 335.554 14.5054   4
  -2   1 -10 309.542 13.7707   4
  -1   2 -10 315.906 13.4477   4
   2  -1  10 314.238 12.4983   1
   1  -2  10 324.104 13.3054   1
   2  -1  11 0.81705 2.07019   1
  -1  -1  11 1.43261 2.51097   1
   1  -2  11 0.67100 2.31052   1
  -2   1  11 0.70573 2.43013   1
   1  -2 -11 2.21802 2.97050   4
  -1   2 -11 1.11556 2.82646   4
  -2   1 -11-0.40430 2.75889   4
  -1  -1 -11-0.43514 2.85727   4
   2  -1  12 25.3829 3.39462   1
  -1  -1  12 23.5595 4.00344   1
   1  -2  12 26.9745 3.83120   1
  -1   2 -12 28.7601 4.26946   4
  -2   1  12 36.9265 4.45957   1
  -2   1 -12 38.7520 4.84873   4
   2   0   0 521.170 15.3784   2
   2   0   0 517.668 15.9351   1
  -2   0   0 522.752 15.9163   1
   0  -2   0 537.564 14.9049   4
  -2   2   0 520.514 16.1163   3
   2  -2  -1 59.8954 3.05599   1
  -2   0  -1 59.7823 2.93776   1
   0  -2   1 57.5199 2.40801   3
  -2   2   1 59.6019 2.85820   3
   2   0  -1 59.6307 2.34849   2
   0  -2  -1 53.3263 2.23685   2
   2   0   1 59.5588 3.29656   2
   0  -2  -1 52.3166 2.57094   4
   2   0  -1 51.8568 2.83091   1
   2   0  -2 118.888 4.80982   1
   0   2   2 106.728 4.13766   2
   2   0   2 107.475 4.70083   1
   2  -2  -2 118.323 4.56834   1
  -2   2   2 103.676 4.15545   3
   0  -2   2 112.841 3.90373   3
   0   2   2 110.342 4.72730   4
   0   2  -2 107.974 3.52634   4
  -2   2   2 117.240 4.70439   4
   2  -2  -3 20.6704 1.59719   1
  -2   0   3 19.5388 1.62228   4
   0   2  -3 20.8176 1.38644   4
  -2   2   3 16.6231 1.81471   4
  -2   2   3 19.2712 1.90114   1
  -2   2   3 18.9607 1.32956   3
   0  -2   3 21.6077 1.26217   3
   2  -2  -3 19.4788 1.58392   3
   2   0  -3 17.4521 1.77396   1
   0   2  -4 228.695 8.23448   4
  -2   2   4 244.198 9.39496   4
  -2   0   4 272.825 9.06819   4
  -2   2   4 230.868 8.85561   1
   2  -2  -4 242.678 8.31942   1
   2   0  -4 225.663 8.89442   1
   0  -2   4 249.618 9.43019   1
  -2   0   4 223.218 9.12553   1
   0   2   4 240.216 7.47801   1
   2  -2  -4 253.148 8.22452   3
  -2   2   5 67.8174 4.47969   4
   0   2  -5 68.1376 3.80644   4
  -2   2  -5 69.6690 4.05268   4
  -2   0   5 78.7940 4.35691   4
  -2   2   5 68.4920 4.04601   1
   2  -2  -5 72.4974 3.69903   1
   0  -2   5 66.7450 4.34519   1
   0   2   5 68.4232 3.12721   1
  -2   0   5 70.8481 4.41974   1
   2  -2  -5 72.8951 3.39461   3
   0   2   6 45.6221 2.78965   1
  -2   0  -6 54.7724 4.17621   4
   0   2  -6 46.9124 3.40444   4
   0  -2  -6 48.0615 4.08492   4
  -2   0   6 51.3379 3.77484   4
  -2   2   6 54.6834 4.23557   4
   0  -2  -6 50.0551 2.79786   3
   2  -2  -6 45.8170 3.94083   4
   2  -2  -6 60.6966 2.92235   3
  -2   2   6 48.1929 3.63401   1
   2   0   7 11.7817 1.74495   1
   0  -2   7 13.6046 2.50057   1
   0   2   7 12.1109 1.66831   1
   2   0  -7 15.4840 2.46122   4
   0  -2  -7 13.9594 1.48907   3
   2  -2  -7 18.7418 2.86618   4
  -2   2   7 14.0988 2.19425   1
  -2   2  -7 11.6730 2.26535   4
  -2   0  -7 14.4162 2.49190   4
  -2   0   7 11.5701 2.19621   4
  -2   2   7 8.13359 2.26533   4
   0  -2  -7 6.59066 2.21073   4
  -2   2  -8 59.5566 3.03657   3
   0   2   8 74.5793 4.02934   1
  -2   0   8 56.4975 4.64746   1
  -2   2  -8 55.5877 4.51148   4
  -2   0  -8 61.6383 5.05617   4
   0  -2  -8 56.9546 5.04894   4
   0   2  -8 66.5801 4.62461   4
  -2   2   8 58.2340 4.37512   1
   0  -2  -8 61.8827 3.22824   3
   2  -2   8 56.8535 4.37041   1
   0  -2   8 67.6295 4.88773   1
   2   0   8 58.5219 3.80166   1
   2  -2  -8 56.8264 4.93668   4
  -2   2  -9 32.5435 3.83606   4
   0  -2  -9 31.0114 4.23237   4
  -2   0  -9 30.2290 3.97026   4
   0   2   9 29.7234 2.93902   1
  -2   0   9 28.7330 3.54163   1
   0  -2  -9 36.0134 2.29698   3
   0   2  -9 30.8396 3.71534   4
   2  -2  -9 28.7059 4.07052   4
   2  -2   9 33.8344 3.51405   1
   0  -2   9 32.2747 3.79255   1
  -2   0  10 41.6745 4.48983   1
  -2   0 -10 30.3529 4.27544   4
   0  -2 -10 34.4507 4.58582   4
  -2   2 -10 29.7497 3.98620   4
   0  -2  10 31.4393 4.07263   1
  -2   2  10 42.8665 4.21086   1
   0   2  10 31.7730 3.17799   1
   0  -2 -10 33.1358 2.02107   3
  -2   0 -10 41.3380 2.23064   3
   2  -2 -10 37.2534 4.62909   4
   0   2 -10 30.3258 3.90185   4
   2  -2  10 40.0143 4.08371   1
   2  -2  11 13.5656 2.99093   1
   0  -2 -11 7.15306 3.17837   4
   0   2 -11 9.56220 2.95945   4
  -2   2  11 14.7377 3.20371   1
   0   2  11 12.7636 2.51639   1
  -2   0 -11 16.1966 3.76888   4
  -2   2 -11 14.4319 3.52407   4
   2   0  11 12.0155 2.42097   1
  -2   0  11 10.1088 3.20300   1
   0  -2  11 12.6862 3.27947   1
  -2   0  12 7.15491 3.09545   1
  -2   2 -12 6.28818 3.50673   4
   2  -2  12 7.86395 2.89922   1
   0  -2  12 9.89890 3.23656   1
   1   2   0 1151.12 33.9663   2
   3  -1   0 1285.19 35.9453   1
  -1  -2   0 1231.46 34.1512   1
  -2   3   0 1215.98 34.8654   3
   3  -1   0 1235.99 34.6331   2
  -1  -2   0 1225.90 33.9566   2
  -2   3   1 2208.78 59.1245   3
   2  -3   1 2080.67 59.4121   3
  -1  -2  -1 2112.14 58.0849   1
   3  -1  -1 2154.26 58.2215   2
  -1  -2  -1 2071.47 58.5416   2
  -3   1  -1 2092.73 59.7942   1
   3  -1  -1 2184.60 59.9316   1
  -1  -2   1 2146.72 59.1606   1
   1   2   1 2144.65 58.1116   1
   1   2  -1 2082.87 59.1031   1
  -1  -2  -2 1.16075 0.68958   2
  -2   3   2 3.56901 0.78701   3
   2  -3  -2 1.20945 0.69391   1
   3  -1  -2 0.67141 0.66295   1
  -3   1   2 2.15746 0.49017   2
  -2   3   2 2.13293 0.83828   4
  -3   1   3 1287.42 36.2011   4
  -1  -2   3 1224.83 34.8186   3
  -2   3   3 1288.31 35.6578   3
   2  -3  -3 1253.64 35.9828   3
  -2   3  -3 1269.37 36.7628   3
  -3   1   3 1233.43 35.1050   2
   1   2   3 1248.63 37.2018   2
  -1  -2   3 1285.13 35.1559   4
  -2   3   3 1294.68 37.0934   4
   2  -3  -3 1288.99 35.5110   1
   3  -1  -3 1278.40 36.7009   1
  -2   3   3 1234.59 37.2006   1
  -1  -2   4 589.274 16.7672   3
  -2   3  -4 601.384 18.8166   3
  -3   1   4 602.044 17.0752   3
  -3   1   4 603.377 19.6549   1
   2  -3  -4 612.069 17.6533   1
  -3   1   4 605.574 18.8202   4
  -1  -2   4 609.977 17.8894   4
  -2   3   4 617.449 19.6692   4
   3  -1  -4 574.467 18.9550   1
   2  -3  -4 570.357 18.0807   3
  -2   3   4 580.622 19.0963   1
   1   2   5 1078.21 30.0952   1
  -3   1   5 1039.77 33.1564   1
  -2   3  -5 1116.05 31.9315   4
  -3   1   5 1064.01 32.5495   4
  -1  -2   5 1082.57 31.6226   4
  -2   3   5 1093.98 33.4364   4
   2  -3  -5 1133.01 31.4970   3
  -2   3  -5 1091.19 31.8242   3
   3  -1  -5 1067.88 32.4054   1
   2  -3  -5 1089.98 31.0006   1
  -2   3   5 1064.58 32.3535   1
  -2   3   6 0.22145 1.28437   1
  -2   3  -6 0.14134 0.78773   3
   2  -3  -6 0.87214 1.03697   3
   1   2   6 1.25898 0.73305   1
  -3   1  -6 0.27449 1.52945   4
  -2   3   6 2.20035 1.62529   4
  -3   1   6 2.08047 1.67320   4
  -2   3  -6 0.20969 1.16848   4
   3  -1  -6 0.69632 1.27525   1
   2  -3  -6 1.81346 1.56278   4
   1   2  -6 0.61105 1.16611   4
   1   2   7 170.819 6.37040   1
  -1  -2  -7 175.613 8.95531   4
   2  -3  -7 177.756 8.89645   4
  -3   1   7 169.163 8.33824   4
  -2   3   7 186.563 9.19854   4
  -3   1  -7 170.486 8.46829   4
  -2   3   7 181.543 8.01064   1
  -1  -2   7 177.021 8.74217   1
  -2   3  -7 169.515 6.28795   3
   2  -3  -7 195.145 7.00025   3
   2  -3  -8 170.199 6.46242   3
   1   2   8 171.740 6.49137   1
  -1  -2   8 164.982 8.59754   1
  -3   1   8 174.944 8.87239   1
  -1  -2  -8 179.024 9.16037   4
  -3   1  -8 171.505 8.67566   4
  -2   3  -8 167.916 8.04726   4
  -3   1   8 162.195 8.34969   4
  -2   3   8 154.446 7.66291   1
   2  -3  -8 173.882 9.09305   4
   2  -3   8 173.934 8.40565   1
  -2   3  -8 161.388 5.48061   3
  -1  -2   9 259.636 11.8178   1
   1   2   9 278.200 9.60649   1
  -3   1  -9 260.008 12.0221   4
  -1  -2  -9 264.142 12.4024   4
  -2   3  -9 270.211 11.4970   4
  -3   1   9 256.215 11.7791   4
  -3   1   9 268.287 12.0450   1
  -2   3   9 287.914 11.3368   1
  -1  -2  -9 272.506 9.40823   3
   2  -3   9 275.617 11.6592   1
   2  -3  -9 272.448 12.5868   4
   2  -3  10 2.75017 2.47466   1
   3  -1  10 5.42873 2.20005   1
   2  -3 -10 5.17842 3.23220   4
  -1  -2  10 1.13636 2.41342   1
  -1  -2 -10 4.45898 1.45966   3
   1   2  10 4.09755 1.68399   1
  -3   1  10 5.01200 2.75168   1
  -2   3  10 2.04706 2.14051   1
  -3   1 -10 3.60637 2.81098   4
  -2   3 -10 3.36041 2.29518   4
  -1  -2 -10 3.05437 2.97908   4
  -3   1 -11 5.78419 3.04677   4
  -1  -2 -11 2.71721 2.94538   4
  -2   3 -11 3.90517 2.55551   4
  -3   1 -11 3.50496 0.86268   3
  -1  -2 -11 5.48613 1.35420   3
  -3   1 -11 2.16907 0.92439   3
   2  -3  11 3.89103 2.60905   1
   3  -1  11 4.50491 2.24341   1
  -3   1  11 4.38226 2.72030   1
   1   2  11 5.42758 1.82988   1
  -1  -2  11 3.89709 2.82812   1
   2  -3 -11 6.71334 3.32625   4
  -3   1  12 36.6722 4.86899   1
  -2   3 -12 25.3340 3.97553   4
   2  -3  12 20.2815 4.10322   1
  -1  -2  12 22.4471 4.07947   1
   3  -2   0 755.114 24.1011   1
   2   1   0 794.021 22.5382   2
   1  -3   0 804.638 22.1062   4
  -1   3   0 774.309 22.7309   3
  -2  -1   0 771.371 22.8420   1
   1  -3   1 1540.05 43.1604   3
  -1   3   1 1529.87 43.1764   3
   3  -2  -1 1517.24 44.4082   1
   2   1  -1 1534.22 42.8710   2
   1  -3  -1 1595.43 42.2521   2
  -2  -1  -1 1511.47 43.3670   2
   2   1   1 1463.46 43.4124   2
   3  -2  -1 1545.25 42.4489   2
  -2  -1  -1 1503.16 43.0814   1
   1  -3  -1 1607.05 43.2115   4
   2   1  -1 1573.41 43.6686   1
  -1   3  -2 50.8948 2.67581   3
   1  -3   2 47.5470 2.61819   3
  -3   2   2 53.7466 2.94027   3
  -1   3   2 50.9477 2.06017   2
   3  -2  -2 55.5026 1.95516   2
   1  -3  -2 53.9001 2.18114   2
  -3   2   2 55.9129 2.13947   2
   1  -3  -2 52.4356 2.36018   1
  -2  -1  -2 54.2740 2.58427   1
   2   1   2 50.7000 2.82083   1
   3  -2  -2 52.0709 3.15019   1
   1  -3  -2 49.7220 2.99575   4
  -1   3   2 52.7097 3.13363   4
   2   1  -2 51.8625 3.12788   1
   2   1   3 1443.89 41.9466   1
  -1   3  -3 1489.78 40.5576   4
  -3   2   3 1516.86 42.1714   4
  -1   3   3 1469.65 42.6175   4
  -3   2   3 1458.95 42.8234   1
  -2  -1   3 1447.18 41.0547   4
   1  -3  -3 1434.40 41.3263   3
  -1   3  -3 1482.06 41.1185   3
  -3   2   3 1458.47 41.0663   3
  -3   2   3 1488.35 40.1720   2
  -1   3   3 1449.84 40.6258   2
   1  -3  -3 1470.88 40.1489   1
   3  -2  -3 1488.82 41.9526   1
   2   1  -3 1429.68 42.2495   1
  -1   3   4 629.324 18.2386   1
   3  -2  -4 601.190 18.5450   1
  -2  -1   4 598.030 19.3744   1
  -3   2   4 587.176 19.4271   1
  -3   2   4 614.632 19.1458   4
  -2  -1   4 580.781 18.0480   4
  -1   3   4 588.644 19.4775   4
  -1   3  -4 582.765 17.6486   4
  -1   3   4 618.367 18.3224   2
  -3   2   4 583.963 17.2228   3
   1  -3  -4 599.254 17.9820   3
  -1   3  -4 587.013 17.4363   3
   2   1  -4 558.852 18.9728   1
   1  -3  -4 586.073 16.7540   1
  -3   2   5 453.764 15.6650   4
  -2  -1   5 433.097 14.6986   4
  -1   3  -5 468.972 14.4872   4
  -1   3   5 433.341 15.9318   4
   3  -2  -5 437.557 14.8190   1
  -1   3  -5 451.409 13.3038   3
   1  -3  -5 446.960 14.1090   3
  -3   2   5 430.996 15.5611   1
  -1   3   5 438.533 14.1649   1
  -1   3  -6 10.7351 0.97017   3
   1  -3  -6 8.52848 1.46689   3
   3  -2  -6 10.0410 1.85319   1
  -2  -1   6 10.7637 1.80499   4
  -2  -1  -6 8.67343 2.05579   4
  -1   3  -6 7.54382 1.55446   4
  -3   2   6 5.08868 1.77829   4
  -1   3   6 6.37119 2.02147   4
  -3   2   6 7.33426 1.86865   1
  -1   3   6 9.65710 1.51491   1
   2   1   6 11.2226 1.33838   1
  -3   2  -7 479.932 16.9763   4
  -3   2   7 470.367 17.3167   4
  -2  -1  -7 468.850 17.4745   4
  -2  -1   7 485.483 16.5716   4
   1  -3  -7 484.176 17.7582   4
  -1   3   7 465.158 15.4676   1
   2   1   7 468.424 14.8896   1
   1  -3   7 449.205 16.9222   1
  -2  -1   7 507.455 17.6474   1
   1  -3  -7 482.460 15.0677   3
  -3   2  -8 151.051 7.84224   4
  -1   3  -8 142.324 7.24152   4
   1  -3  -8 149.582 8.38976   4
  -3   2   8 142.168 7.96267   4
  -2  -1  -8 148.800 8.34525   4
   2   1   8 146.391 6.13817   1
   1  -3   8 136.250 7.63702   1
   1  -3  -8 161.536 6.19845   3
  -1   3   8 158.540 6.80275   1
  -2  -1   8 145.522 8.04447   1
   3  -2   9 28.5876 3.20049   1
   2   1   9 30.7504 2.65975   1
   1  -3   9 35.3398 3.92124   1
  -1   3   9 36.1768 3.11252   1
  -2  -1   9 27.4875 3.83308   1
   1  -3  -9 30.9098 2.38966   3
  -1   3  -9 28.5082 3.38759   4
  -2  -1  -9 30.6986 4.17370   4
  -3   2   9 33.0285 3.96425   4
  -3   2  -9 27.1931 3.68553   4
  -3   2   9 32.6841 4.12666   1
   1  -3  -9 26.1454 3.95527   4
   1  -3 -10 13.5588 3.44038   4
  -1   3 -10 14.8887 3.11443   4
  -2  -1 -10 15.0212 1.86493   3
  -3   2 -10 11.2750 1.49302   3
  -2  -1  10 14.0420 3.24911   1
   2   1  10 11.8556 2.06642   1
  -1   3  10 13.6128 2.51159   1
  -3   2  10 15.8202 3.55008   1
  -2  -1 -10 14.0246 3.32056   4
  -3   2 -10 12.7893 3.08526   4
   1  -3  10 11.9546 2.97281   1
   3  -2  10 14.6795 3.00901   1
  -2  -1 -11 101.972 3.99776   3
  -2  -1  11 98.0186 6.99088   1
   2   1  11 101.641 5.09316   1
   1  -3  11 93.0294 6.86058   1
  -2  -1 -11 89.9342 7.14444   4
  -3   2 -11 92.5296 6.87015   4
  -3   2  11 94.2232 6.79038   1
  -1   3 -11 87.9714 6.32841   4
   1  -3 -11 85.8206 7.04591   4
   3  -2  11 89.3104 6.05775   1
  -1   3  11 90.0859 5.24444   1
   3  -2  12 15.7921 3.28199   1
   1  -3  12 14.6855 3.68795   1
  -2  -1  12 12.4835 3.56884   1
  -1   3 -12 12.4981 3.19890   4
  -3   2 -12 18.0764 3.84207   4
   3   0   0 3665.81 101.974   2
   0  -3   0 3827.91 101.262   4
  -3   0   0 3692.03 102.876   1
   0  -3   0 3728.01 101.531   2
  -3   3   0 3647.67 103.091   3
   3   0  -1 43.9031 2.95848   1
   3  -3  -1 45.5945 3.15750   1
  -3   0  -1 44.5702 2.94111   1
   3   0   1 48.7904 3.16289   2
   3   0  -1 49.9582 2.41572   2
   0  -3  -1 46.8898 2.21388   2
   0  -3   1 47.0572 2.45808   3
   0  -3  -1 45.8589 2.54686   4
  -3   3   1 49.8294 3.03262   3
   0  -3  -2 199.169 7.61122   4
  -3   3   2 215.109 7.61948   4
   0  -3   2 203.767 6.90644   3
  -3   3   2 206.604 7.46493   3
   3  -3  -2 212.905 8.13547   3
   3   0  -2 201.876 7.90921   1
   0  -3  -2 201.210 6.83968   2
   0   3   2 203.383 6.77713   2
  -3   0   2 198.270 6.84382   2
   0  -3  -2 202.906 6.02034   1
  -3   3   2 195.915 8.90751   1
   3   0   2 208.915 8.63005   1
   3  -3  -2 196.451 7.82900   1
   3   0  -3 31.7019 2.68769   1
  -3   3   3 28.8137 2.07081   3
   0  -3   3 34.6223 1.97509   3
   3  -3  -3 32.4100 2.62827   3
  -3   0   3 32.3190 2.06135   2
   0   3   3 30.2334 2.07580   2
   3   0   3 39.2311 3.08479   1
   3  -3  -3 30.1131 2.32483   1
  -3   3   3 33.7991 2.66444   4
  -3   3   3 33.4961 3.12724   1
   0  -3   4 1969.26 57.1065   3
   3  -3  -4 2164.37 58.7990   3
  -3   3   4 1999.43 59.8385   1
   0   3   4 2085.42 58.7353   2
   3   0  -4 2081.42 59.2253   1
   3  -3  -4 2100.89 58.1661   1
  -3   0   4 2092.36 59.7164   1
  -3   0   4 2117.66 58.3682   4
  -3   3   4 2176.63 59.5548   4
   0   3  -4 2035.59 57.3074   4
  -3   3   4 2136.62 57.5879   3
   0   3  -5 10.4098 1.42037   4
   3   0  -5 8.60356 1.70590   1
   3  -3  -5 7.45305 1.30443   1
   3  -3  -5 10.7888 1.60907   3
  -3   3   5 5.68768 1.66538   4
  -3   0   5 11.6323 1.76175   4
  -3   3   5 9.01479 1.82400   1
   0   3   5 5.84311 1.67057   2
   0   3   6 68.3001 3.02046   1
   0   3  -6 64.8679 3.90032   4
  -3   0   6 68.7005 4.39225   4
  -3   3   6 71.5513 5.02028   4
  -3   0  -6 63.6638 4.74907   4
   3  -3  -6 69.5135 4.90897   4
   3  -3  -6 60.3246 3.73650   1
   0  -3   6 75.5998 5.03277   1
  -3   3   6 58.0913 4.46506   1
   0  -3  -6 76.6629 3.84636   3
   0   3  -7 2.45466 1.38128   4
   3  -3  -7 5.68187 2.01599   4
   0  -3  -7 7.16155 1.43168   3
  -3   3  -7 2.73569 1.51796   3
  -3   0   7 7.41760 2.21806   1
  -3   3   7 7.53786 2.13866   4
  -3   0  -7 7.32200 2.31675   4
   0  -3  -7 3.84789 1.87099   4
  -3   0   7 5.38611 1.87636   4
   0  -3   7 9.69730 2.38635   1
   0   3   7 4.42987 1.05260   1
  -3   3   7 4.84904 1.95453   1
  -3   3  -8 655.962 20.4559   3
  -3   0   8 678.323 23.2841   1
   0  -3  -8 660.875 23.3749   4
  -3   3   8 648.887 23.1630   4
  -3   0  -8 683.447 23.1936   4
  -3   0   8 660.425 22.2910   4
  -3   3  -8 650.692 22.1342   4
  -3   3   8 685.692 22.6961   1
   0   3   8 643.058 19.7523   1
   0  -3  -8 655.706 20.2547   3
   0  -3   8 665.832 22.9118   1
   3   0   8 665.912 20.5899   1
   3  -3  -8 672.471 23.2445   4
   0   3  -9 3.96997 2.02289   4
  -3   3  -9 0.77510 0.98685   3
  -3   0  -9 1.59068 2.33574   4
  -3   3   9 2.01742 2.48553   4
  -3   3  -9-0.66057 2.10292   4
   0  -3  -9-0.83365 2.41743   4
   3   0   9 3.45304 1.61347   1
   3  -3   9 0.63414 1.95331   1
   0  -3   9 0.36856 2.13757   1
  -3   0   9 0.77401 2.24451   1
   0   3   9 1.24974 1.36507   1
   0  -3  -9 2.05739 1.23005   3
   3  -3  10 33.3141 3.92329   1
   0  -3  10 45.0011 4.70385   1
   0  -3 -10 34.9171 4.72694   4
  -3   3 -10 32.5477 4.03299   4
  -3   0 -10 29.6369 4.34520   4
  -3   0  10 29.8911 4.22302   1
  -3   3  10 34.4983 4.28975   1
   0   3  10 39.3205 2.78855   1
   0  -3 -10 40.4438 2.86100   3
   0  -3  11-1.18570 2.98164   1
   0   3  11 0.36070 2.84214   2
  -3   0 -11 1.25774 1.31311   3
   0  -3 -11 0.10020 1.41427   3
   0   3  11 1.12762 0.86094   1
   3  -3  11 1.68780 2.65979   1
  -3   0  11 2.47595 2.76326   1
  -3   3  11-1.06830 2.76664   1
  -3   0 -11-0.43506 2.96873   4
  -3   3 -11-0.36959 2.49859   4
  -3   3 -12 124.038 8.00491   4
  -3   0  12 136.225 8.69890   1
   3  -3  12 152.346 8.21118   1
   0  -3  12 125.501 8.27633   1
   4  -1   0 38.1602 2.52385   2
  -3   4   0 39.6813 2.87020   3
  -4   1   0 27.8743 2.70812   1
  -1  -3   0 34.0756 2.09046   2
  -1  -3   0 34.0655 2.25137   1
  -4   1  -1 17.5067 2.10215   1
   4  -1  -1 15.8228 1.37028   2
  -1  -3  -1 15.1923 1.38874   2
  -3   4   1 17.6090 1.84964   3
   4  -1  -1 14.0796 1.91770   1
  -1  -3   1 15.5100 1.61780   1
  -1  -3  -1 12.5347 1.14400   1
   4  -1   1 17.8261 2.22422   2
  -1  -3  -2 617.769 17.5764   1
   4  -1  -2 612.421 19.9188   1
   4  -1  -2 640.526 18.1129   2
  -1  -3  -2 622.909 18.6933   2
  -4   1   2 619.206 18.3440   2
   1   3   2 611.072 18.6040   2
  -3   4   2 595.462 19.0478   3
  -1  -3  -2 603.490 19.2175   4
   4  -1   2 623.730 21.1626   1
   3  -4  -2 635.821 19.4301   1
  -3   4   3 44.9460 2.83046   3
  -1  -3   3 42.8686 2.34251   3
  -3   4  -3 41.2335 3.42042   3
   3  -4  -3 47.9258 3.21076   3
   4  -1  -3 47.6427 3.43672   1
  -4   1   3 45.8670 2.45191   2
   1   3   3 50.6337 3.12947   2
  -3   4   3 47.1613 3.95498   1
   4  -1   3 38.4673 3.52704   1
   3  -4  -3 42.6916 2.81616   1
  -3   4   3 41.6474 3.17793   4
  -1  -3   3 44.1942 1.93681   4
  -1  -3  -3 48.7880 3.33831   4
  -4   1   4 4.54980 1.60312   1
  -3   4   4 8.24871 2.11806   1
  -4   1   4 8.80969 1.16998   2
  -3   4   4 10.6915 1.92141   4
  -1  -3   4 8.40538 1.00888   4
  -1  -3   4 9.31985 1.00422   3
  -4   1   4 10.8833 1.60721   4
  -3   4   4 9.14269 1.32885   3
  -3   4  -4 9.62287 1.88241   3
   3  -4  -4 8.10001 1.48616   3
   1   3   4 11.1111 1.84026   2
   3  -4  -4 8.77454 1.25190   1
   4  -1  -4 16.8104 2.15684   1
  -3   4   5 57.0059 4.39231   1
  -3   4  -5 56.1692 3.91961   3
   3  -4  -5 56.6111 3.64521   3
  -1  -3   5 59.7144 2.51743   3
  -4   1   5 50.4848 2.43914   3
  -4   1   5 57.5125 3.10114   2
   1   3   5 57.6948 4.49283   2
  -3   4   5 55.6815 2.18109   2
   3  -4  -5 53.4332 3.07360   1
  -4   1   5 57.3562 3.79013   4
  -3   4   5 54.9305 4.27383   4
   4  -1  -5 63.0932 4.22246   1
  -3   4   6 174.043 8.30562   1
  -3   4  -6 160.186 7.17896   4
  -3   4   6 171.490 8.59429   4
  -4   1   6 162.081 7.70196   4
   1   3   6 169.680 8.85695   2
   4  -1  -6 166.944 7.84345   1
   3  -4  -6 166.685 6.56082   1
  -1  -3   6 159.513 8.29905   1
  -3   4  -6 170.211 7.37459   3
   3  -4  -6 180.229 7.30423   3
  -3   4   7 0.29989 1.59987   1
   3  -4  -7 0.58261 1.22329   3
  -3   4  -7 1.39869 1.07713   3
   3  -4  -7 2.12426 2.07937   4
  -3   4   7-0.36803 2.10680   4
  -4   1  -7 1.98031 1.76074   4
  -4   1   7-0.28940 1.65670   4
  -1  -3   7 2.10079 1.92360   1
   4  -1  -7-0.28619 1.61663   1
   1   3   7 4.33511 2.42758   2
  -4   1   7-0.37067 1.85367   1
  -3   4   8 10.4315 2.51585   1
  -4   1  -8 17.4030 3.14778   4
  -1  -3  -8 16.7008 3.20154   4
  -3   4  -8 13.4666 2.59589   4
  -3   4   8 18.3891 3.32369   4
  -4   1   8 15.8863 2.81209   4
   3  -4  -8 11.1162 3.00489   4
  -1  -3   8 14.6601 3.02933   1
  -3   4  -8 15.6464 1.75907   3
  -4   1   8 17.7701 3.40440   1
   1   3   8 15.9056 3.34726   2
  -3   4  -9 68.3153 2.97536   3
  -1  -3   9 78.5988 5.99795   1
  -3   4   9 63.3496 4.94487   1
  -4   1   9 73.0158 6.00876   1
  -1  -3  -9 67.9653 5.82136   4
  -4   1  -9 64.4591 5.57555   4
  -4   1   9 66.8209 5.28093   4
  -3   4  -9 50.0989 4.50352   4
   3  -4  -9 58.8858 5.49703   4
   1   3   9 74.6357 6.13138   2
   3  -4   9 60.0094 5.06907   1
  -4   1  10 24.7298 4.29131   1
  -1  -3  10 34.3654 4.44683   1
  -3   4  10 32.2749 3.93319   1
   3  -4  10 30.9412 4.00428   1
   4  -1  10 31.7133 3.19308   1
   1   3  10 35.4180 4.56482   2
  -4   1 -10 34.8354 4.65119   4
  -1  -3 -10 32.2402 4.62042   4
  -3   4 -10 30.7213 3.71470   4
  -1  -3 -11 3.89105 1.64316   3
  -3   4 -11 4.40973 2.69413   4
  -4   1 -11 5.16712 3.12536   4
  -1  -3  11 2.11175 3.01504   1
   4  -1  11 4.82164 2.07087   1
   3  -4  11 4.87736 3.03974   1
  -4   1  11 7.11933 3.28190   1
   1   3  11 4.63310 3.04469   2
  -3   4  11 5.99861 2.26988   2
  -4   1  12 15.2003 3.90697   1
  -1  -3  12 7.64534 3.83676   1
  -3   4 -12 14.9610 3.64013   4
   3  -4  12 9.81524 3.07207   1
   2   2   0 208.387 7.29588   2
   4  -2   0 209.552 9.11259   1
  -2   4   0 209.076 7.80183   3
  -2   4   0 204.921 7.00724   4
  -2  -2   0 209.568 7.45627   1
   2  -4   1 67.4856 3.59524   3
  -2  -2   1 62.6870 3.51381   1
   2   2   1 61.9854 3.02833   1
   4  -2  -1 66.2918 2.98411   2
  -2  -2  -1 59.9025 3.22966   2
   4  -2  -1 68.4183 4.33697   1
  -2  -2  -1 61.1490 3.01905   1
  -2   4   1 65.1845 3.49661   3
  -2  -2  -2 2409.32 70.6379   1
   2  -4  -2 2501.94 71.2504   1
  -2  -2  -2 2483.82 71.7843   2
   4  -2  -2 2587.82 72.7853   1
  -2   4   2 2494.41 71.5004   3
  -2   4  -2 2606.14 72.0567   3
   2  -4   2 2495.94 71.8411   3
   4  -2  -2 2685.95 70.3011   2
  -4   2   2 2616.00 70.7359   2
   2  -4  -2 2686.20 69.8860   2
   2  -4  -2 2717.39 72.1026   4
   2   2  -2 2497.12 72.1660   1
   2   2   2 2526.37 70.5683   1
  -2   4  -3 27.7484 2.32194   3
   2  -4  -3 26.1141 2.18448   3
  -2   4   3 24.3789 2.45865   4
   2  -4  -3 23.8049 2.32376   4
  -4   2   3 24.5368 2.79605   1
   2  -4  -3 22.5504 1.69154   1
   2   2   3 21.5698 1.38389   1
   4  -2  -3 25.6454 2.41296   1
   2   2   3 25.7620 2.66056   2
  -4   2   3 25.4145 1.53422   2
  -2  -2   3 24.8762 1.57256   4
   2   2  -3 19.2561 2.21636   1
  -2  -2   4 156.735 5.17274   3
  -2   4  -4 163.975 6.47729   3
   2  -4  -4 158.832 6.44518   3
  -4   2   4 149.554 5.74086   3
  -4   2   4 153.089 5.33972   2
  -2   4   4 150.227 4.92957   2
   2   2   4 146.215 5.22137   1
  -4   2   4 147.960 7.65535   1
   2   2   4 171.089 8.55831   2
  -2  -2   4 163.142 5.91712   4
  -4   2   4 155.901 6.80986   4
  -2   4   4 161.842 7.46520   4
   2  -4  -4 156.422 5.42417   1
   4  -2  -4 148.538 6.82376   1
  -2  -2   5 27.1524 1.25913   3
  -2   4  -5 27.9551 2.19299   3
   2  -4  -5 24.5934 2.33245   3
  -4   2   5 26.2304 1.70359   3
   2   2   5 28.7334 1.98473   1
  -4   2   5 26.6872 1.78713   2
  -2   4   5 30.0707 1.87075   2
  -2   4   5 25.2502 3.01895   4
  -2  -2   5 24.7723 2.14356   4
  -4   2   5 32.4919 3.00967   4
  -2   4  -5 27.7927 2.21284   4
  -4   2   5 27.7839 3.24708   1
   2  -4  -5 28.3648 1.75743   1
   4  -2  -5 29.2068 2.73552   1
   2   2   5 24.4856 3.79354   2
  -2   4   5 29.9532 2.82827   1
  -2  -2   6 988.706 31.2511   1
  -2   4   6 1076.06 30.4375   1
   2   2   6 904.879 28.6263   1
  -2   4   6 1009.87 28.7710   2
  -2   4  -6 949.547 28.3758   3
   2  -4  -6 969.817 29.1639   3
   2   2   6 982.387 27.3278   1
   4  -2  -6 1004.58 30.0852   1
  -2   4   6 983.184 31.5264   4
  -4   2   6 1012.57 30.7004   4
  -2   4  -6 941.764 29.0977   4
  -2  -2   6 993.630 29.3231   4
  -2   4   7 10.1447 2.65340   4
  -4   2  -7 18.1601 2.70016   4
  -2  -2  -7 7.81767 2.48985   4
  -2   4  -7 14.5026 2.16679   4
  -2  -2   7 8.95869 1.95493   4
  -4   2   7 8.41654 2.31963   4
  -2   4  -7 14.3436 1.45249   3
   2  -4  -7 8.57163 2.43545   4
   2   2   7 12.2734 1.18099   1
   2  -4  -7 13.8429 1.79448   3
  -2  -2   7 12.8968 2.64884   1
  -2   4   7 12.6491 2.19847   1
   2   2   7 9.40924 1.76716   1
  -2   4   7 12.0437 1.89301   2
   4  -2  -7 11.4542 2.34968   1
   2  -4   8 113.211 6.79216   1
   2  -4  -8 112.146 5.28340   3
  -2   4   8 109.553 5.78135   1
  -4   2   8 105.827 7.00629   1
   2   2   8 102.779 5.23896   1
  -2   4   8 120.367 5.83786   2
  -4   2  -8 96.0634 6.34144   4
   2  -4  -8 103.606 7.01367   4
  -4   2   8 99.1538 6.49574   4
  -2  -2  -8 103.460 6.98963   4
  -2  -2   8 106.496 6.85801   1
   2   2   8 100.698 4.17767   1
   2   2   9 2.99633 1.63571   1
  -2   4   9 7.00585 2.24634   1
   2  -4  -9 8.08258 3.08753   4
   2  -4   9 6.92620 2.64653   1
   2  -4  -9 2.87391 1.55075   3
  -2  -2   9 2.36976 2.32267   1
   2   2   9 4.40661 1.26850   1
  -4   2   9 5.35830 2.81513   1
  -2  -2  -9 3.82370 2.70732   4
  -4   2   9 3.69914 2.52703   4
  -4   2  -9 3.63195 2.45821   4
  -2   4  -9 5.94329 2.17045   4
  -2   4   9 6.15023 2.09881   2
   4  -2  10 247.215 10.3631   1
   2  -4  10 262.993 11.6719   1
   2   2  10 250.009 8.79342   1
  -2   4  10 253.688 9.79280   1
  -2  -2  10 246.594 11.6813   1
   2   2  10 223.860 7.92572   1
  -4   2  10 270.666 12.3525   1
  -2   4  10 257.452 10.0328   2
  -2   4 -10 232.298 10.4158   4
  -2  -2 -10 216.836 11.5966   4
  -4   2 -10 246.323 11.5832   4
  -4   2  10 253.604 11.7705   4
   2  -4 -10 218.018 11.7773   4
  -4   2  11 4.35242 3.15712   1
  -2   4 -11 2.59533 2.53903   4
  -2  -2 -11 0.85657 1.59188   3
  -4   2 -11 2.80432 1.54521   3
  -2  -2  11 1.66976 3.22041   1
  -2   4  11 2.09804 1.97307   1
  -4   2 -11 3.24850 3.13266   4
   2  -4  11 0.38987 2.70978   1
   4  -2  11 1.39361 2.10345   1
  -2   4  11 3.94522 2.07901   2
  -4   2  12 43.5538 5.26531   1
  -2  -2  12 37.5468 5.30179   1
   2   2  12 53.1800 5.93220   2
  -2   4 -12 33.1090 4.51223   4
   2  -4  12 48.5935 5.35924   1
  -1   4   0 10.5077 1.26501   3
  -1   4   0 12.3705 1.11580   4
   3   1   0 8.58346 1.15115   2
   4  -3   0 8.17923 1.62140   1
  -3  -1   0 17.4537 1.74342   1
   1  -4   0 13.0246 1.12762   4
  -3  -1   1 187.327 7.40116   1
   3   1   1 176.842 7.11027   1
   3   1  -1 174.441 7.28752   1
   3   1  -1 192.041 6.62833   2
   1  -4  -1 175.627 6.01290   2
   3   1   1 194.841 7.30414   2
  -1   4  -1 188.027 5.68404   4
   1  -4  -1 179.097 6.69142   4
  -3  -1  -1 182.783 7.07632   1
   4  -3  -1 174.388 7.94365   1
   1  -4   1 171.710 6.73539   3
  -1   4  -2 405.031 13.0501   3
   1  -4   2 401.855 13.1237   3
  -4   3   2 423.839 13.8383   3
  -1   4   2 404.147 12.1942   2
   4  -3  -2 422.025 11.7783   2
   1  -4  -2 419.143 12.2462   2
   1  -4  -2 415.994 13.6228   4
   3   1   2 401.536 13.7138   1
   4  -3  -2 381.337 14.1433   1
  -3  -1  -2 401.124 13.2593   1
   3   1  -2 413.837 14.0684   1
  -4   3   3 252.804 9.47644   4
   1  -4  -3 261.233 9.21210   3
  -1   4  -3 252.097 8.74926   3
  -4   3   3 257.578 9.09049   3
   1  -4   3 246.563 8.88032   3
  -3  -1   3 249.079 8.91694   2
  -1   4   3 248.411 8.02711   2
  -4   3   3 259.101 7.83132   2
  -1   4  -3 260.765 7.53410   4
   1  -4  -3 264.275 9.82537   4
   4  -3  -3 253.992 9.69561   1
   1  -4  -3 261.475 7.83863   1
   3   1   3 253.271 9.96516   1
  -4   3   3 254.256 10.9361   1
   3   1  -3 238.159 9.79877   1
   4  -3  -4 39.4201 3.07436   1
  -4   3   4 43.5559 3.99626   1
   3   1   4 40.9049 3.39465   1
  -4   3   4 44.7717 1.83114   2
  -1   4   4 41.5498 2.33445   2
   1  -4  -4 44.3082 2.91340   3
  -4   3   4 40.9030 2.53010   3
  -1   4  -4 45.9777 2.55260   3
  -1   4   4 40.1821 3.47117   4
  -3  -1   4 42.1260 2.69784   4
  -4   3   4 44.2602 3.35153   4
  -1   4  -4 42.9830 2.18480   4
   3   1  -4 41.0925 3.38396   1
   3   1  -5 34.4393 3.38362   1
   1  -4  -5 43.7535 2.99451   3
  -1   4  -5 43.5022 2.37347   3
  -4   3   5 42.2985 2.42532   3
   4  -3  -5 40.5510 3.13105   1
  -4   3   5 38.2624 1.89453   2
  -1   4   5 45.4713 2.79181   2
  -4   3   5 45.8291 4.06309   1
   3   1   5 35.8275 3.23081   1
  -1   4   5 48.0002 4.05874   4
  -3  -1   5 38.7724 2.90134   4
  -4   3   5 45.3452 3.59893   4
  -1   4  -5 45.3579 2.60257   4
  -3  -1   6 181.119 8.74254   1
  -4   3   6 170.232 8.34737   4
  -1   4  -6 170.935 6.86202   4
  -3  -1   6 171.508 7.43489   4
  -4   3   6 163.330 8.57490   1
  -1   4   6 171.040 7.16566   2
   1  -4  -6 171.157 6.99860   3
   4  -3  -6 158.414 7.25482   1
   1  -4   6 181.860 8.70521   1
   3   1   6 162.957 7.96391   1
  -4   3  -7 159.695 7.83887   4
  -3  -1  -7 161.399 8.50543   4
  -1   4  -7 158.230 6.97868   4
  -4   3   7 176.373 8.57325   4
  -3  -1   7 150.875 7.39013   4
   3   1   7 133.590 7.48287   1
  -1   4   7 167.345 6.02567   1
   1  -4  -7 172.254 6.91459   3
   1  -4   7 172.642 8.65334   1
   3   1   7 153.610 6.02715   1
   4  -3  -7 166.793 7.32858   1
  -3  -1   7 162.120 8.57959   1
  -1   4   7 160.797 7.46226   2
   1  -4  -8 33.9030 4.14157   4
   1  -4  -8 42.7558 3.14705   3
  -3  -1   8 45.6070 4.64726   1
  -1   4   8 41.0197 2.56201   1
  -1   4   8 46.7756 3.80483   2
  -4   3  -8 42.3469 4.13972   4
  -3  -1  -8 38.3049 4.30569   4
  -3  -1   8 38.7421 3.64552   4
  -4   3   8 47.6429 4.46850   4
   3   1   8 39.3062 2.63721   1
   1  -4   8 36.7024 4.23703   1
  -1   4  -9 2.95842 1.83653   4
   3   1   9 2.01844 1.25782   1
   1  -4   9 3.43259 2.57927   1
  -4   3  -9 1.63655 1.73817   3
   1  -4  -9 3.64408 1.60661   3
  -3  -1   9-0.40331 2.24814   1
  -1   4   9 2.59367 1.05847   1
   1  -4  -9 1.70640 2.34459   4
  -4   3   9 4.72836 2.66463   4
  -3  -1  -9 3.35059 2.66717   4
  -4   3  -9 4.44355 2.45956   4
  -4   3   9 2.81530 2.64171   1
  -1   4   9 2.96292 2.07882   2
  -4   3  10 17.8204 3.73650   1
  -3  -1  10 18.1524 3.59683   1
   3   1  10 21.0616 2.20103   1
   3   1  10 29.8888 3.73778   1
  -4   3  10 19.1715 3.87487   4
  -3  -1 -10 25.3123 4.30478   4
  -4   3 -10 19.8744 3.71061   4
  -1   4 -10 17.6860 3.08904   4
   1  -4 -10 19.0126 4.02980   4
   1  -4 -10 27.4645 2.61434   3
  -4   3 -10 20.7627 2.27108   3
   4  -3  10 19.4256 3.19654   1
   1  -4  10 23.3911 3.83445   1
  -1   4  10 23.3772 3.27444   2
  -4   3 -11 72.4468 5.80055   4
  -3  -1  11 57.8254 5.90482   1
   3   1  11 59.9880 3.45800   1
  -1   4  11 75.2038 5.11195   2
   3   1  11 74.2259 4.95328   1
  -4   3  11 66.0903 5.92090   1
   4  -3  11 61.3346 5.15047   1
   1  -4  11 82.4768 6.32716   1
   4  -3  12 12.4457 3.40492   1
   1  -4  12 20.5439 4.20074   1
  -4   3 -12 16.0014 4.05758   4
  -3  -1  12 15.6857 4.08798   1
  -4   4   0 743.205 23.8563   3
   0  -4   0 733.980 21.8661   2
  -4   0   0 746.392 23.5224   1
   0  -4   0 736.936 22.3554   3
   0  -4   0 751.956 21.5524   4
   4   0   0 765.428 22.4610   2
  -4   0  -1 32.7889 2.81310   1
   0  -4   1 31.1233 2.18582   3
  -4   4   1 35.7736 2.84796   3
   4   0  -1 35.8014 2.91494   1
   4   0   1 31.4346 2.69663   2
   4   0  -1 31.0393 2.09012   2
   0  -4  -1 27.5285 1.84359   2
   4   0   1 33.0231 3.07030   1
   0  -4  -1 25.5629 2.04406   4
   0  -4   1 30.8529 1.43442   4
   4  -4  -1 32.9780 2.99109   1
  -4   0  -2 2393.23 70.0834   1
  -4   4   2 2474.01 72.3026   1
   0  -4  -2 2497.67 69.7982   4
   4   0   2 2464.74 71.9723   2
   0  -4  -2 2546.27 68.0068   1
   0  -4   2 2473.21 69.0158   3
  -4   4   2 2583.93 70.0531   3
   0   4   2 2526.25 68.6635   2
   4   0  -2 2530.20 68.8152   2
   0  -4  -2 2556.60 68.7186   2
  -4   0   2 2414.80 68.9282   2
   4  -4  -2 2471.58 67.5649   2
   4   0  -2 2426.78 70.5582   1
   4   0   2 2419.06 71.8437   1
   4  -4  -2 2479.71 70.5545   1
   0  -4   3 53.6379 2.92076   3
  -4   4   3 55.1315 3.26681   3
   4   0   3 53.1306 4.41430   1
   4   0  -3 50.3720 3.69989   1
  -4   0   3 50.6858 2.87008   2
   0   4   3 49.5084 2.75009   2
   4  -4  -3 47.2279 3.37364   1
   0  -4  -3 45.4350 2.82996   2
  -4   4   3 55.6190 4.74849   1
   0  -4  -3 43.7042 3.34799   4
  -4   4   3 72.3049 4.04928   4
  -4   4   4 369.883 14.2658   1
   4   0   4 326.425 13.6864   1
  -4   4   4 344.959 12.6592   4
  -4   0   4 339.863 11.5579   4
  -4   4   4 342.083 11.3794   3
   0  -4   4 323.182 10.8834   3
  -4   0   4 329.987 11.2169   2
   4   0  -4 342.042 12.7672   1
   0   4   4 329.773 11.3294   2
   4  -4  -4 353.205 11.8752   1
  -4   0   5 2.78549 1.05667   2
   0   4   5 1.37970 1.14533   2
  -4   4   5 2.72159 0.94843   3
   4  -4  -5 3.66303 1.28610   1
  -4   4   5 1.77082 1.74177   1
   4   0   5 3.11874 1.67362   1
  -4   4   5 3.12615 1.67065   4
  -4   0   5 2.76610 1.17705   4
   4   0  -5 4.96814 1.79557   1
   0  -4   5 2.15696 1.51583   1
   0  -4  -6 788.151 23.6250   3
  -4   0   6 778.047 26.0249   1
  -4   4   6 772.390 21.2340   2
   0   4   6 761.584 24.2461   2
   4  -4  -6 766.427 23.5529   1
   0  -4   6 738.004 25.3817   1
   4   0  -6 751.981 25.0270   1
   4   0   6 701.256 25.5496   1
  -4   4   6 821.259 26.1686   1
  -4   4   6 764.905 25.4678   4
  -4   0   6 774.403 24.1551   4
   0  -4  -6 731.138 25.4474   4
  -4   4  -7 61.9542 4.55027   3
  -4   0   7 57.5380 5.07147   1
   0   4   7 54.6061 4.18665   2
  -4   4   7 53.2450 4.69063   1
   0  -4   7 51.9184 4.71344   1
   4  -4  -7 60.2602 3.75518   1
  -4   0  -7 59.2466 4.94635   4
  -4   4  -7 53.9366 4.06019   4
  -4   4   7 60.9638 5.00043   4
  -4   0   7 54.8811 4.11641   4
   0   4   8 30.5867 3.50164   2
  -4   0   8 26.7749 3.98929   1
   0  -4   8 26.0664 3.72232   1
   0  -4  -8 28.3079 3.99030   4
  -4   4  -8 25.0627 3.09184   4
  -4   0   8 28.3002 3.32306   4
  -4   4   8 25.3703 3.69974   4
  -4   0  -8 32.2818 3.89836   4
  -4   4  -8 27.7541 2.91039   3
   0   4   9 2.43592 2.07868   2
   0  -4   9-0.80353 2.44721   1
   4   0   9 4.12927 1.51094   1
  -4   4  -9 3.27459 1.51955   3
  -4   0  -9 3.67176 2.65260   4
  -4   4  -9 2.23296 2.03170   4
  -4   4   9 2.09009 2.57556   4
   0  -4  -9 0.86810 2.54989   4
  -4   0   9 2.25644 2.18004   4
  -4   0   9 0.43037 2.65164   1
   0  -4 -10 103.089 7.64168   4
  -4   4 -10 115.266 6.97287   4
  -4   0 -10 101.818 7.44070   4
  -4   4  10 118.065 7.41033   1
   0   4  10 135.974 7.11091   2
   4   0  10 107.299 7.42169   1
  -4   4 -10 106.425 4.46630   3
  -4   0  10 123.444 8.04437   1
   0  -4  10 98.2051 7.27566   1
   4  -4  10 95.1612 6.68083   1
   4   0  10 103.160 5.20085   1
   0   4  11 37.0298 4.05637   2
   0  -4 -11 35.1164 3.05428   3
   4  -4  11 42.9370 4.51245   1
   0  -4  11 38.3685 5.03876   1
  -4   4 -11 29.7133 4.22855   4
  -4   4  11 34.9408 4.50606   1
   4   0  11 36.7409 4.54489   1
  -4   0  11 37.7240 5.10463   1
  -4   0  12-0.45930 3.49147   1
   0  -4  12 3.89399 3.50291   1
  -4   4 -12 1.44996 2.85667   4
   4  -4  12 3.99426 3.21695   1
  -1  -4   0 2164.72 60.9348   2
   5  -1   0 2234.55 61.7390   2
  -1  -4   0 2211.99 61.3034   1
  -5   1   0 2156.65 63.2865   1
  -4   5   0 2156.04 62.7425   3
  -1  -4  -1 3.50541 0.99360   4
  -5   1  -1 4.23244 1.43712   1
   4  -5  -1 0.74485 0.95364   1
  -1  -4   1 3.91601 1.13800   1
  -1  -4  -1 3.11907 0.82274   1
  -4   5   1 2.10529 1.04451   3
  -1  -4   1 2.20913 0.92984   2
   5  -1  -1 3.46323 0.91278   2
  -1  -4  -1 2.43134 0.79693   2
   5  -1   1 5.93886 1.52667   2
  -5   1   1 5.00671 1.07813   2
   5  -1  -1 0.59080 1.02918   1
  -1  -4   2 285.932 10.8129   1
  -4   5   2 276.613 10.4424   3
  -1  -4  -2 282.945 8.88418   1
   5  -1  -2 279.117 11.2822   1
   5  -1  -2 279.924 9.37670   2
  -5   1   2 264.635 9.67360   2
   1   4   2 279.776 9.65699   2
  -1  -4  -2 287.145 9.76519   2
   4  -5  -2 276.796 10.8098   1
   5  -1   2 295.151 12.7922   1
  -1  -4  -2 284.121 10.2837   4
   1   4   3 0.99594 0.92528   2
  -5   1   3 0.95553 0.79213   2
  -4   5   3 0.23407 1.19084   4
  -1  -4  -3-0.23174 1.03241   4
  -1  -4  -3 1.00924 0.41222   1
  -4   5   3 2.09473 1.10469   3
  -1  -4   3 1.21890 0.77579   3
   4  -5  -3 0.51259 1.03779   3
  -4   5  -3-0.32243 1.33930   3
   5  -1  -3 4.13226 1.40143   1
   4  -5  -3 0.85646 1.01423   1
  -1  -4  -3 1.23747 0.89959   2
  -1  -4   4 1167.96 34.1557   3
  -4   5   4 1207.41 35.0830   3
  -4   5  -4 1220.63 37.3461   3
   4  -5  -4 1261.52 36.4628   3
  -4   5   4 1227.92 36.5398   4
  -1  -4  -4 1192.85 36.4234   4
   4  -5  -4 1208.36 35.1686   1
  -5   1   4 1176.01 34.3445   2
   1   4   4 1164.59 35.3491   2
   5  -1   4 1124.16 38.3105   1
  -4   5   4 1259.19 38.6058   1
   5  -1  -4 1255.12 36.7736   1
  -5   1   5 4.12170 1.19230   2
   1   4   5 3.98083 1.51550   2
  -1  -4  -5-0.30845 1.46101   4
  -4   5   5-0.31261 1.36212   4
  -5   1   5 2.67357 1.47799   4
   5  -1  -5 2.05369 1.46763   1
   4  -5  -5 1.01793 1.39858   3
  -1  -4   5 0.32946 0.70024   3
  -4   5  -5 2.18323 1.80908   3
   5  -1   5 1.66636 1.85563   1
  -4   5   5 0.80429 1.71170   1
   4  -5  -5 1.99293 1.13395   1
  -5   1   5 2.93271 1.76925   1
   4  -5  -6 182.689 7.43794   1
   5  -1  -6 183.414 8.86619   1
  -1  -4   6 196.687 9.64258   1
  -4   5  -6 191.730 8.80439   3
  -5   1   6 184.500 6.28914   3
   4  -5  -6 196.223 8.53708   3
  -5   1   6 195.542 7.44052   2
   1   4   6 194.312 8.88363   2
  -5   1   6 203.769 10.0725   1
   5  -1   6 197.652 10.2804   1
  -5   1   6 207.932 8.68223   4
  -4   5   6 190.243 9.45289   4
  -1  -4  -6 193.614 9.47553   4
  -4   5   6 199.892 10.2456   1
  -5   1   7 3.97048 1.97214   4
  -4   5   7 1.13944 2.05785   4
  -5   1   7 2.53738 2.15216   1
   4  -5  -7 2.84914 1.29486   1
   5  -1  -7 4.47030 2.07685   1
  -1  -4   7 2.69197 2.11395   1
   1   4   7 3.82086 2.00667   2
  -4   5  -7 0.97101 1.29704   3
  -4   5   7 5.64075 2.39510   1
  -1  -4   8 318.353 13.2799   1
  -1  -4  -8 314.097 10.7795   3
  -4   5  -8 294.057 10.3609   3
  -4   5   8 273.097 7.94955   2
   1   4   8 310.493 12.2326   2
  -5   1   8 299.484 13.3326   1
  -4   5   8 342.959 13.0378   1
  -5   1  -8 307.928 12.7808   4
  -4   5   8 299.149 13.0352   4
  -4   5  -8 307.855 11.3653   4
  -5   1   8 302.948 11.9086   4
  -5   1   9 2.23751 1.68948   2
  -4   5   9 0.42179 0.75911   2
  -4   5   9 0.94188 0.65612   2
  -4   5   9-0.44119 2.86780   4
  -1  -4  -9-1.32508 2.75139   4
  -4   5  -9 0.58867 2.00849   4
  -5   1   9-0.33900 2.27003   4
  -5   1  -9 0.40740 2.36257   4
  -5   1   9 1.40981 2.69004   1
  -1  -4  -9-0.85453 1.56208   3
  -4   5  -9 1.03354 1.34341   3
   1   4   9 1.02224 2.36784   2
  -4   5   9-0.34966 2.27288   1
  -1  -4   9-0.85406 2.47638   1
  -1  -4 -10 91.3664 7.21641   4
  -5   1  10 84.6786 6.30429   4
  -4   5 -10 102.142 6.36089   4
  -5   1 -10 102.927 7.34104   4
   4  -5  10 105.308 7.08040   1
   5  -1  10 105.073 5.52641   1
  -4   5 -10 104.817 4.02377   3
  -1  -4 -10 96.0748 5.28723   3
  -1  -4  10 103.156 7.45801   1
  -5   1  10 99.4575 5.30457   2
  -4   5  10 94.2574 3.39275   2
  -4   5  10 94.4354 3.58473   2
   1   4  10 106.689 6.71726   2
  -5   1  10 106.438 7.90217   1
   5  -1  10 90.7740 7.68051   1
  -4   5  10 115.847 6.79460   1
  -4   5 -11-0.65391 2.52193   4
  -1  -4 -11-1.51972 2.04956   3
  -5   1  11-0.97984 3.46466   1
   5  -1  11 0.47119 3.30333   1
  -5   1  11 0.42724 2.06147   2
   5  -1  11 0.21321 2.02874   1
   4  -5  11-0.39602 2.65182   1
  -1  -4  11 2.70211 3.42303   1
   1   4  11 1.64998 2.58202   2
   4  -5  12 42.4802 5.14570   1
  -4   5 -12 44.6795 4.81449   4
  -5   1  12 55.7752 6.33625   1
  -3   5   0 88.1582 4.82502   3
  -2  -3   0 83.4015 4.25693   1
   2   3   0 90.4004 4.27814   2
  -2  -3   0 97.1280 4.31061   2
   5  -2   0 97.4002 4.87015   2
   2   3   0 93.5475 4.50973   1
   5  -2   0 91.6119 5.97061   1
  -5   2   0 91.0785 5.79835   1
   3  -5   1 826.568 26.0108   3
  -2  -3  -1 859.923 24.6510   1
   5  -2  -1 842.294 24.7243   2
  -2  -3  -1 843.806 25.0278   2
   5  -2  -1 846.873 27.3787   1
  -5   2  -1 847.840 27.1076   1
  -3   5   1 843.354 25.7075   3
  -2  -3   1 837.294 25.5708   1
   2   3   1 834.498 24.7202   1
   3  -5   2 228.232 9.44616   3
   3  -5  -2 239.014 7.19757   2
  -2  -3  -2 235.989 8.89372   2
   2   3   2 233.047 8.86471   2
  -5   2   2 245.631 8.55287   2
   5  -2  -2 242.917 7.96136   2
  -2  -3   2 253.805 9.67554   1
   2   3   2 254.258 8.06777   1
   2   3  -2 241.953 9.55430   1
   3  -5  -2 233.925 9.03835   1
   5  -2   2 244.748 11.0541   1
  -2  -3  -2 237.063 8.05603   1
   5  -2  -2 244.151 10.1056   1
  -3   5  -2 238.886 9.76802   3
  -3   5   2 240.022 9.10683   3
   5  -2   3 779.598 26.6530   1
  -3   5   3 791.995 24.2839   3
   3  -5  -3 799.965 24.7815   3
  -3   5  -3 775.556 25.2860   3
   5  -2  -3 819.351 25.5975   1
   2   3   3 804.324 24.9032   2
  -5   2   3 816.147 23.4443   2
   3  -5  -3 812.078 25.0190   4
   3  -5  -3 785.316 24.0860   1
  -2  -3  -3 806.795 22.7836   1
   2   3   3 799.652 22.5302   1
   3  -5  -4 34.8707 2.88087   3
  -3   5  -4 35.4686 3.10863   3
   5  -2  -4 38.8442 3.29835   1
  -5   2   4 37.5982 2.23507   2
   2   3   4 31.1293 3.18305   2
  -3   5   4 34.6075 3.28068   4
  -2  -3   4 31.2337 1.97127   4
   3  -5  -4 39.4372 2.49826   1
  -2  -3   4 30.4439 2.01026   3
  -5   2   4 33.9519 2.85237   4
  -5   2   5 203.519 7.17069   3
   3  -5  -5 187.276 8.19279   3
   3  -5  -5 202.317 7.13122   1
   5  -2  -5 194.590 8.77452   1
   2   3   5 213.414 9.82405   2
  -5   2   5 202.129 7.09113   2
  -3   5   5 208.357 9.49793   4
  -2  -3   5 214.225 7.37889   4
  -5   2   5 190.090 8.48470   4
  -2  -3  -5 211.537 9.40030   4
   3  -5  -5 192.752 9.08911   4
  -3   5  -5 197.247 8.38411   3
  -2  -3   5 193.415 6.60949   3
  -5   2   6 149.854 5.14703   3
  -3   5  -6 139.323 6.33421   3
   3  -5  -6 143.848 6.70057   3
  -5   2   6 140.229 5.63514   2
   2   3   6 156.877 8.58122   2
  -3   5   6 131.603 4.43208   2
   3  -5  -6 148.462 5.54149   1
   5  -2  -6 142.016 7.21732   1
  -2  -3   6 154.267 8.08500   1
  -5   2   6 150.156 8.38583   1
  -3   5  -6 135.262 6.12577   4
  -2  -3   6 156.635 6.15802   4
  -3   5   6 130.739 7.66037   4
  -5   2   6 147.876 7.24815   4
  -3   5   6 149.683 7.63300   1
  -3   5   7 244.091 11.4895   4
  -5   2   7 229.119 10.3377   4
  -3   5  -7 230.260 9.33377   4
   5  -2  -7 224.503 10.1060   1
  -3   5  -7 236.176 8.81678   3
   3  -5  -7 249.279 9.73458   3
  -5   2   7 245.328 8.58252   2
   2   3   7 268.186 12.2392   2
  -3   5   7 239.256 7.59636   2
  -5   2   7 242.222 11.6736   1
  -3   5   7 262.266 10.6256   1
  -2  -3   7 235.063 11.1828   1
  -3   5   8 5.87407 2.14907   1
   3  -5  -8 5.26161 2.63669   4
  -3   5  -8 7.21621 1.40645   3
   3  -5  -8 8.70613 2.06999   3
  -3   5   8 10.6117 3.08344   4
  -2  -3  -8 8.25427 2.99834   4
  -5   2   8 4.36791 2.12335   4
  -5   2  -8 5.36809 2.35637   4
   5  -2  -8 5.19151 2.18524   1
   2   3   8 6.60769 2.98313   2
  -2  -3   8 8.44284 2.89711   1
  -5   2   8 7.52336 1.53654   2
  -3   5   8 5.26873 1.19930   2
  -5   2   8 7.56180 2.95495   1
  -3   5   9 4.34896 1.38003   2
  -3   5  -9 4.05168 1.94721   4
  -5   2  -9 5.39033 2.86317   4
  -2  -3  -9 6.19581 3.07803   4
  -5   2   9 5.79454 2.47467   4
   3  -5  -9 4.28820 2.79040   4
  -5   2   9 5.12618 2.96954   1
   3  -5  -9 4.17793 1.81398   3
  -3   5   9 6.18003 2.27214   1
  -2  -3   9 5.91691 2.83301   1
   3  -5   9 4.32653 2.68705   1
   2   3   9 5.26272 2.93953   2
  -2  -3 -10 86.7576 4.67380   3
  -2  -3  10 73.8340 6.34281   1
  -3   5 -10 72.1732 5.13070   4
  -5   2  10 70.3065 5.92830   4
  -2  -3 -10 70.2468 6.44020   4
  -5   2 -10 58.7259 5.74182   4
  -3   5  10 79.5505 3.79109   2
   2   3  10 78.7087 6.36693   2
   3  -5 -10 72.7273 6.45610   4
  -3   5  10 81.3052 4.95665   1
  -5   2  10 76.1127 6.80989   1
   5  -2  10 70.5908 5.00657   1
   3  -5  10 73.8395 6.08283   1
  -3   5 -11 38.0328 4.17974   4
  -5   2 -11 41.2098 5.01231   4
  -2  -3 -11 49.0594 3.57657   3
   3  -5  11 45.0790 5.12376   1
   2   3  11 65.7364 5.85141   2
  -2  -3  11 37.5658 5.42470   1
   5  -2  11 39.5589 3.97786   1
  -5   2  11 53.6337 5.95919   1
  -5   2  11 47.6664 3.44045   2
  -5   2  12-0.47834 3.82104   1
   3  -5  12 2.06415 2.99411   1
  -3  -2   0 929.128 27.2383   1
   3   2   0 924.785 26.8233   2
   5  -3   0 888.890 29.1647   1
  -2   5   0 912.863 26.4348   4
  -2   5   0 885.739 27.3153   3
  -2   5   1 1228.48 34.4898   4
  -3  -2  -1 1161.01 34.3093   1
   2  -5  -1 1195.71 34.1068   4
  -2   5  -1 1188.29 33.1540   4
  -2   5   1 1167.70 34.5762   3
   2  -5   1 1169.00 34.7073   3
   3   2  -1 1201.13 34.1240   2
  -3  -2  -1 1159.21 34.4311   2
   5  -3  -1 1187.90 33.8959   2
  -3  -2   1 1188.18 34.9130   1
   3   2   1 1190.22 34.3741   1
   5  -3  -1 1134.88 36.4489   1
  -3  -2  -2 0.89135 0.78082   1
   5  -3  -2 1.02860 0.50442   2
   2  -5  -2 1.36087 0.46508   2
   3   2   2 2.01634 0.76874   1
  -3  -2  -2-0.20653 1.01516   2
   2  -5  -2 0.94196 0.97438   4
  -2   5  -2 1.51793 0.91591   3
   2  -5   2-0.38123 0.86755   3
   3   2  -2 1.14789 1.06625   1
   5  -3  -2 1.96609 1.25110   1
   2  -5  -3 441.011 15.2124   4
   5  -3  -3 447.319 15.6018   1
  -3  -2  -3 442.992 13.8125   1
   3   2  -3 450.170 15.7084   1
   2  -5  -3 424.515 14.7077   3
  -2   5  -3 448.616 14.7052   3
  -5   3   3 453.029 14.8563   3
   2  -5   3 446.297 14.8134   3
  -3  -2   3 436.552 14.4987   2
   2  -5  -3 438.600 13.0773   2
  -5   3   3 456.072 13.6424   2
   3   2   3 446.039 16.1550   2
   3   2   3 423.808 13.8385   1
  -5   3   3 462.802 17.2466   1
   2  -5  -3 450.091 13.8742   1
  -5   3   4 448.858 17.0511   1
  -2   5  -4 441.684 13.1260   4
  -2   5   4 443.192 15.9523   4
   3   2   4 426.344 13.6701   1
   2  -5  -4 426.664 13.0599   1
  -5   3   4 442.302 15.1594   4
  -3  -2   4 446.332 13.7850   4
  -2   5  -4 453.236 14.5306   3
   2  -5  -4 430.646 14.7704   3
  -5   3   4 452.238 14.2871   3
  -2   5   4 427.582 12.7601   2
  -5   3   4 446.124 13.1986   2
   3   2   4 494.146 17.7104   2
   5  -3  -4 460.266 15.5097   1
   3   2  -4 420.712 15.6513   1
   2  -5  -5 648.442 21.8407   4
  -2   5   5 644.520 22.1694   4
  -2   5  -5 628.214 19.1463   4
  -3  -2   5 643.755 19.7854   4
  -3  -2  -5 671.972 21.9043   4
  -5   3   5 650.092 21.2736   4
  -3  -2   5 651.794 22.1826   1
   5  -3  -5 641.928 21.0219   1
  -5   3   5 640.423 18.6384   2
  -2   5   5 637.352 18.5056   2
   3   2   5 613.082 19.2388   1
  -2   5  -5 682.184 19.9889   3
  -5   3   5 639.824 19.3752   3
   2  -5  -5 646.013 20.4698   3
   2  -5  -5 656.191 18.3709   1
   3   2   5 704.545 24.4410   2
  -2   5   6 1.29905 0.78764   2
  -5   3   6 0.18256 0.73924   2
  -3  -2   6-0.35911 1.76464   1
  -3  -2   6-1.14248 1.31146   4
  -2   5  -6 1.25307 1.02869   4
  -5   3   6 1.16891 1.67290   4
  -2   5   6 1.45697 1.97232   4
   2  -5  -6 1.02261 1.64486   4
  -2   5  -6 1.54376 0.97545   3
   2  -5  -6 1.05205 1.31084   3
  -5   3   6 1.48702 0.86574   3
   3   2   6 0.53221 0.86511   1
   3   2   6 1.58144 2.54360   2
   5  -3  -6 0.76366 1.29485   1
  -2   5  -7 78.1680 3.49806   3
  -3  -2   7 65.4236 5.45826   1
  -5   3   7 66.9547 3.26641   2
  -2   5   7 75.4629 3.60141   2
  -5   3   7 73.0666 5.85856   1
   3   2   7 65.3407 3.46311   1
   3   2   7 79.1653 7.05740   2
   5  -3  -7 67.4535 4.65983   1
   3   2   7 72.6376 2.86783   1
  -5   3   7 66.6671 5.11814   4
  -3  -2   7 72.8221 4.39040   4
  -2   5  -7 63.4617 3.92975   4
  -2   5   7 65.9512 5.42763   4
   3   2   8 109.498 3.88410   1
  -3  -2   8 111.826 7.35980   1
  -5   3   8 111.699 4.57275   2
  -2   5   8 107.968 4.91998   2
  -5   3   8 119.719 7.74659   1
   3   2   8 101.184 4.34837   1
   3   2   8 131.429 9.07635   2
  -3  -2  -8 112.693 7.34055   4
  -5   3   8 108.560 6.86697   4
  -3  -2   8 95.8658 5.64557   4
  -5   3  -8 106.606 6.54794   4
   5  -3  -8 105.634 6.05415   1
   2  -5   8 96.8882 6.84821   1
   2  -5   9 145.310 8.42744   1
  -3  -2   9 115.902 8.09862   1
  -5   3   9 132.787 5.45175   2
  -2   5   9 142.685 6.08106   2
   3   2   9 143.369 9.61720   2
   2  -5  -9 155.889 8.96905   4
  -5   3   9 155.131 9.29040   1
  -3  -2  -9 125.038 8.29611   4
  -5   3  -9 133.199 7.68381   4
  -5   3   9 127.958 7.88372   4
  -2   5  -9 130.134 6.68542   4
  -5   3  10 6.91858 2.98093   4
  -5   3 -10 8.34167 2.86585   4
  -3  -2 -10 3.24917 3.05290   4
  -2   5 -10 7.91985 2.52943   4
   2  -5 -10 5.58269 3.37866   4
   2  -5  10 6.21004 3.12818   1
   2  -5 -10 6.25608 2.12449   3
  -2   5  10 7.18343 1.85630   2
  -5   3  10 6.81987 1.63162   2
  -3  -2  10 5.30261 3.18330   1
  -5   3  10 3.76208 2.93466   1
   3   2  10 7.39411 3.77124   2
   5  -3  10 8.47994 2.67880   1
  -5   3  11 0.47110 3.30273   1
  -2   5  11-0.68411 1.78975   2
  -3  -2  11-0.45501 3.16185   1
  -5   3 -11 0.39709 2.78385   4
  -2   5 -11 0.56972 2.16516   4
  -3  -2 -11 0.88626 1.78793   3
  -5   3 -11-0.85861 1.72480   3
   3   2  11 0.49860 3.49555   2
   5  -3  11 0.62332 2.29706   1
   2  -5  11-0.42596 3.13951   1
   3   2  12 22.2380 4.76965   2
   4   1   0 1851.54 52.4474   2
   5  -4   0 1814.54 54.6337   1
  -4  -1   0 1794.71 53.3114   1
   1  -5   0 1840.16 52.7303   3
  -1   5   0 1862.83 51.7282   4
   1  -5   0 1917.58 51.6144   4
   1  -5   1 28.3557 2.38183   3
   4   1   1 30.5848 2.78620   1
   1  -5  -1 30.2023 1.95495   2
   4   1  -1 31.2188 2.30408   2
   4   1   1 34.1224 2.72701   2
  -4  -1   1 27.6648 2.62051   1
  -4  -1  -1 28.5866 2.60054   1
   5  -4  -1 30.3205 3.19261   1
  -1   5   1 28.8317 2.29969   4
   1  -5  -1 29.8020 2.22910   4
  -1   5  -1 34.3002 1.68241   4
   1  -5   2 248.481 9.24896   3
  -5   4   2 267.062 10.1659   3
   4   1  -2 265.562 10.4680   1
   1  -5  -2 253.478 8.34811   2
   5  -4  -2 253.150 7.97589   2
  -1   5   2 261.737 9.77901   4
   1  -5  -2 253.731 9.56935   4
   4   1   2 263.690 10.3000   1
  -4  -1  -2 259.655 9.74658   1
   5  -4  -2 252.935 10.6670   1
  -5   4   2 239.324 11.7769   1
   1  -5  -3 45.7290 2.30852   1
   1  -5  -3 47.9207 3.51302   4
   4   1   3 46.5583 3.77986   1
   5  -4  -3 42.4098 3.53732   1
  -5   4   3 44.1594 3.24465   4
   1  -5  -3 48.6872 3.27799   3
  -5   4   3 47.0033 3.33674   3
   1  -5   3 42.7141 2.91522   3
  -1   5   3 43.7794 2.38492   2
  -4  -1   3 42.5942 2.89725   2
   1  -5  -3 44.8375 2.53086   2
   4   1  -3 46.7537 3.73265   1
  -5   4   3 62.2000 5.15860   1
  -5   4   4 1200.74 35.8542   4
   1  -5  -4 1227.61 36.3022   4
   4   1   4 1180.46 39.3648   2
   4   1  -4 1183.97 36.4058   1
  -5   4   4 1204.53 34.7627   3
   1  -5  -4 1216.05 35.1834   3
   1  -5   4 1146.54 34.5264   3
   5  -4  -4 1179.98 35.6003   1
  -4  -1   4 1170.71 34.6915   2
   4   1   4 1176.10 36.7171   1
  -1   5   4 1188.18 33.6315   2
  -5   4   4 1226.21 38.3867   1
   4   1   5 10.5757 3.46019   2
  -5   4   5 8.16648 1.33326   3
  -5   4   5 7.28628 2.42065   1
   4   1   5 10.4961 2.27352   1
   5  -4  -5 8.63244 1.80846   1
  -4  -1   5 14.7258 2.69195   1
   4   1  -5 9.18468 2.14305   1
  -1   5   5 12.4810 1.38575   2
  -1   5  -5 11.1629 1.16261   4
  -5   4   5 8.38319 1.97600   4
   1  -5  -5 12.7333 2.37465   4
  -4  -1   5 5.18076 1.43110   4
  -1   5  -6 173.906 6.76235   4
  -5   4   6 185.776 6.81911   3
  -4  -1   6 193.017 9.46818   1
   5  -4  -6 180.179 7.91670   1
   4   1   6 173.451 8.89067   1
  -5   4   6 179.247 5.63792   2
  -1   5   6 187.341 7.10798   2
   1  -5   6 178.030 9.19585   1
   4   1  -6 198.565 9.22375   1
  -4  -1   6 191.720 7.79233   4
  -5   4   6 178.015 8.78319   4
   1  -5  -6 168.897 8.93867   4
  -1   5  -7 8.47225 1.55182   4
   1  -5   7 8.35708 2.55082   1
   5  -4  -7 9.45885 2.06874   1
   4   1   7 6.43624 2.18769   1
  -4  -1   7 6.41920 2.30449   1
  -5   4   7 6.53960 0.84628   2
  -1   5   7 8.56607 1.69475   2
  -4  -1   7 5.12516 1.75122   4
  -5   4   7 4.93497 2.41292   4
  -4  -1  -7 10.0093 2.69540   4
  -1   5  -8 370.280 13.3843   4
   4   1   8 390.525 12.4194   1
   5  -4  -8 414.795 14.2173   1
   1  -5   8 384.950 15.8866   1
  -4  -1   8 361.949 15.8871   1
  -5   4   8 392.472 11.6445   2
  -1   5   8 401.924 13.5407   2
  -5   4   8 422.265 16.7384   1
   4   1   8 370.342 14.8995   1
  -4  -1  -8 406.928 16.1994   4
  -5   4  -8 373.167 14.7052   4
  -4  -1   8 379.607 14.2659   4
  -5   4   8 403.838 15.7791   4
  -5   4   9 4.10616 1.13116   2
  -1   5   9 3.67631 1.82148   2
   1  -5   9 7.49306 2.92032   1
   4   1   9 5.38199 1.41788   1
  -5   4  -9 4.64711 2.22654   3
  -4  -1   9 1.34364 2.53199   1
  -4  -1  -9 3.85741 2.73055   4
   1  -5  -9 2.65878 2.79282   4
  -5   4   9 0.81778 2.46295   4
  -5   4  -9 1.67630 2.18179   4
  -4  -1   9 3.86684 2.14210   4
  -5   4   9 3.54889 2.79585   1
   4   1   9 5.83754 2.39603   1
   1  -5  10 70.9764 6.26084   1
  -5   4 -10 80.5772 4.69265   3
  -5   4  10 80.1308 3.42016   2
  -1   5  10 79.5129 4.89575   2
   4   1  10 77.9358 3.73584   1
  -4  -1  10 73.9734 6.61312   1
  -5   4  10 71.5213 6.56518   1
   4   1  10 90.1149 5.10595   1
  -5   4  10 74.7899 6.31194   4
  -5   4 -10 77.6367 5.84988   4
   1  -5 -10 70.1423 6.45125   4
  -4  -1 -10 89.2908 7.04795   4
  -4  -1  11-0.46913 3.23071   1
   1  -5  11-0.88716 2.82390   1
   5  -4  11-1.06056 2.66694   1
  -5   4  11 1.73984 3.02252   1
  -5   4 -11 0.74627 2.70618   4
  -1   5  11 3.02238 2.20519   2
  -4  -1  12 64.0890 6.45790   1
   4   1  12 84.0232 8.06705   2
  -5   4 -12 61.2368 5.74726   4
   5  -4  12 66.4776 5.77958   1
  -5   5   0 207.793 9.04864   3
   0  -5   0 179.088 7.06165   2
   5   0   0 193.187 7.67650   2
   0  -5   0 194.433 6.85327   4
   0  -5   0 182.365 7.58010   3
  -5   0   0 194.696 8.77319   1
  -5   5   1 42.7183 3.48448   3
   5  -5  -1 40.5909 3.68238   1
   0  -5  -1 38.1660 2.43331   2
   5   0  -1 40.2050 2.69295   2
   5   0   1 39.7563 3.37264   2
   0  -5   1 36.9477 1.87668   4
   0  -5  -1 39.8483 2.74402   4
  -5   0   1 48.3233 3.87589   1
   5   0   1 36.1855 3.84409   1
  -5   0  -1 38.0621 3.41217   1
   0  -5   1 41.0331 2.82838   3
  -5   0  -2 1448.27 41.5884   1
   0  -5  -2 1405.55 40.7152   4
   5   0   2 1347.32 43.2662   1
   0  -5  -2 1412.44 39.0952   1
   0  -5   2 1396.54 40.1414   3
  -5   5   2 1392.84 41.2113   3
   0   5   2 1400.01 39.5552   2
   5   0  -2 1397.43 39.7846   2
  -5   0   2 1377.58 40.0647   2
   5   0   2 1373.97 42.5736   2
   0  -5  -2 1379.54 39.5582   2
   5   0  -2 1386.25 41.8847   1
   5  -5  -2 1364.51 41.8206   1
   5   0   3 5.14191 1.91645   1
  -5   5   3 5.46130 1.99013   1
  -5   0   3 10.5824 1.46868   2
   0   5   3 8.15366 1.26331   2
   5   0  -3 8.25102 1.88432   1
   0  -5  -3 5.60915 1.51261   4
  -5   5   3 6.56776 1.53497   4
   0  -5   3 6.44494 1.28697   3
  -5   5   3 3.18567 1.25983   3
   5  -5  -3 6.26965 1.60056   1
   0  -5  -3 8.17210 1.32808   2
   0  -5  -3 6.33720 0.71792   1
   0  -5  -4 145.127 7.28658   4
  -5   5   4 153.387 7.24097   4
   5  -5  -4 154.114 6.86901   1
  -5   5   4 157.859 9.20426   1
   5   0   4 136.467 8.43549   1
   0   5   4 141.292 5.87910   2
  -5   0   4 136.090 6.00440   2
   5   0  -4 128.934 7.24212   1
  -5   5   4 144.495 6.33747   3
   0  -5   4 137.767 5.91236   3
   5   0   5 49.6665 4.89248   1
  -5   5   5 49.9555 5.10008   1
  -5   0   5 46.8440 3.38777   4
  -5   5   5 42.9707 3.01805   3
  -5   5  -5 40.7834 4.35188   3
   0  -5   5 40.0628 2.68366   3
  -5   0   5 41.2482 3.02987   2
   0   5   5 45.9967 3.06974   2
  -5   5   5 40.9935 3.71243   4
   0  -5  -5 46.8591 4.12454   4
  -5   0   5 48.9294 4.44790   1
   5   0  -5 39.3241 3.96801   1
   5  -5  -5 46.1992 3.41102   1
   0  -5   6 536.617 19.3603   1
   5   0  -6 502.909 18.6841   1
  -5   5   6 523.706 16.4470   3
   5  -5  -6 517.922 17.1080   1
  -5   0   6 530.027 19.7416   1
   0   5   6 514.394 17.0508   2
   0  -5  -6 488.546 18.7987   4
  -5   5   6 515.339 18.8767   4
  -5   0   6 510.068 17.3887   4
   5   0   6 481.466 20.2030   1
  -5   5   6 589.228 20.8551   1
  -5   5  -6 568.637 20.0385   3
   5   0   7 5.69129 2.53714   1
   0  -5  -7 4.11279 1.64089   3
  -5   5  -7 4.64867 2.18579   3
   0  -5  -7 10.4625 2.60179   4
  -5   0   7 7.33970 2.18552   4
  -5   5   7 10.1368 2.68466   4
   0   5   7 8.35244 1.91232   2
  -5   0   7 8.39745 1.89970   2
   5   0  -7 6.33344 2.31823   1
  -5   0   7 8.21285 2.87284   1
   5  -5  -7 7.62109 1.79034   1
   0  -5   7 7.90407 2.72830   1
   0   5   8 20.8438 2.80657   2
  -5   0   8 26.1952 2.85525   2
  -5   5  -8 28.7855 3.47368   3
  -5   0   8 18.6816 3.61702   1
  -5   5  -8 23.4025 3.02513   4
  -5   0   8 21.5426 3.05953   4
  -5   0  -8 22.4534 3.66099   4
  -5   5   8 19.6824 3.57135   4
   0  -5  -8 21.0545 2.64937   3
   5   0   8 18.3712 3.81194   1
   0  -5   8 27.6493 3.87960   1
   5  -5  -8 24.0755 2.69542   1
   0   5   9 19.4041 2.82707   2
  -5   0   9 17.7097 2.74470   2
   0  -5  -9 18.9227 3.99727   4
  -5   5   9 17.2760 3.64062   4
  -5   0  -9 15.0256 3.32144   4
  -5   0   9 16.7484 3.01572   4
  -5   5  -9 15.1601 2.89774   4
  -5   0   9 17.5560 3.74283   1
   0  -5  -9 16.3045 2.46808   3
  -5   5  -9 20.7556 2.69111   3
   5   0   9 20.6301 3.97925   1
   0  -5   9 18.3030 3.62796   1
   0  -5 -10 125.723 6.37045   3
  -5   5 -10 117.186 5.59349   3
  -5   5  10 121.032 8.24499   4
  -5   0 -10 139.037 8.67736   4
   0  -5 -10 123.001 8.50292   4
  -5   0  10 121.015 7.26786   4
  -5   5 -10 126.788 7.32729   4
  -5   0  10 136.395 6.66751   2
   0   5  10 122.238 6.70651   2
   5   0  10 128.558 5.69768   1
   0  -5  10 123.203 8.25454   1
  -5   5  10 143.645 8.39249   1
   5   0  10 144.598 8.47350   1
  -5   0  10 139.008 9.02489   1
  -5   0  11 13.4720 3.91048   1
   5  -5  11 2.73645 3.10957   1
   0  -5  11 11.9203 3.81444   1
   0   5  11 9.72485 2.81067   2
  -5   0  11 10.6206 2.55345   2
  -5   5 -11 7.23036 2.90378   4
   0  -5 -11 6.59877 2.10952   3
  -5   5  11 8.44310 3.53497   1
  -5   0  12-2.49308 3.55644   1
   5  -5  12-1.93103 3.32577   1
  -5   5 -12 2.79038 3.00364   4
  -5   6   0 884.253 27.7187   3
  -1  -5   0 862.269 25.4437   2
   6  -1   0 848.522 26.1990   2
  -6   1   0 828.975 27.8607   1
  -1  -5   0 829.580 24.8788   4
  -1  -5   0 844.750 25.8226   1
  -1  -5   1 1067.36 32.1824   1
  -1  -5  -1 1050.86 31.0936   1
  -6   1  -1 1037.70 33.5706   1
  -5   6   1 1070.38 33.0049   3
  -1  -5   1 1069.13 31.5644   2
  -1  -5  -1 1054.52 31.1027   2
  -6   1   1 1022.86 31.9240   2
   6  -1   1 1089.63 33.1540   2
   6  -1  -1 1072.72 31.3464   2
   6  -1  -1 1083.49 34.0787   1
   6  -1   1 1063.80 35.2189   1
  -1  -5   1 1060.87 30.0428   4
  -1  -5  -1 1077.12 31.4358   4
   5  -6  -1 1100.88 33.4054   1
  -1  -5   2 78.9116 4.93205   1
  -5   6   2 80.3226 4.96220   3
  -1  -5   2 82.6732 4.31425   3
  -1  -5  -2 79.6457 3.63841   1
   6  -1  -2 86.0797 5.66129   1
   1   5   2 76.4024 4.10268   2
   6  -1  -2 72.6754 3.88444   2
  -6   1   2 75.8332 4.30746   2
  -1  -5  -2 76.2519 4.10611   2
  -1  -5  -2 75.9783 4.53097   4
  -1  -5   2 76.8275 2.79614   4
   6  -1   2 86.9244 6.14277   2
   5  -6  -2 94.0654 5.49759   1
   6  -1   2 69.4053 6.13508   1
  -6   1  -2 84.9621 5.42483   1
  -5   6   3 613.274 19.8082   3
  -1  -5   3 601.785 18.8822   3
  -5   6  -3 598.819 21.7533   3
   6  -1  -3 586.854 20.9504   1
  -1  -5  -3 605.925 17.4467   1
  -1  -5  -3 615.341 19.2011   2
   1   5   3 593.390 18.9268   2
  -6   1   3 587.149 18.9483   2
   6  -1   3 621.794 23.6914   2
  -1  -5  -3 606.494 20.0298   4
   5  -6  -3 616.839 20.2308   1
   6  -1   3 598.510 23.2529   1
  -5   6  -4 592.569 21.4313   3
   6  -1   4 582.027 22.8921   1
   6  -1  -4 579.392 20.4914   1
   1   5   4 583.931 18.7717   2
  -6   1   4 583.719 18.3422   2
   5  -6  -4 599.244 19.3689   1
  -5   6   4 575.840 19.9661   4
  -1  -5  -4 584.348 20.0423   4
  -1  -5   4 574.060 18.2366   3
  -5   6   4 602.959 19.0720   3
  -1  -5  -5 629.126 21.5529   4
  -5   6   5 609.007 21.3316   4
  -6   1   5 644.514 22.7770   1
  -6   1   5 613.135 20.1472   4
  -1  -5   5 620.375 18.9156   3
  -5   6   5 602.438 19.5963   3
  -5   6  -5 662.053 22.4774   3
   6  -1   5 586.519 23.7184   1
   1   5   5 598.822 19.9473   2
  -6   1   5 625.542 19.3191   2
   6  -1  -5 644.433 21.7727   1
   5  -6  -5 610.468 19.7059   1
   1   5   6 8.63997 2.06533   2
  -5   6   6 8.44530 2.53534   4
  -1  -5  -6 7.36170 2.44784   4
  -6   1   6 4.63078 1.76511   4
  -1  -5   6 9.48843 2.65370   1
   6  -1  -6 5.20984 2.09823   1
  -6   1   6 7.20633 2.68429   1
   5  -6  -6 7.31130 1.65742   1
  -1  -5   6 7.50758 1.29088   3
  -6   1   6 6.07165 1.27297   3
  -5   6  -6 5.28994 2.10492   3
  -5   6   6 8.65955 2.71614   1
   6  -1   6 6.62922 2.99682   1
  -5   6  -7 113.628 6.50798   3
  -5   6   7 125.926 7.82564   1
   6  -1   7 96.5749 7.96831   1
   1   5   7 106.622 6.06459   2
  -6   1   7 105.954 3.82639   3
  -6   1   7 103.674 7.63583   1
  -1  -5  -7 108.772 7.19580   4
  -5   6   7 104.553 7.02904   4
  -6   1   7 100.769 6.01963   4
   6  -1  -7 100.595 6.60316   1
   5  -6  -7 105.388 5.21947   1
  -1  -5   7 109.445 7.38678   1
  -1  -5   8 185.809 10.0103   1
   5  -6  -8 170.810 7.27675   1
   6  -1  -8 180.242 9.42244   1
  -5   6  -8 166.669 7.97669   3
  -6   1   8 177.623 7.48977   2
   1   5   8 187.811 8.68634   2
  -5   6   8 207.033 10.0637   1
   6  -1   8 165.009 10.7441   1
  -6   1   8 169.208 10.2597   1
  -1  -5  -8 187.317 8.15949   3
  -5   6   8 182.511 9.91607   4
  -5   6  -8 175.765 8.12528   4
  -6   1   8 156.503 8.30482   4
  -1  -5  -9 184.587 8.11074   3
  -5   6  -9 172.098 7.44533   3
   6  -1   9 204.220 11.6536   1
  -6   1   9 183.313 7.69047   2
   1   5   9 177.141 8.54808   2
  -6   1   9 190.702 10.9246   1
  -6   1  -9 177.498 9.82346   4
  -5   6   9 151.047 9.47279   4
  -5   6  -9 155.494 8.02174   4
  -6   1   9 173.440 8.79695   4
  -1  -5   9 171.645 9.94392   1
  -1  -5 -10-1.44551 2.20333   3
  -5   6 -10 1.33491 1.60621   3
  -6   1  10 3.72847 3.66806   1
   1   5  10 0.90812 2.35177   2
  -6   1  10 0.21581 1.90119   2
  -1  -5  10 0.47091 2.83388   1
  -5   6 -10-0.60995 2.40300   4
  -6   1  10-0.35346 2.47797   4
  -6   1 -10 1.76927 3.04605   4
   6  -1  10-1.59325 3.55620   1
   6  -1  10 0.65587 1.73452   1
   5  -6  11 5.10476 3.11242   1
  -1  -5 -11 1.81080 2.19731   3
  -6   1  11 4.48860 2.23959   2
   1   5  11 3.82153 2.48945   2
  -5   6 -11 3.73325 2.50438   4
  -6   1  11 7.67572 3.11277   4
  -6   1  11 6.43176 3.98322   1
  -2  -4   0 717.166 22.2258   1
  -2  -4   0 709.402 21.8466   2
   6  -2   0 727.650 22.7404   2
  -6   2   0 721.449 24.7175   1
  -4   6   0 719.730 23.4203   3
  -4   6   1 75.7148 4.24760   4
  -4   6   1 85.7780 4.97750   3
   4  -6   1 79.3256 5.13237   3
  -2  -4  -1 75.1643 3.93613   1
   6  -2  -1 82.3591 4.19644   2
  -2  -4  -1 81.0821 4.22221   2
  -2  -4   1 80.3633 4.63582   1
   6  -2  -1 76.7421 5.62807   1
  -6   2  -1 77.6108 5.48075   1
   6  -2   1 86.1717 5.50412   2
   6  -2  -2 110.868 6.52959   1
  -2  -4   2 98.4964 5.62142   1
  -4   6   2 109.867 5.61120   3
  -4   6  -2 105.957 6.18946   3
  -2  -4  -2 97.6993 4.31664   1
  -2  -4  -2 100.767 5.03512   2
  -6   2   2 104.448 5.07787   2
   2   4   2 98.3447 4.96623   2
   6  -2  -2 101.815 4.43517   2
   6  -2   2 97.9759 7.01736   1
   4  -6  -2 98.0217 5.46717   1
   4  -6  -3 122.096 5.99063   1
   6  -2   3 129.712 8.15451   1
  -4   6   3 127.159 6.04450   3
  -4   6  -3 110.217 6.56647   3
   4  -6  -3 114.535 6.33301   3
   6  -2  -3 122.579 4.91540   2
   2   4   3 118.111 5.84816   2
  -6   2   3 123.122 5.42790   2
  -2  -4  -3 120.436 4.63198   1
  -2  -4  -3 123.228 5.97124   2
  -2  -4  -3 118.928 6.19018   4
   6  -2  -3 133.279 7.04599   1
  -4   6   4 587.355 18.8002   3
  -2  -4   4 567.523 17.7186   3
  -4   6  -4 615.136 20.3413   3
   6  -2  -4 576.099 20.1429   1
  -6   2   4 569.404 17.9257   2
   2   4   4 557.973 19.2731   2
  -2  -4  -4 596.672 19.8808   4
  -2  -4   4 588.430 16.8065   4
   4  -6  -4 593.695 18.5487   1
   6  -2   4 567.395 22.0520   1
  -6   2   5 5.77236 1.81706   4
  -2  -4   5 7.32539 1.24903   3
  -4   6  -5 12.4156 2.33118   3
  -6   2   5 8.12147 1.51500   3
   6  -2   5 8.21794 2.66373   1
   4  -6  -5 6.00580 1.42287   1
   6  -2  -5 8.11324 2.07969   1
  -2  -4   5 7.38412 1.09488   4
  -4   6   5 7.13724 2.10368   4
  -2  -4  -5 6.43853 1.94839   4
  -6   2   5 9.81312 1.53707   2
   2   4   5 10.4832 2.28601   2
  -6   2   5 7.24555 2.38366   1
  -4   6   6 4.47221 2.07801   4
  -6   2   6 3.02580 1.71540   4
  -2  -4  -6 1.78362 1.78569   4
   6  -2   6 5.07906 2.49698   1
  -2  -4   6 1.16759 1.98116   1
   6  -2  -6 4.48315 2.04020   1
  -4   6  -6 3.37143 1.61752   3
  -6   2   6 2.54277 0.92394   3
  -2  -4   6 2.40197 0.88246   3
   4  -6  -6 4.34889 1.30764   1
  -6   2   6 2.94069 1.07815   2
   2   4   6 4.41898 1.92173   2
  -6   2   6 3.61397 2.37436   1
  -6   2   7 83.3839 4.11954   2
   2   4   7 51.0035 5.05372   2
  -2  -4   7 87.3698 6.35610   1
   6  -2  -7 80.0140 5.55425   1
   4  -6  -7 74.6767 3.79823   1
  -6   2   7 86.5186 6.71998   1
  -4   6  -7 73.5121 4.43676   4
  -2  -4  -7 78.9830 6.01534   4
  -6   2   7 78.6258 5.29825   4
  -4   6   7 63.0920 5.60945   4
  -6   2   7 81.6271 3.19577   3
  -4   6  -7 70.9826 4.45788   3
  -2  -4   8 172.196 9.69332   1
   2   4   8 181.084 9.43385   2
   6  -2  -8 183.278 9.08655   1
  -4   6  -8 187.700 7.47401   3
  -6   2   8 164.645 8.74289   4
  -4   6   8 182.479 10.0500   4
  -6   2   8 183.112 10.5723   1
  -6   2   9 2.07545 3.00898   1
  -4   6  -9 1.05410 1.86377   4
  -6   2  -9 0.40097 2.32535   4
  -2  -4  -9-1.37605 3.10087   4
  -6   2   9 0.71112 2.23943   4
  -4   6   9 1.85798 2.55185   4
  -4   6  -9 1.58162 1.36180   3
   2   4   9 1.52953 2.65724   2
  -2  -4   9-0.45253 2.48611   1
   4  -6  10 0.86007 2.70862   1
   2   4  10 2.63766 2.71057   2
  -2  -4 -10 0.22850 1.94509   3
  -6   2  10 2.64050 3.36214   1
   6  -2  10 0.58606 3.31052   1
  -2  -4  10-0.46655 2.93857   1
  -6   2  10 2.12977 1.76776   2
  -6   2  10 3.01481 2.61898   4
  -4   6 -10 1.95177 1.98911   4
  -6   2 -10 0.41957 2.69957   4
  -4   6 -11 27.1841 3.62319   4
  -6   2  11 34.6636 4.55520   4
  -6   2  11 39.3172 6.01359   1
   6  -2  11 34.7276 3.62282   1
   4  -6  11 43.9008 5.14052   1
  -6   2  11 37.0540 3.14884   2
   2   4  11 27.6245 4.12855   2
  -2  -4 -11 33.3038 3.37541   3
  -2  -4  11 39.8872 5.33633   1
   6  -2  11 45.1986 6.20131   1
  -6   2  12 27.6958 5.53987   1
   3   3   0 163.135 6.88997   1
  -3   6   0 148.464 6.98206   3
  -3  -3   0 153.478 6.58448   1
   3   3   0 152.213 6.31620   2
   6  -3   0 138.765 6.90797   2
  -3   6   0 142.496 6.05635   4
   6  -3   0 144.484 8.29286   1
   3  -6   1 1026.53 31.5711   3
  -3  -3   1 1046.95 31.3772   1
  -3  -3  -1 1061.22 30.9050   2
   6  -3  -1 1026.50 30.3952   2
  -3   6   1 1025.71 31.3370   3
  -3  -3  -1 1045.19 30.5641   1
   6  -3  -1 1026.90 33.4877   1
  -3   6   1 1013.89 30.8518   4
   3   3   1 1050.91 30.7293   1
   3   3   2 1534.77 44.6554   1
  -3   6   2 1602.49 45.7696   3
  -3   6  -2 1651.63 46.4531   3
   3  -6   2 1526.40 46.0222   3
   3  -6  -2 1572.14 43.4423   2
  -3  -3  -2 1511.68 45.5060   2
   6  -3  -2 1620.72 44.1040   2
  -3  -3  -2 1530.50 44.7155   1
   6  -3  -2 1663.40 47.8125   1
  -3  -3   2 1517.77 46.2087   1
  -3   6   2 1635.81 46.0493   4
  -6   3   3 645.823 19.9293   2
   3  -6  -3 670.494 21.2422   4
  -3   6  -3 664.078 21.2995   3
   3  -6  -3 671.523 21.1986   3
   3  -6   3 655.825 21.1705   3
   6  -3  -3 669.573 18.9746   2
  -3  -3  -3 625.274 19.4961   1
   3  -6  -3 621.756 20.1821   1
   6  -3   3 643.587 23.5418   1
   3   3  -3 637.938 21.6474   1
   3   3   3 640.963 19.3392   1
   3   3   3 655.624 21.5651   2
   3  -6  -3 646.365 18.4435   2
   6  -3  -3 675.839 22.1391   1
  -3   6  -4 157.263 7.28189   3
  -6   3   4 149.632 6.84516   3
   6  -3  -4 151.258 7.71760   1
   3   3   4 152.711 8.13335   2
  -6   3   4 154.066 6.03081   2
  -3  -3   4 163.412 5.84048   4
   3  -6  -4 159.083 7.74543   4
   3  -6  -4 157.388 6.23706   1
   3   3   4 160.978 5.52545   1
  -6   3   5 393.139 13.2236   3
  -3   6  -5 394.065 12.6370   4
  -3  -3   5 399.353 12.8418   4
  -3  -3  -5 433.276 15.5372   4
  -3   6   5 394.401 15.5660   4
  -6   3   5 399.847 16.6963   1
  -6   3   5 420.182 12.7578   2
   3   3   5 415.034 16.2639   2
  -3   6  -5 414.701 14.1846   3
  -3  -3   5 391.093 12.3905   3
  -6   3   5 417.129 14.8094   4
   3  -6  -5 378.836 15.1206   4
   3  -6  -5 395.679 12.4387   1
   6  -3  -5 415.424 15.0873   1
  -3  -3   6 742.181 25.0650   1
  -3  -3  -6 725.753 24.5479   4
  -6   3   6 690.913 23.5825   4
  -3   6  -6 722.662 21.6294   4
  -3  -3   6 702.240 21.8526   4
  -3   6   6 740.192 25.0443   4
  -6   3   6 726.278 25.9483   1
  -6   3   6 701.829 21.0204   2
   3   3   6 724.708 25.6716   2
  -3   6  -6 727.958 22.3809   3
  -3  -3   6 691.446 20.3701   3
  -6   3   6 740.504 21.3235   3
   6  -3  -6 718.367 23.7075   1
   3  -6  -6 728.377 20.7208   1
   3  -6  -6 722.128 24.6039   4
  -3  -3   7 184.505 9.81268   1
  -3   6   7 176.635 5.53564   2
  -6   3   7 189.887 6.73984   2
   3   3   7 186.211 10.3647   2
  -3   6  -7 187.990 7.38348   3
  -6   3   7 191.977 6.43255   3
  -6   3   7 193.858 10.5681   1
   6  -3  -7 181.397 8.75315   1
  -3   6   7 170.469 9.62200   4
  -3  -3   7 185.896 7.60101   4
  -6   3   7 183.965 8.91802   4
  -3   6  -7 182.964 7.43726   4
  -3  -3   8 93.2045 6.95456   1
  -3   6   8 89.1908 3.25643   2
  -6   3   8 96.3266 4.30047   2
   3   3   8 106.886 7.60466   2
  -6   3   8 85.4606 6.09965   4
  -3   6  -8 91.9581 4.99262   4
  -3   6   8 91.5149 7.03367   4
  -6   3   8 100.554 7.50528   1
  -3   6  -8 102.557 4.45554   3
   6  -3  -8 93.7852 5.91503   1
   3  -6  -9 45.4435 5.30199   4
  -6   3   9 54.1773 3.13328   2
  -3   6   9 55.5707 2.27318   2
  -6   3  -9 57.6876 5.17770   4
  -3  -3  -9 51.6050 5.44232   4
  -6   3   9 54.2519 6.01859   1
  -3  -3   9 39.1376 4.83262   1
  -6   3   9 40.7111 4.67931   4
   3   3   9 41.7747 5.26884   2
   3  -6   9 51.1251 5.32392   1
  -3  -3  10 178.564 10.1564   1
   3   3  10 197.936 10.3538   2
  -3   6  10 153.157 5.17892   2
  -6   3  10 171.409 6.48959   2
  -6   3  10 174.559 10.6974   1
   3  -6  10 191.727 10.1465   1
  -3   6 -10 156.186 7.62325   4
  -3  -3 -10 164.802 10.0101   4
  -6   3  10 172.691 9.37773   4
  -6   3 -10 156.133 9.00124   4
   3  -6 -10 172.395 10.0088   4
  -6   3 -11 13.4576 3.63067   4
  -3   6 -11 11.2760 2.81092   4
  -3  -3 -11 11.0797 2.38942   3
  -6   3  11 19.8297 4.71211   1
   3  -6  11 12.8545 3.63006   1
   6  -3  11 16.7892 3.33767   1
   3   3  11 16.5006 4.00816   2
  -3  -3  11 14.2669 4.01538   1
   4   2   0 1197.49 35.5500   1
   6  -4   0 1188.16 37.5515   1
   4   2   0 1183.36 34.6926   2
  -4  -2   0 1208.19 35.3519   1
  -2   6   0 1195.51 34.1707   4
  -2   6   0 1131.43 35.0761   3
  -2   6  -1 136.734 5.12604   4
  -2   6   1 144.401 6.20112   4
   6  -4  -1 135.031 5.89917   2
  -4  -2  -1 142.553 6.43567   1
   2  -6  -1 132.431 5.80636   4
   2  -6   1 137.945 6.41102   3
   4   2   1 129.445 6.33239   1
  -4  -2   1 132.776 6.61515   1
   4   2  -1 142.134 6.00015   2
   4   2   1 138.234 6.34258   2
   6  -4   1 117.268 7.46017   1
   6  -4  -1 134.289 7.66196   1
   4   2  -2 124.827 6.74260   1
  -2   6  -2 139.773 6.37505   3
   2  -6   2 123.852 6.22263   3
   4   2   2 136.928 6.24575   1
   2  -6  -2 140.634 5.08539   2
   6  -4  -2 142.358 5.19123   2
   6  -4  -2 139.335 7.56296   1
  -4  -2  -2 129.321 6.62640   2
   2  -6  -2 137.816 6.34733   4
  -2   6   2 133.005 6.47242   4
  -2   6  -2 139.588 4.64778   4
  -4  -2  -2 134.935 6.18827   1
   4   2  -3 81.1977 5.24220   1
  -2   6  -3 82.0797 4.60489   3
  -6   4   3 83.8493 4.90555   3
   2  -6   3 74.0996 4.53847   3
   6  -4  -3 86.0204 3.23742   2
   4   2   3 89.8196 5.79923   2
   2  -6  -3 86.6201 3.61125   2
   2  -6  -3 73.3394 4.71600   4
   6  -4  -3 81.1496 5.38490   1
   4   2   3 81.4546 4.41668   1
   2  -6  -3 81.8679 3.97020   1
  -4  -2  -3 86.1429 4.42086   1
  -2   6  -4 718.772 21.4421   3
   2  -6   4 673.159 21.5144   3
  -6   4   4 709.050 21.4181   3
   2  -6  -4 695.595 22.6331   4
  -2   6  -4 670.277 18.9220   4
   2  -6  -4 667.930 19.7329   1
   4   2   4 708.420 24.4697   2
  -6   4   4 658.781 21.9696   4
   4   2  -4 656.128 22.7584   1
   4   2   4 654.331 20.9388   1
   6  -4  -4 710.765 22.5946   1
   6  -4  -5 124.035 6.73786   1
  -2   6   5 138.252 4.96628   2
  -4  -2   5 126.755 6.39030   2
  -6   4   5 146.091 5.11924   2
   4   2   5 138.837 8.90004   2
   4   2  -5 140.727 7.64220   1
   2  -6  -5 135.565 4.42362   1
   4   2   5 139.497 5.94060   1
   2  -6  -5 145.569 7.65287   4
  -6   4   5 135.224 7.02627   4
  -2   6  -5 135.751 4.86303   4
  -4  -2   5 147.106 5.96727   4
  -6   4   5 138.355 5.97104   3
  -2   6  -5 143.441 6.13554   3
  -2   6  -6 28.7529 2.07693   4
  -6   4   6 27.8867 3.32894   4
  -4  -2   6 32.8398 2.72651   4
   2  -6  -6 25.5653 3.34742   4
  -2   6   6 25.4119 3.47138   4
  -4  -2   6 29.3203 1.64975   3
  -6   4   6 25.2642 2.19960   3
   6  -4  -6 29.1548 3.13097   1
  -4  -2   6 36.5823 3.26294   2
  -2   6   6 28.3677 1.81895   2
  -6   4   6 29.1331 1.74938   2
  -4  -2   6 21.0406 3.44440   1
   4   2   6 27.5808 2.22380   1
  -6   4   6 27.0586 4.02010   1
   4   2   6 33.3194 4.75973   2
   4   2   7 5.28718 1.13288   1
  -6   4   7 5.29335 2.68512   1
  -6   4   7 5.46666 1.03267   2
  -2   6   7 5.09325 1.14338   2
  -4  -2   7 4.64881 2.45519   1
  -2   6  -7 7.81065 1.43678   4
  -4  -2   7 8.15109 1.91374   4
  -6   4   7 4.48640 2.15475   4
   2  -6  -7 3.14764 2.48234   4
  -6   4   7 5.52840 1.22119   3
   2  -6  -7 4.96492 1.89260   3
   6  -4  -7 6.35794 2.12184   1
   4   2   7 0.58243 3.15700   2
   2  -6   7 5.31564 2.49417   1
   2  -6  -8 219.778 9.18093   3
  -4  -2   8 219.434 8.96216   4
  -4  -2  -8 222.968 10.9398   4
  -2   6  -8 193.839 7.96578   4
  -6   4   8 205.715 10.1629   4
   4   2   8 222.079 12.4456   2
   4   2   8 182.210 6.54034   1
  -2   6   8 208.226 7.25318   2
  -6   4   8 216.744 6.85504   2
   4   2   8 201.557 6.35787   1
   2  -6   8 209.368 10.7517   1
   6  -4  -8 221.899 9.37390   1
  -6   4   8 220.365 11.5305   1
  -4  -2   8 225.250 11.1187   1
   6  -4  -9 88.6542 5.70974   1
   2  -6   9 86.6738 6.82973   1
   2  -6  -9 92.0085 5.35416   3
  -6   4   9 93.6732 7.52497   1
  -6   4   9 89.1461 3.63273   2
  -2   6   9 92.5929 4.15458   2
   4   2   9 86.2520 7.80883   2
  -6   4  -9 89.1431 6.18149   4
  -4  -2   9 87.3443 5.58899   4
  -6   4   9 86.8938 6.52623   4
  -4  -2  -9 86.6785 6.84745   4
  -4  -2   9 75.8737 6.53154   1
  -4  -2 -10-0.47707 2.93855   4
  -6   4 -10 0.37008 2.45420   4
  -6   4  10 0.84370 2.76991   4
   2  -6 -10-0.23927 1.94970   3
  -6   4 -10 0.63403 2.31795   3
  -6   4  10-0.50479 3.17918   1
  -4  -2  10 0.48121 3.03065   1
   2  -6  10-0.89675 2.91451   1
  -6   4  10 0.75201 1.14302   2
  -2   6  10 0.62474 1.43049   2
   4   2  10 0.54917 3.34398   2
   4   2  11 1.03730 3.63611   2
   6  -4  11 1.39554 2.59180   1
  -6   4  11-0.49465 3.40646   1
   2  -6  11 0.91736 3.21569   1
  -6   4 -11-1.15178 2.80718   4
  -4  -2  11 3.92183 3.67011   1
  -4  -2  12 44.5584 4.69145   2
   4   2  12 43.7985 6.01370   2
   5   1   0 385.253 14.5270   1
   5   1   0 397.394 13.4448   2
   6  -5   0 397.667 15.5637   1
  -5  -1   0 407.124 14.5799   1
   1  -6   0 381.802 12.3750   4
  -1   6   0 396.070 12.5937   4
   1  -6   0 370.777 13.5099   3
  -1   6   1 448.506 14.9896   4
   1  -6  -1 471.108 14.8741   4
   6  -5  -1 454.197 17.2913   1
  -5  -1  -1 457.941 16.1536   1
   1  -6   1 437.246 15.3243   3
  -6   5   1 453.769 16.5806   3
   5   1  -1 463.430 15.0064   2
   1  -6  -1 454.662 14.3091   2
   5   1   1 462.574 15.9378   2
  -5  -1   1 447.390 16.3413   1
   5   1   1 481.022 16.6700   1
   6  -5   1 432.697 17.4237   1
   1  -6  -2 1.35546 0.79384   2
  -5  -1   2 8.50559 1.44793   2
   5   1   2-0.31935 1.29328   2
   5   1  -2 1.39838 0.97478   2
  -1   6   2 0.91914 1.24488   4
   1  -6  -2-0.21342 1.06802   4
  -6   5   2 0.97391 1.97145   1
   6  -5  -2 1.01030 1.43366   1
  -5  -1  -2 1.73702 1.32434   1
   1  -6   2 6.81367 1.40953   3
  -6   5   2 0.81769 1.18787   3
   5   1  -2 1.82633 1.38533   1
   5   1   2 0.61441 1.17693   1
   6  -5  -2 1.53860 0.71399   2
   1  -6   3 395.484 14.0427   3
  -6   5   3 432.119 14.7478   3
   6  -5  -3 419.627 11.8614   2
   1  -6  -3 412.223 13.1667   2
   5   1  -3 406.887 15.5296   1
   6  -5  -3 407.047 15.3944   1
   5   1   3 393.762 15.5392   1
  -1   6   3 415.041 15.0492   4
   1  -6  -3 417.005 14.8588   4
  -5  -1  -3 410.373 14.4099   1
  -6   5   3 430.989 18.1723   1
   1  -6  -4 266.313 7.91511   1
   5   1  -4 275.675 11.6814   1
   1  -6   4 267.175 10.0696   3
  -6   5   4 277.054 10.2829   3
  -1   6   4 263.006 9.05566   2
   5   1   4 281.075 13.5963   2
   1  -6  -4 277.382 11.2659   4
   5   1   4 281.640 11.8616   1
   6  -5  -4 271.727 10.9582   1
   1  -6  -4 263.135 8.07916   1
  -6   5   4 289.205 11.1224   4
  -5  -1   5 111.571 5.37067   4
   1  -6  -5 104.246 5.76244   3
  -6   5   5 110.140 5.31662   3
   1  -6   5 111.427 5.34937   3
  -5  -1   5 115.817 7.15013   1
   6  -5  -5 104.916 5.89665   1
  -1   6   5 116.185 4.78213   2
   5   1   5 96.2122 8.06228   2
   5   1  -5 101.716 6.49709   1
   1  -6  -5 96.7648 6.37072   4
  -6   5   5 114.017 6.44776   4
   5   1   5 105.490 6.65212   1
  -6   5   6 1.67218 1.96516   4
  -5  -1   6 3.39058 1.58778   4
   1  -6  -6 1.83109 1.95458   4
  -1   6   6 2.26872 1.11134   2
  -5  -1   6 2.23966 1.47199   2
   6  -5  -6 2.02482 1.56033   1
  -5  -1   6 2.10609 2.14331   1
  -6   5   6 2.83838 1.28012   3
   1  -6  -6 1.74255 1.53468   3
   5   1   6 2.10869 1.98615   1
   5   1   6 4.70065 2.99120   2
   1  -6   6 3.58759 2.12735   1
   5   1  -6 2.18749 2.03230   1
   1  -6  -7 163.787 7.73314   3
  -5  -1   7 173.605 9.75809   1
  -5  -1   7 162.796 7.67149   2
  -1   6   7 166.696 6.70199   2
   6  -5  -7 168.833 7.82430   1
   1  -6   7 190.559 9.73032   1
   5   1   7 189.889 12.2218   2
  -5  -1   7 175.122 7.78498   4
  -6   5   7 169.638 8.99135   4
   1  -6  -7 148.372 8.78755   4
  -6   5   7 186.949 10.2901   1
   5   1   7 164.537 8.48862   1
  -5  -1  -8 104.378 7.30445   4
  -5  -1   8 97.6711 5.77829   4
  -6   5   8 86.4960 6.58544   4
   5   1   8 114.010 9.65203   2
   6  -5  -8 103.836 5.81069   1
   1  -6   8 115.025 7.59092   1
   1  -6  -8 108.000 5.93759   3
  -6   5  -8 111.715 7.48842   3
  -5  -1   8 105.485 5.84819   2
  -1   6   8 105.257 5.01630   2
   5   1   8 95.5280 6.01340   1
  -6   5   8 117.751 8.23357   1
  -5  -1   8 102.554 7.61671   1
   1  -6   9 0.45262 2.65834   1
   5   1   9 0.46203 1.23263   1
   1  -6  -9 0.75747 1.97578   3
  -6   5  -9-0.68122 2.42960   3
  -6   5  -9 4.58230 2.48795   4
  -5  -1   9 1.75158 1.85865   4
  -5  -1  -9 0.89612 2.88269   4
  -6   5   9 1.68305 2.62114   4
  -5  -1   9 0.48949 2.80206   1
   5   1   9 1.16945 1.97887   1
  -6   5   9 2.39532 3.17699   1
   6  -5  -9 0.25719 1.96958   1
   5   1   9 2.05375 3.91878   2
  -1   6   9 1.24130 1.51839   2
  -5  -1   9 1.60212 1.92082   2
  -5  -1  10 3.72911 2.58775   4
  -6   5  10 4.43275 2.91655   4
  -5  -1 -10 6.54915 3.36992   4
  -6   5 -10 9.65518 3.11007   4
   1  -6 -10 7.88679 2.25011   3
  -6   5 -10 5.35960 2.23100   3
  -5  -1  10 3.50239 3.19066   1
   5   1  10 6.78532 1.97406   1
  -6   5  10 8.44849 3.72849   1
   1  -6  10 5.13189 3.18895   1
   5   1  10 8.80785 1.47039   1
   5   1  10 9.12988 4.37075   2
  -5  -1  10 8.54314 2.51427   2
  -1   6  10 6.56713 2.01371   2
  -6   5  11 33.5102 5.09799   1
  -5  -1  11 34.0031 5.23019   1
  -5  -1  11 29.6809 3.63010   2
  -6   5 -11 27.3833 4.06051   4
   5   1  11 35.2298 6.26083   2
   6  -5  11 32.9569 4.43055   1
  -6   5 -12 13.7695 3.53228   4
   0  -6   0 77.8879 4.54064   1
   0  -6   0 84.4348 4.75126   3
  -6   6   0 75.6982 5.40400   3
   0  -6   0 80.4432 4.22144   2
   6   0   0 78.5193 4.59828   2
   6  -6   0 77.7550 5.64680   1
   0  -6   0 85.4712 3.98963   4
  -6   0   0 76.1889 5.50249   1
   0  -6   1 124.535 6.00925   3
  -6   6   1 123.563 6.79251   3
   0  -6  -1 110.716 5.46122   4
   0  -6   1 115.447 4.44647   4
   6   0   1 125.104 7.67180   1
  -6   0   1 133.078 7.30647   1
   6  -6  -1 128.071 7.33593   1
   6   0  -1 118.927 5.62506   2
   6   0   1 132.018 6.73283   2
   0  -6  -1 119.823 5.28311   2
   0  -6  -1 120.428 5.56733   1
   0  -6   1 126.308 6.35553   1
  -6   0  -1 117.286 6.75787   1
   0  -6  -2 1391.15 41.3265   4
   6   0   2 1350.58 44.3909   1
  -6   0  -2 1382.62 42.4944   1
   0  -6  -2 1437.10 40.0174   1
   0  -6   2 1423.86 42.3845   1
   0  -6   2 1386.04 41.0851   3
  -6   6   2 1438.74 42.3619   3
   6   0  -2 1411.03 40.5737   2
  -6   0   2 1382.23 41.1031   2
   6   0   2 1407.86 43.5672   2
   0  -6  -2 1424.94 40.2741   2
   6   0  -2 1428.61 43.4348   1
   6  -6  -2 1387.71 43.0304   1
   6  -6  -3 137.809 7.33988   1
  -6   6   3 125.955 6.58426   4
  -6   6   3 118.754 6.45326   3
   0  -6   3 127.661 6.10498   3
  -6   6  -3 134.895 8.31169   3
   0   6   3 121.743 5.62660   2
   6  -6  -3 138.063 4.13120   2
   0  -6  -3 136.077 5.85773   2
   6   0   3 131.954 8.60960   1
   0  -6  -3 133.645 6.80869   4
   0  -6   3 138.077 7.37420   1
   0  -6  -3 142.625 4.98506   1
   6   0  -3 125.623 7.33820   1
  -6   6  -4 146.734 8.50559   3
   0   6   4 97.5007 4.81338   2
   6   0  -4 111.573 6.70826   1
   0  -6   4 97.7149 6.35490   1
   6   0   4 94.8979 7.50639   1
   6  -6  -4 93.1827 5.71597   1
   0  -6   4 90.0658 4.92686   3
  -6   6   4 104.789 5.54959   3
   0  -6  -4 100.905 5.64992   3
   0  -6  -4 108.166 6.22900   4
  -6   6   4 109.483 6.13649   4
  -6   6   5 52.1835 3.63740   3
   0  -6  -5 55.4666 4.08071   3
   0  -6   5 51.1888 3.45557   3
  -6   6  -5 45.3327 5.07789   3
   0  -6  -5 52.0429 4.52592   4
  -6   6   5 59.9861 4.62592   4
   6  -6  -5 56.6460 3.99848   1
  -6   0   5 49.3286 4.91620   1
   0   6   5 55.6192 3.43834   2
   6   0   5 43.8004 6.08586   2
   6   0  -5 57.5956 4.86650   1
   6   0   5 49.5041 5.41205   1
   6   0  -6 641.611 22.9036   1
  -6   6   6 677.114 20.5443   3
   0  -6  -6 677.234 21.5726   3
   0  -6   6 654.829 20.2738   3
  -6   6  -6 692.916 24.4810   3
   6  -6  -6 628.416 21.0616   1
  -6   0   6 632.700 20.7020   2
   0   6   6 676.148 20.5752   2
  -6   0   6 633.430 23.8199   1
   6   0   6 635.786 27.4928   2
  -6   6   6 660.883 22.7950   4
   0  -6  -6 661.484 23.0572   4
  -6   0   6 631.619 21.0312   4
   6   0   6 599.352 24.2795   1
   0  -6   7 55.7645 5.38045   1
   6   0  -7 48.3020 4.66941   1
   0  -6  -7 50.1766 4.03704   3
  -6   6  -7 46.8050 4.79882   3
  -6   0   7 48.9609 2.30762   3
  -6   0   7 50.0511 3.66769   2
   0   6   7 51.7056 3.63145   2
  -6   6   7 44.8017 4.65772   4
   0  -6  -7 40.5675 4.53780   4
  -6   0   7 46.2018 3.84971   4
  -6   0   7 54.0577 5.48099   1
   6  -6  -7 54.1395 3.84799   1
   6   0   7 41.5431 5.08346   1
   0  -6  -8 62.3470 5.86293   4
  -6   0  -8 75.4476 6.02223   4
  -6   0   8 71.6907 5.01751   4
  -6   6   8 70.8485 5.96513   4
   6  -6  -8 67.9202 4.44806   1
   0  -6   8 62.8271 5.96876   1
   0  -6  -8 72.1994 4.96840   3
  -6   6  -8 65.1735 5.40548   3
  -6   0   8 68.7210 4.57036   2
   0   6   8 61.7844 4.20431   2
  -6   0   8 81.9387 6.89744   1
   6   0   8 73.2446 6.44825   1
  -6   6   8 85.9369 6.82699   1
  -6   6   9 27.1816 4.52979   1
   6   0   9 28.4067 4.12888   1
  -6   0   9 25.1943 3.17446   2
   0   6   9 22.9526 2.84899   2
  -6   0   9 22.2849 3.27916   4
  -6   6   9 21.6983 3.94493   4
  -6   6  -9 20.6573 3.06860   4
  -6   0  -9 19.9514 3.90649   4
  -6   0   9 22.5329 4.36466   1
   0  -6  -9 20.7524 3.12187   3
  -6   6  -9 15.7211 2.86971   3
   6  -6  -9 23.7569 2.84070   1
   0  -6   9 17.9298 4.08193   1
   0  -6  10 150.000 9.78448   1
   6   0  10 171.912 6.75703   1
   0  -6 -10 182.277 8.13774   3
  -6   6 -10 165.294 7.40734   3
   6   0  10 171.261 8.80695   1
  -6   0  10 159.301 7.76187   2
   0   6  10 183.812 7.75024   2
   6   0  10 193.146 12.9546   2
  -6   0  10 142.178 8.23764   4
  -6   6 -10 143.099 8.09963   4
  -6   0 -10 164.583 9.90384   4
  -6   6  10 186.762 10.0643   1
  -6   0  10 166.942 10.5063   1
  -6   0  11 8.13484 3.93678   1
   6  -6  11 5.91071 3.35384   1
  -6   0  11 7.22073 2.58014   2
  -6   6 -11 4.68037 2.65772   4
  -6   7   0 583.732 21.1773   3
  -1  -6   0 615.484 18.9833   2
   7  -1   0 569.968 19.5506   2
  -1  -6   0 586.085 19.3219   1
  -7   1   0 584.138 21.4537   1
  -1  -6   0 595.469 18.3462   4
  -1  -6  -1 203.810 8.23538   4
  -1  -6   1 200.039 7.09148   4
   7  -1   1 198.061 11.2901   1
  -1  -6   1 205.091 8.95261   1
  -1  -6  -1 208.734 8.16422   1
  -1  -6   1 205.326 8.63929   3
  -6   7   1 214.107 9.75287   3
  -1  -6   1 207.401 8.45071   2
   7  -1  -1 207.374 8.39684   2
  -1  -6  -1 210.790 8.14573   2
   7  -1   1 193.842 9.39387   2
  -7   1   1 198.112 10.2180   1
  -7   1  -1 200.272 10.0655   1
   6  -7  -1 207.066 10.0039   1
   7  -1   2 16.4841 3.64123   1
  -7   1  -2 17.2226 2.81792   1
   6  -7  -2 19.9739 2.82836   1
  -1  -6   2 14.9675 1.05930   4
   1   6   2 14.3053 1.94260   2
   7  -1  -2 14.2412 1.87050   2
  -1  -6  -2 15.1837 2.09447   4
  -6   7   2 12.6361 2.08475   4
  -1  -6   2 14.9389 2.07991   3
  -6   7   2 10.6366 2.16880   3
  -1  -6  -2 19.6577 2.14851   2
   7  -1   2 13.2156 2.79499   2
  -1  -6  -2 17.9260 1.84200   1
  -1  -6   2 13.2516 2.30791   1
   7  -1  -2 15.2387 2.84050   1
  -1  -6  -3 179.807 8.29679   4
  -1  -6   3 172.572 8.74016   1
  -1  -6   3 178.570 7.57077   3
  -6   7   3 183.012 8.34781   3
  -6   7  -3 176.208 9.82421   3
   7  -1  -3 175.331 7.15249   2
   1   6   3 178.149 7.41686   2
   7  -1   3 175.341 10.5235   2
  -1  -6  -3 180.348 7.56150   2
   6  -7  -3 176.158 5.48184   2
  -1  -6  -3 174.960 6.29194   1
   7  -1  -3 171.089 9.17698   1
   6  -7  -3 182.566 8.76502   1
   7  -1   3 182.423 11.1845   1
  -1  -6  -4 336.761 13.3830   4
  -1  -6  -4 335.396 12.3081   2
  -1  -6   4 331.141 13.8374   1
  -6   7   4 332.971 12.5552   3
  -1  -6   4 335.976 11.8854   3
  -6   7  -4 316.366 14.6527   3
   1   6   4 334.874 12.0281   2
   6  -7  -4 337.338 12.9883   1
   7  -1   4 334.382 16.4158   1
   7  -1  -4 341.460 14.0973   1
  -7   1   5 31.6328 4.28040   1
  -1  -6   5 31.0454 2.64716   3
  -6   7   5 28.0114 2.77798   3
   7  -1  -5 32.3828 3.76148   1
  -1  -6   5 32.9474 4.01809   1
  -6   7  -5 34.5124 4.26484   3
   1   6   5 28.3730 2.83245   2
  -6   7   5 34.3325 3.76488   4
  -1  -6  -5 33.1165 3.73684   4
   6  -7  -5 29.6759 3.03040   1
   7  -1   5 34.0247 5.13496   1
   7  -1   6 5.08709 3.12593   1
   1   6   6 5.04741 1.77404   2
  -1  -6  -6 6.59610 2.52386   4
  -6   7   6 2.66654 2.12450   4
  -7   1   6 2.18647 1.85006   4
  -6   7   6 4.09592 1.67751   3
   7  -1  -6 1.16945 2.04986   1
  -6   7  -6 1.68273 2.06924   3
  -1  -6   6 3.65091 1.34675   3
   6  -7  -6 4.25366 1.58607   1
  -7   1   6 3.53937 2.61587   1
   7  -1  -7 61.3533 5.46045   1
  -1  -6   7 71.2727 6.15083   1
  -6   7  -7 72.1306 5.51842   3
  -7   1   7 62.1251 3.24032   3
   6  -7  -7 74.5039 4.31054   1
  -7   1   7 67.0224 4.23881   2
   1   6   7 67.5043 4.72284   2
  -1  -6  -7 65.5547 5.65585   4
  -7   1   7 70.2999 4.94590   4
  -6   7   7 76.7427 6.09144   4
  -7   1   7 62.8693 6.40075   1
  -1  -6  -7 71.0065 4.89992   3
   7  -1   7 62.7486 6.90033   1
  -1  -6  -8 100.137 5.91437   3
  -6   7  -8 104.565 6.34330   3
  -6   7  -8 94.1204 5.62634   4
  -7   1   8 95.4525 6.13964   4
  -1  -6  -8 103.816 7.31617   4
  -6   7   8 97.7096 7.24530   4
  -7   1   8 114.243 8.44471   1
   1   6   8 106.232 6.03536   2
  -7   1   8 98.1252 5.31700   2
   7  -1  -8 96.4192 6.78997   1
  -1  -6   8 99.6338 7.49169   1
   6  -7  -8 97.9063 5.20186   1
   7  -1   8 95.8727 8.36607   1
  -7   1  -9 6.13606 3.02036   4
  -7   1   9 4.99532 2.57113   4
  -6   7  -9 4.70733 2.21468   4
  -6   7   9 1.86026 2.62920   4
  -1  -6  -9 2.49655 2.14254   3
  -6   7  -9 8.47773 2.41184   3
  -7   1   9 1.75896 1.78335   2
   1   6   9 2.95979 2.30623   2
   7  -1   9 7.42168 4.07350   1
  -7   1   9 6.87125 3.87251   1
   6  -7  -9 3.31034 1.84735   1
  -1  -6   9 7.91669 3.40923   1
  -7   1  10 9.26366 4.36801   1
   7  -1  10 4.97602 3.92106   1
  -7   1  10 1.10631 1.86118   2
   1   6  10 1.59618 2.18227   2
  -6   7 -10 1.77939 1.92614   3
  -1  -6 -10 0.81614 2.17366   3
  -7   1  10 2.07079 2.56434   4
  -6   7 -10 1.17247 2.12639   4
  -7   1  11 9.96368 3.31594   4
  -6   7 -11 10.8256 2.84746   4
  -7   1  11 9.83460 4.53494   1
   7  -2   0 511.880 17.6340   2
  -2  -5   0 520.226 16.8747   2
  -2  -5   0 528.792 17.2533   1
  -7   2   0 496.069 19.4964   1
  -5   7   0 520.599 18.7316   3
   7  -2  -1 705.549 26.8836   1
  -5   7   1 762.227 24.3603   4
  -5   7   1 825.557 25.9825   3
  -2  -5  -1 797.972 24.0321   1
   2   5   1 772.989 24.1980   2
   7  -2  -1 808.729 24.2255   2
   7  -2   1 798.553 26.1841   2
  -2  -5  -1 784.359 24.1085   2
  -7   2  -1 812.520 27.0586   1
  -2  -5   1 784.882 25.1060   1
   5  -7  -2 702.794 23.4865   1
  -5   7   2 688.932 22.7119   4
  -2  -5  -2 729.486 22.6508   4
  -7   2   2 702.544 22.5873   2
   7  -2   2 744.215 25.6541   2
   7  -2  -2 723.657 24.7434   1
  -5   7   2 692.255 23.1655   3
  -5   7  -2 705.011 24.5263   3
   2   5   2 717.458 22.2854   2
   7  -2  -2 715.896 21.5392   2
  -2  -5  -2 706.883 22.1895   2
  -2  -5   2 700.966 23.3847   1
  -2  -5  -2 686.355 21.2424   1
   7  -2   2 699.533 26.5213   1
  -2  -5  -3 653.083 21.3189   4
  -2  -5  -3 635.411 19.0353   1
  -2  -5   3 657.138 22.1450   1
  -5   7   3 650.805 21.1941   3
  -5   7  -3 681.893 23.1332   3
   5  -7  -3 630.309 17.7638   2
   7  -2  -3 662.912 19.6131   2
   2   5   3 628.487 20.5322   2
  -2  -5  -3 631.825 20.6232   2
  -7   2   3 652.727 20.4186   2
   7  -2  -3 643.749 22.6070   1
   5  -7  -3 651.825 21.3805   1
   7  -2   3 637.360 24.9006   1
  -2  -5   4 322.160 13.3961   1
  -2  -5   4 312.630 11.1215   3
  -5   7   4 314.237 11.9579   3
  -5   7  -4 342.013 13.9698   3
   7  -2  -4 320.816 13.3767   1
   2   5   4 322.774 12.0976   2
  -7   2   4 329.349 11.4901   2
  -2  -5  -4 336.961 12.9801   4
  -2  -5   4 328.370 9.37040   4
   5  -7  -4 321.727 12.0537   1
  -7   2   4 338.060 14.8623   1
   7  -2   4 339.666 16.0349   1
  -2  -5  -4 304.519 9.46456   1
   5  -7  -5 336.525 13.0563   3
  -5   7  -5 322.950 13.1610   3
   7  -2  -5 305.231 13.0124   1
  -7   2   5 301.977 10.8389   2
   2   5   5 298.142 11.8666   2
  -2  -5  -5 300.775 12.7087   4
  -5   7   5 289.848 12.7842   4
  -7   2   5 305.140 14.3809   1
   5  -7  -5 304.342 11.1167   1
   7  -2   5 283.978 14.9984   1
  -2  -5   5 306.005 10.5331   3
  -5   7   5 302.704 11.4694   3
  -5   7  -6 296.514 12.0379   3
  -2  -5   6 270.590 9.40908   3
   5  -7  -6 299.100 12.1957   3
  -7   2   6 260.738 9.82898   3
   5  -7  -6 280.693 10.0368   1
   2   5   6 275.506 11.5728   2
  -7   2   6 276.145 10.0042   2
  -2  -5  -6 290.378 12.5208   4
  -5   7   6 278.199 12.4956   4
  -7   2   6 271.846 11.3104   4
  -7   2   6 280.866 13.7071   1
   7  -2   6 265.406 14.5155   1
   7  -2  -6 282.362 12.3348   1
   5  -7  -7 168.546 8.50146   3
  -2  -5   7 169.713 5.94953   3
  -7   2   7 162.088 8.16260   4
  -5   7   7 152.581 9.04329   4
  -2  -5  -7 140.924 8.77105   4
  -7   2   7 175.167 10.5106   1
   2   5   7 165.105 8.46807   2
   5  -7  -7 157.547 6.59432   1
   7  -2  -7 170.205 8.85917   1
  -2  -5   7 163.251 9.50473   1
  -7   2   7 169.730 6.05986   3
  -5   7  -7 149.343 7.68971   3
   7  -2   7 151.969 10.6889   1
   7  -2   8 187.068 11.9565   1
  -2  -5   8 186.498 10.4276   1
   2   5   8 191.903 9.39622   2
   7  -2  -8 183.574 9.48526   1
   5  -7  -8 181.937 7.09956   1
  -7   2   8 201.648 11.5813   1
  -5   7  -8 188.923 8.17519   3
  -2  -5  -8 185.243 10.2479   4
  -7   2   8 178.457 9.01704   4
  -5   7   8 173.499 10.0634   4
  -7   2  -9 45.5290 5.12073   4
  -5   7  -9 45.4214 3.83745   4
  -7   2   9 46.9284 4.86980   4
  -2  -5  -9 60.1373 4.41360   3
  -5   7  -9 48.6828 3.59377   3
  -7   2   9 44.9094 5.95121   1
  -2  -5   9 47.7333 5.60064   1
   2   5   9 53.0130 4.75511   2
  -7   2   9 47.9703 3.50351   2
   7  -2  -9 45.7355 4.72934   1
   7  -2   9 47.2192 6.43149   1
  -5   7   9 47.8571 5.34880   4
  -7   2 -10 75.1687 6.52089   4
  -5   7 -10 75.9695 5.07222   4
  -7   2  10 67.1176 5.75053   4
  -2  -5  10 77.7825 7.05827   1
   2   5  10 71.3177 5.70244   2
  -7   2  10 74.7968 4.38626   2
  -5   7 -10 80.5739 4.08404   3
  -2  -5 -10 70.3017 5.07998   3
   7  -2  10 78.3812 8.21470   1
  -7   2  10 89.0414 7.82173   1
  -7   2  11 9.21523 4.51843   1
  -5   7 -11 12.4082 2.81238   4
   2   5  11 10.1976 3.08739   2
  -2  -5 -11 15.6234 3.12398   3
  -4   7   0 72.8530 4.92133   3
   7  -3   0 67.1992 5.91403   1
  -3  -4   0 72.7858 4.34061   1
   7  -3   0 74.7459 4.72716   2
  -4   7   0 65.9444 3.95928   4
   3   4   0 69.6027 4.37358   1
  -4   7   1 88.0580 5.32922   3
   4  -7   1 80.2837 5.33806   3
  -3  -4   1 83.5031 4.97609   1
  -3  -4  -1 82.8304 4.56201   1
   7  -3  -1 80.0607 4.38969   2
  -3  -4  -1 86.2057 4.73343   2
   7  -3  -1 85.3733 6.35444   1
   7  -3   1 92.8353 6.06458   2
  -4   7   1 84.4980 4.75606   4
   3   4  -1 77.3458 4.96516   1
   3   4   1 78.7100 4.58494   1
   3   4   2 144.599 6.23690   1
  -4   7   2 149.943 7.23614   3
  -4   7  -2 150.672 7.81105   3
   4  -7   2 133.352 7.36353   3
   7  -3   2 152.927 9.31356   1
   3   4   2 155.321 6.96220   2
  -3  -4  -2 145.724 6.81567   2
   7  -3  -2 144.721 6.04332   2
  -3  -4  -2 163.388 6.43954   1
   7  -3  -2 162.372 8.68504   1
  -4   7   2 142.595 7.09777   4
  -3  -4   2 146.845 7.44981   1
   3   4   3 164.499 6.37919   1
  -4   7  -3 164.167 8.36748   3
  -3  -4   3 154.806 8.27956   1
   7  -3  -3 175.774 6.41337   2
   3   4   3 163.541 7.79416   2
   4  -7  -3 171.315 5.47029   2
   7  -3  -3 170.862 8.82622   1
  -3  -4  -3 154.844 7.63940   2
  -7   3   3 174.495 7.36670   2
   4  -7  -3 173.204 7.73626   1
   7  -3   3 179.301 10.3490   1
  -3  -4  -3 156.960 6.54370   1
  -4   7   3 185.306 8.49097   4
  -3  -4  -4 51.1739 4.22300   4
  -3  -4   4 55.0480 2.68188   4
  -4   7  -4 56.9931 4.45952   3
   7  -3  -4 48.5099 4.35460   1
  -3  -4   4 52.6829 4.52913   1
  -3  -4   4 52.5916 4.00764   2
   3   4   4 57.7746 4.40046   2
  -7   3   4 58.1165 3.45365   2
  -7   3   4 64.8945 5.75995   1
   4  -7  -4 58.4819 3.67923   1
   7  -3   4 43.1970 5.22328   1
  -7   3   5 13.8269 1.71063   2
   3   4   5 10.1684 2.52415   2
  -3  -4  -5 19.5040 2.98199   4
  -3  -4   5 10.5230 1.36251   4
  -7   3   5 11.6538 2.27200   4
  -3  -4   5 12.1056 1.56004   3
  -4   7  -5 15.6005 2.45222   3
  -7   3   5 13.0873 1.94602   3
   4  -7  -5 15.1244 2.51694   3
  -7   3   5 10.8740 2.99403   1
   7  -3   5 14.2898 3.44057   1
   4  -7  -5 13.8658 1.70301   1
   7  -3  -5 11.1452 2.45314   1
   4  -7  -6 46.0157 4.06432   3
  -7   3   6 54.6218 3.30973   3
  -3  -4   6 57.0803 5.23316   1
   4  -7  -6 51.0039 2.98341   1
   7  -3  -6 54.5486 4.63106   1
   3   4   6 62.9461 5.23410   2
  -7   3   6 52.9780 3.28061   2
  -4   7  -6 48.4188 3.84263   3
  -3  -4   6 54.6548 2.86991   3
  -7   3   6 57.1619 5.85935   1
  -4   7  -6 54.3868 3.26269   4
  -3  -4  -6 56.7936 4.94774   4
  -3  -4   6 57.3482 3.12444   4
  -4   7   6 47.4875 4.76300   4
  -7   3   6 59.6204 4.54412   4
   7  -3   6 56.7736 6.06764   1
   4  -7  -7 90.2757 3.92650   1
   7  -3  -7 85.3160 5.86906   1
  -7   3   7 92.4760 4.07035   3
  -4   7  -7 91.3819 5.09327   3
  -3  -4   7 85.1005 3.38237   3
   4  -7  -7 99.6164 6.05567   3
  -3  -4   7 84.1303 4.42963   4
  -7   3   7 84.2416 5.82018   4
  -4   7   7 89.3862 6.65778   4
  -4   7  -7 87.3249 4.55696   4
  -3  -4  -7 86.0781 6.39693   4
  -7   3   7 83.8777 7.22080   1
   3   4   7 85.4837 6.48470   2
  -7   3   7 92.3422 4.37315   2
   7  -3   7 78.3215 7.34509   1
  -3  -4   7 75.3727 6.34606   1
  -4   7  -8 31.2899 2.91834   4
  -7   3   8 25.7583 3.59126   4
  -4   7   8 19.8306 3.94831   4
  -4   7  -8 31.7321 2.80483   3
   7  -3  -8 26.4755 3.67390   1
   4  -7  -8 31.3949 3.60086   3
  -7   3   8 27.6061 2.43834   2
  -3  -4   8 25.1236 4.05167   1
   7  -3   8 21.8748 4.72475   1
   3   4   8 25.5471 4.02286   2
  -7   3   8 28.9221 4.87420   1
   7  -3  -9 1.04926 2.43061   1
  -4   7  -9 1.17999 1.42374   3
   4  -7  -9 0.29371 2.37783   3
  -3  -4   9 2.90570 2.91455   1
  -7   3   9-0.57082 3.39413   1
   7  -3   9-1.32481 3.25495   1
  -4   7   9 3.88444 3.02475   4
  -7   3  -9-1.57898 2.61792   4
  -7   3   9 1.88688 2.62253   4
  -7   3   9 2.23053 1.48111   2
   3   4   9 2.11382 2.60423   2
  -3  -4  10 11.3580 3.73816   1
  -7   3  10 12.7205 2.02833   2
   3   4  10 11.5604 3.40005   2
   7  -3  10 20.5195 5.11501   1
  -7   3  10 15.5576 4.35780   1
  -4   7 -10 8.78510 2.33296   4
  -7   3 -10 9.87026 3.32168   4
  -7   3  10 9.00459 3.14256   4
   4  -7  10 12.5585 3.62683   1
   3   4  11 32.0112 4.61629   2
  -7   3  11 49.1868 6.60045   1
   7  -3  11 45.1106 6.37622   1
  -3  -4 -11 33.4801 3.70766   3
   4   3   0 81.8861 4.91894   1
  -3   7   0 76.5667 4.86950   3
  -4  -3   0 78.2115 4.74166   1
   4   3   0 78.9926 4.46251   2
  -3   7   0 73.1195 4.10428   4
   7  -4   0 67.9364 5.84100   1
  -3   7  -1 17.7179 1.73960   4
  -4  -3  -1 17.3542 2.18808   2
  -3   7   1 18.2208 2.17487   4
   4   3   1 17.9103 2.17771   1
  -3   7   1 14.3748 2.12959   3
   3  -7   1 17.6484 2.32297   3
   4   3  -1 18.2321 2.12680   2
   7  -4  -1 16.7418 1.99252   2
  -4  -3  -1 23.4590 2.39784   1
  -4  -3   1 14.7310 2.31268   1
   4   3  -1 14.0109 2.21110   1
   7  -4  -1 20.8707 3.19826   1
  -3   7   2 822.806 25.9083   4
  -4  -3  -2 808.970 25.1222   1
   7  -4  -2 858.703 27.8787   1
  -3   7  -2 786.252 23.5426   4
  -3   7  -2 826.786 26.0719   3
  -3   7   2 816.503 25.7393   3
   3  -7   2 788.371 25.8562   3
   3  -7  -2 835.697 23.4565   2
   7  -4  -2 825.407 23.9515   2
  -4  -3  -2 781.626 25.5652   2
  -4  -3   2 842.180 26.4273   1
   4   3   2 785.109 24.9415   1
  -3   7   3 2.40862 1.53563   4
   3  -7  -3 4.96966 1.59684   4
  -3   7  -3 1.60668 1.43306   3
   3  -7   3 5.12641 1.64695   3
  -4  -3   3 5.43414 1.46122   2
   7  -4  -3 5.06149 0.91956   2
   3  -7  -3 6.77791 0.93071   2
   4   3   3 1.55267 1.55712   2
   3  -7  -3 3.53002 1.22703   1
  -4  -3  -3 5.98204 1.41304   1
   7  -4   3 2.41959 2.01289   1
   4   3  -3 1.95156 1.63056   1
   4   3   3 3.84585 1.14212   1
   7  -4  -3 3.18743 1.94901   1
  -7   4   4 48.0501 5.19339   1
   3  -7  -4 43.9977 2.89217   1
   7  -4   4 53.2508 5.25308   1
   3  -7  -4 45.8509 3.91342   4
   3  -7  -4 44.1528 3.74995   3
  -3   7  -4 49.0412 3.73527   3
  -7   4   4 53.4849 3.79153   3
  -4  -3   4 45.1849 3.60062   2
   4   3   4 45.8156 4.37714   2
   4   3  -4 40.8096 4.02094   1
   4   3   4 41.3468 2.69457   1
   7  -4  -4 49.5196 4.26720   1
  -4  -3   4 40.8949 4.13113   1
   4   3   5 20.4049 1.64387   1
  -3   7  -5 24.1990 2.64804   3
   3  -7  -5 22.9007 3.13339   4
  -7   4   5 19.1833 2.83009   4
  -7   4   5 28.3012 2.64927   3
   3  -7  -5 19.7769 2.71543   3
   3  -7  -5 20.9657 1.70783   1
   7  -4  -5 23.0334 2.98886   1
   4   3   5 19.7981 3.32123   2
  -4  -3   5 21.2300 2.66668   2
  -7   4   5 26.0996 2.08933   2
  -3   7  -5 21.3207 1.52878   4
  -4  -3   5 21.7073 2.00168   4
  -7   4   5 23.3836 4.02106   1
  -3   7  -6 319.360 9.96442   4
  -7   4   6 310.118 12.6505   4
  -4  -3   6 302.387 10.6300   4
  -4  -3  -6 320.964 13.3321   4
   3  -7  -6 330.229 13.5059   4
  -4  -3   6 301.706 9.77239   3
  -3   7  -6 316.338 11.3417   3
   3  -7  -6 317.011 12.2392   3
  -7   4   6 314.765 10.7460   3
   7  -4  -6 322.496 12.6942   1
  -4  -3   6 283.360 13.3210   1
  -4  -3   6 310.194 12.1193   2
   4   3   6 323.660 14.7055   2
  -7   4   6 320.905 10.1751   2
  -7   4   6 325.621 15.0299   1
   3  -7  -6 308.102 9.28474   1
   4   3   6 280.973 8.88196   1
  -7   4   7 2.68543 2.90914   1
   3  -7  -7 4.92098 2.49830   4
  -7   4   7 2.61572 1.18817   3
  -3   7  -7 4.42366 1.58921   3
   3  -7  -7 6.01698 2.14652   3
  -4  -3   7 2.48788 0.69964   3
  -3   7  -7 3.53887 1.20733   4
  -4  -3   7 2.72758 1.52647   4
  -7   4   7 0.34768 2.01779   4
  -3   7   7 5.76041 2.47006   4
  -4  -3   7 4.49359 2.53938   1
   7  -4  -7 1.91009 1.87130   1
  -7   4   7 2.14307 1.06077   2
  -4  -3   7 5.02181 2.19587   2
   4   3   7 3.05737 3.03081   2
   4   3   8 1.53704 3.12276   2
   7  -4  -8 8.90761 2.36726   1
   3  -7  -8 6.31988 2.23602   3
  -3   7  -8 4.19992 1.51868   4
  -4  -3   8 3.73214 1.80566   4
  -7   4   8 5.62620 2.58666   4
  -4  -3   8-0.47054 2.66131   1
  -7   4   8 5.51798 3.36277   1
  -7   4   8 6.80596 1.33413   2
  -4  -3  -9 21.9437 4.17774   4
  -7   4  -9 26.7011 3.80275   4
  -7   4   9 27.8289 4.12014   4
  -3   7  -9 18.4700 2.44266   4
   3  -7   9 16.3270 3.77283   1
   7  -4  -9 24.0254 3.49368   1
   3  -7  -9 19.4362 3.08332   3
  -7   4   9 25.5397 2.00402   2
   4   3   9 21.6488 4.29996   2
  -4  -3   9 13.0671 3.75267   1
  -7   4   9 27.4789 5.10985   1
   3  -7 -10 88.7481 5.62432   3
  -7   4  10 86.1800 7.84810   1
  -7   4  10 76.7746 3.40610   2
   4   3  10 83.5584 7.27893   2
  -7   4  10 77.7598 6.37455   4
  -7   4 -10 70.8835 6.08905   4
  -4  -3  10 69.2813 6.83558   1
   3  -7  10 73.0583 6.57526   1
  -7   4 -11 4.72272 3.01892   4
  -7   4  11 2.73958 3.81162   1
   4   3  11 9.73457 3.78139   2
  -4  -3  11 9.43470 3.18053   2
  -2   7   0 294.813 10.6163   4
  -5  -2   0 317.738 12.2301   1
   5   2   0 313.213 11.4243   2
   7  -5   0 301.245 13.7712   1
   5   2   0 321.174 12.4695   1
  -2   7   1 322.247 11.2908   4
  -2   7  -1 297.015 9.88800   4
  -5  -2   1 307.064 12.1613   1
  -5  -2  -1 309.184 11.9020   1
   2  -7  -1 325.888 10.9495   4
   5   2   1 300.803 11.9752   1
   5   2  -1 307.256 11.0668   2
   2  -7  -1 322.599 10.3567   2
   5   2   1 241.534 11.1158   2
   2  -7   1 305.442 11.6794   3
   7  -5  -1 288.418 13.1482   1
   7  -5   1 277.912 13.4443   1
  -2   7  -2 1174.99 34.8357   3
   2  -7   2 1122.69 34.7585   3
  -7   5   2 1176.24 35.7771   3
   5   2   2 1080.16 34.8502   1
  -5  -2   2 1227.27 36.1008   1
   7  -5  -2 1167.94 32.9708   2
   2  -7  -2 1168.20 32.8613   2
  -5  -2  -2 1147.54 35.3930   2
   2  -7  -2 1195.73 34.6214   4
  -2   7  -2 1119.70 31.9348   4
  -2   7   2 1151.21 34.9662   4
  -5  -2  -2 1166.10 34.8621   1
   7  -5  -2 1141.15 36.8176   1
   5   2  -3 231.719 10.6910   1
  -2   7  -3 232.467 9.49939   3
   2  -7  -3 227.046 9.81556   3
   2  -7   3 251.300 9.93770   3
  -7   5   3 245.763 10.1323   3
   5   2   3 216.872 9.50457   1
   7  -5  -3 242.752 7.60749   2
   2  -7  -3 241.661 8.19933   2
   7  -5  -3 221.530 10.6055   1
  -5  -2  -3 236.896 9.52619   1
  -2   7   3 238.493 10.3605   4
   2  -7  -3 242.696 10.0580   4
  -2   7   4 176.509 8.67976   4
   2  -7  -4 159.159 8.08894   4
   2  -7  -4 160.257 6.28515   2
  -7   5   4 161.943 7.84703   4
   2  -7  -4 165.538 7.79683   3
   2  -7   4 165.222 7.53197   3
  -7   5   4 168.680 7.57618   3
  -5  -2   4 148.925 8.51279   1
   5   2   4 156.754 7.34447   1
  -5  -2   4 166.960 7.42308   2
   5   2   4 168.884 9.61467   2
   7  -5  -4 167.638 8.33384   1
   2  -7  -4 168.102 6.13656   1
  -7   5   4 194.501 10.9517   1
   5   2  -4 150.464 8.41466   1
  -7   5   5 158.966 9.67258   1
  -5  -2   5 114.977 5.38299   4
   2  -7  -5 117.666 6.43771   3
  -7   5   5 123.402 5.88099   3
  -5  -2   5 123.483 6.30845   2
   5   2   5 121.623 8.49341   2
  -7   5   5 115.859 6.74359   4
   2  -7  -5 124.087 7.14556   4
   5   2  -5 119.637 7.34215   1
   2  -7  -5 119.727 3.89935   1
   5   2   5 114.220 5.74272   1
   7  -5  -5 113.346 6.59767   1
   5   2  -6 417.578 16.4510   1
   7  -5  -6 392.779 14.9610   1
  -5  -2   6 415.405 16.9390   1
  -5  -2   6 406.024 14.6891   2
   5   2   6 405.549 18.3431   2
  -7   5   6 403.005 13.6225   3
   2  -7  -6 415.991 14.9984   3
   5   2   6 390.905 13.4800   1
   2  -7  -6 406.550 16.1025   4
  -5  -2   6 415.959 13.8317   4
  -7   5   6 399.097 15.5919   4
  -7   5   6 432.464 18.2974   1
   2  -7   7 57.5405 5.51818   1
  -5  -2   7 51.2110 4.22217   2
  -2   7   7 50.2308 2.71447   2
   5   2   7 60.5829 6.52375   2
  -5  -2   7 52.7818 5.34675   1
   5   2   7 49.2980 3.00671   1
   7  -5  -7 51.1750 4.27582   1
  -5  -2   7 53.0041 2.21762   3
   2  -7  -7 53.5722 4.30825   3
  -7   5   7 46.5518 3.15575   3
  -5  -2   7 44.4473 3.50862   4
  -7   5   7 52.4334 4.70199   4
   2  -7  -7 52.6036 5.04636   4
  -7   5   7 55.4674 6.13450   1
   5   2   8 92.7543 3.32532   1
   7  -5  -8 81.4215 5.55619   1
   2  -7   8 95.1554 7.07754   1
   2  -7  -8 87.8261 5.65868   3
  -5  -2   8 93.7215 7.29611   1
   5   2   8 82.2714 3.49235   1
  -5  -2   8 89.7675 5.70080   2
  -2   7   8 93.0626 3.89117   2
   5   2   8 83.1714 7.83122   2
  -7   5   8 92.0625 6.53892   4
  -5  -2   8 85.8677 5.16989   4
   2  -7  -8 91.0542 7.01097   4
  -7   5   8 94.1347 7.79148   1
  -7   5   9 10.8712 3.31282   4
  -7   5  -9 11.4431 2.79168   4
  -5  -2  -9 11.5899 3.43454   4
  -5  -2   9 14.6264 2.79366   4
   5   2   9 11.4086 4.22392   2
   7  -5  -9 16.9174 2.97502   1
   2  -7   9 15.6616 3.72966   1
   2  -7  -9 12.4071 2.64142   3
  -5  -2   9 8.14124 3.39213   1
  -5  -2   9 14.0094 2.85746   2
  -2   7   9 13.8994 1.69208   2
  -7   5   9 9.73949 3.87497   1
   2  -7  10 123.244 8.54342   1
  -7   5 -10 118.924 7.40442   3
   2  -7 -10 110.821 6.50510   3
  -5  -2  10 104.893 8.33665   1
   5   2  10 125.484 9.25282   2
  -7   5  10 126.722 9.07456   1
  -2   7  10 115.519 4.51048   2
  -5  -2  10 114.619 6.83527   2
  -7   5 -10 120.127 7.40494   4
  -5  -2  11 2.74526 2.65727   2
  -7   5  11 0.51390 3.63439   1
  -7   5 -11 0.36959 2.78835   4
   5   2  11 1.07282 3.76072   2
   1  -7   0 784.147 26.1518   3
  -7   6   0 802.176 27.9795   3
   6   1   0 844.487 27.8996   1
   1  -7   0 855.906 25.3891   2
   6   1   0 831.911 26.0770   2
  -6  -1   0 862.092 27.6639   1
   1  -7   0 838.763 24.7370   4
   7  -6   0 879.428 29.1311   1
   1  -7  -1 336.086 11.8857   4
  -6  -1   1 337.800 13.7685   1
   7  -6  -1 357.266 14.7183   1
  -6  -1  -1 333.892 13.5374   1
   1  -7   1 346.920 12.7420   3
  -7   6   1 341.340 13.8493   3
   1  -7  -1 338.275 11.5768   2
   6   1  -1 339.791 12.2074   2
   6   1   1 350.365 13.1025   2
   6   1   1 328.431 13.9706   1
   7  -6   1 334.149 14.8197   1
   1  -7   2 98.3615 5.49514   3
  -7   6   2 96.7288 6.07711   3
   6   1  -2 100.172 5.23404   2
   1  -7  -2 105.203 4.74405   2
   6   1   2 106.596 6.57825   2
   6   1   2 107.948 6.74917   1
  -6  -1   2 96.4251 6.37561   1
   7  -6  -2 108.275 4.61464   2
   1  -7  -2 95.0737 5.33851   4
   7  -6  -2 115.059 7.01253   1
  -6  -1  -2 108.698 6.21370   1
   1  -7  -3 155.971 7.38931   3
   1  -7   3 142.507 6.87958   3
  -7   6   3 137.937 7.24106   3
  -6  -1  -3 147.025 7.30339   1
   1  -7  -3 142.804 6.00805   2
   7  -6  -3 147.214 4.90396   2
   7  -6  -3 148.510 8.08171   1
   6   1   3 144.403 8.19933   1
  -6  -1   3 143.038 8.10161   1
   1  -7  -3 151.968 7.43392   4
   6   1  -3 149.455 8.18473   1
  -7   6   4 551.236 19.0469   4
   1  -7  -4 547.799 18.7604   3
   1  -7   4 523.657 18.0431   3
  -7   6   4 574.119 18.5604   3
   1  -7  -4 545.253 19.2820   4
   1  -7  -4 530.877 17.2102   2
  -6  -1   4 541.935 18.0298   2
   6   1   4 535.109 21.9389   2
   6   1   4 532.924 20.0272   1
   7  -6  -4 564.101 19.4665   1
   6   1  -4 578.481 20.3898   1
   1  -7  -4 549.383 15.7748   1
   1  -7  -4 540.241 16.1010   1
   1  -7  -5 177.918 8.91016   4
  -7   6   5 167.494 8.51772   4
   6   1  -5 166.686 9.02823   1
  -7   6   5 164.454 7.42015   3
   1  -7  -5 176.298 8.19973   3
   1  -7   5 165.804 7.45491   3
  -1   7   5 177.114 6.72073   2
  -6  -1   5 169.939 7.61834   2
   6   1   5 159.446 10.7810   2
  -7   6   5 204.545 11.5683   1
   6   1   5 158.857 8.81344   1
   7  -6  -5 153.185 7.96966   1
   1  -7  -6 18.4624 3.28328   4
  -7   6   6 16.0226 2.95271   4
  -6  -1   6 16.0236 2.34255   4
   1  -7  -6 19.0081 2.79751   3
  -7   6   6 16.2750 2.25838   3
   6   1  -6 13.7015 3.02554   1
   7  -6  -6 18.0530 2.70351   1
  -6  -1   6 13.5011 3.26463   1
   6   1   6 13.4759 2.80914   1
  -7   6   6 20.9646 4.06508   1
  -1   7   6 15.8164 1.77976   2
  -6  -1   6 17.9383 2.49430   2
   6   1   6 14.4839 4.12424   2
  -6  -1   7 3.06227 1.91124   2
  -1   7   7 2.66711 1.39079   2
  -7   6   7 3.30849 2.80505   1
  -7   6   7 0.38606 2.15161   4
   1  -7  -7-0.41573 2.21831   4
  -6  -1   7 4.38264 1.99752   4
   1  -7  -7 1.14019 1.81544   3
  -7   6   7 1.79325 1.43347   3
  -7   6  -7 1.59843 2.79930   3
   7  -6  -7 0.27243 1.80741   1
   6   1   7 6.47641 3.34149   2
   6   1  -7 2.93430 2.27034   1
   1  -7   7 1.82657 2.36153   1
   6   1   7 2.51994 2.00599   1
  -6  -1   7 0.98791 2.51287   1
   1  -7   8 161.057 9.65414   1
   7  -6  -8 147.497 7.54243   1
   1  -7  -8 141.908 7.60247   3
  -7   6  -8 189.497 10.3314   3
  -1   7   8 170.283 6.60589   2
  -6  -1   8 168.080 7.88785   2
  -6  -1   8 138.668 9.43139   1
   6   1   8 147.536 7.43592   1
   6   1   8 149.570 11.3434   2
  -7   6   8 186.090 9.61944   4
  -6  -1  -8 155.984 9.25245   4
  -6  -1   8 157.200 7.71077   4
   1  -7  -8 161.117 9.48403   4
  -7   6   8 191.689 10.8773   1
  -7   6   9 31.7980 5.17043   1
  -6  -1   9 37.2293 3.72662   4
  -6  -1  -9 35.0972 5.09102   4
  -7   6   9 24.9090 4.22502   4
  -7   6  -9 26.1117 3.61818   4
   6   1   9 24.6113 5.52907   2
   7  -6  -9 33.7606 3.51568   1
   1  -7  -9 32.5058 3.62411   3
  -6  -1   9 39.6737 3.90694   2
  -7   6  -9 30.6820 4.23517   3
  -1   7   9 32.9385 2.74533   2
   6   1   9 32.2878 3.05666   1
   1  -7   9 28.3215 4.76702   1
  -6  -1   9 26.5543 4.80627   1
   6   1  10-2.00220 4.51178   2
   6   1  10 1.84017 1.08458   1
  -7   6 -10 2.42717 2.34028   3
   1  -7 -10 1.39967 2.14360   3
  -1   7  10 0.15172 1.53694   2
  -6  -1  10-0.56849 2.27059   2
  -7   6  10-1.49273 3.39534   1
  -6  -1  10 0.54230 3.22444   1
   6   1  10 0.73183 1.23956   1
  -6  -1  10-1.21183 2.59371   4
  -7   6 -10-0.33769 2.30432   4
  -7   6 -11 7.27011 3.10578   4
  -6  -1  11 6.72943 2.73714   2
   0  -7   0 8.42788 1.80990   3
  -7   7   0 8.28382 2.23838   3
   0  -7   0 10.2660 1.52996   4
   7   0   0 4.04442 2.05549   1
   7  -7   0 9.23547 2.68647   1
  -7   0   0 6.56283 2.30537   1
   0  -7   0 9.50648 1.81215   1
   0  -7   0 6.86062 1.53724   2
   7   0   0 7.67758 1.71059   2
   7   0  -1 10.2083 1.81399   2
   0  -7   1 11.4140 1.88893   2
   7   0   1 10.9294 2.22793   2
   0  -7  -1 7.15668 1.46757   2
   0  -7   1 8.47144 1.13047   4
   0  -7  -1 9.95862 1.75800   4
   7   0   1 7.14386 2.39479   1
  -7   0   1 8.41553 2.48113   1
   0  -7   1 8.20259 1.83008   3
   0  -7  -1 6.11114 1.57336   1
   7  -7  -1 10.4840 2.53615   1
  -7   0  -1 13.2620 2.63957   1
   0  -7   1 9.21336 1.98067   1
  -7   0  -2 435.019 16.5267   1
   0  -7  -2 422.137 15.1224   4
  -7   0   2 463.269 17.5923   1
   7   0   2 430.491 18.4401   1
   0  -7   2 426.388 15.1757   3
  -7   7   2 430.246 16.2365   3
   7   0  -2 441.415 14.7274   2
   7   0  -2 407.359 16.9457   1
   0  -7  -2 436.316 14.2975   2
   7   0   2 441.656 17.2224   2
   7  -7  -2 409.480 16.7353   1
   0  -7  -2 428.413 14.1369   1
   0  -7   2 446.344 16.2829   1
   0  -7  -3 55.2475 2.96161   1
   0  -7   3 45.7606 4.34713   1
   0  -7   3 50.9439 3.85003   3
  -7   7   3 61.0802 4.44005   3
  -7   7  -3 52.2321 5.39948   3
   7   0  -3 52.1100 4.79273   1
   7   0   3 56.6393 5.57615   2
   7  -7  -3 59.2000 2.34907   2
   0  -7  -3 48.7698 3.42651   2
   0  -7  -3 48.7856 4.09567   4
   7   0   3 51.9290 5.56794   1
  -7   0   3 56.7179 5.17896   1
   7  -7  -3 58.7218 4.94624   1
   7   0   4 3.94534 2.51796   1
   7  -7  -4 8.48400 2.33601   1
   0  -7  -4 6.59191 1.98385   3
  -7   7   4 6.89104 1.96368   3
   0  -7   4 6.41985 1.76704   3
  -7   7  -4 8.29946 2.97596   3
   0  -7  -4 4.22639 2.03500   4
   0   7   4 8.34970 1.62864   2
  -7   0   4 7.13806 1.74854   2
  -7   7   4 11.0591 2.26258   4
   0  -7  -4 9.11321 1.78443   2
   0  -7   4 2.34003 1.85744   1
   7   0  -4 11.3879 2.75671   1
   0  -7  -4 8.49647 0.90977   1
   0   7   5 0.18861 1.13536   2
  -7   0   5 0.22933 1.33014   2
   0  -7  -5-0.35801 2.12886   4
  -7   7   5 2.06082 1.96627   4
   7   0   5-0.69853 3.55286   2
   0  -7  -5 1.44910 1.56947   3
  -7   7   5 0.48333 1.48879   3
  -7   7  -5 1.06236 2.51521   3
   0  -7   5 1.08120 1.37686   3
   0  -7   5 3.78356 2.27640   1
   7   0  -5 1.22629 1.93563   1
   7  -7  -5 1.16475 1.79378   1
  -7   0   5 5.76603 2.63982   1
   7   0   5 1.69512 2.62358   1
  -7   7   6 216.298 11.7817   1
   0  -7  -6 176.579 9.45489   4
  -7   7   6 171.392 9.19016   4
   7   0   6 160.312 11.9715   2
   7   0   6 158.192 10.2330   1
  -7   0   6 189.364 10.7086   1
  -7   0   6 175.844 8.10919   4
   0  -7  -6 184.982 8.60784   3
  -7   7   6 183.508 7.85733   3
   0  -7   6 177.005 7.53866   3
  -7   7  -6 174.102 10.4779   3
   0   7   6 183.030 7.57772   2
  -7   0   6 179.415 7.93132   2
   7   0  -6 184.332 9.74518   1
   7  -7  -6 189.049 8.40180   1
  -7   0   7 32.8715 3.36712   4
   0  -7  -7 25.4422 3.92744   4
  -7   7   7 29.4131 4.02951   4
   0  -7  -7 33.4414 3.57474   3
   7  -7  -7 33.2759 3.29807   1
   7   0  -7 24.9969 3.94392   1
   0  -7   7 32.4005 4.68938   1
  -7   7  -7 28.9543 4.42392   3
  -7   0   7 36.7388 3.25416   2
   0   7   7 35.6142 3.07330   2
   7   0   7 27.7831 5.93647   2
  -7   0   7 32.6276 4.96234   1
   7   0   7 21.9797 4.16744   1
  -7   7   7 28.6708 4.78548   1
  -7   0   8-0.24668 1.72958   2
   0   7   8 0.62447 1.55853   2
  -7   7   8 0.50895 3.02623   1
   7   0   8 1.36321 2.95376   1
   0  -7  -8 2.08006 2.11959   3
  -7   7  -8 0.83586 2.60346   3
  -7   0   8 0.57770 2.02516   4
  -7   7   8-1.31020 2.62833   4
   0  -7  -8 2.26411 2.94348   4
   7   0   8-1.65409 3.99060   2
   7   0  -8 0.86753 2.64134   1
  -7   0   8 5.58437 3.47865   1
   0  -7   8-0.49263 2.99976   1
   7  -7  -8 2.93284 1.88532   1
  -7   7   9 3.17301 3.06446   4
  -7   0   9 0.61968 2.15324   4
  -7   7  -9 1.48518 2.11885   4
  -7   0  -9-0.45539 2.92990   4
   0  -7  -9 1.43037 3.28358   4
   7   0   9 3.03695 2.70783   1
  -7   0   9 1.71750 3.14522   1
   0  -7  -9-0.88278 2.23680   3
   7  -7  -9 4.66055 2.01853   1
   0  -7   9 3.04149 3.08681   1
  -7   0   9-0.50433 2.02807   2
   0   7   9 0.83383 1.76377   2
  -7   7   9 0.47387 3.46492   1
  -7   7  -9-0.33986 2.38283   3
  -7   7  10 56.3547 5.97904   1
   7   0  10 39.8134 4.35880   1
  -7   0  10 48.2707 6.30590   1
  -7   0  10 48.0065 4.13954   2
   0   7  10 53.7102 3.89369   2
  -7   7 -10 44.7198 4.09560   3
   0  -7 -10 44.4237 4.41552   3
  -7   0  10 56.9267 5.04605   4
  -7   7 -10 34.4763 4.20674   4
  -7   7 -11 11.8666 3.12551   4
  -1  -7   0 800.462 26.6901   3
  -7   8   0 835.723 28.6303   3
  -8   1   0 811.906 28.9315   1
  -1  -7   0 854.863 26.1187   2
   8  -1   0 856.993 27.0042   2
   8  -1   0 873.808 30.5758   1
  -1  -7   0 831.417 25.3573   4
  -1  -7   0 860.077 26.6827   1
  -1  -7   1 88.9059 3.96110   4
  -1  -7  -1 78.5671 4.65883   4
  -8   1   1 79.3281 5.35967   2
  -1  -7  -1 88.6686 4.86104   1
  -1  -7   1 83.2770 5.42589   1
  -1  -7   1 85.8347 5.22870   3
  -7   8   1 86.2369 6.03939   3
  -1  -7   1 79.8423 4.90902   2
   8  -1   1 77.3573 5.62056   2
   8  -1  -1 84.4770 4.94076   2
  -1  -7  -1 78.6222 4.63899   2
   7  -8  -1 85.4810 6.46902   1
  -8   1  -1 91.9394 6.55954   1
  -8   1   1 75.4262 6.20517   1
   8  -1   1 84.5285 7.27282   1
  -1  -7  -2 201.820 8.69681   4
  -1  -7   2 203.446 6.25704   4
   8  -1   2 187.253 11.8328   1
  -8   1  -2 177.306 9.68271   1
  -7   8   2 184.959 8.62666   4
   8  -1  -2 195.658 10.4929   1
   8  -1  -2 197.285 8.12840   2
  -1  -7   2 180.049 8.50323   2
  -1  -7  -2 197.094 8.15440   2
  -8   1   2 190.363 8.79945   2
   8  -1   2 182.964 10.0714   2
  -1  -7  -2 197.341 7.74383   1
  -1  -7   2 203.294 9.55878   1
  -8   1   2 206.448 10.9601   1
   7  -8  -2 180.168 9.75160   1
  -7   8   2 191.609 9.41261   3
  -1  -7   2 175.901 8.34933   3
  -1  -7  -3 59.2450 4.59413   4
   8  -1   3 66.7139 7.03788   1
  -8   1   3 66.5144 6.02894   1
  -1  -7   3 60.9562 5.09175   1
  -1  -7   3 64.9452 4.36373   3
  -7   8   3 72.9991 5.07816   3
  -7   8  -3 56.1827 5.65775   3
   1   7   3 66.3217 4.22048   2
   8  -1  -3 69.7184 4.12846   2
  -8   1   3 57.5240 4.25968   2
  -1  -7  -3 65.5097 4.27477   2
   8  -1   3 55.5213 5.78001   2
   8  -1  -3 74.6470 6.08131   1
  -1  -7  -3 63.7399 3.37039   1
   7  -8  -3 58.7846 5.05777   1
  -1  -7   4 542.971 19.9149   1
  -7   8   4 551.391 18.5241   3
  -1  -7   4 518.001 17.5549   3
  -7   8  -4 520.276 21.1162   3
   1   7   4 526.882 17.5713   2
  -8   1   4 524.054 17.7863   2
   7  -8  -4 530.852 18.9318   1
  -1  -7  -4 513.373 15.3155   1
   8  -1   4 497.905 22.6635   1
  -1  -7  -4 514.713 17.7422   2
   8  -1  -4 522.376 20.1074   1
  -1  -7  -4 554.687 19.1939   4
  -1  -7   5 47.3295 4.94768   1
   8  -1  -5 60.5654 5.40612   1
  -1  -7   5 44.5471 3.53892   3
  -7   8   5 58.8872 4.22451   3
  -7   8  -5 54.2464 5.72105   3
   1   7   5 52.9650 3.82543   2
  -8   1   5 49.7677 3.83729   2
   7  -8  -5 54.4834 4.27681   1
  -8   1   5 48.4848 5.60450   1
   8  -1   5 36.7290 5.79879   1
  -1  -7  -5 41.4304 4.34168   4
   8  -1   6 92.4961 8.80186   1
  -7   8   6 105.675 7.06548   4
  -1  -7  -6 95.1884 6.89781   4
   8  -1   6 101.018 9.80667   2
  -8   1   6 121.219 8.68595   1
  -8   1   6 110.908 6.27717   4
  -7   8   6 106.626 5.77275   3
  -1  -7  -6 100.462 6.27313   3
  -7   8  -6 112.893 7.89558   3
  -1  -7   6 101.730 5.24828   3
   1   7   6 102.768 5.67939   2
  -8   1   6 105.669 5.72262   2
   7  -8  -6 96.3772 5.67512   1
   8  -1  -6 119.514 7.64124   1
  -8   1   7 36.9197 5.34325   1
   8  -1   7 26.0380 5.06924   1
  -7   8   7 42.7557 4.76946   4
  -1  -7  -7 26.3910 4.06587   4
  -8   1   7 31.9890 3.58977   4
  -1  -7  -7 30.0294 3.64192   3
  -8   1   7 29.4082 2.54515   3
  -1  -7   7 30.3922 2.76191   3
  -7   8  -7 39.1247 4.57389   3
  -8   1   7 39.0201 3.44294   2
   1   7   7 27.5565 3.12272   2
  -1  -7   7 22.1382 4.19741   1
   8  -1  -7 32.8215 4.36436   1
   7  -8  -7 34.9213 3.27701   1
   8  -1   7 31.2793 6.48348   2
  -8   1   8 157.142 5.51300   3
  -1  -7  -8 159.815 8.04899   3
  -7   8  -8 158.353 8.71916   3
  -1  -7  -8 155.648 9.36082   4
  -7   8   8 143.873 9.15568   4
  -8   1   8 148.361 7.95574   4
  -8   1   8 155.928 7.34755   2
   1   7   8 151.647 7.41501   2
  -8   1   8 159.479 10.7252   1
   8  -1  -8 161.917 9.38017   1
  -1  -7   8 146.861 9.64905   1
   7  -8  -8 167.203 7.29329   1
   8  -1   8 164.231 11.0159   1
   8  -1   8 180.140 13.5736   2
   1   7   9 14.4881 2.69436   2
  -8   1   9 15.7044 2.65863   2
  -8   1  -9 14.3292 3.65032   4
  -7   8  -9 17.3055 2.88402   4
  -8   1   9 17.3844 3.20996   4
  -8   1   9 11.1563 4.21194   1
  -1  -7  -9 18.4433 3.24529   3
   8  -1   9 20.8104 4.81669   1
  -1  -7   9 15.8511 4.21396   1
   8  -1  -9 13.2594 3.46057   1
   8  -1   9 22.5088 6.43621   2
  -7   8  -9 16.3501 3.18024   3
  -8   1  10 49.8588 6.66243   1
  -7   8 -10 45.1539 3.98097   3
  -1  -7 -10 47.8125 4.56667   3
  -7   8 -10 38.2282 4.07116   4
  -8   1  10 52.8436 4.98690   4
   1   7  10 44.9890 4.11770   2
  -8   1  10 48.2425 4.09277   2
  -2  -6   0 221.032 8.90225   4
  -8   2   0 251.663 12.1638   1
  -2  -6   0 243.298 9.53215   2
   8  -2   0 255.023 10.3713   2
  -2  -6   0 248.929 9.95995   1
  -6   8   0 234.026 11.1797   3
  -2  -6  -1 10.6520 1.85654   4
  -6   8   1 15.4106 2.22603   4
  -2  -6   1 16.1859 2.45197   1
  -6   8   1 14.5643 2.61751   3
  -8   2  -1 17.2993 3.15332   1
  -8   2   1 14.0671 3.18645   1
  -2  -6  -1 10.0212 1.80455   2
   8  -2  -1 13.6017 1.96928   2
  -2  -6   1 10.2434 1.89197   2
  -2  -6  -1 9.76329 1.83527   1
   8  -2   1 10.7230 3.09703   1
   8  -2  -1 9.38775 2.80962   1
   8  -2   1 12.0715 2.55310   2
   8  -2   2 12.7747 3.71872   1
  -2  -6  -2 7.38226 1.86055   4
  -6   8   2 15.0509 2.40890   4
  -6   8   2 10.0700 2.35972   3
  -2  -6   2 10.7351 2.18237   1
  -6   8  -2 15.7327 3.08154   3
   6  -8  -2 12.7898 2.79690   3
  -2  -6   2 10.9827 2.02555   2
   2   6   2 13.6770 2.12391   2
  -2  -6  -2 12.4022 1.98234   2
   8  -2  -2 11.2405 1.73774   2
   8  -2  -2 12.7464 2.94724   1
  -2  -6  -2 13.5427 1.75281   1
  -8   2   2 20.7412 3.39770   1
   6  -8  -2 14.6069 2.80705   1
   8  -2   2 13.9006 3.04926   2
   6  -8  -3 7.43703 2.23285   1
   8  -2   3 5.30862 3.08534   1
   6  -8  -3 6.49100 0.70094   2
   8  -2  -3 6.62738 1.53669   2
   2   6   3 6.25992 1.73960   2
  -2  -6   3 6.70302 1.94775   2
   8  -2  -3 14.9125 3.04345   1
  -2  -6   3 6.06997 0.69323   4
  -2  -6  -3 5.54927 1.90560   4
  -6   8   3 7.39319 2.10848   4
  -2  -6   3 4.26943 1.58394   3
  -6   8   3 6.23800 1.91812   3
   6  -8  -3 5.94607 2.18390   3
  -6   8  -3 3.13830 2.16948   3
  -2  -6   3 5.76978 2.17637   1
  -2  -6  -3 4.88300 1.15239   1
  -2  -6  -3 6.49550 1.83596   2
   8  -2   3 7.82301 3.20283   2
  -2  -6   4 118.406 7.32595   1
  -6   8   4 113.957 6.36565   3
  -2  -6   4 118.927 5.82258   3
   6  -8  -4 119.158 7.41311   3
  -6   8  -4 121.681 7.89298   3
   8  -2  -4 117.420 7.43330   1
   2   6   4 112.186 6.11038   2
   8  -2   4 131.734 9.81602   2
  -2  -6  -4 108.675 6.65039   4
   8  -2   4 147.883 10.3870   1
   6  -8  -4 113.634 6.46203   1
  -2  -6  -4 116.777 4.42026   1
   6  -8  -5 21.1330 2.67584   1
  -8   2   5 19.4236 3.90321   1
  -6   8   5 14.2639 2.34285   3
  -2  -6   5 16.6369 2.14215   3
  -6   8  -5 20.8780 3.42905   3
   6  -8  -5 15.5902 2.99172   3
   8  -2   5 16.6734 4.62589   1
   2   6   5 14.5244 2.46992   2
   8  -2  -5 13.3545 3.03512   1
  -2  -6  -5 10.4354 2.57879   4
  -2  -6   5 12.8113 2.88986   1
  -2  -6  -6 12.6719 2.88944   4
  -6   8   6 14.3261 3.17313   4
   8  -2  -6 8.95798 2.71876   1
  -6   8  -6 12.9120 2.96872   3
  -2  -6   6 14.9610 1.98464   3
   8  -2   6 7.84133 3.75791   1
  -8   2   6 8.57366 2.41676   4
   6  -8  -6 10.7644 1.96403   1
   2   6   6 13.0238 2.48347   2
  -8   2   6 12.3996 3.40660   1
   2   6   7 7.02956 2.51299   2
   6  -8  -7 6.89003 1.88946   1
   8  -2  -7 6.11560 2.73600   1
  -2  -6   7 8.20362 3.14190   1
  -6   8  -7 9.01628 2.66152   3
  -2  -6   7 6.65665 1.65015   3
  -8   2   7 7.36878 1.62911   3
  -6   8   7 4.80433 2.69626   4
  -2  -6  -7 6.88209 2.77308   4
  -8   2   7 4.48608 2.38723   4
  -8   2   7 7.62760 3.45056   1
   8  -2   7 5.09873 3.45354   1
   8  -2   8 42.1061 6.47488   1
  -8   2   8 37.1318 4.06045   4
  -6   8  -8 18.6033 2.71894   4
  -2  -6  -8 27.5666 4.67609   4
  -6   8   8 20.7466 4.08641   4
  -8   2   8 32.3860 2.00390   3
  -2  -6  -8 25.3078 3.44173   3
  -6   8  -8 27.3504 3.30701   3
   8  -2  -8 30.3806 4.13812   1
  -2  -6   8 29.0428 4.64133   1
  -8   2   8 27.3628 2.99324   2
   6  -8  -8 27.5336 2.65848   1
   2   6   8 26.0888 3.45906   2
  -8   2   8 37.6290 5.68612   1
  -2  -6  -9 16.5443 2.95487   3
  -6   8  -9 14.8823 2.58411   3
  -8   2   9 13.6590 4.52046   1
  -8   2   9 18.5667 3.40467   4
  -6   8  -9 11.0022 2.45671   4
  -2  -6   9 19.5123 4.33612   1
   8  -2  -9 12.7477 3.54305   1
   2   6   9 15.8531 3.09421   2
  -8   2   9 13.8432 2.47440   2
   8  -2   9 20.9137 5.35298   1
  -8   2  10 12.4787 4.61507   1
  -6   8 -10 19.4806 2.99891   4
  -8   2  10 13.9570 3.49978   4
   8  -2  10 10.6586 5.02334   1
  -8   2  10 13.2111 2.41136   2
   2   6  10 12.8074 2.95472   2
  -2  -6 -10 15.8492 3.06397   3
  -6   8 -10 14.5523 2.39724   3
  -5   8   0 0.42934 1.09204   4
  -5   8   0-0.35437 1.43451   3
  -3  -5   0 3.18114 1.28363   2
  -3  -5   0 0.74531 1.22093   1
   8  -3   0 0.28019 1.24798   2
  -8   3   0 0.47341 1.91629   1
   8  -3   1 26.9700 3.39502   2
  -5   8   1 25.0643 3.09616   3
  -5   8   1 22.9356 2.62551   4
   3   5   1 18.6391 2.37268   2
  -3  -5   1 20.6300 2.62918   1
  -3  -5  -1 18.1259 2.24635   1
   5  -8   1 15.6245 2.69188   3
  -3  -5  -1 22.0995 2.52080   2
   8  -3  -1 21.2668 2.45386   2
   8  -3  -1 22.2339 3.59605   1
  -8   3  -1 16.2744 3.07843   1
   8  -3   2 349.707 16.1089   1
  -5   8  -2 324.238 13.7275   3
  -5   8   2 316.077 12.7207   3
  -3  -5   2 308.593 12.7648   1
   3   5   2 332.575 12.2051   2
  -3  -5   2 316.895 12.0986   2
   8  -3  -2 312.252 11.0968   2
  -3  -5  -2 321.852 12.0758   2
   8  -3  -2 311.799 14.1277   1
  -3  -5  -2 305.797 11.2999   1
   8  -3   2 335.023 14.7056   2
  -5   8   2 320.945 12.4855   4
   5  -8  -2 313.280 12.7531   1
   8  -3   3 57.7509 6.07185   1
   5  -8  -3 55.1081 4.31234   1
  -5   8  -3 69.3281 5.44535   3
  -5   8   3 51.6868 4.13119   3
   5  -8  -3 62.1985 4.83372   3
   8  -3  -3 56.5898 3.31943   2
   5  -8  -3 54.1707 2.34055   2
   3   5   3 53.5969 4.11786   2
  -3  -5  -3 55.9702 4.22175   2
  -3  -5  -3 55.3751 3.35249   1
  -8   3   3 53.2782 4.01465   2
   8  -3  -3 65.8645 5.37248   1
  -3  -5   3 63.0180 4.91629   1
  -5   8   3 60.6967 4.61243   4
  -3  -5  -3 44.6433 3.96939   4
  -3  -5  -4 1.92469 1.76250   4
  -3  -5   4 0.07491 0.65690   4
  -5   8   4 0.26689 1.46652   3
  -3  -5   4 0.77679 1.72991   1
   8  -3   4 3.12427 2.65912   1
   5  -8  -4 0.24989 1.50412   1
  -8   3   4 4.75036 2.68469   1
  -3  -5  -4 4.02189 1.07809   1
  -8   3   4 0.87842 1.24077   2
   8  -3  -4 1.94938 1.88142   1
  -5   8  -4-0.37454 1.96763   3
   5  -8  -4 1.04422 1.79983   3
   3   5   4 2.04431 1.73671   2
   3   5   5 2.90214 1.89403   2
  -3  -5   5-0.92165 1.91396   2
  -3  -5   5 1.28664 0.76048   4
  -3  -5  -5 2.13875 2.14537   4
  -8   3   5 4.17416 1.59877   2
  -3  -5   5 0.68907 1.12020   3
  -5   8  -5 1.04675 1.80423   3
   5  -8  -5 0.34967 1.97533   3
  -3  -5   5 3.36251 2.24231   1
   8  -3  -5 2.68845 2.07977   1
   5  -8  -5 0.20799 1.29596   1
  -8   3   5-0.54974 2.74918   1
   8  -3   5 3.94182 3.17008   1
   5  -8  -6 142.711 7.69581   3
  -8   3   6 120.852 5.81514   3
   8  -3  -6 133.037 7.74226   1
   5  -8  -6 126.923 5.59661   1
   3   5   6 109.929 7.03920   2
  -8   3   6 119.954 5.75577   2
  -8   3   6 124.002 7.02474   4
  -5   8  -6 123.903 7.03015   3
  -3  -5   6 117.333 5.27254   3
  -8   3   6 120.153 8.88400   1
   8  -3   6 101.385 9.03702   1
  -3  -5   6 138.989 4.90282   4
  -3  -5  -6 129.415 7.83010   4
   8  -3  -7 44.1124 4.58954   1
  -5   8  -7 39.1034 3.76075   3
  -3  -5   7 46.7754 2.65936   3
  -8   3   7 45.5924 3.00038   3
   5  -8  -7 52.0185 4.77208   3
  -3  -5   7 42.6785 4.98235   1
   5  -8  -7 38.7793 2.76365   1
  -8   3   7 46.2645 3.25651   2
   3   5   7 38.1334 4.29834   2
  -5   8  -7 36.4361 2.94414   4
  -5   8   7 49.5283 5.12394   4
  -3  -5  -7 48.0587 4.84034   4
  -8   3   7 48.8391 4.57458   4
  -8   3   7 47.3834 5.93644   1
   8  -3   7 45.2528 6.53735   1
  -5   8  -8 0.71783 1.86064   3
  -8   3   8 4.18694 1.24975   3
   5  -8  -8 0.69977 2.41079   3
   3   5   8 3.85523 2.34882   2
  -8   3   8 2.52411 1.68438   2
  -3  -5   8 0.49518 2.98100   1
  -8   3   8 5.49686 3.80534   1
   8  -3   8-0.74132 3.22972   1
  -3  -5  -8 2.73769 2.90578   4
  -5   8   8 2.84613 2.95587   4
  -8   3   8 4.27458 2.56339   4
   5  -8  -8 3.67601 1.38180   1
   8  -3  -8 4.18550 2.64523   1
   8  -3  -9-0.38271 2.61217   1
  -5   8  -9 3.93588 1.71530   3
  -3  -5   9 1.53684 3.00916   1
  -8   3   9 0.62179 3.78663   1
   8  -3   9 5.23538 3.99004   1
   3   5   9 0.76860 2.39460   2
  -8   3   9 3.03624 2.70769   4
  -3  -5 -10 25.3979 3.51998   3
   8  -3  10 26.8222 6.02987   1
  -8   3  10 30.1278 6.01914   1
   3   5  10 32.6159 4.46675   2
   5  -8  10 27.2216 4.81276   1
  -8   3  10 26.1384 4.07091   4
  -5   8 -10 29.7111 3.18941   4
  -8   3 -10 26.3612 4.28159   4
   3   5  11 17.5730 3.61808   2
  -8   3  11 18.4613 5.56054   1
  -3  -5 -11 17.6120 3.17984   3
  -4   8   0 2602.44 74.2315   3
  -4  -4   0 2583.43 73.1456   1
   4   4   0 2512.33 72.7154   2
   8  -4   0 2599.14 73.6787   2
  -4   8   0 2618.98 72.5708   4
   8  -4   0 2512.15 76.8290   1
   4   4   0 2538.03 73.4382   1
   4  -8   1 99.2957 6.17721   3
  -4  -4   1 106.129 6.05872   1
   8  -4  -1 105.423 5.38222   2
  -4  -4  -1 114.757 5.91564   2
  -4   8  -1 95.1818 4.94730   4
  -4   8   1 101.256 5.65610   4
   8  -4  -1 95.3111 7.15998   1
  -4  -4  -1 109.545 5.63091   1
   4   4  -1 102.422 6.09231   1
   4   4   1 102.637 5.69362   1
  -4   8   1 105.229 6.19243   3
   8  -4   2 48.9832 5.46587   1
  -4   8   2 47.9712 3.93932   4
   8  -4  -2 45.2789 4.77115   1
  -4  -4  -2 45.1664 3.36497   1
  -4   8  -2 45.7521 2.86217   4
  -4   8  -2 47.1447 4.22537   3
  -4   8   2 44.2923 3.84977   3
   4  -8   2 50.8041 4.24095   3
   4  -8  -2 49.9156 2.60895   2
   4   4   2 49.7054 3.85035   2
  -4  -4  -2 50.5688 3.94297   2
   8  -4  -2 42.8096 2.96590   2
  -4  -4   2 40.6831 3.90376   1
   4   4   2 39.4100 3.17302   1
  -4   8   3 38.2459 3.82712   4
  -4  -4  -3 46.2152 3.98102   2
   8  -4  -3 42.0080 4.40352   1
   4   4   3 44.7919 3.07053   1
  -4   8  -3 42.9937 3.98261   3
   4  -8   3 42.9030 3.95412   3
   4  -8  -3 41.8089 3.85018   3
  -4  -4   3 38.9143 3.89878   1
   8  -4  -3 45.1526 2.73595   2
   4  -8  -3 39.0337 2.15251   2
   4   4   3 44.0456 3.91925   2
   4  -8  -3 38.4272 3.33968   1
   8  -4   3 38.1118 4.99583   1
  -4  -4  -3 39.6233 3.05732   1
  -8   4   3 47.6812 5.36990   1
   8  -4   4 1625.96 54.1328   1
  -4  -4  -4 1652.45 47.9127   1
  -4   8   4 1778.12 51.5317   4
   4  -8  -4 1674.94 46.6665   2
   4   4   4 1708.35 47.7273   1
  -4   8  -4 1743.48 50.6505   3
   4  -8  -4 1704.07 50.6008   3
  -4  -4   4 1684.44 49.8608   2
   4   4   4 1693.90 51.0356   2
   8  -4  -4 1735.38 51.6054   1
  -4  -4   4 1720.37 51.7885   1
  -8   4   4 1793.67 54.4141   1
   4  -8  -4 1689.93 48.8728   1
   8  -4   5 40.0164 5.36905   1
  -4  -4  -5 62.7056 4.88388   4
  -4  -4   5 54.0264 2.88142   4
   4  -8  -5 47.0018 3.07880   1
  -8   4   5 43.4548 4.03481   4
  -4   8  -5 53.0124 4.20460   3
   4  -8  -5 45.3799 4.14167   3
  -8   4   5 43.7434 3.54312   3
  -4  -4   5 46.9878 4.07500   2
   4   4   5 45.5529 4.60999   2
   8  -4  -5 48.3589 4.48543   1
  -8   4   5 52.5447 5.76410   1
  -4  -4   6 10.1135 2.46580   2
   4   4   6 5.74891 2.72501   2
   4  -8  -6 2.49002 1.08487   1
   8  -4  -6 8.21401 2.46064   1
  -4  -4  -6 0.77358 2.21542   4
  -4  -4   6 2.48214 1.25974   4
  -4   8  -6 2.46721 1.04363   4
  -8   4   6 5.34680 2.48370   4
  -4   8  -6 0.26558 1.72805   3
  -4  -4   6 5.61656 1.32814   3
   4  -8  -6 0.97683 1.93760   3
  -8   4   6 4.14711 1.49181   3
  -8   4   6-0.57408 2.77108   1
   8  -4   6-0.64968 2.76570   1
  -8   4   6 1.00398 1.32075   2
  -4  -4   7 28.5051 2.49193   4
  -4   8  -7 26.0804 2.17684   4
  -4  -4   7 19.9999 3.22132   2
   4   4   7 28.7026 4.29332   2
  -8   4   7 25.4727 3.54892   4
  -4   8   7 25.1978 4.22867   4
  -4  -4  -7 29.1102 4.17004   4
  -8   4   7 24.5170 2.38049   3
  -4  -4   7 25.8866 1.84331   3
  -4   8  -7 29.3052 3.06098   3
   8  -4  -7 26.5370 3.74638   1
   4  -8  -7 24.4840 3.35678   3
  -8   4   7 30.9099 2.49563   2
  -4  -4   7 27.2488 4.33973   1
   4  -8  -7 25.7721 1.73925   1
  -8   4   7 32.4972 5.13768   1
   8  -4   7 30.7316 5.42787   1
   8  -4   8 493.264 21.8597   1
  -4   8   8 453.575 19.0080   4
  -8   4   8 435.769 17.4763   4
  -4  -4  -8 458.085 18.6470   4
  -4  -4   8 458.901 15.2866   4
  -4   8  -8 437.473 14.7216   4
   8  -4  -8 456.135 17.4563   1
  -4   8  -8 476.458 15.5242   3
  -8   4   8 469.712 14.4092   3
   4  -8  -8 510.286 17.6106   3
  -4  -4   8 446.389 17.1692   2
  -8   4   8 483.579 14.6788   2
   4   4   8 438.896 18.6020   2
  -8   4   8 469.172 20.5994   1
  -4  -4   8 472.246 19.3381   1
   8  -4  -9 10.6075 3.07028   1
   4  -8  -9 4.22743 2.58924   3
  -4  -4   9 10.7481 3.65713   1
  -4  -4   9 11.8892 3.12217   2
   4   4   9 10.2182 3.51068   2
  -8   4   9 9.42508 1.73354   2
   4  -8   9 5.97507 3.43595   1
  -4   8  -9 5.24167 1.86277   4
  -8   4   9 9.21994 3.03199   4
   8  -4   9 13.9113 4.90761   1
  -8   4   9 5.51028 4.14473   1
   8  -4  10 13.1683 4.86740   1
  -8   4  10 16.4698 5.29804   1
   4   4  10 13.4685 3.81849   2
  -4  -4  10 14.9990 3.45287   2
   4  -8 -10 13.8935 3.31743   3
   8  -4 -10 16.9812 3.43671   1
  -8   4 -10 14.0635 3.63898   4
   4   4  11 7.66103 3.73296   2
  -4  -4 -11 4.93314 2.60314   3
  -8   4  11 11.9202 4.79649   1
   3  -8   0 291.610 11.7870   3
   8  -5   0 287.034 13.7770   1
   5   3   0 293.586 11.2594   2
  -5  -3   0 299.993 11.8026   1
  -3   8   0 275.451 10.7163   4
   5   3   0 294.819 11.9941   1
   5   3  -1 1.17194 1.26957   2
  -5  -3   1 3.69682 1.59312   1
  -3   8   1 0.24946 1.18165   4
  -3   8  -1 2.41797 0.99350   4
   5   3  -1-0.33122 1.44303   1
   5   3   1 0.28672 1.45867   1
   3  -8   1-0.29840 1.35788   3
   8  -5  -1 5.19038 2.27698   1
   8  -5  -1 1.30508 1.32492   2
  -5  -3  -1-0.54171 1.42317   2
  -5  -3  -2 1139.64 33.7268   1
  -3   8  -2 1129.69 34.2394   3
   3  -8   2 1080.48 34.1284   3
   3  -8  -2 1111.98 31.6508   2
   8  -5  -2 1091.82 32.1109   2
  -5  -3  -2 1109.50 34.2484   2
  -3   8  -2 1055.58 31.3273   4
  -3   8   2 1131.98 34.1323   4
   8  -5  -2 1133.37 36.2863   1
   5   3   2 1084.51 33.5329   1
  -5  -3   2 1120.82 34.8377   1
   5   3   3 3.54516 2.08741   2
  -5  -3   3 9.70147 1.97926   2
   3  -8  -3 5.22334 1.07794   2
   8  -5  -3 5.21982 1.06485   2
  -3   8  -3 5.20697 0.71109   4
  -3   8   3 8.53495 2.24499   4
   3  -8  -3 6.42866 2.01600   4
  -3   8  -3 6.03535 1.94863   3
   3  -8  -3 3.64636 1.72285   3
   3  -8   3 5.98459 2.13953   3
  -8   5   3 8.56926 2.07434   3
   5   3   3 6.88907 1.73880   1
  -5  -3   3 5.86669 2.07648   1
   8  -5  -3 5.63976 2.15408   1
  -5  -3  -3 4.59172 1.54461   1
   8  -5   3 4.39000 2.65199   1
  -8   5   3 4.69610 2.83633   1
   8  -5   4 170.538 10.6111   1
  -5  -3  -4 170.205 7.09721   1
  -3   8   4 157.934 8.72480   4
   8  -5  -4 174.117 8.92184   1
   3  -8  -4 185.138 8.74364   4
   3  -8  -4 162.577 8.20049   3
  -3   8  -4 179.201 8.09648   3
  -8   5   4 170.768 8.01722   3
   3  -8   4 151.999 7.97212   3
   5   3   4 150.613 6.94236   1
  -5  -3   4 158.349 8.92754   1
  -5  -3   4 166.908 7.79966   2
   3  -8  -4 171.835 6.19445   2
   5   3   4 158.464 9.19375   2
  -8   5   4 193.909 11.3233   1
   3  -8  -4 172.266 6.96816   1
   5   3  -4 155.655 8.80223   1
  -8   5   5 3.51209 2.77281   1
   5   3   5 1.46633 2.22507   2
  -5  -3   5 2.78760 1.75760   2
  -3   8   5 1.61654 2.15740   4
  -5  -3   5 4.04404 1.27832   4
  -8   5   5 3.55849 2.03910   4
   3  -8  -5 2.52301 1.95334   4
  -3   8  -5 1.51686 1.59437   3
   3  -8  -5 2.60438 1.02286   1
  -8   5   5 2.85131 1.57790   3
   3  -8  -5 3.73879 2.10790   3
   5   3   5 4.74127 1.28211   1
   8  -5  -5 3.49105 2.15194   1
   5   3  -5 4.11363 2.22890   1
  -5  -3   6 457.198 14.7476   4
  -8   5   6 461.757 17.1160   4
   3  -8  -6 470.118 17.8164   4
   3  -8  -6 474.477 16.8310   3
  -8   5   6 477.646 15.2980   3
   8  -5  -6 466.584 17.0069   1
  -5  -3   6 445.468 16.2355   2
   5   3   6 464.399 19.2942   2
  -8   5   6 519.938 20.6116   1
   5   3   6 469.602 13.8169   1
   3  -8  -6 420.267 12.7628   1
  -5  -3  -7 19.3093 3.65446   4
  -5  -3   7 18.0891 2.34947   4
  -8   5   7 12.6392 2.84961   4
  -5  -3   7 14.5472 1.38152   3
   3  -8  -7 16.1924 3.49173   4
  -8   5   7 11.0257 1.89642   3
   8  -5  -7 9.32383 2.55787   1
   3  -8  -7 12.3706 2.66027   3
  -5  -3   7 21.9419 4.16619   1
   5   3   7 15.0077 4.08090   2
  -5  -3   7 11.4028 2.62518   2
  -8   5   7 11.2517 3.66632   1
   3  -8  -8 41.7111 4.95525   4
  -8   5   8 40.3889 2.78885   3
  -8   5   8 35.2408 5.66143   1
   3  -8  -8 34.0226 3.91990   3
  -5  -3   8 37.3302 4.13561   2
  -5  -3   8 39.3259 5.20301   1
  -8   5   8 28.7961 4.21339   4
  -5  -3   8 37.7164 3.34456   4
   3  -8   8 33.2405 4.95377   1
   5   3   8 33.4367 5.26874   2
   8  -5  -8 39.1485 4.14857   1
  -5  -3   9 4.21698 2.28118   2
  -8   5   9 6.29659 3.12349   4
  -5  -3   9 6.63870 2.31603   4
   3  -8  -9 7.59993 3.30554   4
   3  -8   9 7.55566 3.40988   1
   8  -5  -9 10.0995 2.90723   1
   3  -8  -9 6.33213 2.60266   3
  -5  -3   9 6.86888 3.64309   1
   5   3   9 4.89829 3.31887   2
  -8   5   9 8.98061 3.85589   1
   3  -8 -10 113.693 6.76623   3
  -5  -3  10 110.479 6.82509   2
   5   3  10 97.9396 8.21169   2
  -8   5  10 104.243 8.88847   1
   8  -5 -10 98.1195 6.47178   1
  -8   5 -10 89.2200 6.80763   4
  -5  -3  11 12.1982 3.24759   2
   5   3  11 16.2507 4.37862   2
  -8   5  11 15.9306 4.77000   1
   6   2   0 484.218 17.8359   1
   8  -6   0 456.296 19.0996   1
   6   2   0 504.497 16.6562   2
  -6  -2   0 459.064 16.6213   2
  -6  -2   0 498.087 17.6864   1
  -2   8   0 458.835 15.4913   4
   2  -8   0 465.839 16.8269   3
   2  -8   1 38.5745 3.49557   3
   6   2  -1 30.8870 3.65131   1
   6   2   1 38.2725 3.84696   1
   2  -8  -1 40.0167 2.77898   2
   6   2  -1 32.7334 2.94421   2
  -6  -2  -1 33.9621 3.39535   2
   6   2   1 30.6449 3.22035   2
   8  -6  -1 29.5793 4.06368   1
   8  -6   1 25.4738 4.09250   1
  -6  -2  -1 36.9375 3.69695   1
  -6  -2   1 36.4436 3.72047   1
  -2   8  -1 38.3481 2.42363   4
  -2   8   1 28.8696 2.85052   4
   2  -8  -1 35.6664 2.89047   4
   2  -8   2 27.3948 2.98287   3
  -6  -2   2 20.0457 2.95273   1
  -6  -2  -2 26.5708 3.08877   1
   6   2  -2 26.7937 2.73729   2
  -8   6   2 25.0177 3.25113   3
   2  -8  -2 26.3382 2.18054   2
   8  -6  -2 28.3702 2.21643   2
  -6  -2   2 23.7756 2.67328   2
  -2   8   2 27.6445 2.99661   4
   6   2   2 22.2502 2.85204   1
   8  -6  -2 28.1284 3.82482   1
   2  -8  -2 23.9909 2.71688   4
   6   2  -3 57.1630 5.04381   1
   2  -8  -3 54.6401 4.31018   3
   2  -8   3 63.4395 4.45552   3
  -8   6   3 65.6465 4.77028   3
   6   2   3 48.7631 4.20319   1
  -6  -2   3 57.6571 4.15180   2
   8  -6  -3 59.6150 2.79037   2
   2  -8  -3 60.1559 3.29202   2
  -2   8   3 55.4747 4.56575   4
   2  -8  -3 63.7068 4.57421   4
   8  -6  -3 63.0723 5.23827   1
  -6  -2   3 44.1862 4.50788   1
  -6  -2  -3 51.6884 4.17694   1
  -8   6   3 63.6863 6.61339   1
  -2   8   4 335.456 14.1562   4
   2  -8  -4 345.612 13.7972   4
  -8   6   4 345.002 13.4682   4
   2  -8  -4 334.352 13.4390   3
  -8   6   4 359.065 13.2857   3
   2  -8   4 340.587 13.1445   3
  -6  -2   4 340.311 14.7484   1
   6   2   4 320.853 13.0066   1
  -6  -2   4 360.776 12.9963   2
   6   2   4 322.981 15.3034   2
   2  -8  -4 330.345 11.4739   2
   2  -8  -4 354.824 11.4226   1
  -8   6   4 406.625 17.8016   1
   8  -6  -4 335.752 14.0745   1
   6   2  -4 332.822 14.4587   1
  -8   6   5 2.37184 1.99122   4
   2  -8  -5 1.08763 2.07649   4
   2  -8  -5 1.54877 1.67869   3
  -8   6   5 2.44682 1.67115   3
   2  -8   5 1.08264 1.64964   3
   2  -8  -5 1.65911 0.62254   1
   6   2  -5 1.25692 2.02284   1
   6   2   5 2.56429 1.59893   1
   8  -6  -5 1.35407 1.80717   1
  -8   6   5 3.10861 3.41623   1
   2  -8  -5 5.80013 0.80768   1
   6   2   5 5.77099 2.73342   2
  -6  -2   5 1.57593 1.67360   2
   2  -8  -6 1.98345 2.08533   4
  -6  -2   6 3.68673 1.60462   4
   2  -8  -6 1.55732 1.80799   3
  -8   6   6 4.11293 1.57203   3
  -8   6   6 6.12796 3.59979   1
   8  -6  -6 5.09818 2.25481   1
   6   2   6 2.61314 1.52879   1
  -6  -2   6 4.37569 2.63372   1
  -8   6   6 5.06393 2.22943   4
  -6  -2   6 1.36881 1.62975   2
   6   2   6-0.62755 2.73444   2
   6   2  -6 3.04530 2.13916   1
   2  -8  -7 35.9396 4.61169   4
  -8   6   7 44.7936 3.27659   3
   2  -8  -7 42.4589 4.02257   3
   6   2   7 37.6306 2.90024   1
   8  -6  -7 43.9148 4.06114   1
  -6  -2   7 43.0272 3.95273   2
   6   2   7 42.8010 6.03295   2
   2  -8   7 48.2517 5.29664   1
  -6  -2   7 36.3535 5.17358   1
  -6  -2   7 40.8579 3.38398   4
  -8   6   7 40.1842 4.51476   4
  -8   6   7 40.5793 5.84096   1
   2  -8  -8 100.305 6.32710   3
  -6  -2   8 99.1154 7.79805   1
   6   2   8 93.9263 4.14236   1
  -8   6   8 112.946 8.81146   1
  -6  -2   8 100.279 6.19415   2
   6   2   8 118.165 9.22429   2
   8  -6  -8 106.203 6.36171   1
   2  -8   8 88.7851 7.33904   1
  -8   6   8 128.851 7.77592   4
   2  -8  -8 109.462 7.65631   4
  -6  -2   8 102.756 5.74000   4
  -8   6   9 0.43920 2.91318   4
  -6  -2  -9 2.38197 2.90151   4
  -6  -2   9 2.86970 2.09890   4
  -8   6  -9 2.50993 3.12757   3
   2  -8  -9 1.56835 2.16103   3
   6   2   9 0.62801 4.04072   2
  -8   6   9 2.34005 3.52112   1
   2  -8   9 4.57171 3.33595   1
   8  -6  -9 2.39165 2.30683   1
  -6  -2   9 3.10233 2.42820   2
  -6  -2   9 3.28175 3.44529   1
  -6  -2  10-0.31280 2.28706   2
  -8   6  10 1.12670 3.69901   1
   6   2  10 0.59707 3.88100   2
   2  -8 -10 0.30501 2.45282   3
  -8   6 -10-0.40016 2.87826   3
  -8   6 -10-0.35346 2.74604   4
  -8   6 -11 20.8715 3.93218   4
  -6  -2  11 18.5766 3.57176   2
   1  -8   0 1222.39 34.6307   4
   1  -8   0 1170.58 36.5038   3
  -8   7   0 1184.21 38.3524   3
   1  -8   0 1206.11 35.4019   2
   7   1   0 1160.90 36.1424   2
  -7  -1   0 1195.50 37.9944   1
   7   1   0 1211.98 38.6345   1
   8  -7   0 1157.07 39.3072   1
   1  -8  -1 1.04073 1.23810   4
  -7  -1   1-0.28620 1.55001   2
  -7  -1  -1 0.34007 1.70091   2
   1  -8  -1 1.49874 1.41970   3
   1  -8   1 0.86023 1.40938   3
  -8   7  -1-0.90653 2.01885   3
  -8   7   1 0.38699 1.76081   3
   1  -8  -1 6.19853 1.44927   2
   7   1   1 1.58369 1.66416   2
   7   1  -1 2.69760 1.44067   2
   7   1  -1 1.27751 1.89673   1
   7   1   1 3.48222 2.13907   1
  -7  -1  -1 5.14237 2.18426   1
   8  -7   1 1.54147 2.23820   1
   8  -7  -1 3.71134 2.27978   1
  -7  -1   1-1.98586 2.15079   1
  -7  -1  -2 30.8811 3.61005   1
  -7  -1   2 28.4594 3.67784   1
   1  -8   2 22.4337 2.81599   3
  -8   7   2 23.7211 3.22722   3
   7   1  -2 25.1545 2.67586   2
  -7  -1   2 24.1122 2.90411   2
   1  -8  -2 31.0054 2.56262   2
   7   1   2 22.5430 3.54980   1
   1  -8  -2 21.4103 2.62145   4
   8  -7  -2 26.9487 3.71880   1
   7   1   2 22.7660 3.33155   2
   8  -7  -2 27.7130 2.33920   2
   8  -7  -3 3.12482 0.82457   2
  -7  -1   3 3.94075 1.71047   2
   1  -8  -3 5.51211 1.48921   2
   1  -8  -3 5.01678 1.92069   4
   1  -8  -3 4.28314 1.23402   1
   7   1  -3 7.70191 2.45123   1
   1  -8   3 8.27805 2.00359   3
  -8   7  -3 1.03732 2.20922   3
  -8   7   3 0.31928 1.75672   3
   8  -7  -3 2.83990 2.19885   1
  -7  -1   3 2.16856 2.17101   1
   7   1   3 3.07069 2.19578   1
  -7  -1  -3 2.85462 1.93382   1
   1  -8  -4 805.125 26.7372   3
   1  -8   4 788.829 26.0000   3
  -8   7   4 804.634 26.3711   3
   1  -8  -4 859.523 27.2947   4
   7   1   4 795.829 28.1772   1
   8  -7  -4 805.990 27.4760   1
  -7  -1   4 795.187 28.5536   1
  -7  -1   4 793.378 25.9083   2
   1  -8  -4 827.112 24.9988   2
  -8   7   4 803.347 26.8794   4
   7   1  -4 819.412 28.3541   1
   1  -8  -4 848.491 23.6326   1
   1  -8   4 873.858 28.4575   1
   7   1   5 1.61722 2.09105   1
   8  -7  -5 1.66081 2.18170   1
  -7  -1   5 3.91820 1.89526   2
   1  -8  -5 2.21895 2.06123   4
  -8   7   5 2.45529 1.81431   4
   1  -8  -5 2.53635 2.06156   3
  -8   7  -5 7.05023 3.08666   3
   1  -8   5 3.84777 1.76740   3
  -8   7   5 1.79910 1.63710   3
  -8   7   5 0.64267 2.92413   1
   7   1  -5-0.43640 1.94421   1
   1  -8   5-0.44695 2.19682   1
   7   1   5 1.30305 3.14415   2
  -7  -1   6 36.1267 4.76098   1
   7   1   6 25.3646 3.60136   1
   8  -7  -6 24.2597 3.27283   1
  -8   7   6 36.6968 5.41351   1
  -7  -1   6 27.5238 2.85068   4
   1  -8  -6 30.9244 3.98966   4
  -8   7   6 31.0311 3.92895   4
   1  -8  -6 31.4579 3.60299   3
  -8   7   6 31.2346 3.07024   3
   1  -8   6 29.3543 2.99622   3
  -8   7  -6 36.8464 5.49473   3
  -7  -1   6 28.2815 3.19323   2
   7   1  -6 29.1967 4.16223   1
   7   1   6 23.3167 5.10067   2
  -8   7   7 0.59725 3.37356   1
  -1   8   7 1.96067 1.38239   2
  -7  -1   7 1.62417 1.97934   2
   8  -7  -7 1.18769 1.89033   1
   1  -8  -7 3.02239 2.86332   4
  -8   7   7-2.02164 2.62825   4
  -7  -1   7-0.99857 1.78072   4
  -7  -1   7 4.88492 3.18768   1
   7   1   7 0.95188 1.74320   1
  -8   7  -7 1.76769 2.94656   3
   7   1   7-3.68783 3.68831   2
   7   1  -7 1.36490 2.73803   1
   1  -8   7 1.48103 2.89938   1
  -8   7   7 0.42462 1.58958   3
   1  -8  -7 1.59133 1.98263   3
   1  -8   8 297.862 14.1548   1
   8  -7  -8 294.929 11.6617   1
   1  -8  -8 306.547 12.1808   3
  -7  -1   8 277.915 8.29929   3
  -8   7  -8 347.986 15.0976   3
  -1   8   8 322.616 10.1905   2
  -7  -1   8 305.080 11.7174   2
   7   1   8 290.251 16.1423   2
  -7  -1  -8 310.135 13.6593   4
   1  -8  -8 318.941 13.9568   4
  -8   7   8 298.645 13.4626   4
  -7  -1   8 311.525 11.5549   4
  -7  -1   8 352.487 15.5499   1
   7   1   8 290.912 11.1774   1
  -8   7   8 326.636 15.3630   1
  -7  -1   9 2.55021 2.23280   2
  -1   8   9 1.06683 1.57611   2
  -8   7   9 2.16783 3.41333   1
   1  -8  -9-0.31591 2.23421   3
  -8   7  -9 0.44174 2.84204   3
   7   1   9 5.76090 4.12213   2
   7   1   9-0.18344 1.51422   1
  -7  -1   9 1.73443 3.22123   1
  -7  -1   9 0.57116 2.10499   4
   8  -7  -9 0.82223 2.03618   1
   1  -8   9 2.62462 3.26992   1
   1  -8 -10 17.1054 3.25045   3
  -8   7 -10 18.8673 3.58539   3
  -8   7  10 16.7698 4.47677   1
  -7  -1  10 19.0742 3.27205   2
  -8   7 -10 16.0931 3.34645   4
  -8   7 -11 1.33178 2.64178   4
   8  -8   0 751.344 27.5650   1
   0  -8   0 783.712 23.2685   4
   0  -8   0 754.961 24.7532   1
   0  -8   0 752.609 25.0044   3
  -8   8   0 757.148 26.8105   3
   0  -8   0 785.728 24.2087   2
   8   0   0 749.258 24.9035   2
   8   0   0 754.721 27.8941   1
  -8   0   0 734.795 26.6414   1
   8  -8   1 4.71624 2.62180   1
  -8   0   1 3.18298 2.39004   1
  -8   0  -1 1.25087 2.01362   1
   8  -8  -1 7.14146 2.86636   1
   0  -8   1 3.07595 1.65125   2
   0  -8  -1 2.94469 1.38367   2
   8   0   1 10.5225 2.43878   2
   8   0  -1 2.28901 1.39977   2
   8   0   1 1.10361 2.51165   1
   0  -8  -1 4.19746 1.52373   4
   0  -8   1 3.05323 0.97900   4
   0  -8   1 3.55097 1.78280   3
   0  -8  -1 2.17402 1.63360   3
  -8   8   1 2.82071 1.94615   3
  -8   8  -1 4.23366 2.51073   3
   0  -8   1 2.23874 1.80844   1
   0  -8  -1 1.45892 1.37602   1
  -8   0   1 5.69506 2.09984   2
   0  -8  -2 1534.88 45.1690   4
   0  -8  -2 1562.15 44.2250   1
   0  -8   2 1531.16 46.5325   1
   0  -8   2 1488.82 45.3405   3
   0  -8  -2 1415.73 45.6065   3
  -8   8   2 1614.40 47.0290   3
   8   0  -2 1539.65 44.7871   2
   8   0   2 1499.91 47.4937   2
  -8   0   2 1497.89 45.4915   2
   0  -8  -2 1540.80 44.2307   2
  -8   0   2 1607.40 48.4620   1
   8   0   2 1563.48 49.8591   1
  -8   0  -2 1527.11 47.1070   1
   8  -8  -2 1452.69 47.3892   1
   8  -8  -3 0.81465 2.00192   1
  -8   0  -3 0.71844 1.91670   1
   8   0  -3 2.97915 1.66261   2
  -8   0   3 2.80941 1.82668   2
   0  -8  -3 2.76929 1.48093   2
   8   0   3 2.10190 2.01234   2
   0  -8  -3 0.30520 1.62865   4
   8   0   3 4.80552 3.05547   1
  -8   0   3 1.93528 2.41978   1
   0  -8   3 1.93341 1.64285   3
  -8   8  -3 0.53784 2.44709   3
  -8   8   3 1.33352 1.83199   3
   8   0  -3 2.78390 1.97489   1
   8  -8  -3 0.98928 0.75913   2
   0  -8   3 1.56716 1.85560   1
   0  -8  -3 2.13400 1.14201   1
   0  -8   4 399.828 14.4777   3
   0  -8  -4 387.801 15.1312   3
  -8   8   4 397.169 14.9492   3
  -8   8  -4 399.937 17.8769   3
   8   0  -4 407.253 16.7944   1
   0  -8  -4 395.895 12.0422   1
   0  -8  -4 382.868 13.8388   2
  -8   0   4 397.756 14.5887   2
   8  -8  -4 400.871 15.7779   1
   8   0   4 386.201 18.0968   1
   0  -8   4 397.659 16.3811   1
   0  -8  -4 390.215 15.3596   4
   0   8   5 12.3950 2.13480   2
  -8   0   5 12.4889 2.38872   2
   0  -8  -5 10.9260 2.66107   4
  -8   8   5 14.7158 2.87648   4
   8   0   5 16.1908 4.29864   2
  -8   8   5 12.3913 2.53904   3
   0  -8  -5 10.7949 2.56193   3
  -8   8  -5 12.8359 3.52605   3
   0  -8   5 9.28498 2.10921   3
   0  -8   5 10.8846 3.02487   1
   8   0  -5 19.2028 3.56682   1
   8   0   5 7.64852 3.24830   1
   8  -8  -5 13.3313 2.60944   1
  -8   8   6 622.160 22.2409   4
   0  -8  -6 611.617 22.3490   4
  -8   0   6 620.995 20.5038   4
  -8   8   6 608.402 20.3128   3
   0  -8  -6 637.660 21.4765   3
  -8   8  -6 635.560 24.6385   3
   0  -8   6 585.700 19.8913   3
   0   8   6 612.688 19.6578   2
  -8   0   6 635.475 20.4922   2
   8   0   6 567.280 26.0935   2
   8   0   6 568.556 23.5771   1
  -8   0   6 628.697 24.3468   1
   8  -8  -6 586.853 20.7711   1
   8   0  -6 608.269 22.9148   1
  -8   0   7 7.62759 3.40425   1
   8   0   7 2.47898 2.60664   1
   0   8   7 6.26156 1.83170   2
  -8   0   7 2.37854 2.01173   2
   0  -8  -7 4.85094 2.68750   4
  -8   8   7 8.95605 3.14522   4
  -8   0   7 4.53074 2.21834   4
   0  -8  -7 3.28876 2.26746   3
  -8   8   7 4.63870 1.92944   3
  -8   8  -7 4.32089 3.25218   3
   8   0   7 9.87062 4.52008   2
   8   0  -7 3.67186 2.89273   1
   8  -8  -7-0.27928 1.87331   1
  -8   8   8 73.1644 6.25091   4
   0  -8  -8 52.1756 5.78325   4
  -8   0   8 58.0947 4.74266   4
   8   0   8 49.2069 7.55972   2
   0  -8   8 63.0705 6.42838   1
   8   0  -8 63.8332 6.08387   1
   0  -8  -8 63.1709 5.03851   3
  -8   8  -8 61.2780 6.16288   3
   8  -8  -8 61.1567 4.49586   1
  -8   0   8 57.8814 4.47276   2
   8   0   8 46.0519 5.24381   1
  -8   0   8 62.1259 7.06483   1
   0   8   8 64.3021 4.17311   2
   8   0   9 12.2397 5.41904   2
   0  -8  -9 9.07954 2.90301   3
  -8   8  -9 12.1137 3.17688   3
  -8   0   9 13.0841 4.63773   1
   8   0   9 7.57203 2.81980   1
  -8   8  -9 10.7790 2.72105   4
  -8   0   9 12.1159 3.05342   4
   0   8   9 14.2605 2.41077   2
  -8   0   9 8.98651 2.58306   2
   0  -8 -10 107.297 6.69182   3
  -8   8 -10 110.817 6.62017   3
  -8   8 -10 94.1094 6.27690   4
  -8   0  10 107.025 6.25727   2
  -1  -8   0 54.1086 4.26986   1
  -1  -8   0 54.1259 4.37510   3
  -8   9   0 57.4469 5.24912   3
   8  -9   0 49.2092 5.39534   1
   9  -1   0 49.4480 4.34181   2
  -1  -8   0 45.3331 3.82953   2
  -1  -8   0 51.4707 3.47433   4
   9  -1   0 50.8869 6.04997   1
  -9   1   0 60.1655 5.82242   1
  -9   1  -1 3.79992 2.64655   1
   8  -9  -1 5.81108 2.80834   1
  -9   1   1 0.50764 2.35707   1
   9  -1  -1 2.40662 1.73835   2
  -1  -8  -1-0.24079 1.28472   2
   9  -1   1 1.14753 1.81134   2
  -1  -8   1 3.35668 1.64301   2
  -1  -8   1 1.66456 1.07030   4
  -1  -8  -1-0.72538 1.42029   4
  -9   1   1-0.71768 2.08110   2
  -1  -8   1 0.30893 1.74513   3
  -1  -8  -1 0.65736 1.75349   3
  -8   9   1-1.68080 2.02768   3
   9  -1   1 3.95387 2.80429   1
  -1  -8  -1 2.30154 1.59319   1
  -1  -8   1 1.66982 1.78168   1
  -9   1  -2 340.786 14.6107   1
  -1  -8  -2 341.536 12.8172   4
  -1  -8   2 312.372 9.76121   4
  -9   1   2 300.438 12.9230   2
   9  -1   2 351.699 17.4242   1
  -8   9   2 301.771 12.6374   4
  -1  -8  -2 321.240 13.1827   3
  -8   9   2 338.148 13.9562   3
  -1  -8   2 320.609 12.8019   3
  -1  -8  -2 323.473 11.7600   1
  -1  -8   2 305.626 12.6010   2
   9  -1  -2 343.257 12.3046   2
  -1  -8  -2 318.914 12.0633   2
   9  -1   2 323.733 14.6526   2
   8  -9  -2 326.351 14.4887   1
  -9   1   2 345.828 15.6150   1
  -1  -8   2 346.531 13.8830   1
  -1  -8  -3 1.61695 1.73034   4
  -8   9   3 13.1361 2.71202   4
  -8   9   3 8.75805 2.41629   3
  -1  -8   3 4.56435 2.02192   3
  -1  -8   3 2.84813 2.10793   1
  -8   9  -3 4.96164 2.94387   3
  -1  -8  -3 5.42756 1.96198   2
  -1  -8   3 1.61650 1.67694   2
   9  -1  -3 3.90411 1.69801   2
   9  -1   3 5.54581 2.52646   2
  -9   1   3 4.83216 2.02679   2
  -1  -8  -3 4.88611 1.51084   1
   9  -1  -3 12.2050 3.27444   1
  -9   1   3 5.42124 2.93845   1
   8  -9  -3 5.74378 2.58739   1
   8  -9  -4 11.2790 2.91276   1
   9  -1  -4 12.7207 3.22404   1
  -8   9  -4 10.2415 3.39398   3
   9  -1   4 12.2771 3.98938   2
  -9   1   4 10.7014 2.31080   2
  -1  -8  -4 7.55307 2.11212   2
  -1  -8  -4 11.6217 1.36059   1
   9  -1   4 6.75757 3.76451   1
  -1  -8   4 8.38098 2.79138   1
  -1  -8  -4 5.74624 2.22884   4
  -1  -8  -4 15.0833 2.84237   3
  -1  -8   4 8.37111 2.20290   3
  -8   9   4 12.2037 2.69772   3
  -1  -8  -5 0.78163 2.23837   4
   9  -1   5 0.74366 2.93072   1
   8  -9  -5 1.00906 1.95199   1
  -9   1   5 5.88309 2.99314   1
  -8   9   5 2.65946 1.99904   3
  -1  -8  -5 4.09907 2.10539   3
  -8   9  -5 3.41688 2.89740   3
  -1  -8   5 4.29705 1.78914   3
  -1  -8   5 0.47486 2.64676   1
   9  -1  -5 4.81594 2.60870   1
  -9   1   5 2.52883 1.90099   2
   1   8   5 3.52085 1.71775   2
  -9   1   6 175.472 8.35292   4
  -1  -8  -6 162.820 8.46864   3
  -8   9   6 167.592 7.92976   3
  -1  -8   6 157.417 7.31710   3
  -8   9  -6 182.425 10.7446   3
   1   8   6 158.316 7.54757   2
  -9   1   6 162.654 7.93957   2
   9  -1   6 164.504 12.4122   2
  -1  -8  -6 166.806 9.38645   4
  -8   9   6 138.386 8.66754   4
  -9   1   6 174.949 10.9918   1
   9  -1   6 135.895 10.8193   1
   8  -9  -6 146.479 7.78065   1
   9  -1  -6 163.691 9.68785   1
  -1  -8   6 166.511 9.95528   1
   9  -1   7 7.38378 3.84979   1
  -9   1   7 8.89614 4.00909   1
  -9   1   7 6.74296 2.61027   4
  -1  -8  -7 10.8532 2.91342   3
  -8   9  -7 12.4267 3.67136   3
  -1  -8   7 5.51787 1.93559   3
  -1  -8  -7 9.78917 3.26217   4
  -8   9   7 14.8033 3.51803   4
   9  -1   7 7.05141 4.48935   2
   8  -9  -7 8.92650 2.50954   1
   9  -1  -7 5.18454 2.87986   1
   1   8   7 10.4760 2.52231   2
  -9   1   7 12.8695 2.61635   2
   1   8   8 2.07124 1.90832   2
  -9   1   8-0.27016 1.97542   2
   8  -9  -8 1.20826 1.93040   1
  -9   1   8 1.30761 2.35140   4
  -1  -8  -8 0.47245 3.16363   4
  -8   9  -8 1.29285 2.56242   3
   9  -1   8-0.90638 4.37340   2
  -1  -8   8-1.09458 3.55746   1
   9  -1  -8 0.93796 2.92140   1
  -9   1   8-0.65383 3.59193   1
   9  -1   8 1.80094 3.15341   1
  -1  -8  -8-0.67664 2.32994   3
  -1  -8  -9 8.71388 3.25318   3
  -8   9  -9 5.85523 2.38879   4
  -9   1   9 4.70514 2.77852   4
  -8   9  -9 3.59153 2.75487   3
  -9   1   9 6.90272 2.38291   2
   1   8   9 5.86339 2.49926   2
   9  -1   9 7.61671 3.43649   1
  -1  -8 -10 21.2803 3.73799   3
  -8   9 -10 24.8948 3.52904   4
  -2  -7   0 245.479 9.16618   4
   9  -2   0 232.166 10.2964   2
  -2  -7   0 219.729 9.50841   2
  -2  -7   0 231.470 10.0307   1
  -7   9   0 225.053 11.4251   3
  -9   2   0 244.053 12.4441   1
  -2  -7   1 280.804 9.79640   4
  -2  -7  -1 282.204 10.8531   4
  -7   9   1 270.170 11.1482   4
  -7   9   1 285.328 12.7359   3
  -9   2   1 270.213 13.6041   1
  -2  -7  -1 283.175 10.9362   1
   9  -2  -1 277.804 11.0248   2
  -2  -7  -1 284.120 10.9343   2
   9  -2   1 277.172 12.4222   2
  -2  -7   1 282.114 11.1793   2
   9  -2   1 279.736 15.0997   1
  -9   2  -1 273.480 13.2921   1
   7  -9  -1 257.584 12.6803   1
  -2  -7   1 281.649 11.8127   1
   9  -2   2 0.71311 2.56462   1
  -9   2  -2 1.32113 2.16385   1
  -9   2   2 0.53232 2.42158   1
   7  -9  -2-0.41047 1.78780   1
  -2  -7  -2 1.76654 1.40606   2
  -2  -7   2 0.86132 1.50815   2
   9  -2  -2-0.22034 1.40273   2
   9  -2  -2-0.52162 2.37291   1
  -2  -7  -2 0.20190 1.24366   1
  -2  -7   2 0.42111 0.78211   4
  -2  -7  -2-0.27747 1.66981   4
  -7   9   2-0.30686 1.68576   4
  -7   9   2 1.10055 1.80257   3
  -2  -7   2 2.77956 1.63242   3
  -7   9  -2-0.49149 2.09145   3
  -2  -7   2-0.71915 1.85907   1
   9  -2   2-1.38405 2.14202   2
  -9   2   2-0.32656 1.79402   2
  -7   9   3 138.062 7.71283   4
  -2  -7  -3 143.455 7.68062   4
  -9   2   3 148.942 7.66812   2
   9  -2   3 165.399 11.6762   1
  -2  -7   3 161.124 8.73678   1
  -7   9   3 150.183 8.06280   3
  -2  -7   3 147.163 7.26050   3
  -7   9  -3 137.465 9.08358   3
   9  -2  -3 150.807 6.69733   2
  -2  -7   3 154.979 7.82628   2
   2   7   3 150.182 7.31074   2
  -2  -7  -3 141.982 7.22517   2
   9  -2   3 156.302 9.97575   2
   9  -2  -3 153.682 9.32725   1
  -2  -7  -3 156.690 6.31143   1
   7  -9  -3 135.842 8.06282   1
  -7   9   4 160.474 8.45363   4
  -2  -7  -4 137.405 7.85403   4
   9  -2   4 158.660 10.8117   2
  -2  -7  -4 152.801 7.65896   2
  -2  -7  -4 146.788 5.60103   1
  -2  -7   4 132.185 6.91081   3
  -7   9   4 150.906 7.81462   3
  -7   9  -4 164.752 9.78293   3
   2   7   4 150.980 7.36033   2
  -9   2   4 165.528 7.70801   2
  -2  -7   4 157.842 8.92876   1
   9  -2  -4 146.795 8.95462   1
   7  -9  -4 149.287 8.04531   1
   9  -2   4 147.156 11.3975   1
  -2  -7  -5 166.087 9.04193   4
   7  -9  -5 161.671 8.19028   1
  -2  -7   5 183.201 10.0583   1
  -7   9  -5 186.840 10.4029   3
   2   7   5 180.944 8.38037   2
  -9   2   5 167.467 7.88705   2
   9  -2  -5 166.036 9.54904   1
  -2  -7   5 172.183 7.61478   3
  -7   9   5 177.120 8.35439   3
  -9   2   5 187.096 11.2196   1
   9  -2   5 149.300 11.5370   1
  -9   2   6 2.26069 2.12082   4
   9  -2  -6-0.45075 2.54622   1
  -7   9  -6 2.74156 2.40041   3
  -2  -7   6 0.20379 1.36501   3
  -9   2   6 1.25952 1.71923   2
   2   7   6 1.15803 1.92014   2
  -2  -7  -6 0.83115 2.18321   4
   7  -9  -6 4.28121 1.91444   1
  -9   2   6 2.46873 3.57920   1
   9  -2   6-2.36714 3.58962   1
   9  -2   7 19.5649 5.16039   1
  -9   2   7 18.8375 2.73533   2
   2   7   7 17.5082 2.91567   2
  -7   9   7 21.3193 4.04592   4
  -2  -7  -7 17.8288 3.70912   4
  -9   2   7 15.5228 3.12233   4
   9  -2  -7 9.81082 3.49686   1
  -9   2   7 15.2886 2.32148   3
  -2  -7   7 20.9775 2.39017   3
  -7   9  -7 19.1849 3.42319   3
   9  -2   7 19.7998 5.82681   2
   7  -9  -7 18.0555 2.53214   1
  -9   2   7 18.5859 4.82139   1
  -9   2   8 61.3536 7.23775   1
   9  -2  -8 47.1925 5.34783   1
  -2  -7   8 52.2950 6.01885   1
   2   7   8 56.8722 4.61053   2
  -9   2   8 59.0299 4.23007   2
  -9   2   8 58.3945 3.24586   3
  -2  -7  -8 46.8549 4.39613   3
  -7   9  -8 54.2784 5.03743   3
  -9   2   8 54.2802 5.07886   4
  -2  -7  -8 49.3239 5.65422   4
  -7   9   8 48.1870 5.52982   4
   9  -2   8 67.5293 9.20259   2
   7  -9  -8 52.9237 3.74013   1
   9  -2   8 47.2895 7.18699   1
  -2  -7  -9 43.9658 4.50411   3
  -7   9  -9 46.1638 4.37239   3
   9  -2   9 50.8905 7.03587   1
   9  -2  -9 39.7366 5.09150   1
  -9   2   9 48.1512 4.12252   2
   2   7   9 44.4600 4.17636   2
  -9   2   9 41.6614 4.69786   4
  -9   2   9 39.4997 6.20358   1
  -7   9  -9 41.1969 3.81377   4
  -2  -7 -10 3.45842 2.51206   3
   2   7  10 0.86225 2.28099   2
  -9   2  10 2.21687 2.80888   4
  -6   9   0 0.40825 1.89569   3
  -9   3   0-0.51644 2.19782   1
   6  -9   0-1.67936 2.02596   3
  -3  -6   0 0.83460 1.48430   1
   9  -3   0 0.92053 1.53467   2
  -6   9   0 1.47053 1.22593   4
   9  -3   1 905.911 33.4495   1
   9  -3  -1 893.443 32.1746   1
  -6   9   1 955.971 30.2562   3
  -3  -6  -1 894.587 27.9706   1
  -3  -6   1 904.340 29.1297   1
   3   6   1 894.682 28.3235   2
  -3  -6  -1 893.917 28.2417   2
  -3  -6   1 895.580 28.2763   2
   9  -3   1 905.287 29.9581   2
   9  -3  -1 883.592 28.0131   2
  -6   9   1 899.881 28.5970   4
  -9   3  -1 927.982 31.5285   1
  -9   3   1 942.257 32.5241   1
   9  -3   2 1229.55 42.2674   1
  -9   3   2 1226.02 40.3904   1
  -6   9   2 1202.84 37.5009   3
  -6   9  -2 1230.56 39.1340   3
  -3  -6   2 1172.73 37.4078   1
  -3  -6  -2 1187.27 35.3376   1
   3   6   2 1210.84 36.3061   2
  -3  -6   2 1188.17 36.3194   2
   9  -3  -2 1208.80 35.2559   2
   9  -3   2 1207.19 39.2265   2
  -3  -6  -2 1153.65 36.0931   2
   9  -3  -2 1206.57 39.7360   1
  -3  -6  -2 1188.55 36.2966   4
  -6   9   2 1133.18 36.5984   4
   6  -9  -2 1209.75 37.7108   1
   9  -3   3 680.553 27.5444   1
   6  -9  -3 675.567 23.1819   1
  -6   9   3 671.173 23.0286   3
  -6   9  -3 704.354 24.9715   3
   6  -9  -3 691.793 24.2560   3
  -3  -6   3 646.114 22.4304   2
   6  -9  -3 649.718 19.2755   2
   9  -3  -3 737.992 21.3245   2
   3   6   3 695.000 22.6318   2
  -3  -6  -3 661.507 22.3615   2
  -3  -6  -3 700.476 20.9962   1
   9  -3   3 717.565 26.6923   2
   9  -3  -3 683.444 24.9482   1
  -3  -6   3 682.856 23.8288   1
  -6   9   3 666.761 23.1974   4
  -3  -6  -3 659.304 22.7007   4
   3   6   4 10.1585 2.41064   2
  -6   9   4 2.58902 2.18092   4
  -3  -6  -4 10.9422 2.52784   4
  -3  -6   4 7.86377 0.82828   4
  -3  -6   4 7.94739 1.89601   3
  -6   9   4 6.29333 2.05424   3
   6  -9  -4 6.11500 2.34172   3
  -6   9  -4 6.19553 2.63850   3
  -9   3   4 7.50306 3.39521   1
   6  -9  -4 8.03589 2.09568   1
  -3  -6  -4 6.64891 1.32948   1
   9  -3   4 3.58582 3.19974   1
   9  -3  -4 10.5330 2.83022   1
  -3  -6   4 5.05132 2.35341   1
  -3  -6   5 415.761 14.5424   3
  -6   9  -5 424.592 17.2666   3
   6  -9  -5 462.018 17.5233   3
  -3  -6   5 412.971 16.1723   2
   3   6   5 431.614 16.1672   2
  -3  -6  -5 418.792 16.6776   4
   6  -9  -5 423.685 15.2176   1
  -3  -6   5 438.404 17.7073   1
   9  -3  -5 434.260 17.4417   1
   9  -3   5 454.469 21.1356   1
  -9   3   5 464.491 19.7759   1
  -9   3   6 594.273 20.3212   4
  -6   9  -6 555.387 20.5739   3
  -3  -6   6 547.408 17.8483   3
  -9   3   6 584.057 18.8059   3
   6  -9  -6 593.183 21.2741   3
   9  -3  -6 571.532 21.2428   1
  -3  -6   6 522.573 20.0235   2
   6  -9  -6 558.844 18.2818   1
  -3  -6  -6 545.361 20.7881   4
   3   6   6 555.303 20.0393   2
   9  -3   6 586.709 25.2808   1
  -9   3   6 616.910 24.0956   1
   9  -3  -7 229.948 11.5609   1
  -6   9  -7 247.414 11.0129   3
   6  -9  -7 253.372 11.8429   3
  -3  -6   7 237.988 8.75510   3
  -9   3   7 254.493 9.35472   3
   6  -9  -7 237.057 9.07263   1
   3   6   7 243.028 11.1948   2
  -6   9   7 237.740 12.1306   4
  -9   3   7 265.659 11.4379   4
  -3  -6  -7 240.269 11.9777   4
  -9   3   7 249.440 14.1298   1
   9  -3   7 258.130 15.5228   1
   3   6   8 9.63074 2.99518   2
  -9   3   8 12.7282 1.85572   3
  -6   9  -8 10.6299 2.53356   3
   6  -9  -8 10.7916 1.85447   1
   9  -3  -8 11.2520 3.25078   1
  -3  -6   8 13.1421 3.88544   1
   9  -3   8 8.96877 4.42429   1
  -9   3   8 13.2686 4.53639   1
  -3  -6  -8 11.2690 3.68542   4
  -6   9   8 6.79655 3.38601   4
  -9   3   8 8.83775 2.93603   4
  -9   3   9 85.5338 6.37773   4
  -9   3   9 96.5329 8.76195   1
   9  -3   9 86.4622 9.46404   1
   9  -3  -9 91.0112 6.90481   1
  -6   9  -9 84.1434 5.26342   3
   3   6   9 86.5815 6.32241   2
  -9   3  10 145.854 12.0340   1
   3   6  10 164.204 8.71890   2
   9  -3 -10 162.254 9.41077   1
  -3  -6 -10 147.447 8.04445   3
  -5   9   0 6.06766 2.17440   3
   5  -9   0 6.05834 1.99294   3
  -4  -5   0 2.88838 1.50829   2
  -4  -5   0 2.82884 1.66608   1
  -5   9   0 5.75779 1.64853   4
  -9   4   0 4.24331 2.51458   1
   4   5   0 5.60425 1.80986   1
   9  -4   0 5.44419 1.88821   2
  -9   4   1 20.1758 3.80414   1
  -4  -5  -1 13.1513 2.31526   2
   9  -4  -1 13.7489 2.22116   2
  -4  -5   1 13.8372 2.22281   2
  -5   9   1 13.6253 2.29322   4
  -5   9  -1 15.7972 2.07600   4
  -5   9   1 11.4393 2.39522   3
   5  -9   1 14.5009 2.81112   3
   5  -9  -1 8.58941 2.45154   3
   4   5  -1 11.2740 2.41949   1
   9  -4   1 7.00578 2.42171   2
   4   5   1 11.6429 2.13470   1
  -4  -5   1 12.8726 2.46317   1
  -4  -5  -1 14.9804 2.26283   1
   9  -4  -1 11.8869 3.19165   1
  -5   9   2 184.547 9.02283   4
  -4  -5  -2 189.602 8.16589   1
   9  -4  -2 195.289 10.8199   1
   4   5   2 193.165 8.37967   1
  -5   9  -2 200.183 10.1220   3
  -5   9   2 198.886 9.44802   3
   5  -9   2 182.176 9.61232   3
   4   5   2 197.147 8.95030   2
  -4  -5   2 188.600 8.62075   2
  -4  -5  -2 187.617 8.74395   2
   9  -4  -2 193.378 7.78519   2
  -4  -5   2 201.843 9.61278   1
   9  -4   2 190.092 11.8502   1
  -5   9   3 1.05712 1.85124   4
  -5   9  -3-0.79368 1.84277   3
  -5   9   3 1.24928 1.85728   3
   5  -9  -3 3.33586 1.78869   3
  -4  -5   3 2.32029 2.03161   1
  -4  -5  -3 0.61387 1.63760   2
   4   5   3 0.31016 1.55129   2
   5  -9  -3 1.02831 0.73430   2
   9  -4  -3 1.26476 1.09904   2
   5  -9  -3 2.08749 1.75165   1
   9  -4   3 3.20850 3.15322   1
  -4  -5  -3 2.04733 1.50930   1
   9  -4  -3-0.45474 1.88867   1
   5  -9  -4 1.72401 0.67960   2
  -5   9  -4 2.65017 1.82721   3
   5  -9  -4 2.97225 1.92131   3
  -4  -5   4 0.84143 2.06764   1
   9  -4  -4-0.42947 2.14798   1
  -5   9   4 0.38723 1.90314   4
  -4  -5  -4 0.33693 1.79776   4
   5  -9  -4 0.77910 1.52575   1
  -9   4   4 0.59360 2.52630   1
   9  -4   4 1.35848 2.95867   1
  -4  -5  -4 2.79550 1.35783   1
  -4  -5   4 1.22972 1.56415   2
   4   5   4 3.75519 2.12691   2
  -4  -5   5 25.4470 1.84856   4
   4   5   5 21.4837 3.45623   2
  -4  -5   5 23.1255 3.16800   2
   9  -4  -5 24.4693 3.59277   1
  -4  -5   5 22.2089 3.89016   1
  -4  -5  -5 22.6338 3.36939   4
  -5   9   5 19.1827 3.46083   4
  -4  -5   5 30.8394 2.72129   3
  -5   9  -5 29.5461 3.65233   3
  -9   4   5 29.0616 3.06952   3
   5  -9  -5 22.0053 3.38620   3
   9  -4   5 23.5196 4.81739   1
  -9   4   5 21.3261 4.39533   1
   5  -9  -5 21.3305 2.59918   1
  -4  -5  -6 81.3513 6.32485   4
  -4  -5   6 88.3325 4.03321   4
  -9   4   6 96.8917 5.15262   2
  -9   4   6 105.752 6.58160   4
  -4  -5   6 92.0690 4.59474   3
  -5   9  -6 95.3858 6.06299   3
   5  -9  -6 102.051 6.63133   3
  -9   4   6 95.6702 5.27678   3
  -4  -5   6 86.6591 6.01369   2
   4   5   6 86.1899 6.38339   2
   9  -4  -6 87.1177 6.42017   1
   5  -9  -6 92.1007 4.61692   1
   9  -4   6 94.8615 8.98173   1
  -9   4   6 95.0663 8.29705   1
  -9   4   7 2.13091 1.65889   2
  -4  -5   7 0.91559 1.18443   3
  -5   9  -7 1.42205 1.81097   3
   5  -9  -7 2.63922 2.32265   3
  -9   4   7 1.51516 1.54371   3
   4   5   7 2.93404 2.72477   2
  -4  -5   7 0.35035 2.30074   2
  -4  -5   7 1.01695 2.71262   1
  -4  -5   7 2.33060 1.22671   4
  -9   4   7-1.10772 2.24867   4
  -4  -5  -7 2.60857 2.58530   4
  -5   9  -7 2.48879 1.30359   4
   9  -4  -7 0.79421 2.36142   1
   5  -9  -7 0.47987 1.04571   1
   9  -4   7 1.56627 3.91630   1
  -9   4   7 3.21009 3.86379   1
  -9   4   8 14.0047 2.26664   2
   5  -9  -8 15.0975 1.53466   1
  -5   9  -8 16.1726 2.54162   3
  -9   4   8 15.0612 1.98520   3
  -4  -5   8 16.5000 1.52053   3
   5  -9  -8 10.1033 3.05277   3
  -4  -5  -8 12.9697 3.66931   4
  -5   9   8 15.3950 3.62152   4
  -5   9  -8 10.4304 1.86369   4
  -9   4   8 12.7678 3.52217   4
   9  -4   8 18.6546 5.69871   1
  -9   4   8 10.4961 4.45085   1
  -4  -5   8 12.1087 3.71024   1
   9  -4  -8 18.0975 3.72695   1
   4   5   8 9.39657 3.36332   2
  -4  -5   8 13.0605 3.20063   2
   5  -9  -9 18.3684 3.57449   3
  -9   4   9 22.4453 2.50924   2
  -9   4   9 25.7714 4.16927   4
  -5   9  -9 17.2076 2.17731   4
   9  -4   9 31.9701 6.34870   1
  -9   4   9 21.8006 5.51637   1
   9  -4  -9 24.2930 4.13772   1
   4   5   9 20.2328 3.85741   2
  -4  -5   9 25.6905 3.87657   2
  -9   4  10 18.3802 5.43273   1
   9  -4  10 23.9304 5.98532   1
   9  -4 -10 13.7681 3.60914   1
   4   5  10 11.8165 3.44975   2
   5   4   0 0.26797 1.21925   2
  -5  -4   0 1.40975 1.45789   2
  -4   9   0 1.21843 1.15404   4
  -5  -4   0 1.50939 1.65854   1
   4  -9   0-0.34985 1.55817   3
   9  -5   0 6.57851 2.01547   2
   5   4   0 0.32693 1.42411   1
   9  -5   0-1.65886 2.17856   1
  -4   9   1 61.3022 4.70958   3
   4  -9  -1 56.7666 4.61050   3
   4  -9   1 60.1261 4.86572   3
  -5  -4   1 53.1864 4.46527   1
   9  -5  -1 57.5022 4.01093   2
  -5  -4  -1 56.5159 4.27478   2
  -5  -4   1 66.1757 4.45157   2
   5   4  -1 50.6543 4.46759   1
   5   4   1 55.2335 4.36241   1
   9  -5  -1 49.0711 5.44197   1
  -5  -4  -1 49.3836 4.09439   1
  -4   9   1 58.0396 4.32098   4
  -4   9  -1 51.9633 3.59080   4
  -9   5   1 63.5110 6.41737   1
   5   4  -2 215.440 10.5279   1
   5   4   2 202.422 9.24172   1
  -4   9  -2 215.804 10.3076   3
   4  -9   2 206.713 10.1020   3
   4  -9  -2 220.227 7.88554   2
   9  -5  -2 238.397 8.57668   2
  -5  -4  -2 215.775 9.83709   2
  -5  -4  -2 224.872 9.47262   1
   9  -5  -2 229.005 11.7248   1
  -5  -4   2 217.671 10.3771   1
  -4   9  -2 205.136 8.11262   4
  -4   9   2 233.048 10.1895   4
   9  -5   3 13.7533 3.82860   1
   4  -9  -3 14.6769 2.41945   1
  -5  -4  -3 16.3180 2.38023   1
  -9   5   3 18.0889 3.99192   1
  -4   9  -3 12.9430 1.50037   4
   5   4   3 13.4158 2.69465   2
  -5  -4   3 15.2090 3.01410   1
  -4   9   3 19.4233 2.99680   4
  -5  -4  -3 13.4854 2.89830   2
  -4   9  -3 18.1227 3.04622   3
   4  -9   3 17.3310 2.94778   3
   4  -9  -3 18.0754 2.87998   3
   9  -5  -3 16.9361 1.74966   2
   4  -9  -3 18.3614 1.59916   2
   5   4   3 11.4170 1.94221   1
   9  -5  -3 9.92185 2.77653   1
   9  -5  -4 0.83051 2.14713   1
  -5  -4  -4 1.59402 1.34732   1
   4  -9  -4 1.82304 1.46636   1
   9  -5   4 0.64956 2.55922   1
  -9   5   4 1.89712 2.81634   1
   5   4   4 2.38318 2.15085   2
   9  -5  -4 1.16759 1.00004   2
  -5  -4   4 0.29172 1.53269   2
  -5  -4   4 2.10695 2.24803   1
  -4   9   4-0.78360 2.09019   4
  -4   9  -4 1.68325 0.77231   4
  -4   9  -4 0.66286 1.59946   3
  -9   5   4-0.91762 1.86275   3
   4  -9  -4 1.74799 1.92078   3
   5   4   4 1.33085 1.21070   1
   4  -9  -4 0.69495 0.83025   2
   5   4  -4 2.12090 2.00867   1
  -9   5   5 61.7741 6.75173   1
  -4   9  -5 55.9728 2.23112   4
  -4   9   5 60.2706 5.44726   4
   4  -9  -5 57.5926 3.50307   1
  -5  -4   5 54.1849 3.13377   4
  -9   5   5 57.5525 4.83404   4
  -4   9  -5 63.0985 4.80064   3
   4  -9  -5 53.9623 4.70667   3
  -9   5   5 57.0817 4.23796   3
  -5  -4   5 61.1299 4.68807   2
   5   4   5 59.4574 5.60067   2
   9  -5   5 76.0934 7.57251   1
  -5  -4   5 60.6030 5.66884   1
   9  -5  -5 60.1806 5.25646   1
   5   4   5 62.2011 3.31412   1
   9  -5   6 80.1784 8.00816   1
  -5  -4   6 74.0723 3.89840   4
  -5  -4  -6 79.3754 6.07693   4
  -4   9   6 84.2348 6.61736   4
  -4   9  -6 68.5433 2.62705   4
  -9   5   6 81.1491 5.87913   4
  -4   9  -6 78.3468 5.06589   3
   4  -9  -6 83.9437 5.88606   3
  -9   5   6 84.7115 4.82375   3
  -5  -4   6 74.9955 5.41416   2
   5   4   6 77.6567 6.59730   2
   9  -5  -6 77.3697 5.83897   1
   4  -9  -6 76.9816 3.42220   1
  -9   5   6 90.2370 8.18887   1
  -4   9  -7 0.90020 0.68297   4
  -4   9  -7 2.49344 1.80853   3
  -5  -4   7 2.64043 1.26114   3
  -9   5   7 0.79013 1.55661   3
   4  -9  -7 0.35730 2.20094   3
  -5  -4   7 1.38596 1.43008   4
  -9   5   7 0.38263 2.51251   4
  -5  -4  -7-0.86788 2.84938   4
   9  -5  -7 2.60450 2.15779   1
  -5  -4   7 3.04576 3.01837   1
   4  -9  -7 0.54115 0.51701   1
  -9   5   7-1.93313 3.33161   1
   9  -5   7 0.75241 3.49349   1
  -5  -4   7 1.32232 2.39765   2
   5   4   7 1.02179 2.68377   2
  -9   5   8 8.18585 1.94343   3
  -5  -4   8 7.08019 1.00085   3
   4  -9  -8 11.8334 2.98579   3
  -5  -4   8 12.2760 2.90987   2
   5   4   8 13.3220 3.87115   2
  -5  -4   8 8.51712 3.77047   1
   9  -5  -8 5.90414 2.64052   1
  -9   5   8 6.86298 2.73735   4
  -5  -4   8 8.14254 1.97733   4
  -5  -4  -8 8.81119 3.47830   4
  -9   5   8 10.4085 4.40281   1
   9  -5   8 2.34469 3.98073   1
  -9   5   9 22.8329 4.27573   4
   4  -9  -9 29.3595 4.06460   3
   4  -9   9 27.3501 4.93553   1
  -5  -4   9 23.0255 4.85985   1
   9  -5  -9 23.8033 3.89020   1
  -5  -4   9 31.7812 4.01480   2
   5   4   9 32.5378 4.97523   2
  -9   5   9 33.1591 6.11299   1
   9  -5   9 30.3109 6.41493   1
  -5  -4  10 18.4434 3.61524   2
   5   4  10 15.3383 4.07487   2
   9  -5 -10 17.7578 3.82457   1
   4  -9 -10 15.6484 3.33740   3
   9  -5  10 11.8922 5.47457   1
  -9   5  10 11.5233 4.88248   1
  -9   5 -10 11.4100 3.58365   4
  -9   5  11 0.61918 4.45363   1
  -3   9   0 38.0533 3.23587   4
  -6  -3   0 51.6572 4.38271   1
   6   3   0 48.6033 3.91706   2
  -6  -3   0 48.4605 4.06536   2
   3  -9   0 42.9886 4.04022   3
   9  -6   0 47.8792 5.49356   1
   6   3   0 47.2642 4.39395   1
   6   3   1 336.472 13.7285   1
   6   3  -1 368.975 14.5445   1
   3  -9  -1 325.846 13.4988   3
   3  -9   1 342.724 13.7093   3
   3  -9  -1 352.105 11.8297   2
   6   3  -1 347.800 12.9412   2
   6   3   1 322.366 13.1842   2
  -6  -3  -1 334.570 13.3728   2
   9  -6  -1 329.266 12.4899   2
  -6  -3   1 320.142 13.7216   1
  -6  -3  -1 353.592 13.7173   1
  -3   9   1 338.938 12.8676   4
  -3   9  -1 330.311 11.5737   4
   9  -6   1 341.046 16.2021   1
   9  -6  -1 353.127 15.7961   1
  -3   9  -2 770.887 23.2088   4
  -3   9   2 798.767 26.2551   4
  -6  -3  -2 776.632 26.4828   2
  -6  -3  -2 843.613 26.4090   1
   6   3  -2 745.758 27.1301   1
   3  -9   2 781.540 26.3944   3
   3  -9  -2 831.501 23.9428   2
   9  -6  -2 825.821 24.2808   2
  -9   6   2 852.906 31.0102   1
   6   3   2 775.991 26.0789   1
  -6  -3   2 817.454 27.2630   1
   9  -6  -2 807.364 28.6724   1
   3  -9  -3 212.380 9.47993   4
   3  -9  -3 192.334 9.55993   3
   3  -9   3 183.150 9.31295   3
  -9   6   3 212.732 9.93781   3
  -6  -3   3 196.892 10.3382   1
   6   3   3 203.384 9.17072   1
   9  -6  -3 216.870 7.40984   2
  -6  -3   3 225.000 9.46902   2
   3  -9  -3 206.292 7.52148   2
   6   3   3 209.164 10.4416   2
   9  -6   3 201.579 12.0944   1
  -9   6   3 202.224 12.5653   1
   9  -6  -3 206.491 10.7795   1
  -6  -3  -3 205.478 9.24514   1
  -3   9   3 190.065 9.72606   4
  -3   9   4 50.3477 4.86208   4
   9  -6  -4 52.0585 4.92637   1
  -6  -3  -4 56.9890 4.01567   1
   3  -9  -4 50.2377 3.43792   1
  -9   6   4 49.5143 6.25806   1
   9  -6   4 56.4212 6.28724   1
   3  -9  -4 49.2128 4.46487   4
   3  -9  -4 52.8788 4.56332   3
  -9   6   4 53.5732 4.29443   3
   3  -9   4 49.6434 4.37198   3
   9  -6  -4 56.2821 2.66335   2
  -6  -3   4 49.2839 4.14876   2
   3  -9  -4 46.9486 3.01261   2
   6   3   4 54.0234 5.50544   2
   6   3   4 51.7892 3.85919   1
  -6  -3   4 55.0551 5.22340   1
   6   3  -4 54.2690 5.27246   1
   3  -9  -5 146.522 8.41448   4
  -9   6   5 160.307 8.41930   4
   3  -9  -5 158.219 8.37184   3
  -9   6   5 153.961 7.53850   3
  -9   6   5 159.156 10.9492   1
   9  -6   5 171.514 11.1520   1
  -6  -3   5 153.511 7.77643   2
   6   3   5 157.682 9.96904   2
  -3   9   5 139.142 8.64493   4
   3  -9  -5 156.736 5.99094   1
   6   3  -5 154.308 9.20881   1
   9  -6  -5 146.347 8.50878   1
   6   3   5 159.042 7.00200   1
  -9   6   6 437.915 14.9799   3
   3  -9  -6 410.639 16.1520   3
   6   3   6 435.875 13.8376   1
   9  -6  -6 420.024 16.4565   1
  -9   6   6 450.596 20.0801   1
  -6  -3   6 413.836 15.7313   2
   6   3   6 385.808 18.4822   2
   3  -9  -6 425.851 17.0963   4
  -3   9   6 426.216 17.7768   4
  -6  -3   6 422.613 14.1943   4
  -9   6   6 432.881 16.7294   4
   9  -6   6 420.659 20.1545   1
   6   3  -6 421.496 17.6828   1
  -6  -3  -7 84.5363 6.46461   4
  -9   6   7 62.5011 5.57898   4
  -6  -3   7 75.7819 4.32467   4
   3  -9  -7 60.3459 5.74427   4
   3  -9  -7 65.0748 5.26445   3
  -6  -3   7 64.1798 3.35237   3
  -9   6   7 70.5720 4.32860   3
  -6  -3   7 65.6204 6.54959   1
   9  -6  -7 64.3812 5.21825   1
  -6  -3   7 61.7196 5.00661   2
   6   3   7 61.6188 6.93318   2
  -9   6   7 68.2275 7.38895   1
   6   3   7 74.6328 3.12506   1
  -6  -3   8 35.0282 3.26270   4
   6   3   8 31.7121 5.37612   2
  -6  -3   8 34.9042 5.27332   1
   9  -6  -8 31.0332 3.96202   1
  -6  -3   8 39.7934 4.19493   2
   3  -9  -8 31.9680 4.05307   3
  -9   6   8 32.5803 4.61201   4
   3  -9   8 33.0005 5.09630   1
  -9   6   8 37.1993 6.06640   1
   3  -9  -8 31.2246 4.56612   4
  -9   6   8 32.5904 2.88641   3
   9  -6  -9 17.8926 3.48056   1
   3  -9  -9 16.5474 3.23586   3
  -6  -3   9 17.5598 4.51885   1
  -9   6   9 26.9767 5.48677   1
   6   3   9 17.4368 4.60396   2
  -6  -3   9 15.4586 3.18683   2
   6   3  10 112.794 9.03493   2
  -9   6  10 135.189 10.3618   1
   3  -9 -10 121.966 7.44130   3
  -9   6 -10 140.620 9.20775   3
  -6  -3  10 128.326 7.51660   2
  -9   6 -10 111.966 7.44512   4
   9  -6  11 11.2861 5.23714   1
   2  -9   0 475.588 17.6178   3
  -9   7   0 466.664 18.8965   3
   2  -9   0 500.571 16.4656   2
   7   2   0 498.302 17.2894   2
  -7  -2   0 492.668 18.5085   1
   7   2   0 471.999 18.6806   1
   9  -7   0 455.205 19.8693   1
   9  -7   1 305.037 15.0578   1
  -7  -2  -1 306.740 12.7875   2
  -7  -2   1 296.120 13.2916   1
  -9   7   1 300.090 13.4697   3
   2  -9  -1 308.910 11.0031   2
   7   2  -1 314.435 12.0285   2
   7   2   1 308.889 12.6945   2
   2  -9   1 294.299 12.4208   3
   2  -9  -1 276.451 12.2778   3
   2  -9  -1 319.061 11.3663   4
  -7  -2  -1 299.914 13.0149   1
   9  -7  -1 294.884 14.3175   1
   7   2  -1 300.634 13.5834   1
   7   2   1 296.440 13.3050   1
  -7  -2   2 55.6193 5.14726   1
   2  -9   2 49.9895 4.31653   3
  -9   7   2 58.5056 4.99187   3
   7   2  -2 58.4809 4.29477   2
   7   2   2 51.6253 4.83288   1
   9  -7  -2 67.0967 3.72297   2
   2  -9  -2 60.8044 3.59124   2
  -7  -2   2 64.5006 4.69258   2
   7   2   2 57.6564 4.96421   2
  -7  -2  -2 57.8243 4.85870   1
   9  -7  -2 54.1910 5.45615   1
   2  -9  -2 65.4408 4.51103   4
   2  -9  -3 311.402 13.2526   3
   2  -9   3 305.661 12.8923   3
  -9   7   3 337.704 13.6437   3
   7   2   3 318.395 13.5439   1
   9  -7  -3 323.442 10.4410   2
  -7  -2   3 340.644 12.9261   2
   2  -9  -3 330.100 11.3172   2
  -7  -2   3 335.097 14.6350   1
   9  -7  -3 312.939 14.3551   1
  -7  -2  -3 328.877 13.2285   1
   2  -9  -3 354.374 13.2904   4
   2  -9  -4 307.374 10.6874   1
  -9   7   4 334.792 16.8090   1
  -9   7   4 314.923 12.9135   4
   2  -9  -4 298.321 12.8284   3
   2  -9   4 297.239 12.4507   3
  -9   7   4 304.288 12.5035   3
   9  -7  -4 316.446 9.29231   2
   7   2   4 278.430 12.4318   1
   7   2   4 295.599 14.8292   2
  -7  -2   4 326.894 12.4296   2
   2  -9  -4 306.668 10.8239   2
  -7  -2   4 318.851 14.3994   1
   9  -7  -4 303.422 13.5499   1
   2  -9  -4 312.973 13.0099   4
   7   2  -4 299.173 13.9688   1
   2  -9  -5 78.9415 5.99575   4
   9  -7  -5 78.2091 5.80072   1
   2  -9  -5 78.8073 3.19136   1
   2  -9  -5 85.8123 5.86990   3
  -9   7   5 79.8536 5.16811   3
   2  -9   5 76.0223 5.14184   3
   7   2   5 74.4081 5.12971   1
  -7  -2   5 75.5107 5.15777   2
   7   2   5 79.3032 7.41535   2
   2  -9  -5 78.6692 3.07413   1
   7   2  -5 72.9266 6.25026   1
  -9   7   5 66.2009 5.43077   4
  -9   7   5 86.4902 8.11999   1
  -9   7   6 11.2569 2.94419   4
   2  -9  -6 14.9216 3.43457   4
  -7  -2   6 13.4819 2.21247   4
   2  -9  -6 10.0240 2.75933   3
  -9   7   6 6.72183 1.99867   3
   7   2  -6 14.7474 3.54716   1
   7   2   6 10.4640 2.26898   1
   9  -7  -6 13.3808 2.90392   1
   7   2   6 13.3321 4.07053   2
  -7  -2   6 11.4913 2.58478   2
  -9   7   6 15.2944 4.33319   1
  -9   7   7 104.512 8.83620   1
   7   2   7 96.1855 5.10831   1
   9  -7  -7 101.373 6.46348   1
   7   2   7 90.9120 8.67909   2
  -7  -2   7 103.121 6.20143   2
   7   2  -7 102.364 7.84344   1
  -7  -2   7 93.6789 7.79776   1
   2  -9  -7 103.802 7.48110   4
  -9   7   7 109.404 7.30554   4
  -7  -2   7 86.6506 5.24424   4
  -9   7   7 100.918 5.46721   3
   2  -9  -7 105.392 6.67070   3
  -7  -2   8 96.9248 5.66559   4
  -9   7   8 114.041 7.74725   4
   2  -9  -8 97.3408 7.55428   4
   2  -9  -8 100.557 6.69045   3
  -9   7   8 108.587 5.51596   3
  -9   7  -8 126.943 9.42550   3
  -9   7   8 124.011 9.69945   1
   7   2   8 95.8744 9.04225   2
  -7  -2   8 106.662 6.56293   2
  -7  -2   8 114.961 8.78119   1
   2  -9   8 104.794 8.31722   1
   9  -7  -8 114.836 6.75119   1
   7   2   8 105.168 4.73292   1
   9  -7  -9 3.45435 2.50912   1
  -9   7  -9-0.53863 3.70972   3
   2  -9  -9 3.77974 2.59278   3
   7   2   9 6.63583 4.04104   2
  -7  -2   9-0.25927 2.07183   4
  -7  -2   9 2.50611 2.56971   2
  -9   7   9 4.21838 3.91753   1
  -7  -2  10-0.62798 2.64046   2
  -9   7  10-2.86022 4.44441   1
  -9   7 -10-1.03996 2.65466   4
   2  -9 -10-1.67217 2.65358   3
  -9   7 -10-1.30928 3.21683   3
   1  -9   0 28.4366 2.44285   4
   1  -9   0 31.7791 3.47725   3
  -9   8   0 34.7628 4.29225   3
   1  -9   0 26.9171 2.80543   2
   8   1   0 28.5649 4.20369   1
  -8  -1   0 32.0904 4.15045   1
   9  -8   0 18.2194 3.97593   1
   8   1   0 25.6109 3.04967   2
   9  -8   1 68.1492 6.51916   1
   1  -9  -1 77.7190 4.57357   4
  -8  -1   1 64.3153 5.75341   1
   1  -9  -1 70.8224 4.72352   1
   1  -9  -1 65.9473 5.06686   3
   1  -9   1 73.3741 5.25293   3
  -9   8   1 69.1504 5.66521   3
  -9   8  -1 68.8492 6.06225   3
   1  -9   1 66.3200 4.70065   2
   8   1  -1 79.5882 5.03523   2
   8   1   1 75.2652 5.48824   2
   1  -9  -1 58.7023 4.02900   2
  -8  -1   1 67.8827 5.00591   2
   8   1   1 59.8040 5.93128   1
   8   1  -1 70.8782 6.20880   1
   9  -8  -1 63.8497 6.06330   1
  -8  -1  -1 67.5507 5.72451   1
   9  -8   2 78.8696 7.14481   1
   1  -9  -2 83.2083 5.26469   4
   9  -8  -2 84.8342 4.54940   2
   1  -9  -2 82.2209 4.86341   1
   1  -9   2 88.2300 5.83315   3
  -9   8   2 80.8511 6.01233   3
   8   1  -2 82.5511 5.08106   2
  -8  -1   2 85.6539 5.62773   2
   1  -9  -2 93.2413 4.83928   2
   8   1   2 82.7619 6.37321   2
  -8  -1   2 92.1736 6.93413   1
   8   1   2 70.8508 6.39906   1
  -8  -1  -2 81.5515 6.10799   1
   9  -8  -2 87.1644 6.77475   1
   1  -9  -3 34.7231 3.65597   4
   1  -9   3 34.0439 4.17081   1
   1  -9  -3 37.1610 2.93649   1
   1  -9   3 42.7814 3.91676   3
  -9   8   3 37.8087 3.98799   3
  -9   8  -3 39.0684 5.17257   3
   9  -8  -3 41.7539 2.34463   2
  -8  -1   3 39.2453 3.86435   2
   1  -9  -3 42.8710 3.33111   2
   8   1   3 31.9398 4.63128   1
  -8  -1  -3 31.6867 3.75860   1
   9  -8  -3 31.9392 4.30070   1
  -8  -1   3 41.0191 4.69251   1
  -8  -1   4 24.5954 4.17442   1
   9  -8  -4 13.5701 3.01894   1
  -8  -1   4 18.7029 2.87665   2
   8   1   4 25.0893 4.10331   1
  -9   8   4 15.7719 2.83865   4
   1  -9  -4 11.2410 2.73041   3
  -9   8  -4 18.7378 4.15109   3
  -9   8   4 15.0984 2.83728   3
   1  -9   4 19.5793 2.79439   3
   1  -9  -4 17.0876 2.23771   2
   1  -9   4 17.0666 3.39484   1
   1  -9  -4 18.7193 1.78555   1
   8   1  -4 18.8638 3.59565   1
   1  -9  -4 17.9152 2.97290   4
   1  -9   5 75.4014 5.08146   3
  -9   8  -5 79.6912 7.66799   3
  -9   8   5 70.4684 5.51985   4
   1  -9  -5 63.3768 5.52806   4
  -8  -1   5 76.8299 5.20303   2
   8   1   5 65.4663 7.31425   2
   8   1  -5 73.2926 6.36748   1
   1  -9   5 77.7166 6.50182   1
   8   1   5 72.7396 6.10826   1
   9  -8  -5 69.9497 5.54555   1
   1  -9  -5 66.9039 5.31590   3
  -9   8   5 78.5690 5.20007   3
   8   1   6 20.8189 3.39149   1
  -8  -1   6 20.4980 4.63101   1
  -8  -1   6 22.2922 3.01414   4
   1  -9  -6 20.0211 3.36616   3
   1  -9   6 41.2148 3.69185   3
  -9   8   6 29.1505 3.16024   3
  -9   8  -6 36.2744 5.55617   3
   9  -8  -6 23.7130 3.53513   1
   1  -9  -6 18.8425 3.73296   4
  -9   8   6 26.8512 3.74861   4
  -8  -1   6 29.1201 3.43706   2
   1  -9   6 27.8559 4.49057   1
   8   1  -6 29.0881 4.48756   1
   8   1   6 22.1647 5.31507   2
  -8  -1   7 1.78168 2.97067   1
   8   1   7 4.26232 2.19662   1
  -8  -1   7 1.84494 1.92841   4
   1  -9  -7 2.45366 2.23259   3
  -9   8   7 6.07102 2.11657   3
  -9   8  -7-1.25843 3.40765   3
   9  -8  -7 2.24365 2.20845   1
   1  -9  -7 2.24034 2.82282   4
  -9   8   7 2.13716 2.69290   4
  -8  -1   7 5.02699 2.31482   2
   8   1  -7 1.47551 2.81627   1
   8   1   7-2.29729 3.55610   2
  -8  -1   8 22.7201 4.88871   1
  -8  -1   8 14.4174 2.88669   2
   1  -9  -8 13.2748 3.54525   4
   1  -9  -8 17.7906 3.37520   3
  -9   8  -8 15.4926 4.38019   3
   9  -8  -8 12.1401 2.97026   1
   8   1   8 12.3631 2.60526   1
   8   1  -8 17.9370 4.33453   1
   8   1   8 16.8434 5.04342   2
  -8  -1   8 19.6793 3.03038   4
  -9   8   8 12.2849 3.87054   4
   1  -9   8 13.6342 4.07166   1
   8   1   9 33.6707 3.15182   1
  -8  -1   9 38.9026 4.11537   2
  -9   8  -9 40.4997 5.52997   3
  -8  -1   9 38.7389 4.02637   4
   1  -9  -9 41.3647 4.52593   3
  -9   8 -10 4.64186 2.92419   3
   1  -9 -10 8.48223 3.09267   3
  -8  -1  10 3.29222 2.68675   2
  -9   8 -10 13.1638 3.08972   4
   0  -9   0 415.303 13.4837   4
   9  -9   0 395.098 17.6397   1
   0  -9   0 393.551 14.9513   1
   0  -9   0 378.153 15.1942   3
  -9   9   0 365.879 16.3888   3
   0  -9   0 383.252 14.2607   2
   9   0   0 376.517 15.0010   2
   9   0   0 415.913 18.4776   1
  -9   0   0 407.449 17.1198   1
   9  -9  -1 99.6727 7.64600   1
  -9   0   1 90.6774 7.25587   1
  -9   0  -1 97.0173 7.21096   1
   9  -9   1 90.2761 7.80858   1
   0  -9  -1 90.2786 5.26421   4
  -9   0   1 95.0350 6.38387   2
   0  -9   1 89.1609 4.11660   4
   0  -9   1 91.3229 6.05982   3
   0  -9  -1 83.3180 5.91813   3
  -9   9   1 100.186 6.99627   3
  -9   9  -1 93.7629 7.36058   3
   0  -9   1 88.2168 5.50602   2
   9   0  -1 101.958 5.89518   2
   9   0   1 97.9522 6.50617   2
   0  -9  -1 84.6891 5.04458   2
   9   0  -1 102.371 7.96816   1
   9   0   1 93.0705 8.06408   1
   0  -9   1 92.8671 6.18554   1
   0  -9  -1 85.9131 5.39713   1
   0  -9   2 149.013 8.28093   1
   0  -9  -2 140.345 6.68514   1
   0  -9   2 144.617 7.68347   3
   0  -9  -2 134.041 7.72194   3
  -9   9   2 141.758 8.27337   3
   0  -9   2 136.590 7.35594   2
   9   0  -2 151.320 7.17735   2
  -9   0   2 126.066 7.37082   2
   0  -9  -2 125.538 6.43518   2
   9   0   2 152.815 8.95857   2
  -9   0  -2 126.767 8.27873   1
   9   0   2 140.084 10.0790   1
   9  -9  -2 134.511 8.72511   1
  -9   0   2 158.651 9.71905   1
   0  -9  -2 143.670 7.30454   4
   9  -9  -3 86.1137 6.62981   1
   0  -9  -3 84.0685 5.71906   4
  -9   0   3 94.8849 7.42070   1
   9   0   3 86.9241 7.82914   1
  -9   0  -3 89.7390 6.34502   1
  -9   9   3 93.1620 5.97808   4
  -9   9   3 86.6352 5.97899   3
   0  -9   3 84.4858 5.58595   3
  -9   9  -3 79.0913 7.15881   3
   9   0  -3 86.8498 5.14606   2
  -9   0   3 74.5477 5.41472   2
   0  -9  -3 89.2067 5.17992   2
   9  -9  -3 86.2327 3.60592   2
   9   0   3 94.5694 7.50885   2
   9   0  -3 102.769 7.55926   1
   0  -9   3 96.1620 6.66787   1
  -9   9  -4 261.960 13.9998   3
   0  -9  -4 262.440 8.64344   1
   0  -9  -4 246.445 10.0757   2
  -9   0   4 252.894 10.9630   2
   0  -9  -4 256.144 11.5490   4
   9   0   4 240.251 13.9305   1
   9  -9  -4 244.788 11.8542   1
  -9   0   4 243.689 13.1320   1
   0  -9   4 257.781 12.4695   1
   9   0  -4 263.270 13.2037   1
   0  -9   4 247.719 10.8266   3
  -9   9   4 246.620 11.1120   3
   0  -9  -4 245.252 11.3554   3
   0  -9   5 54.5990 5.55104   1
  -9   9   5 56.7476 4.57651   3
   0  -9  -5 50.1725 4.69083   3
   0  -9   5 39.5369 3.83298   3
  -9   9  -5 56.0635 6.51402   3
  -9   0   5 46.9261 4.21053   2
   0  -9  -5 46.1726 4.81294   4
   9  -9  -5 61.9262 5.07107   1
   9   0  -5 48.7120 5.46912   1
   9   0   5 37.5468 5.34749   1
   0  -9   6 110.620 8.26529   1
   9   0  -6 118.284 8.24992   1
   9   0   6 99.3008 9.57356   2
  -9   0   6 116.880 6.60614   2
   0  -9  -6 111.434 7.52557   4
  -9   9   6 98.3875 7.15342   4
  -9   0   6 125.540 9.32809   1
   9   0   6 106.308 8.25888   1
   9  -9  -6 101.475 6.57016   1
   0  -9  -6 111.568 7.01849   3
  -9   9   6 108.269 6.25451   3
   0  -9   6 110.573 6.18780   3
  -9   9  -6 112.822 9.04503   3
   9   0   7 30.2036 4.56684   1
  -9   0   7 35.7816 5.83933   1
  -9   0   7 35.9501 3.90518   4
  -9   9   7 34.2378 3.46822   3
   0  -9  -7 38.6043 4.48189   3
   0  -9   7 36.6205 3.52963   3
  -9   9  -7 42.1620 5.89558   3
  -9   0   7 40.4864 4.00756   2
   9   0   7 32.2021 6.26245   2
   9  -9  -7 37.6560 4.00481   1
   9   0  -7 34.7577 4.74114   1
  -9   9   7 44.3390 5.12490   4
   0  -9  -7 49.4713 5.30874   4
   0  -9  -8 85.3727 6.27358   3
  -9   9  -8 93.0010 7.60371   3
   9  -9  -8 83.3526 5.68177   1
  -9   0   8 92.9395 5.88795   2
   9   0   8 71.1179 9.08130   2
   9   0  -8 81.7832 7.05748   1
  -9   0   8 90.6199 8.44930   1
   9   0   8 75.2671 6.35705   1
  -9   0   8 87.8249 5.78897   4
   0  -9  -9 19.3912 3.84688   3
  -9   9  -9 24.2336 4.19894   3
  -9   0   9 15.4388 3.24626   2
  -9   0   9 14.9965 3.15990   4
   9   0   9 17.1529 3.20105   1
  -9   9 -10 46.5547 4.65105   4
   0  -9 -10 66.9623 5.67082   3
  -9   0  10 67.5409 5.31465   2
  -1  -9   0 229.958 10.3912   1
  -1  -9   0 217.882 10.5289   3
  -9  10   0 213.727 11.5926   3
  10  -1   0 210.592 13.2177   1
 -10   1   0 251.966 12.8260   1
  -1  -9   0 226.467 9.84673   2
  10  -1   0 246.238 10.7842   2
  -1  -9   0 229.467 8.98983   4
   9 -10   0 221.733 12.4681   1
  -1  -9  -1 257.885 10.3477   4
  -1  -9   1 256.841 8.93181   4
  -1  -9  -1 262.561 10.6887   1
  -1  -9   1 245.657 11.4006   1
  -9  10   1 250.260 12.2764   3
  -1  -9  -1 240.393 11.3163   3
  -1  -9   1 228.360 10.9299   3
  10  -1  -1 248.380 13.9370   1
  -1  -9   1 250.908 10.7990   2
  -1  -9  -1 245.630 10.3541   2
  10  -1  -1 262.711 10.8225   2
  10  -1   1 227.864 11.4663   2
  10  -1   1 260.609 14.9435   1
   9 -10  -1 271.544 13.4698   1
 -10   1   1 245.038 13.1608   1
 -10   1  -1 242.236 12.7757   1
  10  -1   2 10.0111 3.86023   1
 -10   1  -2 12.0111 3.28936   1
 -10   1   2 6.84617 3.00883   1
   9 -10  -2 9.47133 3.34873   1
  -1  -9  -2 10.8508 2.24152   2
  -1  -9   2 10.0086 2.45034   2
  10  -1  -2 10.7050 2.45946   2
  10  -1   2 14.1436 3.27679   2
  -1  -9  -2 9.93700 2.54623   4
  -9  10   2 9.35160 2.59012   4
  -1  -9   2 7.07208 2.20541   3
  -1  -9  -2 13.3994 2.79940   3
  -9  10   2 7.19141 2.52952   3
  -9  10  -2 9.54108 3.30701   3
  -1  -9  -2 9.61215 2.08668   1
  -1  -9   2 10.1166 2.74875   1
 -10   1   2 13.5101 2.94859   2
 -10   1   3 285.317 14.9695   1
   9 -10  -3 287.945 13.3465   1
  -9  10   3 280.377 12.3405   4
  -9  10   3 300.198 12.8002   3
  -1  -9   3 286.434 11.9469   3
  -9  10  -3 297.831 14.8554   3
  10  -1  -3 293.612 11.2969   2
  -1  -9   3 284.974 12.2790   2
 -10   1   3 268.013 12.0577   2
  10  -1   3 285.582 14.5228   2
  -1  -9  -3 278.159 11.2609   2
  -1  -9   3 258.624 12.8138   1
  10  -1   3 252.684 15.6677   1
  10  -1  -3 283.728 14.4084   1
  -1  -9  -3 288.588 10.4188   1
  -1  -9  -3 290.355 12.2708   4
  -1  -9  -4 157.064 8.55856   4
  -9  10   4 148.529 8.48966   4
  10  -1   4 147.028 11.4660   1
  -1  -9   4 145.250 7.72676   3
  -1  -9  -4 164.849 8.77354   3
  -9  10   4 148.829 8.22015   3
  -9  10  -4 148.487 10.2736   3
  -1  -9   4 142.337 8.27735   2
  -1  -9  -4 155.073 6.00766   1
  10  -1  -4 166.166 10.1759   1
  -1  -9   4 182.581 9.99498   1
  10  -1   4 142.421 10.5396   2
  -1  -9  -4 171.679 8.03021   2
 -10   1   4 155.691 8.21317   2
   9 -10  -4 151.219 8.76376   1
  -9  10   5 86.2370 5.94076   3
  -1  -9   5 74.5891 5.21622   3
  -1  -9  -5 86.6943 6.26062   3
  -9  10  -5 90.1742 8.09879   3
  -1  -9  -5 88.3809 6.52877   4
 -10   1   5 84.5091 5.72227   2
  10  -1  -5 91.7771 7.50850   1
  -1  -9   5 88.4601 7.21747   1
  10  -1   5 61.6786 7.64018   1
   9 -10  -5 90.8030 6.24666   1
 -10   1   6-0.31103 2.08314   2
  -1  -9  -6 1.73357 2.41503   4
  10  -1   6 4.90422 4.15742   2
  -1  -9  -6 1.12204 2.35591   3
  -9  10   6 2.41090 2.34171   3
  -1  -9   6 2.63781 2.02031   3
  -9  10  -6-1.20052 3.61257   3
  -1  -9   6 3.76351 3.03711   1
  10  -1  -6 1.55526 3.08275   1
 -10   1   6 1.32699 3.43063   1
   9 -10  -6 2.64114 2.27396   1
  10  -1   6 1.44768 3.29311   1
 -10   1   7 122.343 7.19903   4
  -9  10   7 116.021 6.56890   3
  -1  -9  -7 122.642 7.48928   3
  -9  10  -7 126.862 9.16271   3
  -1  -9   7 108.847 6.03919   3
   1   9   7 124.334 6.52217   2
  10  -1   7 93.3000 10.0229   2
 -10   1   7 122.844 6.89175   2
  -9  10   7 90.1726 7.47681   4
  -1  -9  -7 109.029 7.90153   4
 -10   1   7 122.027 9.84190   1
  10  -1   7 100.524 8.84257   1
   9 -10  -7 111.810 6.60734   1
  10  -1  -7 115.034 8.42546   1
   1   9   8 52.6748 4.31081   2
  -9  10  -8 41.6936 5.30666   3
 -10   1   8 49.7553 4.51622   2
  10  -1   8 48.4524 6.20623   1
 -10   1   8 50.6476 4.89199   4
  -1  -9  -8 56.3899 5.28603   3
  -1  -9  -9 5.40588 3.10980   3
  -9  10  -9 6.49321 3.04469   3
 -10   1   9 9.54920 3.04404   4
 -10   1   9 7.62292 2.97654   2
   1   9   9 7.71967 2.48768   2
  -2  -8   0 313.055 11.4841   4
  -2  -8   0 297.412 12.5050   1
  -2  -8   0 303.791 12.2036   2
  10  -2   0 324.045 12.9999   2
 -10   2   0 305.775 15.0134   1
  10  -2   0 310.827 16.2633   1
  -8  10   0 323.961 14.5922   3
   8 -10  -1 0.49642 2.35071   1
 -10   2   1 0.56408 2.72192   1
 -10   2  -1 4.15307 2.68420   1
  10  -2   1 1.21438 2.05907   2
  10  -2  -1 5.09446 1.96699   2
  -2  -8  -1 1.08137 1.73955   2
  -2  -8   1 1.47086 1.72795   2
  -2  -8  -1 1.09392 1.66559   1
  -2  -8  -1 0.51833 1.68492   4
  -2  -8   1 1.01045 1.09518   4
  -8  10   1 0.91485 1.79125   4
  -2  -8   1 1.31988 1.93816   3
  -8  10   1-0.44250 2.01325   3
  -2  -8   1 0.71261 2.03982   1
  10  -2   1 1.48157 2.66437   1
   8 -10  -2 166.620 9.60537   1
 -10   2   2 168.602 10.5465   1
 -10   2  -2 163.435 9.69104   1
  -2  -8   2 160.628 5.89869   4
  -2  -8  -2 169.042 8.14659   4
  10  -2   2 168.885 12.0558   1
  -8  10   2 150.106 8.17511   4
  -8  10   2 172.920 9.24775   3
  -2  -8   2 162.939 8.18204   3
  -8  10  -2 166.611 10.1801   3
  -2  -8   2 162.415 8.25571   2
  -2  -8  -2 155.733 7.73462   2
  10  -2  -2 142.738 7.32574   2
  10  -2   2 161.532 9.68668   2
  10  -2  -2 168.372 10.5757   1
  -2  -8  -2 164.185 7.34490   1
  -2  -8   2 158.170 8.81540   1
  10  -2   3 1.64047 3.40637   1
   8 -10  -3 0.41520 2.18117   1
 -10   2   3 1.19201 2.82215   1
  10  -2  -3 3.44864 1.70818   2
  -2  -8   3 2.33930 1.75568   2
  10  -2  -3 0.54495 2.31912   1
  -2  -8  -3 1.10584 1.25800   1
  -2  -8  -3-1.00751 1.81864   4
  -8  10   3 2.51311 2.18630   4
  -8  10   3 1.11652 1.98552   3
  -2  -8   3 2.39670 1.88703   3
  -8  10  -3 1.67910 2.75030   3
  -2  -8   3-0.85628 2.14115   1
  -2  -8  -3 0.28125 1.65202   2
  10  -2   3 5.11087 2.93614   2
 -10   2   3-1.03126 2.16514   2
  -8  10   4 248.249 11.5520   4
  -2  -8  -4 248.830 11.4564   4
  -2  -8  -4 238.270 10.6121   2
  -2  -8  -4 246.838 8.59876   1
  10  -2   4 259.800 15.6489   1
  -2  -8   4 257.200 12.4203   1
  -8  10   4 256.536 11.2065   3
  -2  -8   4 234.814 10.4008   3
  -8  10  -4 256.792 13.4375   3
   2   8   4 244.687 10.4946   2
  -2  -8   4 236.485 11.1283   2
 -10   2   4 253.235 10.9415   2
  10  -2   4 251.040 14.1789   2
  10  -2  -4 249.641 12.8596   1
   8 -10  -4 240.528 11.3258   1
 -10   2   5 0.64495 3.33454   1
   2   8   5 1.47032 2.11527   2
  -8  10   5-0.41245 2.42240   4
  -2  -8  -5 1.20731 2.50694   4
  10  -2   5 0.84886 3.52517   1
   8 -10  -5-0.33726 2.19232   1
  -8  10   5 0.31606 1.94693   3
  -2  -8   5 1.29724 1.68659   3
  -8  10  -5 5.54015 3.08678   3
  10  -2  -5 2.00588 2.75496   1
 -10   2   5 2.08921 1.95984   2
  10  -2   5 1.52407 3.60820   2
  -2  -8   5-1.98264 2.83734   1
  -8  10   6 83.1320 5.42163   3
  -8  10  -6 85.8214 7.25229   3
  -2  -8  -6 67.6240 5.42125   3
  -2  -8   6 66.1620 4.50631   3
 -10   2   6 72.0097 7.65886   1
  10  -2   6 68.1172 8.27527   1
  -2  -8   6 70.6236 5.75855   2
   2   8   6 76.5136 5.21076   2
 -10   2   6 75.4452 5.23442   2
  -2  -8  -6 68.8010 6.09099   4
   8 -10  -6 71.0540 5.11305   1
  -2  -8   6 85.2710 7.10119   1
  10  -2  -6 68.7025 6.42937   1
  10  -2   7 5.66997 3.76116   1
 -10   2   7 2.06624 3.56135   1
   2   8   7 3.35963 2.19753   2
  -2  -8  -7-0.45680 2.78208   4
 -10   2   7 2.88417 2.67878   4
  -2  -8  -7 1.41332 2.34374   3
  -8  10  -7 1.40635 2.82164   3
 -10   2   7 0.67372 1.83074   3
  -2  -8   7 2.74968 1.91517   3
   8 -10  -7 2.78796 2.14487   1
  10  -2  -7 4.84505 3.18179   1
  10  -2   7 1.84427 4.61156   2
 -10   2   7 1.12053 2.04899   2
  10  -2   8 149.679 11.7564   1
 -10   2   8 166.971 11.8378   1
   2   8   8 149.489 7.79200   2
 -10   2   8 143.107 7.29220   2
  -8  10  -8 143.012 8.48850   3
  -2  -8  -8 139.016 7.91400   3
  10  -2  -8 124.310 8.80836   1
 -10   2   8 129.928 7.89798   4
  10  -2   9 0.66127 4.42797   1
 -10   2   9 1.31089 2.51830   2
   2   8   9 0.29496 2.24196   2
  -8  10  -9-0.23561 1.83047   4
 -10   2   9-1.82604 3.18128   4
  -8  10  -9 0.67267 2.51798   3
  -2  -8  -9 0.69031 2.75707   3
  -2  -8 -10 11.1749 3.26645   3
 -10   3   0 354.198 16.5194   1
  -3  -7   0 360.859 13.8589   1
  10  -3   0 352.577 14.0803   2
  -3  -7   0 350.627 13.4365   2
  -7  10   0 380.754 15.8393   3
  -3  -7   0 341.866 12.6851   4
  -7  10   0 345.021 13.3065   4
  -7  10   1 266.854 11.4932   4
  -7  10   1 282.955 12.9696   3
 -10   3  -1 292.492 14.0928   1
  -3  -7  -1 275.404 11.1551   1
  -3  -7   1 276.088 12.0435   1
  -3  -7  -1 276.470 11.3582   2
  10  -3   1 278.809 12.6090   2
  -3  -7   1 290.971 11.5632   2
  10  -3  -1 254.807 10.9827   2
  10  -3   1 281.092 15.5259   1
 -10   3   1 292.461 14.6877   1
  -3  -7   1 284.664 10.2163   4
  -3  -7  -1 285.812 11.1666   4
  10  -3  -2 21.4178 2.58701   2
  -3  -7  -2 19.6706 2.75274   2
   3   7   2 18.1356 2.83973   2
  -3  -7   2 15.6899 2.79251   2
  -3  -7  -2 15.3790 2.68863   4
  -7  10   2 18.1316 2.95764   4
  10  -3  -2 19.8313 3.93898   1
  10  -3   2 20.4388 4.94991   1
  -7  10   2 18.4039 3.19466   3
  -7  10  -2 33.9053 4.63554   3
  -3  -7   2 22.1592 3.33379   1
  -3  -7  -2 21.5870 2.61546   1
 -10   3   2 17.7984 4.23003   1
   7 -10  -2 27.6951 3.89480   1
  10  -3   2 25.2413 4.06483   2
  10  -3   3 337.516 17.7432   1
   7 -10  -3 287.585 13.0829   1
  -7  10   3 313.733 13.1399   3
  -3  -7   3 302.537 12.1741   3
  -7  10  -3 325.348 14.9321   3
   7 -10  -3 298.388 14.1028   3
  10  -3  -3 317.450 11.4332   2
   7 -10  -3 306.804 9.49270   2
  -3  -7   3 304.238 12.7388   2
   3   7   3 296.482 12.3251   2
  -3  -7  -3 295.815 12.1872   2
  10  -3   3 325.344 15.4730   2
  -3  -7   3 303.566 9.65446   4
  -7  10   3 306.005 13.0501   4
  -3  -7  -3 291.336 12.5059   4
  -3  -7  -3 301.739 11.0016   1
  -3  -7   3 301.964 13.5750   1
  10  -3  -3 328.335 15.0311   1
  -3  -7  -4 203.982 7.71037   1
  10  -3   4 187.561 13.3611   1
   7 -10  -4 210.114 9.88242   1
  -3  -7   4 195.402 8.89088   3
  -7  10   4 225.576 10.1368   3
  -7  10  -4 197.242 11.3027   3
   7 -10  -4 213.652 11.1991   3
   3   7   4 208.475 9.60829   2
  -3  -7  -4 200.211 9.62926   2
  10  -3   4 228.250 13.4118   2
 -10   3   4 220.949 9.80936   2
  -3  -7   4 229.928 11.3505   1
  10  -3  -4 230.457 11.6692   1
  -3  -7  -4 181.964 9.74340   4
  -7  10   4 217.024 10.5391   4
 -10   3   5 69.7073 7.20065   1
  -3  -7   5 62.7809 4.40001   3
  -7  10   5 74.4744 5.30335   3
  -7  10  -5 74.3369 6.40319   3
   7 -10  -5 78.6495 6.48231   3
   3   7   5 70.4187 5.35198   2
   7 -10  -5 71.9535 5.08256   1
  -7  10   5 76.9008 6.19876   4
  -3  -7  -5 66.9523 5.57468   4
  10  -3   5 66.8621 8.03356   2
 -10   3   5 83.9430 5.40151   2
  -3  -7   5 72.7379 6.35722   1
  10  -3  -5 80.6902 6.55959   1
  10  -3   5 56.6510 7.85914   1
  -3  -7   6 1.51718 2.36455   2
   3   7   6 2.69359 2.21279   2
  -3  -7  -6 3.39049 2.72817   4
 -10   3   6 2.51345 2.58438   4
  -3  -7   6 2.33664 1.67637   3
  -7  10  -6 3.95259 2.82697   3
 -10   3   6 4.01165 3.34475   1
  10  -3   6 0.85437 3.88776   1
  -3  -7   6 6.66638 3.40188   1
  10  -3  -6 2.32032 2.72701   1
 -10   3   6 4.07582 2.25874   2
   7 -10  -6 8.00073 2.15508   1
  -3  -7  -7 99.5455 7.39291   4
 -10   3   7 112.422 7.06272   4
  -7  10  -7 103.020 6.96117   3
  -3  -7   7 98.8820 5.08779   3
 -10   3   7 107.958 5.63545   3
  -3  -7   7 105.224 7.13832   2
 -10   3   7 109.039 9.47396   1
  10  -3   7 110.697 10.5264   1
   7 -10  -7 95.0383 5.26354   1
   3   7   7 102.560 6.69740   2
 -10   3   7 103.039 5.92143   2
  10  -3  -7 106.794 7.70903   1
  10  -3  -8 48.8322 5.48581   1
  -3  -7   8 55.4619 5.36739   2
 -10   3   8 57.9371 4.29607   2
   3   7   8 58.9177 5.23778   2
  -7  10  -8 52.1044 4.87599   3
 -10   3   8 56.2696 5.30727   4
 -10   3   8 59.2453 7.67209   1
  10  -3   8 63.8721 8.53868   1
  -7  10  -9 3.69237 2.28529   3
  -3  -7  -9 1.65544 2.64575   3
 -10   3   9 5.67486 4.51642   1
  10  -3   9 4.01123 4.88554   1
 -10   3   9 1.58945 2.18229   2
   3   7   9 1.68359 2.57942   2
  -7  10  -9 3.41433 1.81928   4
 -10   3   9 2.71095 3.17695   4
   3   7  10 0.32442 2.57388   2
  -3  -7 -10 0.32492 2.73220   3
   6 -10   0 135.370 8.21142   3
  -4  -6   0 122.362 6.91373   1
  -4  -6   0 121.238 6.72059   2
  10  -4   0 136.550 7.34532   2
  -6  10   0 139.053 7.02790   4
 -10   4   0 130.981 9.19401   1
  -6  10   0 126.378 8.08717   3
 -10   4   1 41.9319 5.44988   1
  -6  10   1 34.7743 3.62876   4
  -6  10  -1 38.2288 3.36402   4
  -6  10   1 37.8095 4.23206   3
   6 -10   1 40.0792 4.61594   3
   6 -10  -1 52.8881 5.02178   3
   4   6   1 42.8760 3.87730   2
  10  -4  -1 46.4020 3.76140   2
  10  -4   1 43.9267 4.48782   2
  -4  -6  -1 43.0839 3.92364   2
  -4  -6   1 42.3114 3.85991   2
  -4  -6  -1 38.7011 3.72409   1
  -4  -6   1 46.7242 4.24601   1
  10  -4  -1 35.9043 5.06243   1
  10  -4   1 42.0136 5.87325   1
  -6  10  -2 2.78701 2.40336   3
  -6  10   2 1.13469 1.75859   3
  -4  -6  -2 5.17526 1.78976   1
  10  -4  -2 0.54999 2.50370   1
  -6  10   2 4.50008 2.25202   4
  -4  -6   2 3.05272 2.18630   1
  -4  -6  -2 8.19977 2.20454   2
  10  -4   2 2.91114 2.55036   2
  10  -4   2 2.12117 2.93773   1
   6 -10  -2 4.18802 2.18138   1
  -4  -6   2 0.90571 1.51260   2
  10  -4  -2 7.12556 1.61924   2
   4   6   2 4.91391 2.05864   2
   4   6   3 8.63368 2.44164   2
  10  -4  -3 10.2624 1.81075   2
  -6  10   3 8.62436 2.70942   4
  -4  -6  -3 10.7698 2.43811   4
  -4  -6  -3 10.6386 2.00234   1
  10  -4  -3 13.7663 3.48871   1
  -6  10  -3 6.46267 2.62014   3
  -6  10   3 9.75934 2.64204   3
   6 -10  -3 12.1386 1.28780   2
   6 -10  -3 7.25457 2.75751   3
   6 -10  -3 7.31821 2.45672   1
  10  -4   3 7.25596 3.87916   1
  -4  -6  -3 7.68320 2.25915   2
  10  -4   3 9.36588 3.53214   2
  -4  -6   3 6.66508 2.36705   1
  -6  10   4 100.185 6.30233   3
  -6  10  -4 103.161 7.20112   3
   6 -10  -4 92.7994 6.75041   3
  10  -4  -4 98.7354 4.79177   2
   4   6   4 100.732 6.45520   2
   6 -10  -4 93.9440 3.32531   2
  -6  10   4 102.386 6.81338   4
  -4  -6  -4 86.0782 6.15595   4
  -4  -6   4 92.3465 6.83738   1
  10  -4  -4 95.8540 7.18776   1
   6 -10  -4 95.7974 5.98331   1
 -10   4   4 97.7403 8.33630   1
  10  -4   4 86.8093 8.73358   1
  -4  -6  -4 92.5630 4.71355   1
  -6  10   5 33.7393 4.50675   4
  -4  -6   5 42.7197 3.35315   3
   6 -10  -5 43.0048 4.76235   3
  -6  10  -5 32.2541 4.42009   3
  -4  -6   5 39.6437 4.19312   2
   4   6   5 39.8111 4.34927   2
  -4  -6  -5 41.3544 4.48743   4
  -4  -6   5 39.1720 2.06361   4
  -4  -6   5 36.6723 4.75277   1
   6 -10  -5 41.1574 3.66500   1
  10  -4  -5 38.1903 4.53148   1
 -10   4   5 45.9080 6.02824   1
  10  -4   5 33.0706 6.20714   1
 -10   4   6 11.4803 3.01300   4
  -4  -6   6 10.6029 2.00333   3
  -6  10  -6 9.76558 2.84942   3
   6 -10  -6 19.5529 3.60853   3
 -10   4   6 8.36349 2.38457   3
   4   6   6 11.6159 3.04450   2
  -4  -6   6 16.2167 3.15357   2
  10  -4  -6 13.6940 3.29533   1
  -4  -6   6 9.73531 3.41115   1
  -6  10   6 10.5944 2.97865   4
  -4  -6  -6 11.3460 3.11181   4
  10  -4   6 14.8784 5.27065   1
 -10   4   6 8.78081 4.12390   1
   6 -10  -6 9.61163 2.06731   1
   4   6   7-0.39973 2.51747   2
  -4  -6   7 1.50278 2.53976   2
   6 -10  -7-0.78795 1.34915   1
  -6  10  -7-1.33866 2.24095   3
 -10   4   7 1.09364 1.73536   3
  -4  -6   7-0.16258 1.52467   3
   6 -10  -7 2.14311 2.84237   3
  -4  -6  -7 0.44474 2.80093   4
  -6  10  -7-0.14363 1.25826   4
 -10   4   7 2.32552 2.44100   4
  10  -4   7-0.86336 4.81021   1
 -10   4   7-1.38210 3.79634   1
  10  -4  -7 1.30675 2.86008   1
  -6  10  -8 17.7490 2.10181   4
 -10   4   8 24.7445 4.06205   4
   6 -10  -8 20.9828 3.91498   3
  -6  10  -8 17.9795 3.01122   3
  -4  -6   8 21.0908 4.43664   1
  10  -4  -8 26.1809 4.21492   1
  10  -4   8 16.7813 5.99531   1
 -10   4   8 21.0745 5.48447   1
   4   6   8 23.7888 4.03409   2
  -4  -6   8 19.8691 3.64008   2
  -6  10  -9 18.9278 2.91601   3
  -6  10  -9 16.3137 2.16529   4
  10  -4   9 21.6966 6.26049   1
 -10   4   9 26.1244 5.84689   1
  10  -4  -9 18.4307 3.95710   1
   4   6   9 15.3565 3.44352   2
   4   6  10 11.3695 3.41711   2
  -4  -6 -10 3.79625 2.86935   3
  10  -4  10 7.33950 5.35791   1
  10  -5   0 207.809 12.4543   1
   5 -10   0 219.720 10.8187   3
  -5  -5   0 222.399 10.1223   1
  10  -5   0 229.755 10.2114   2
  -5  -5   0 216.676 9.79879   2
   5   5   0 210.642 10.2269   1
  -5  10   0 226.817 9.67955   4
   5   5  -1 290.652 12.7087   1
   5   5   1 275.961 11.9665   1
  -5  10   1 293.694 12.8059   3
   5 -10  -1 281.373 12.8393   3
   5 -10   1 281.135 12.8413   3
  -5  -5   1 308.634 12.6561   1
  10  -5  -1 282.279 11.3129   2
  -5  -5   1 289.909 11.8367   2
  -5  -5  -1 295.491 12.0352   2
  10  -5  -1 290.410 14.6345   1
  -5  -5  -1 310.968 12.0112   1
  10  -5   1 291.124 13.0017   2
  -5  10  -1 270.724 11.0184   4
  -5  10   1 295.263 12.0809   4
 -10   5   1 268.860 14.6803   1
  -5  10   2 358.972 14.5552   4
  -5  10  -2 322.727 12.5766   4
  10  -5  -2 375.749 16.6849   1
  -5  -5  -2 375.219 13.8573   1
   5   5  -2 347.757 15.0097   1
   5   5   2 390.350 14.0536   1
  -5  10  -2 389.713 15.6335   3
  -5  10   2 369.221 14.7656   3
   5 -10   2 345.235 15.0400   3
   5   5   2 395.282 14.7065   2
   5 -10  -2 351.442 11.8510   2
  -5  -5  -2 368.283 14.2729   2
  10  -5  -2 368.118 12.7953   2
  -5  -5   2 357.190 14.8341   1
  10  -5   2 359.348 17.7180   1
  -5  10  -3 199.138 8.14509   4
  -5  10   3 221.328 10.6647   4
  -5  -5  -3 208.292 10.1304   2
   5   5   3 212.924 9.05048   1
  -5  10  -3 219.805 10.8320   3
   5 -10  -3 216.649 10.6725   3
   5 -10   3 204.514 10.5596   3
  -5  -5   3 213.282 10.7369   1
   5   5   3 219.608 10.3510   2
  10  -5  -3 214.866 8.14901   2
   5 -10  -3 225.467 7.49991   2
   5 -10  -3 221.445 9.90085   1
  10  -5  -3 209.817 11.3687   1
  -5  -5  -3 209.376 9.02668   1
 -10   5   3 249.728 13.7937   1
  10  -5   3 222.094 13.3101   1
  10  -5   4 170.477 11.4195   1
  -5  -5  -4 140.228 6.67482   1
 -10   5   4 151.291 10.8390   1
   5 -10  -4 160.601 7.53851   1
  -5  10  -4 136.760 5.84289   4
  -5  10  -4 151.586 8.55991   3
   5 -10  -4 159.045 8.79745   3
  10  -5  -4 160.394 6.15704   2
  -5  -5   4 146.109 7.83709   2
   5   5   4 148.321 8.47034   2
   5 -10  -4 153.151 5.40997   2
  -5  10   4 152.592 8.83728   4
  -5  -5   4 142.081 8.80452   1
  10  -5  -4 154.385 9.17276   1
   5   5   4 144.110 6.54027   1
  -5  -5  -5 131.064 7.78922   4
  -5  10   5 123.470 8.17565   4
   5 -10  -5 129.651 6.29520   1
  -5  10  -5 134.824 7.69932   3
   5 -10  -5 136.890 8.01802   3
 -10   5   5 134.442 7.10930   3
  -5  -5   5 140.676 7.52594   2
   5   5   5 116.469 7.92205   2
  -5  -5   5 117.749 5.03787   4
  -5  -5   5 125.876 8.33029   1
  10  -5  -5 126.063 8.05921   1
 -10   5   5 159.793 10.8688   1
  10  -5   5 126.627 10.4546   1
  -5  -5  -6 151.338 8.85941   4
  -5  10   6 136.046 8.83899   4
  -5  10  -6 133.900 4.91082   4
  -5  -5   6 162.942 5.93958   4
   5 -10  -6 142.215 6.07183   1
 -10   5   6 155.396 8.55286   4
  -5  -5   6 153.255 6.53166   3
  -5  10  -6 149.565 7.95337   3
   5 -10  -6 155.046 8.72511   3
 -10   5   6 152.624 7.33275   3
  -5  -5   6 160.564 8.41154   2
   5   5   6 159.289 9.34536   2
  10  -5  -6 144.546 8.68385   1
 -10   5   6 150.463 10.9777   1
  10  -5   6 171.314 12.1819   1
  -5  -5   7 55.9702 3.34747   3
  -5  10  -7 63.2889 4.68365   3
 -10   5   7 65.6871 4.21286   3
   5 -10  -7 56.1216 5.27641   3
  -5  -5   7 58.9165 5.17346   2
   5   5   7 62.9257 6.14825   2
  -5  10   7 56.0072 6.05855   4
  -5  -5  -7 58.3114 5.72187   4
 -10   5   7 57.5446 5.36489   4
  -5  -5   7 53.7544 3.27384   4
  -5  10  -7 50.3546 2.31390   4
  10  -5  -7 42.2948 4.85584   1
   5 -10  -7 57.2725 2.84215   1
 -10   5   7 64.3440 7.50182   1
  10  -5   7 71.5913 8.44549   1
  10  -5   8 110.604 10.2438   1
  10  -5  -8 85.2022 6.39944   1
 -10   5   8 85.1916 4.39322   3
   5 -10  -8 96.4281 6.66813   3
  -5  -5   8 86.8767 6.15735   2
   5   5   8 76.9288 6.44396   2
 -10   5   8 85.1501 6.56352   4
  -5  -5   8 75.4148 7.15323   1
 -10   5   8 109.651 9.39649   1
  10  -5  -9 16.6187 3.79621   1
 -10   5   9 23.7257 5.77983   1
  10  -5   9 23.7435 6.49966   1
   5   5   9 23.6390 4.49376   2
  -5  -5   9 13.8887 3.50203   2
   5 -10  -9 16.5117 3.70084   3
  10  -5 -10 34.6650 4.67825   1
   5 -10 -10 48.9440 5.39328   3
 -10   5  10 38.3847 6.70191   1
   5   5  10 34.3407 4.84608   2
   6   4   0 349.047 14.6300   1
   4 -10   0 355.232 14.6373   3
   6   4   0 350.591 13.7190   2
  -6  -4   0 380.889 14.2630   2
  10  -6   0 378.185 14.4248   2
  -4  10   0 331.515 13.1496   4
  -6  -4   0 365.112 14.6193   1
  10  -6   0 343.114 16.7445   1
  10  -6  -1 3.41612 2.59147   1
  -4  10   1 3.71866 1.86685   4
  -4  10  -1 3.67601 1.50504   4
  -6  -4  -1 4.60621 1.93416   2
  10  -6  -1 1.78334 1.62409   2
  -4  10  -1 4.59308 2.16364   3
   4 -10  -1 0.37974 1.90085   3
   4 -10   1 0.38322 1.88494   3
  -6  -4   1 3.77926 1.98532   2
   6   4  -1 5.03408 1.82599   2
   6   4   1 3.17293 1.82473   1
   6   4  -1 3.62262 2.30565   1
  -6  -4   1 2.23287 2.13194   1
  -6  -4  -1 6.03765 2.15963   1
  -6  -4  -2 13.5181 2.66171   1
  -4  10   2 16.0439 2.83707   4
  -6  -4  -2 9.11667 2.49496   2
  -4  10  -2 27.7028 3.54961   3
   6   4   2 15.3605 2.83563   1
   6   4  -2 16.9457 3.05163   1
   4 -10  -2 16.3847 1.88771   2
   4 -10   2 16.4520 2.96061   3
  -6  -4   2 13.2552 2.82358   1
  10  -6  -2 16.3699 2.07545   2
  -4  10  -2 17.9442 1.93452   4
  10  -6  -2 14.8894 3.55205   1
   6   4   3-0.39999 2.25952   2
  10  -6  -3 2.52831 1.21230   2
  -6  -4   3-0.31221 1.66578   2
   4 -10  -3 3.10261 1.13479   2
  -4  10  -3 0.98846 0.78493   4
  -4  10   3-1.17056 2.23374   4
  10  -6  -3 2.95244 2.41808   1
  -4  10  -3 2.94133 2.07698   3
   4 -10  -3 0.38139 1.77106   3
   4 -10   3-0.38025 2.11882   3
  -6  -4   3 1.73937 2.55399   1
   6   4   3 1.41666 1.60071   1
  -6  -4  -3 0.56334 1.54772   1
  10  -6   3 4.09109 3.16594   1
 -10   6   3 0.68528 3.24489   1
 -10   6   4 233.961 13.7683   1
  10  -6   4 239.099 13.9710   1
  -6  -4  -4 230.390 9.39356   1
  -4  10   4 223.654 11.1991   4
  10  -6  -4 224.047 11.3968   1
   6   4   4 226.201 9.26613   1
  -4  10  -4 237.569 10.5624   3
   4 -10   4 219.336 10.5480   3
   4 -10  -4 209.056 10.5333   3
 -10   6   4 235.064 10.4972   3
  10  -6  -4 215.129 7.70913   2
  -6  -4   4 222.185 10.0676   2
   6   4   4 202.829 11.0846   2
   4 -10  -4 215.506 7.79408   2
  -6  -4   4 219.888 11.5127   1
   4 -10  -4 227.454 9.22766   1
  -6  -4   5 12.9877 2.83093   2
   6   4   5 16.8724 3.89640   2
  -6  -4   5 12.4786 3.45270   1
  10  -6  -5 12.8137 3.11468   1
  -4  10  -5 8.46221 2.32449   3
   4 -10  -5 9.96934 2.86688   3
 -10   6   5 14.6321 2.70795   3
  -4  10   5 10.5513 3.28818   4
 -10   6   5 13.5792 2.96920   4
  10  -6   5 13.3762 4.26615   1
   4 -10  -5 9.85260 1.89177   1
 -10   6   5 16.0777 4.60136   1
   6   4   5 14.2100 2.18582   1
   6   4   6 5.06744 1.30455   1
   4 -10  -6 7.30515 2.76790   3
 -10   6   6 4.19060 1.91850   3
  -6  -4   6 4.97721 1.62721   4
 -10   6   6 1.58459 2.35826   4
  10  -6  -6 4.02737 2.51136   1
   4 -10  -6 4.26941 1.20412   1
 -10   6   6 5.62379 3.63630   1
  10  -6   6 6.99672 4.27234   1
  -4  10   6 5.36231 2.79283   4
  -6  -4   6 1.67614 2.09137   2
   6   4   6 2.66969 3.05854   2
   6   4   7 13.8093 3.97883   2
  -6  -4   7 7.25427 2.65376   2
  -6  -4   7 11.0381 1.77883   3
   4 -10  -7 18.4224 3.48022   3
 -10   6   7 8.50007 2.20668   3
  -6  -4   7 4.99611 3.30758   1
  10  -6  -7 7.06231 2.96753   1
 -10   6   7 9.07050 3.25562   4
  -4  10   7 3.58993 2.86531   4
  -6  -4  -7 9.81876 3.34810   4
  -6  -4   7 4.98456 1.65034   4
 -10   6   7 0.70506 4.04155   1
  10  -6   7 8.13029 4.53483   1
 -10   6   8 77.7203 6.39802   4
   4 -10  -8 72.0276 5.87916   3
  -6  -4   8 68.5386 5.56690   2
   6   4   8 68.4489 6.88163   2
 -10   6   8 70.5624 4.33342   3
  -6  -4   8 60.2666 6.74687   1
  10  -6  -8 70.1928 5.80926   1
 -10   6   8 66.0177 7.80357   1
  10  -6   8 67.2348 8.39486   1
  10  -6  -9 9.34783 3.13952   1
   4 -10  -9 15.5769 3.54088   3
  10  -6   9 7.66902 4.82255   1
 -10   6   9 14.5947 4.75201   1
   6   4   9 6.96444 3.83309   2
  -6  -4   9 13.0413 3.30979   2
  10  -6  10-0.84249 4.82259   1
 -10   6  10-0.67473 4.64663   1
   4 -10 -10 1.83998 2.97903   3
   3 -10   0 36.4679 3.96577   3
  -3  10   0 42.6884 3.39680   4
  -7  -3   0 37.7411 4.18260   1
   7   3   0 39.2167 3.80350   2
  -7  -3   0 42.9614 4.01250   2
   7   3   0 37.8768 4.34809   1
  10  -7   0 33.3931 4.88770   1
   7   3  -1 276.082 12.5071   1
   7   3   1 233.203 11.4345   1
   3 -10  -1 226.467 11.0437   3
   3 -10   1 233.910 11.1694   3
   7   3  -1 269.097 10.8848   2
   3 -10  -1 258.412 9.62811   2
   7   3   1 255.035 11.1926   2
  -7  -3  -1 232.251 11.0177   2
  -7  -3  -1 260.025 11.6541   1
  -7  -3   1 252.776 11.8570   1
  10  -7  -1 264.275 10.4939   2
  -3  10  -1 236.907 9.11712   4
  -3  10   1 240.189 10.4039   4
  10  -7   1 261.136 13.8342   1
  10  -7  -1 233.674 12.8947   1
  -7  -3  -2 32.3439 3.94297   2
   7   3  -2 35.4001 4.30392   1
   7   3   2 25.5802 3.52977   1
   3 -10  -2 33.5953 2.69453   2
  -7  -3   2 39.7336 3.91564   2
  10  -7  -2 36.7236 2.89017   2
  -3  10   2 31.5097 3.59464   4
  10  -7  -2 36.5466 4.90591   1
  -7  -3   2 35.3230 4.18160   1
  -7  -3  -2 39.2599 4.01277   1
 -10   7   2 36.2779 4.27596   3
   3 -10   2 32.3903 3.88861   3
  -3  10   3 126.025 7.61154   4
   3 -10  -3 135.023 7.19703   4
   3 -10  -3 120.037 7.42816   3
   3 -10   3 127.855 7.47170   3
 -10   7   3 135.152 7.76486   3
  -7  -3  -3 137.074 7.34941   1
  10  -7  -3 127.441 5.22772   2
   3 -10  -3 115.513 5.41150   2
  -7  -3   3 122.835 6.95450   2
  10  -7   3 129.386 9.85951   1
  -7  -3   3 123.814 8.14710   1
  10  -7  -3 134.849 8.63614   1
   7   3   3 116.424 6.95453   1
  -3  10   4 20.8872 3.59874   4
   3 -10  -4 27.7768 3.59009   4
   7   3  -4 22.5802 3.86592   1
  10  -7  -4 23.3468 1.74859   2
   3 -10  -4 22.2768 3.51290   3
 -10   7   4 20.9716 3.14445   3
   3 -10   4 22.7816 3.41617   3
   3 -10  -4 27.7386 2.43192   2
   7   3   4 27.7204 4.54308   2
  -7  -3   4 25.0961 3.22947   2
   7   3   4 23.3634 3.02631   1
  -7  -3   4 17.4625 3.66078   1
  10  -7  -4 24.3669 3.98335   1
 -10   7   4 29.4342 5.49471   1
  -7  -3  -4 28.2126 3.20932   1
   3 -10  -4 21.8724 2.46969   1
  10  -7   4 34.5585 5.51725   1
 -10   7   5 169.553 11.6382   1
  10  -7   5 167.958 11.6642   1
  -7  -3   5 140.705 9.41936   1
  10  -7  -5 149.547 8.81464   1
   3 -10  -5 151.244 8.58057   4
 -10   7   5 163.464 8.65921   4
   3 -10  -5 142.843 8.35692   3
   3 -10   5 140.212 7.99125   3
 -10   7   5 148.942 7.67900   3
   7   3   5 153.570 7.32952   1
  -7  -3   5 163.302 8.17918   2
   7   3   5 160.627 10.3082   2
   7   3  -5 151.744 9.42486   1
   3 -10  -5 152.493 6.08567   1
  -7  -3   6 47.0558 3.41630   4
 -10   7   6 44.8583 3.84760   3
   3 -10  -6 35.7050 4.60874   4
   3 -10  -6 44.0600 4.58100   3
  10  -7   6 37.4310 6.53565   1
 -10   7   6 44.3620 6.45324   1
   7   3   6 44.0731 3.32806   1
  10  -7  -6 45.4809 4.76060   1
  -7  -3   6 52.0494 4.55069   2
   7   3   6 50.0319 6.15454   2
 -10   7   6 46.3371 4.86968   4
   7   3  -6 45.9394 5.43485   1
  -7  -3   7 18.5634 3.28397   2
   7   3   7 16.0822 4.07263   2
  10  -7  -7 11.3160 3.25585   1
 -10   7   7 11.0951 4.33946   1
  10  -7   7 12.6370 5.20259   1
 -10   7   7 15.6271 2.64583   3
   3 -10  -7 20.0781 3.55962   3
  -7  -3   7 13.1489 2.32237   4
 -10   7   7 17.7534 3.76729   4
   3 -10  -7 14.9932 3.70135   4
  -7  -3   7 17.1459 4.39602   1
   7   3   7 16.4953 1.98807   1
  -7  -3   8 4.22093 2.02513   4
  -7  -3   8 3.71022 2.58582   2
   7   3   8 5.73628 3.79176   2
  10  -7   8 2.43776 3.92281   1
 -10   7   8 4.07383 4.13627   1
 -10   7   8 6.32247 2.13853   3
   3 -10  -8 6.39615 3.10786   3
  -7  -3   8 2.95644 3.34218   1
  10  -7  -8 4.69866 2.70881   1
 -10   7  -9 46.4233 6.39349   3
   3 -10  -9 40.4696 4.70535   3
  10  -7  -9 40.5557 4.65194   1
  10  -7   9 34.6043 6.95664   1
 -10   7   9 37.5407 6.40336   1
   7   3   9 35.6237 5.87257   2
  -7  -3   9 29.3967 4.02441   2
 -10   7  10 33.9084 6.22308   1
  -7  -3  10 25.6036 4.13858   2
 -10   7 -10 29.7421 5.38425   3
   3 -10 -10 33.4543 4.50094   3
   2 -10   0 33.9968 3.83347   3
 -10   8   0 42.0220 4.77446   3
   2 -10   0 36.6616 3.30115   2
   8   2   0 33.2715 3.61531   2
  10  -8   0 27.2985 4.60589   1
   8   2   0 36.1597 4.51968   1
  -8  -2   0 33.9392 4.19764   1
  -8  -2  -1 73.3311 6.07420   1
  10  -8   1 68.1970 6.92083   1
  10  -8  -1 74.1729 6.66220   1
   2 -10   1 73.0316 5.47041   3
   2 -10  -1 65.4679 5.39759   3
 -10   8  -1 85.9875 6.77531   3
 -10   8   1 79.1404 6.24943   3
   8   2  -1 76.5189 5.17629   2
   2 -10  -1 69.9731 4.45296   2
   8   2   1 75.5922 5.61131   2
  -8  -2   1 70.1781 5.44539   2
  -8  -2   1 80.3556 6.41950   1
   8   2  -1 69.6031 6.18088   1
   8   2   1 78.1472 6.50103   1
  -8  -2  -1 72.7088 5.76119   2
  10  -8  -2 603.275 24.0697   1
  -8  -2  -2 643.479 22.7562   1
  -8  -2   2 674.870 24.1490   1
  10  -8   2 639.522 25.8579   1
   2 -10   2 619.504 22.2105   3
 -10   8   2 617.157 22.8856   3
   8   2  -2 634.302 21.4187   2
   2 -10  -2 634.687 20.1681   2
  10  -8  -2 618.414 19.8907   2
   8   2   2 650.412 23.3102   2
  -8  -2   2 651.723 22.1290   2
   8   2  -2 616.627 23.9823   1
   2 -10  -2 656.953 21.3644   4
   8   2   2 635.501 23.5099   1
   2 -10   3 61.7085 5.07573   3
 -10   8   3 72.9407 5.60990   3
   8   2   3 54.8584 5.22486   1
  -8  -2   3 59.6318 4.85420   2
   2 -10  -3 61.5187 3.87955   2
  10  -8  -3 69.1166 3.34839   2
  -8  -2  -3 64.4894 5.33841   1
  10  -8  -3 64.2980 6.08608   1
  -8  -2   3 61.8743 5.85160   1
   2 -10  -3 67.8282 5.13847   4
  10  -8   4 18.4115 4.79141   1
   8   2   4 36.5564 5.21379   2
  -8  -2   4 27.4349 3.47293   2
   8   2   4 18.5398 3.26127   1
   2 -10  -4 29.4773 3.61040   4
 -10   8   4 19.1661 3.15363   4
   2 -10  -4 29.5684 3.75549   3
 -10   8   4 27.3532 3.47361   3
  10  -8  -4 29.4513 1.62337   2
   2 -10   4 23.3893 3.26724   3
   8   2  -4 28.0298 4.23578   1
   2 -10  -4 23.2920 2.51415   2
  10  -8  -4 24.7404 3.84452   1
  -8  -2   4 18.2602 3.93629   1
   2 -10  -4 24.3176 2.29468   1
   2 -10  -5 40.1483 2.14863   1
   2 -10   5 38.7457 4.86989   1
   2 -10  -5 32.3518 4.26661   4
 -10   8   5 37.2902 4.44327   4
 -10   8   5 39.7846 3.92695   3
   2 -10   5 38.8004 4.04626   3
   2 -10  -5 24.2927 3.79827   3
   8   2   5 38.5018 4.07748   1
   8   2  -5 35.2220 5.09409   1
  -8  -2   5 39.5477 4.01194   2
  10  -8  -5 41.6887 4.69462   1
   2 -10  -5 37.4270 2.26207   1
  -8  -2   5 36.3740 5.31483   1
   8   2   5 37.4060 5.40664   2
  -8  -2   6 292.256 11.1392   4
   2 -10  -6 289.536 12.7866   3
 -10   8   6 302.488 11.7611   3
   2 -10   6 273.784 11.8431   3
 -10   8  -6 318.059 16.3406   3
   8   2   6 260.603 11.3927   1
  10  -8  -6 274.364 12.5257   1
   8   2   6 266.482 15.4287   2
  -8  -2   6 302.296 12.2788   2
 -10   8   6 272.019 12.8608   4
   2 -10  -6 277.059 13.1538   4
   2 -10   6 309.902 14.6440   1
   8   2  -6 315.368 14.5708   1
  -8  -2   7 14.0516 3.05769   2
   8   2   7 15.2849 4.60940   2
   8   2   7 17.8299 2.73766   1
  10  -8  -7 15.8375 3.49101   1
  -8  -2   7 16.0008 2.64087   4
   2 -10  -7 20.2747 4.04288   4
 -10   8   7 23.4105 3.16297   3
   2 -10  -7 21.4954 3.65442   3
 -10   8  -7 18.0533 4.89184   3
 -10   8   7 12.1671 4.76346   1
   8   2  -7 17.8451 3.95894   1
 -10   8   7 22.2655 3.98081   4
  -8  -2   7 21.1441 4.94620   1
 -10   8   8 21.5701 2.79320   3
 -10   8  -8 20.2549 5.23414   3
   2 -10  -8 19.5398 3.51159   3
  10  -8  -8 12.6909 3.19359   1
   8   2   8 13.3595 2.07751   1
  -8  -2   8 14.4341 2.68427   4
   8   2   8 8.63056 4.49746   2
  -8  -2   8 9.22033 2.91165   2
 -10   8   8 16.1613 5.14402   1
 -10   8   9 7.97449 4.56309   1
   2 -10  -9 12.6305 3.33507   3
 -10   8  -9 6.87402 3.80611   3
  -8  -2   9 7.57993 2.81480   2
   2 -10 -10 75.5426 6.21643   3
  -8  -2  10 88.8204 6.24921   2
   1 -10   0 152.922 8.42430   3
 -10   9   0 163.096 9.66774   3
   9   1   0 178.802 10.8222   1
   1 -10   0 146.201 7.40215   2
   9   1   0 159.550 8.35478   2
  10  -9   0 168.348 10.5768   1
  -9  -1   0 158.539 9.61797   1
   1 -10   0 145.691 8.01212   1
  -9  -1  -1 190.818 10.3736   1
  -9  -1   1 179.203 10.4335   1
  10  -9  -1 183.795 11.0180   1
  10  -9   1 186.531 11.7282   1
   1 -10  -1 185.383 8.12084   4
   1 -10   1 180.605 9.23639   3
   1 -10  -1 184.996 9.44400   3
 -10   9   1 182.294 10.1427   3
 -10   9  -1 171.683 10.4703   3
   9   1  -1 192.467 8.99048   2
   1 -10   1 177.729 8.56291   2
   1 -10  -1 180.153 8.08894   2
   9   1   1 185.511 9.64675   2
  -9  -1   1 186.799 9.49277   2
   1 -10   1 186.603 9.51341   1
   1 -10  -1 174.911 8.56310   1
   9   1   1 187.881 11.2689   1
   9   1  -1 159.904 10.4930   1
  10  -9   2-0.66991 3.04768   1
  -9  -1  -2 1.32951 2.43485   1
  10  -9  -2 1.58122 2.44742   1
   9   1  -2 0.29172 1.81751   2
   1 -10  -2 2.47629 1.57861   2
   9   1   2-0.91173 2.50458   2
  -9  -1   2 2.10635 2.08763   2
   1 -10   2 2.05038 2.05091   1
  10  -9  -2 0.20104 1.49387   2
   1 -10  -2 2.29568 1.72725   4
   1 -10  -2-0.38262 2.07201   3
   1 -10   2 1.77454 1.95002   3
 -10   9   2 1.26944 2.07947   3
   9   1  -2 1.11341 2.68638   1
   9   1   2 7.43458 2.95696   1
   1 -10  -2 2.28783 1.54827   1
  -9  -1   2 0.52077 2.55911   1
   1 -10  -3 113.895 5.70222   1
   1 -10   3 122.415 7.90756   1
   1 -10   3 103.730 6.76133   3
 -10   9   3 119.531 7.42925   3
 -10   9  -3 114.114 8.76775   3
   9   1   3 115.264 8.35963   1
  -9  -1   3 103.089 6.73632   2
   1 -10  -3 130.425 6.13773   2
  10  -9  -3 117.467 4.79908   2
   9   1   3 118.551 8.61440   2
   1 -10  -3 123.727 7.05604   4
  -9  -1   3 118.981 8.38199   1
  -9  -1  -3 122.197 7.65099   1
  10  -9  -3 107.757 7.84526   1
   1 -10  -4 79.7774 6.10163   3
 -10   9   4 91.4508 6.11273   3
   1 -10   4 76.8839 5.67551   3
 -10   9  -4 84.5259 7.87505   3
  10  -9  -4 81.6310 2.82062   2
  -9  -1   4 92.7449 6.04512   2
   1 -10  -4 73.3021 4.74659   2
   1 -10  -4 78.4450 5.87645   4
  -9  -1   4 78.3894 7.15863   1
  10  -9  -4 81.6732 6.49870   1
   9   1   4 91.1477 7.31806   1
   9   1  -4 88.1725 7.32089   1
   1 -10  -4 91.3879 4.25890   1
   1 -10   4 74.5793 6.62725   1
   1 -10   5 119.730 8.30501   1
   9   1  -5 113.611 8.44878   1
   1 -10  -5 120.150 7.24132   3
 -10   9   5 104.534 6.34527   3
 -10   9  -5 136.973 9.93744   3
   1 -10   5 113.048 6.55070   3
   9   1   5 98.0253 7.37804   1
  -9  -1   5 125.213 6.92829   2
   9   1   5 95.1969 8.63939   2
   1 -10  -5 108.955 7.17293   4
 -10   9   5 114.104 7.24867   4
   1 -10  -5 97.5032 3.65492   1
  10  -9  -5 122.074 7.45066   1
 -10   9  -6 0.68496 3.92105   3
   1 -10   6 4.57361 2.10014   3
   1 -10   6 2.68691 2.95241   1
   9   1  -6 0.52904 2.90661   1
   1 -10  -6 2.61678 2.92065   4
 -10   9   6 0.42386 2.19176   4
   9   1   6 1.23645 2.26453   1
  10  -9  -6 1.49582 2.38095   1
   9   1   6-1.53141 3.62573   2
  -9  -1   6 1.30671 2.18783   2
 -10   9   6 0.58821 1.93151   3
   1 -10  -6 1.92040 2.36608   3
   9   1   7 10.3103 4.66611   2
  -9  -1   7 10.6613 3.04257   2
  10  -9  -7 13.4718 3.20364   1
   9   1   7 11.4569 2.82421   1
   1 -10  -7 9.57399 2.98823   3
 -10   9   7 11.1060 2.66464   3
 -10   9  -7 9.38546 4.13865   3
 -10   9   7 9.90181 3.35507   4
   1 -10  -7 6.92944 3.10585   4
  -9  -1   7 10.9631 2.73940   4
  -9  -1   7 13.5535 4.65059   1
   9   1  -7 7.42455 3.49326   1
 -10   9   8 24.9943 3.15190   3
   1 -10  -8 19.2560 3.69212   3
 -10   9  -8 20.2606 4.84074   3
  -9  -1   8 21.2262 3.55861   2
   9   1   8 24.3096 3.38767   1
  10  -9  -8 19.7945 3.48706   1
  -9  -1   8 23.6584 3.28955   4
 -10   9  -9 41.3393 5.83453   3
   1 -10  -9 36.0395 4.58042   3
  -9  -1   9 40.8233 4.39835   2
   1 -10 -10 4.73734 3.13909   3
  -9  -1  10-0.31250 2.85908   2
 -10   9 -10 5.03580 2.83470   4
   0 -10   0 86.6373 4.67505   4
   0 -10   0 82.6385 5.87495   1
   0 -10   0 83.8913 6.04298   3
 -10  10   0 76.4408 6.64261   3
  10   0   0 73.6949 7.61798   1
   0 -10   0 85.5835 5.43378   2
  10   0   0 79.5816 5.70504   2
  10 -10   0 84.6218 7.64365   1
 -10   0   0 95.7569 7.54916   1
   0 -10  -1 10.0532 2.17425   4
   0 -10  -1 5.86935 2.44624   3
   0 -10   1 5.95942 2.40521   3
 -10  10   1 7.99902 2.87265   3
 -10  10  -1 3.26709 2.53667   3
   0 -10  -1 6.08357 2.12304   2
  10   0   1 10.2614 2.88507   2
   0 -10   1 5.90273 2.16879   2
  10   0  -1 4.45030 2.03428   2
  10   0  -1 13.5990 3.94863   1
  10   0   1 14.0282 4.12453   1
 -10   0   1 6.55488 2.58851   2
 -10   0  -1 9.82520 3.56721   1
  10 -10  -1 9.94025 3.21893   1
 -10   0   1 11.5525 3.31707   1
  10 -10   1 8.49931 3.64854   1
   0 -10   1 14.8167 3.02135   1
   0 -10  -1 7.57585 2.26072   1
   0 -10  -2 2.99947 2.02853   4
 -10   0   2-0.76164 2.12254   2
   0 -10   2 1.81162 2.07482   3
   0 -10  -2 1.98476 2.08595   3
 -10  10   2 3.04740 2.32299   3
   0 -10  -2 4.58038 1.94939   2
  10   0   2 1.44701 2.65040   2
   0 -10   2 1.67511 2.04083   2
  10   0  -2 2.34662 1.70200   2
  10   0   2 1.43076 2.97137   1
   0 -10  -2 2.58760 1.81501   1
   0 -10   2 5.82630 2.47513   1
  10 -10  -2-0.53125 2.83443   1
 -10   0  -2 0.96099 2.36169   1
 -10   0   2 2.28868 2.91067   1
  10 -10   2 5.42939 3.21396   1
 -10   0   3 15.9211 3.91247   1
  10 -10  -3 15.7474 3.55476   1
 -10   0  -3 17.5446 3.45373   1
  10   0  -3 23.2277 3.07393   2
   0 -10  -3 20.4871 2.80267   2
  10   0   3 20.1904 4.28879   2
   0 -10   3 20.3486 3.26753   2
   0 -10  -3 22.2716 3.30842   4
 -10  10   3 24.1496 3.44395   4
   0 -10   3 22.9872 3.37695   3
   0 -10   3 16.7098 3.55344   1
 -10  10   3 24.5080 3.58373   3
 -10  10  -3 28.8921 5.29270   3
  10 -10  -3 20.5444 1.84248   2
  10   0   3 18.2931 4.51420   1
 -10   0   3 19.3653 3.42612   2
   0 -10  -3 24.6900 2.54661   1
   0 -10  -4 42.9614 4.47971   4
 -10  10   4 46.5109 4.92466   4
   0 -10  -4 46.8725 4.90176   3
   0 -10   4 51.0780 4.48879   3
 -10  10   4 43.8940 4.50786   3
   0 -10  -4 52.5757 3.08093   1
   0 -10   4 43.3264 5.08519   1
 -10  10  -4 38.2336 5.63920   3
   0 -10  -4 54.8060 4.24435   2
 -10   0   4 53.4330 4.73324   2
 -10   0   4 50.2526 6.08646   1
  10 -10  -4 46.9943 5.22258   1
  10   0   4 59.2524 6.63067   1
  10   0  -4 58.8600 6.29666   1
   0 -10  -5-0.79732 2.48336   3
 -10  10   5 2.35680 2.27613   3
 -10   0   5 1.70397 2.34696   2
   0 -10   5-1.26676 2.03748   3
 -10  10  -5-1.34112 3.68381   3
   0 -10  -5-0.41346 2.48825   4
  10 -10  -5 2.04537 2.71279   1
  10   0   5 3.11906 2.89636   1
   0 -10   5 3.11159 2.96860   1
  10   0  -5 0.55883 2.98100   1
 -10  10   6 4.35852 2.43832   3
   0 -10  -6 4.35236 2.60026   3
 -10  10  -6 2.69000 3.47861   3
   0 -10   6 2.68085 2.12737   3
  10   0   6 2.41632 3.74116   2
 -10   0   6 3.02525 2.27495   2
   0 -10  -6 3.09321 2.98921   4
 -10  10   6 6.17056 3.11885   4
  10   0  -6 4.93115 3.33803   1
   0 -10   6 4.39666 3.14778   1
  10 -10  -6 4.03482 2.57381   1
 -10   0   6 7.94564 3.89016   1
  10   0   6 5.57352 3.19223   1
   0 -10  -7 13.6253 3.48460   3
 -10  10   7 10.5865 2.84551   3
   0 -10   7 13.0369 2.88909   3
 -10  10  -7 14.0818 4.50077   3
 -10   0   7 13.6185 3.32575   2
  10 -10  -7 13.0744 3.19354   1
   0 -10  -7 13.9451 3.72927   4
 -10   0   7 13.7215 4.86423   1
  10   0   7 8.65340 3.64321   1
 -10   0   7 16.0851 3.19441   4
 -10  10  -8 18.2452 4.72904   3
  10   0   8 16.3765 3.56902   1
 -10   0   8 15.8331 3.37239   4
   0 -10  -8 21.4546 3.84368   3
 -10   0   8 16.6853 3.23478   2
 -10   0   9-0.32041 2.57717   2
 -10  10  -9 6.78630 3.79311   3
  -1 -10   0 1.93978 1.64059   4
 -11   1   0 5.88041 3.27747   1
  10 -11   0 6.94162 3.56553   1
  -1 -10   0 3.19640 2.51791   3
 -10  11   0 2.62892 2.76329   3
  11  -1   0 1.53675 3.63922   1
  -1 -10   0 4.58873 2.05035   2
  11  -1   0 3.33774 2.46092   2
  -1 -10   0 3.22479 2.28273   1
  -1 -10   1 315.940 13.8515   3
 -10  11   1 343.935 15.3386   3
  -1 -10  -1 304.422 13.8989   3
  10 -11  -1 340.428 16.3325   1
 -11   1   1 327.829 16.2043   1
  11  -1  -1 361.385 17.8834   1
  11  -1   1 341.097 18.3249   1
  -1 -10   1 326.693 13.3498   2
  11  -1  -1 324.826 13.2922   2
  -1 -10  -1 339.229 13.0056   2
  11  -1   1 328.386 14.4348   2
 -11   1  -1 353.173 16.1849   1
  10 -11   1 352.121 17.1273   1
  -1 -10   1 321.760 11.0958   4
  -1 -10  -1 320.015 12.5705   4
  -1 -10   1 339.675 14.2640   1
  -1 -10  -1 336.832 13.3418   1
  10 -11  -2 458.289 19.3926   1
 -11   1   2 465.332 20.4149   1
 -11   1  -2 462.658 19.3507   1
  -1 -10  -2 461.644 16.9279   4
  11  -1   2 428.607 21.9075   1
 -10  11   2 410.209 16.9662   4
 -10  11   2 473.407 18.6718   3
  -1 -10   2 452.387 17.5226   3
  -1 -10  -2 431.427 17.7651   3
 -10  11  -2 475.779 20.3579   3
  11  -1  -2 462.268 16.7735   2
  -1 -10   2 468.586 17.5406   2
  11  -1   2 468.482 19.2374   2
  -1 -10  -2 457.084 16.5835   2
  -1 -10  -2 483.717 16.4236   1
  -1 -10   2 488.587 18.6376   1
 -11   1   3 268.188 14.7884   1
  10 -11  -3 269.142 13.4763   1
  -1 -10  -3 292.757 12.3632   4
  10 -11  -3 274.175 9.29514   2
 -11   1   3 262.160 12.3824   2
  11  -1   3 244.679 15.8444   1
 -10  11   3 267.285 12.3907   4
 -10  11   3 271.809 12.6852   3
  -1 -10   3 284.208 12.3107   3
 -10  11  -3 302.691 15.3488   3
  -1 -10   3 252.855 12.0787   2
  11  -1  -3 277.676 11.4370   2
  11  -1   3 308.372 15.0613   2
  -1 -10  -3 271.065 11.3927   2
  11  -1  -3 290.708 15.1528   1
  -1 -10  -3 290.766 10.6091   1
  -1 -10   3 285.949 13.4451   1
  11  -1   4 10.6848 4.25532   1
  10 -11  -4 6.81200 2.89977   1
 -11   1   4 7.29104 4.57010   1
  -1 -10   4 7.17530 2.67872   2
  11  -1   4 10.8511 4.03872   2
  -1 -10  -4 7.41437 2.88494   4
 -10  11   4 9.45472 3.03813   4
  -1 -10   4 7.77303 2.31706   3
 -10  11   4 10.3216 2.84875   3
  -1 -10  -4 6.21724 2.81100   3
 -10  11  -4 8.49182 3.64635   3
  11  -1  -4 5.44136 3.08323   1
  -1 -10  -4 9.95284 1.84377   1
  -1 -10   4 8.10049 3.23085   1
  -1 -10  -4 12.1948 2.72947   2
 -11   1   4 5.57777 2.81419   2
 -10  11  -5 176.543 11.6186   3
  -1 -10   5 138.498 8.67968   2
 -11   1   5 171.297 8.89805   2
 -10  11   5 155.603 9.18544   4
  -1 -10  -5 159.052 9.28127   4
  10 -11  -5 166.359 9.19984   1
  11  -1   5 146.603 11.6115   1
 -10  11   5 177.341 8.91395   3
  -1 -10  -5 178.862 9.51465   3
  -1 -10   5 159.554 8.24639   3
  -1 -10   5 156.285 10.1159   1
  11  -1  -5 153.508 10.4284   1
 -10  11  -6 243.630 13.7891   3
  -1 -10   6 230.017 10.0227   3
 -11   1   6 223.202 13.7862   1
 -11   1   6 231.735 10.6283   2
  -1 -10  -6 217.375 11.3941   4
  10 -11  -6 203.010 10.3462   1
  11  -1   6 188.802 12.9755   1
  11  -1  -6 221.140 12.5455   1
  -1 -10   6 232.482 12.7999   1
 -10  11   6 237.302 10.5629   3
  -1 -10  -6 225.205 11.1317   3
  10 -11  -7 70.5321 5.48222   1
 -11   1   7 67.1767 5.50615   2
 -11   1   7 89.9827 6.37791   4
 -10  11  -7 82.9068 8.06813   3
  -1 -10   7 77.0817 5.23923   3
  11  -1   7 66.2989 7.41353   1
  -1 -10  -7 72.7043 6.14199   3
 -10  11   7 84.2772 5.70258   3
  11  -1   8 10.2803 3.60115   1
 -10  11  -8 13.9162 4.31521   3
 -11   1   8 9.82483 3.07160   2
 -11   1   8 13.1474 3.59739   4
 -10  11  -9 51.1461 5.78519   3
 -11   2   0 280.981 14.7612   1
   9 -11   0 263.455 14.2596   1
  -2  -9   0 293.885 12.3612   1
  -2  -9   0 299.991 12.0008   2
  11  -2   0 255.838 11.9992   2
  11  -2   0 304.518 16.4683   1
  -2  -9   0 290.766 10.9841   4
  -9  11   0 311.458 14.4262   3
  -2  -9   0 276.591 12.5180   3
  -2  -9   1 255.372 9.21649   4
  -2  -9  -1 248.870 10.3405   4
  11  -2   1 236.840 14.8929   1
  -9  11   1 232.959 10.8203   4
  -2  -9  -1 244.624 11.4966   3
  -9  11   1 249.383 12.4940   3
  -2  -9   1 232.469 11.0860   3
 -11   2   1 239.060 13.5108   1
  -2  -9  -1 237.784 10.5140   1
  11  -2   1 264.861 12.1836   2
  -2  -9   1 237.198 10.7287   2
  11  -2  -1 229.897 10.4833   2
  -2  -9  -1 253.966 10.6176   2
   9 -11  -1 243.857 13.0590   1
 -11   2  -1 257.219 13.3436   1
  -2  -9   1 263.497 11.7887   1
 -11   2   2 31.8180 5.30577   1
 -11   2  -2 26.4223 4.34905   1
   9 -11  -2 22.5728 4.28154   1
  -2  -9   2 30.6744 2.08741   4
  11  -2   2 27.1478 4.19870   2
  -2  -9   2 31.2423 3.70692   2
  -2  -9  -2 26.2990 3.46166   4
  -9  11   2 32.0714 3.88083   4
  -9  11   2 26.8834 4.04635   3
  -2  -9  -2 34.2214 4.04125   3
  -2  -9   2 29.2480 3.64209   3
  -9  11  -2 29.7448 4.99749   3
  11  -2  -2 32.4673 3.37446   2
  -2  -9  -2 35.4472 3.59506   2
  -2  -9  -2 27.4605 3.07135   1
  11  -2   2 26.3893 5.64558   1
  -2  -9   2 27.6569 3.87197   1
  -2  -9   3 147.122 9.13218   1
  -2  -9   3 143.842 8.01886   3
  -9  11   3 162.924 9.03165   3
  -9  11  -3 159.800 10.5727   3
  11  -2  -3 159.218 10.4865   1
  -2  -9  -3 159.256 7.01288   1
  -2  -9   3 148.013 8.47090   2
  11  -2  -3 164.455 7.59181   2
  -2  -9  -3 143.317 7.73339   2
  11  -2   3 176.785 10.7786   2
  11  -2   3 149.523 12.1502   1
   9 -11  -3 155.448 9.21953   1
 -11   2   3 193.162 11.6534   1
  -9  11   3 152.120 8.59945   4
  -2  -9  -3 157.038 8.60502   4
  -2  -9   4 190.862 10.6679   1
  -9  11   4 174.482 9.30419   3
  -2  -9   4 158.404 8.41205   3
  -2  -9  -4 174.087 9.62470   3
  -9  11  -4 183.075 11.5639   3
  11  -2  -4 186.240 11.2193   1
  -2  -9   4 177.838 9.41126   2
  11  -2   4 203.659 12.4558   2
  -2  -9  -4 177.272 8.76935   2
  11  -2   4 180.014 13.4123   1
  -2  -9  -4 185.165 7.01017   1
 -11   2   4 173.316 9.19915   2
   9 -11  -4 188.746 9.99778   1
  -2  -9  -4 179.845 9.50126   4
  -9  11   4 165.511 9.38007   4
  -2  -9   5 120.934 6.96919   3
  -2  -9  -5 137.516 8.25374   3
  -9  11  -5 158.640 10.4807   3
  -9  11   5 151.708 8.10933   3
  -2  -9  -5 129.331 8.34969   4
  -9  11   5 140.020 8.58487   4
   9 -11  -5 136.413 7.98275   1
  11  -2   5 125.870 11.3595   1
 -11   2   5 145.621 8.01720   2
  11  -2   5 148.384 11.1479   2
  -2  -9   5 139.600 9.30999   1
 -11   2   5 161.249 11.3111   1
  11  -2  -5 137.264 9.53413   1
  -2  -9  -6 6.68229 3.01822   4
  -9  11   6 12.4107 3.49949   4
 -11   2   6 6.23692 2.57622   2
  -2  -9  -6 6.60388 2.73074   3
  -9  11   6 7.01829 2.59023   3
  -9  11  -6 11.0247 4.00093   3
  -2  -9   6 10.9364 2.56995   3
 -11   2   6 2.14001 4.34821   1
   2   9   6 6.25968 2.43983   2
  11  -2  -6 13.4582 3.97276   1
  -2  -9   6 5.01422 3.39838   1
   9 -11  -6 5.23109 2.54794   1
  11  -2   6 6.85937 4.64685   1
 -11   2   7 19.0919 5.64325   1
   2   9   7 14.5595 3.04136   2
   9 -11  -7 20.1718 3.34036   1
  -2  -9  -7 17.9112 3.57118   3
  -9  11  -7 18.3458 4.32544   3
  -2  -9   7 19.4624 2.84537   3
 -11   2   7 16.3256 3.52296   4
  -2  -9  -7 16.3199 3.82965   4
 -11   2   7 19.7256 3.39971   2
  11  -2   7 17.6405 5.59255   1
  -2  -9  -8 53.4009 5.18881   3
  -9  11  -8 43.8093 5.32053   3
   2   9   8 53.4403 4.77006   2
 -11   2   8 53.3109 5.28524   4
 -11   2   8 50.5422 4.48431   2
  11  -2   8 60.5091 7.48759   1
  -9  11  -9 39.5599 4.80447   3
  -3  -8   0 12.6362 2.18634   4
  11  -3   0 16.8067 4.36162   1
  -8  11   0 16.3728 2.62568   4
  -3  -8   0 10.5092 2.68000   1
  -8  11   0 14.0555 3.53999   3
 -11   3   0 11.9581 3.90526   1
  11  -3   0 15.7942 2.95813   2
  -3  -8   0 17.5505 2.73931   2
  -3  -8   1 13.6924 2.06340   4
  -3  -8  -1 12.7070 2.52424   4
  -8  11   1 9.54784 2.37266   4
  -8  11   1 12.1591 3.14982   3
   8 -11  -1 16.2633 3.81994   1
 -11   3   1 18.1942 4.48773   1
 -11   3  -1 17.4033 4.11875   1
  -3  -8   1 7.52927 2.54357   1
  -3  -8  -1 14.8364 2.54802   1
  -3  -8   1 10.8979 2.54822   2
  11  -3   1 11.3846 2.78930   2
  11  -3  -1 12.6707 2.53065   2
  -3  -8  -1 15.4304 2.61708   2
  11  -3   1 13.3451 4.07275   1
  -3  -8   2 39.2977 4.10309   3
  -8  11   2 37.3599 4.48569   3
  -8  11  -2 48.5795 5.61958   3
   8 -11  -2 44.3056 4.95681   1
 -11   3   2 34.5874 5.33274   1
  -3  -8   2 49.5295 4.83538   1
  -3  -8  -2 40.1039 3.59705   1
  -3  -8   2 37.9601 4.02304   2
  11  -3  -2 34.6539 3.40546   2
  -3  -8  -2 42.4679 4.02066   2
  11  -3   2 41.5182 4.87229   2
  11  -3  -2 37.8651 5.35469   1
  -8  11   2 37.8473 4.11808   4
  -3  -8   2 48.9664 2.91146   4
  -3  -8  -2 36.3192 4.02064   4
  11  -3   2 38.0061 6.42072   1
  -8  11   3 12.4670 2.88029   4
  -3  -8  -3 13.6973 2.92987   4
  11  -3   3 8.01115 3.21652   2
  -3  -8  -3 19.8425 3.15165   2
  -8  11   3 14.2949 3.00315   3
  -3  -8   3 19.2810 3.14902   3
  -8  11  -3 18.2737 4.16341   3
  -3  -8   3 17.9845 3.41849   1
  11  -3  -3 15.2484 3.63747   1
   8 -11  -3 15.3747 3.17643   1
  11  -3  -3 11.5547 2.24152   2
  -3  -8   3 14.6002 2.96981   2
  -3  -8   3 17.5947 1.38095   4
  11  -3   3 31.8243 6.09757   1
  -3  -8  -3 17.6639 2.42559   1
  11  -3   4 13.2976 4.05965   2
  -3  -8  -4 9.08504 2.87937   2
  -8  11   4 10.5977 2.75226   3
  -3  -8   4 7.72781 2.45595   3
  -8  11  -4 13.5517 3.93518   3
   8 -11  -4 11.4334 2.99705   1
   3   8   4 13.0043 2.85363   2
  -3  -8   4 12.5739 3.57704   1
  11  -3  -4 14.8600 3.83622   1
  -3  -8  -4 10.2418 1.88387   1
  11  -3   4 19.5776 5.36370   1
  -3  -8  -4 13.7138 3.15836   4
  -8  11   4 9.13576 2.95199   4
  -8  11  -5 1.62564 3.18251   3
  -8  11   5 0.67285 2.11895   3
  -3  -8   5-0.27107 1.70739   3
  11  -3   5 7.28901 4.47699   1
   8 -11  -5 2.38345 2.38722   1
 -11   3   5 2.76643 3.74482   1
   3   8   5 1.01389 2.19695   2
  -3  -8   5 0.51569 2.83308   1
  11  -3  -5-0.52619 2.72060   1
  -3  -8  -5 2.06551 2.54465   4
  -8  11   5 1.33010 2.53805   4
  11  -3   5 1.52928 3.68953   2
 -11   3   5-0.33620 2.43841   2
 -11   3   6 22.4642 3.47781   2
  -3  -8   6 20.6072 2.90940   3
  -8  11  -6 29.0290 4.82198   3
  11  -3  -6 24.8407 4.50556   1
  11  -3   6 18.4357 5.57920   1
 -11   3   6 32.0328 6.08747   1
  -3  -8   6 20.9663 3.73536   2
   3   8   6 24.7450 3.65954   2
  -3  -8   6 19.5643 4.49660   1
   8 -11  -6 22.8393 3.26523   1
  -3  -8  -6 20.7872 3.76653   4
  -8  11   6 17.8655 3.87703   4
  11  -3   7 30.0686 6.89393   1
 -11   3   7 19.0013 5.15058   1
 -11   3   7 16.2552 3.60812   4
  -8  11  -7 20.0994 4.03436   3
 -11   3   7 18.2473 2.91909   3
  -3  -8   7 21.9991 2.77002   3
 -11   3   7 19.3829 3.27197   2
   8 -11  -7 18.2977 2.73411   1
  -3  -8  -7 14.9895 3.85309   4
  11  -3  -7 20.8166 4.44582   1
  -3  -8   7 25.0330 4.04206   2
   3   8   7 20.3123 3.55690   2
  -3  -8  -8 7.62097 2.94982   3
  -8  11  -8 11.5736 3.37109   3
  -8  11  -8 11.1179 2.17467   4
 -11   3   8 8.35628 3.25327   4
 -11   3   8 11.4611 2.94882   2
   3   8   8 7.92553 2.83850   2
  11  -3   8 12.1759 4.91961   1
  -8  11  -9 2.92786 2.47357   3
   3   8   9 2.00101 2.71829   2
  11  -3   9 2.37452 4.87577   1
 -11   4   0 353.942 17.0701   1
  -4  -7   0 368.460 14.3512   1
  11  -4   0 346.417 14.2675   2
  -4  -7   0 360.861 14.0020   2
  -7  11   0 345.274 13.8158   4
  -7  11   0 371.040 15.9989   3
  -4  -7  -1 17.3784 2.85645   2
  -4  -7   1 17.1492 2.87156   2
  11  -4  -1 18.5139 2.69749   2
  -7  11   1 16.8713 2.94884   4
  -7  11  -1 19.1482 2.71964   4
  -7  11   1 10.4263 3.04106   3
  11  -4   1 14.8479 4.49125   1
  11  -4  -1 10.5023 3.63511   1
  11  -4   1 18.6450 3.29684   2
  -4  -7  -1 19.7224 2.89616   1
  -4  -7   1 19.7565 3.36956   1
 -11   4   1 20.9816 4.36279   1
   7 -11  -2 81.4837 6.58559   1
  -7  11   2 101.416 6.97691   3
  -7  11  -2 100.553 7.65127   3
  -4  -7   2 97.2453 6.78956   1
   4   7   2 94.6889 6.12231   2
  -4  -7  -2 85.1488 5.85114   2
  11  -4   2 94.0533 7.19277   2
  -4  -7   2 81.7344 5.80432   2
  11  -4  -2 100.416 5.47631   2
  11  -4  -2 102.680 8.22293   1
  -4  -7  -2 95.8894 5.61457   1
  11  -4   2 83.5511 8.51589   1
 -11   4   2 80.0016 7.82999   1
  -4  -7  -2 94.6038 6.03815   4
  -7  11   2 109.007 6.79495   4
   4   7   3 20.7568 3.26731   2
  -4  -7   3 22.5460 3.25987   2
  11  -4  -3 16.9463 3.85159   1
  -4  -7   3 18.3106 3.48127   1
  -7  11   3 19.5340 3.22384   4
  -4  -7  -3 22.3408 3.31204   4
  -4  -7  -3 20.9416 2.64105   1
  -7  11  -3 29.4092 4.65355   3
  -7  11   3 13.9059 2.95702   3
   7 -11  -3 14.5933 3.64839   3
   7 -11  -3 16.2789 1.54927   2
  11  -4  -3 22.7329 2.54537   2
  11  -4   3 17.0603 4.73781   1
   7 -11  -3 19.3838 3.38411   1
  -4  -7  -3 17.8487 3.10492   2
  11  -4   3 16.7585 3.97515   2
   7 -11  -4 251.986 11.3337   1
  11  -4   4 256.931 15.9007   1
  -4  -7  -4 244.620 9.41089   1
 -11   4   4 265.056 14.7047   1
  -4  -7   4 268.043 10.7479   3
  -7  11   4 259.860 11.5003   3
  -7  11  -4 256.692 12.9915   3
   7 -11  -4 254.636 12.7411   3
  11  -4  -4 256.870 9.61911   2
   4   7   4 256.991 11.5062   2
   7 -11  -4 243.333 7.44441   2
  -4  -7  -4 245.262 11.3311   2
  11  -4   4 272.180 14.8301   2
  -7  11   4 257.486 12.2576   4
  -4  -7  -4 252.832 11.7217   4
  -4  -7   4 279.222 13.0693   1
  11  -4  -4 254.313 13.0889   1
  -4  -7   5 12.7407 3.05838   2
   4   7   5 9.82925 2.80418   2
  -7  11   5 15.0942 3.43883   4
  -4  -7  -5 9.80501 3.12123   4
  11  -4   5 15.7297 4.85465   2
  -7  11  -5 14.7652 3.79201   3
  -4  -7   5 8.94635 2.31062   3
   7 -11  -5 13.4776 3.53355   3
  11  -4   5 20.8697 5.42586   1
 -11   4   5 6.99757 4.32171   1
   7 -11  -5 11.5516 2.74043   1
  -4  -7   5 12.2986 3.54303   1
  11  -4  -5 12.0436 3.56279   1
 -11   4   6 68.2381 7.81835   1
  11  -4   6 65.8341 8.91491   1
  -4  -7  -6 81.0242 6.45103   4
  -7  11   6 66.0991 6.16113   4
 -11   4   6 83.0878 6.22113   4
  -4  -7   6 70.7006 4.53985   3
  -7  11  -6 67.4524 6.05168   3
 -11   4   6 67.5431 4.94566   3
   7 -11  -6 80.5800 6.75920   3
  -4  -7   6 62.3050 5.49074   2
   4   7   6 69.6376 5.84068   2
   7 -11  -6 75.3336 4.83539   1
  11  -4  -6 74.0152 6.43981   1
  -4  -7   6 78.5404 7.12679   1
  11  -4   6 81.8660 9.25573   2
  -4  -7   7 12.3760 3.30460   2
   4   7   7 8.55606 2.92245   2
  -4  -7  -7 9.70448 3.30571   4
  -7  11   7 14.9278 3.76221   4
 -11   4   7 8.21490 3.29067   4
  -7  11  -7 10.3855 3.08287   3
  11  -4  -7 11.8268 3.55060   1
  -4  -7   7 6.54092 1.96495   3
 -11   4   7 6.13629 2.40370   3
   7 -11  -7 10.6840 2.17917   1
  11  -4   7 11.0951 5.76488   1
 -11   4   7 13.9753 4.68926   1
  -7  11  -8 76.6808 4.06632   4
 -11   4   8 97.0676 7.01605   4
   4   7   8 87.4987 6.55061   2
  11  -4  -8 78.9634 6.79932   1
  11  -4   8 87.0565 10.5528   1
  -7  11  -8 82.3314 5.89504   3
 -11   4   8 84.8813 8.91256   1
  11  -4   9 12.4204 6.00414   1
  -7  11  -9 13.2273 2.95866   3
   4   7   9 7.11021 3.12099   2
  -5  -6   0 150.011 8.13408   2
  11  -5   0 164.807 8.43292   2
  -6  11   0 154.966 8.03663   4
  -5  -6   0 162.582 8.49255   1
   6 -11   0 160.630 9.35850   3
 -11   5   1 127.730 9.67197   1
  -6  11   1 148.806 8.55551   3
   6 -11  -1 131.252 8.30745   3
   6 -11   1 131.572 8.40449   3
   5   6   1 123.310 7.21204   2
  11  -5  -1 118.795 6.64868   2
  11  -5   1 116.620 7.68068   2
  -5  -6   1 135.512 7.36673   2
  -5  -6  -1 125.904 7.31147   2
  -5  -6  -1 120.036 7.03810   1
  11  -5  -1 125.636 9.45003   1
  -5  -6   1 130.333 7.75821   1
  -6  11   1 135.675 7.58851   4
  -6  11  -1 137.843 6.99342   4
  11  -5   2-0.73230 2.96413   1
  -5  -6   2 8.04826 2.47168   2
   5   6   2 1.39788 2.10314   2
  11  -5  -2-0.22588 1.56969   2
  -5  -6   2-1.23143 2.18968   1
  -6  11   2 1.54317 2.11945   4
  -6  11  -2 1.00964 1.42580   4
  -6  11  -2 0.48361 2.15374   3
  -6  11   2 0.80567 2.14891   3
   6 -11   2 5.08122 2.42651   3
  -5  -6  -2-0.87364 1.77332   1
  11  -5  -2 0.58963 2.68235   1
  -5  -6  -2-1.01961 1.94554   2
  11  -5   2 1.98968 2.52996   2
   6 -11  -3 89.8486 6.08113   1
  -6  11   3 84.6585 6.33734   4
  -5  -6  -3 73.0289 5.69275   2
  11  -5   3 80.9289 7.32225   2
  -5  -6  -3 82.0044 5.12354   1
  11  -5  -3 90.7192 7.34399   1
   6 -11  -3 72.1086 6.18032   3
   5   6   3 85.9979 6.21136   2
   6 -11  -3 85.8676 3.77952   2
  11  -5  -3 73.3567 4.36832   2
  -6  11  -3 78.8844 6.55208   3
  -6  11   3 82.5534 6.07386   3
  -6  11  -3 74.1200 4.60575   4
  11  -5   3 67.4371 7.65062   1
  -5  -6   3 72.9041 6.17561   1
  -5  -6  -4 97.4680 6.63301   4
  -6  11   4 108.193 7.51065   4
   6 -11  -4 99.2836 7.24002   3
  11  -5  -4 118.987 5.26361   2
   5   6   4 96.3082 6.85740   2
  -5  -6   4 99.4927 6.60676   2
   6 -11  -4 101.686 3.96742   2
  -6  11  -4 93.8914 4.92312   4
  -6  11  -4 106.136 7.56215   3
 -11   5   4 111.164 9.39454   1
  -5  -6  -4 112.554 5.65913   1
   6 -11  -4 94.4169 6.09583   1
  11  -5   4 109.215 9.75628   1
  -5  -6   4 106.117 7.75742   1
  11  -5  -4 111.861 8.05637   1
  -6  11  -5 68.0844 5.84403   3
 -11   5   5 67.2494 5.23329   3
   6 -11  -5 68.7164 6.07740   3
  11  -5  -5 67.9052 6.13617   1
  -5  -6   5 59.4126 6.04684   1
  -5  -6   5 70.8893 5.59347   2
   5   6   5 79.9502 6.24187   2
  -5  -6   5 67.2332 3.21828   4
  -5  -6  -5 71.5568 5.94347   4
  -6  11   5 71.1045 6.27622   4
   6 -11  -5 78.2971 5.02997   1
 -11   5   5 84.7928 8.31915   1
  11  -5   5 77.0840 8.70694   1
 -11   5   6-0.39915 2.62123   4
  -5  -6   6 1.06760 1.59918   3
  -6  11  -6 0.38128 2.40175   3
 -11   5   6 1.43496 2.04752   3
   6 -11  -6 2.69006 2.91464   3
   5   6   6 2.62401 2.66339   2
  -5  -6   6 4.94479 2.64354   2
  -5  -6   6 1.08110 2.92718   1
  11  -5  -6 2.32475 2.59088   1
  -5  -6   6 1.45061 1.04442   4
  -5  -6  -6 2.17448 2.76895   4
  -6  11   6 2.46166 2.54584   4
  11  -5   6 10.4547 4.92122   1
 -11   5   6 0.72767 3.76245   1
   6 -11  -6 1.83680 1.65279   1
  -6  11  -7 4.38163 2.50675   3
  -5  -6   7 2.48345 1.64342   3
   6 -11  -7 2.22677 2.80743   3
 -11   5   7 5.64780 2.27200   3
  -6  11  -7 4.90890 1.00260   4
  -6  11   7 4.12080 3.02754   4
  -5  -6  -7 4.14316 3.20122   4
  11  -5  -7 4.03441 3.00410   1
 -11   5   7 2.95575 4.28681   1
  11  -5   7 2.73473 4.71453   1
 -11   5   7 9.26112 3.31908   4
   5   6   7 6.24938 2.96264   2
  -5  -6   7 5.54684 2.87600   2
 -11   5   8 28.9606 6.09905   1
  11  -5   8 21.4703 6.66657   1
  -6  11  -8 22.0369 3.10482   3
  11  -5  -8 24.2400 4.26614   1
   6 -11  -8 33.8141 4.84727   3
  -5  -6   8 25.2809 4.14606   2
   5   6   8 23.4954 4.27119   2
   6 -11  -9 27.4571 4.71376   3
  11  -5   9 26.9223 6.75646   1
   5   6   9 14.6332 3.93597   2
  11  -6   0 405.631 18.7301   1
   5 -11   0 382.862 16.2392   3
   6   5   0 386.178 15.1623   2
  11  -6   0 417.017 15.5229   2
  -6  -5   0 387.095 15.3556   2
  -6  -5   0 395.749 15.7041   1
  -5  11   0 398.141 14.9811   4
   6   5   0 380.023 15.9264   1
   5 -11  -1 573.727 22.1916   3
   5 -11   1 609.624 22.5568   3
  -5  11  -1 580.898 20.1299   4
  -5  11   1 605.225 21.4955   4
  11  -6   1 609.631 22.4385   2
  -6  -5   1 622.592 21.4715   2
  -6  -5  -1 636.514 21.7736   2
  11  -6  -1 608.838 20.6082   2
   6   5   1 614.459 21.7871   1
   6   5  -1 597.356 22.4311   1
  -6  -5  -1 609.159 21.4974   1
  -6  -5   1 624.783 22.2219   1
  11  -6  -1 590.608 24.4670   1
  -5  11  -1 664.332 23.1509   3
  -5  11  -2 52.1146 3.77046   4
  -5  11   2 51.2988 5.02417   4
  11  -6  -2 62.4999 6.34674   1
  -6  -5  -2 70.6952 5.09295   1
   6   5   2 65.7204 5.07694   1
   6   5  -2 68.7368 6.00361   1
  -5  11  -2 60.8698 5.57301   3
   5 -11   2 63.5601 5.63066   3
   6   5   2 51.5491 4.87440   2
   5 -11  -2 54.4703 3.40625   2
  -6  -5  -2 58.5506 5.04286   2
  11  -6  -2 56.6098 3.90469   2
  -6  -5   2 69.1668 5.82141   1
  11  -6   2 53.3780 6.67542   1
  -5  11  -3 484.054 16.1196   4
  -5  11   3 503.078 19.6626   4
  -6  -5  -3 490.564 19.2379   2
   6   5   3 528.077 18.1789   1
   6   5  -3 501.675 20.3492   1
  -5  11  -3 502.046 19.7643   3
   5 -11   3 491.627 19.7653   3
   5 -11  -3 510.451 19.7977   3
  -6  -5   3 529.046 20.3700   1
   6   5   3 510.074 19.7808   2
  11  -6  -3 533.166 16.6272   2
   5 -11  -3 540.872 16.0932   2
  11  -6  -3 567.892 21.7700   1
 -11   6   3 553.589 23.7248   1
   5 -11  -3 543.817 18.7981   1
  11  -6   3 505.655 22.9356   1
  -6  -5  -3 523.298 18.1680   1
 -11   6   4 271.324 15.4255   1
   6   5   4 271.553 10.2835   1
  -5  11  -4 265.104 12.1182   3
 -11   6   4 258.094 11.6982   3
   5 -11  -4 250.608 12.1664   3
  11  -6  -4 271.091 9.13404   2
   6   5   4 271.240 12.6739   2
  -6  -5   4 255.631 11.3915   2
   5 -11  -4 265.429 8.72731   2
  -5  11   4 246.230 12.3830   4
  -5  11  -4 225.797 8.05986   4
  11  -6  -4 256.484 12.8693   1
  11  -6   4 293.238 16.1333   1
   5 -11  -4 260.242 10.7797   1
  -6  -5  -4 253.560 10.3379   1
  -6  -5   4 264.038 12.9480   1
   5 -11  -5 277.814 10.4687   1
  11  -6   5 295.004 16.6720   1
  -5  11  -5 277.971 12.1604   3
   5 -11  -5 248.752 12.3153   3
 -11   6   5 260.072 11.4281   3
  -6  -5   5 258.807 13.2720   1
  11  -6  -5 260.579 12.8452   1
  -6  -5   5 264.363 11.8235   2
   6   5   5 263.196 13.1116   2
 -11   6   5 278.012 15.8790   1
  -5  11   5 256.011 13.0280   4
  -6  -5   6 19.9225 2.12308   4
   6   5   6 13.2368 3.64792   2
  -6  -5   6 24.4295 3.78556   2
  -6  -5  -6 21.6979 3.93018   4
  -5  11   6 28.8634 4.69176   4
 -11   6   6 24.7551 4.16791   4
  -5  11  -6 24.9830 3.60122   3
 -11   6   6 28.2482 3.30877   3
   5 -11  -6 23.1059 3.81486   3
   5 -11  -6 21.3396 2.30966   1
  11  -6   6 26.7083 6.22475   1
 -11   6   6 29.0538 5.73460   1
  -6  -5   6 20.4171 4.17268   1
  11  -6  -6 14.2086 3.68846   1
  11  -6  -7 246.355 11.8359   1
  -6  -5   7 217.784 10.8064   2
   6   5   7 227.848 12.2812   2
   5 -11  -7 238.733 11.6975   3
  -6  -5   7 229.907 8.33025   4
  -5  11   7 245.175 12.6928   4
  -6  -5  -7 215.738 11.5425   4
 -11   6   7 238.663 11.7207   4
 -11   6   7 248.564 14.9289   1
  11  -6   7 255.598 16.0736   1
 -11   6   7 235.020 9.60403   3
  -6  -5   7 201.250 8.37561   3
  -6  -5   8 87.1404 6.35081   2
   6   5   8 71.1895 6.92498   2
 -11   6   8 100.295 9.60757   1
  11  -6  -8 77.3197 6.41184   1
   5 -11  -8 82.0808 6.66248   3
  11  -6   8 88.6106 10.0919   1
  11  -6  -9 32.9685 4.77616   1
   5 -11  -9 25.7616 4.30520   3
 -11   6   9 39.1476 7.04244   1
  11  -6   9 35.2801 7.70630   1
   6   5   9 28.2895 4.86266   2
   7   4   0 335.139 15.1150   1
   4 -11   0 362.708 15.2654   3
   7   4   0 369.916 14.4991   2
  -7  -4   0 368.357 14.7091   2
  -7  -4   0 396.669 15.5909   1
  11  -7   0 369.876 14.6365   2
  11  -7   0 380.799 17.7923   1
  -4  11   0 339.717 13.4287   4
   7   4  -1 5.55944 2.03307   2
   4 -11  -1 9.15246 1.95603   2
  -4  11  -1 12.1143 1.94633   4
  -4  11   1 12.1965 2.46419   4
  11  -7  -1 9.23072 2.32692   2
  -7  -4  -1 14.0931 2.99516   2
   7   4   1 12.1524 2.87789   1
   7   4  -1 10.4690 3.08937   1
   4 -11  -1 8.28290 2.59443   3
   4 -11   1 6.65485 2.51813   3
  11  -7   1 15.9205 4.40759   1
  11  -7  -1 9.74125 3.58617   1
  -7  -4  -1 15.8300 3.27790   1
  -7  -4   1 13.1086 3.24966   1
   7   4   2 76.0218 5.65360   1
   7   4  -2 78.9365 6.55281   1
   4 -11   2 74.2491 6.06836   3
   4 -11  -2 82.3075 4.39401   2
  11  -7  -2 81.6651 4.66824   2
  -7  -4  -2 82.1779 6.14112   2
  -7  -4  -2 75.7229 5.61940   1
  -4  11  -2 67.5192 3.79002   4
  -4  11   2 92.2950 6.10529   4
  11  -7  -2 78.3212 7.12973   1
  -7  -4   2 80.6063 6.45630   1
  -4  11   3 5.87432 2.41353   4
  -7  -4  -3 12.9465 2.71533   1
  11  -7   3 6.64851 3.70166   1
 -11   7   3 5.90182 3.69669   1
   7   4  -3 8.43268 2.84932   1
   7   4   3 6.95620 2.33436   1
 -11   7   3 7.32075 2.81086   3
   4 -11  -3 11.6041 2.94040   3
   4 -11   3 8.64136 2.71230   3
  11  -7  -3 12.2517 3.39937   1
  -7  -4   3 8.53059 2.92877   1
  -7  -4   3 8.90199 2.68944   2
   7   4   3 10.3054 3.20465   2
  11  -7  -3 10.6798 1.81023   2
   4 -11  -3 7.95130 1.67449   2
   4 -11  -4 266.351 10.8747   1
  -7  -4  -4 284.778 11.4473   1
 -11   7   4 260.570 15.5562   1
   7   4   4 270.216 11.2402   1
   4 -11  -4 283.802 12.8515   3
 -11   7   4 275.750 12.2776   3
   4 -11   4 290.439 12.8183   3
  11  -7  -4 281.217 9.33724   2
   7   4   4 263.991 13.4418   2
  -7  -4   4 276.931 12.0213   2
   4 -11  -4 279.538 9.71416   2
  -4  11   4 274.443 13.0969   4
  11  -7   4 278.333 15.9662   1
  -7  -4   4 282.544 13.7795   1
  11  -7  -4 265.394 13.2404   1
  -4  11   5 7.35723 3.06151   4
 -11   7   5 4.32762 2.53855   4
   7   4   5 5.86669 2.03021   1
   4 -11  -5 17.4675 3.45972   3
 -11   7   5 10.4834 2.64176   3
  11  -7   5 5.63800 4.42899   1
   4 -11  -5 6.12455 1.94042   1
 -11   7   5 3.73728 3.93114   1
  11  -7  -5 5.93621 2.65520   1
  -7  -4   5 6.99637 3.20589   1
  -7  -4   5 10.9083 2.91079   2
   7   4   5 6.56076 3.55915   2
   7   4  -5 6.88975 3.03998   1
 -11   7   6 56.9993 4.52742   3
   4 -11  -6 48.1546 5.08189   3
   7   4   6 53.3378 3.42552   1
  -7  -4   6 48.0471 4.67862   2
   4 -11  -6 47.3528 2.56490   1
  11  -7  -6 45.5241 4.96437   1
  11  -7   6 53.6263 7.74724   1
 -11   7   6 65.3432 7.92185   1
  -7  -4   6 56.6833 3.57357   4
 -11   7   6 57.9186 5.48675   4
  -4  11   6 50.0722 5.81721   4
   7   4   6 52.0345 6.08819   2
 -11   7   7 2.32758 1.98490   3
   4 -11  -7 7.82728 3.22616   3
 -11   7   7 1.47363 4.32932   1
  11  -7   7-1.73771 4.63669   1
  11  -7  -7 4.56374 2.72749   1
   7   4   7 5.89519 3.75532   2
  -7  -4   7 10.1069 2.92516   2
  -7  -4  -7 9.18680 3.22308   4
  -7  -4   7 5.40393 1.76974   4
 -11   7   7 6.15307 3.19034   4
 -11   7   8 115.325 10.1172   1
  11  -7   8 104.273 10.6629   1
  -7  -4   8 112.850 7.25353   2
   7   4   8 119.075 9.25139   2
  11  -7  -8 103.013 7.31540   1
   4 -11  -8 115.183 7.64998   3
   4 -11  -9 2.43240 3.01168   3
 -11   7   9-1.41637 4.36214   1
  11  -7   9-1.79769 5.21245   1
  11  -7  -9 2.29923 3.14277   1
 -11   7 -10 24.3675 5.44664   3
   4 -11 -10 19.1717 3.88564   3
   8   3   0 38.0262 4.65065   1
   8   3   0 27.5158 3.52573   2
   3 -11   0 23.5581 3.57128   3
 -11   8   0 21.1435 3.86557   3
   3 -11   0 28.6224 3.09339   2
  11  -8   0 22.8326 4.50454   1
  -8  -3   0 28.5739 3.97709   1
  -8  -3   1-1.38759 2.42968   1
   8   3   1 0.46192 2.05715   1
   8   3  -1 3.52429 2.88201   1
 -11   8   1 0.95409 2.25882   3
   3 -11   1-0.40239 1.79209   3
   3 -11  -1 1.22763 2.01079   3
   8   3  -1 1.32096 2.12465   2
   3 -11  -1 0.90749 1.60454   2
   8   3   1 1.53529 2.04751   2
  -8  -3  -1 2.56566 2.41537   1
  11  -8   1 1.33966 3.11003   1
  11  -8  -1-0.60288 2.62586   1
  11  -8  -1-0.27956 1.76073   2
  -8  -3  -1 2.01389 2.36554   2
   3 -11   2 213.413 10.6373   3
 -11   8   2 215.321 11.0819   3
  -8  -3  -2 218.777 10.7869   1
  11  -8  -2 220.143 8.73824   2
   3 -11  -2 219.038 8.64240   2
  -8  -3   2 209.278 10.2984   2
  -8  -3   2 223.236 11.6737   1
  11  -8  -2 224.129 12.4204   1
   8   3  -2 217.309 11.9027   1
   8   3   2 214.820 10.9789   1
  -8  -3   3 0.71431 2.01736   2
  11  -8  -3-0.28707 1.26448   2
   3 -11  -3 0.18550 1.34535   2
   8   3   3 1.16910 2.04707   1
  -8  -3   3 0.50737 2.58054   1
  11  -8  -3 2.63556 2.85409   1
  -8  -3  -3 0.36811 2.07922   1
   3 -11  -3-0.41213 2.26412   3
   3 -11   3 1.58410 2.01424   3
 -11   8   3 0.40533 2.12916   3
   3 -11  -4 9.09714 2.80372   3
 -11   8   4 7.35409 2.58689   3
   3 -11   4 3.87498 2.60371   3
   3 -11  -4 7.71830 2.73885   4
   8   3   4 9.36247 2.46173   1
  -8  -3   4 6.64852 2.60842   2
  11  -8  -4 9.18161 1.34284   2
   8   3   4 7.23091 3.43288   2
   3 -11  -4 10.2996 2.01064   2
  -8  -3   4 4.81057 3.18543   1
  11  -8  -4 5.34789 2.75455   1
  11  -8   4 10.0168 4.23844   1
  -8  -3  -4 7.39687 2.43573   1
   3 -11  -4 8.86998 2.09120   1
 -11   8   5 5.23861 2.56790   4
   3 -11  -5 5.23261 2.79935   4
   3 -11  -5 5.15225 1.38181   1
   8   3  -5 5.42571 3.26717   1
   8   3   5 4.77048 2.07504   1
   3 -11  -5 7.03840 2.85352   3
   3 -11   5 6.04723 2.69823   3
 -11   8   5 0.99128 2.01529   3
  11  -8   5-1.59919 3.56273   1
   3 -11  -5 4.04549 1.59347   1
   8   3   5 4.32137 3.39335   2
  -8  -3   5 4.52097 2.60609   2
  11  -8  -5 2.23111 2.84299   1
  -8  -3   5 7.33738 3.55652   1
   3 -11  -6 107.261 7.64854   4
  -8  -3   6 123.950 6.01546   4
 -11   8   6 113.256 6.61193   3
   3 -11  -6 111.989 7.58054   3
  11  -8   6 142.040 11.4176   1
 -11   8   6 125.608 10.5367   1
  11  -8  -6 120.118 7.82803   1
  -8  -3   6 110.467 7.00090   2
   8   3   6 116.026 9.50694   2
 -11   8   6 113.938 7.71296   4
   3 -11   6 106.565 8.33591   1
   8   3  -6 114.182 8.75873   1
   8   3   6 123.334 6.24082   1
   8   3   7 3.38386 3.66472   2
  -8  -3   7 1.06976 2.50036   2
  11  -8  -7 2.38120 2.55366   1
   3 -11  -7 2.30640 2.93692   4
 -11   8   7 2.68966 2.24833   3
   3 -11  -7 1.22448 2.54294   3
  11  -8   7 4.24691 4.39168   1
 -11   8   7 7.90593 4.47726   1
  -8  -3   7 0.88024 1.72249   4
   8   3   7 0.53306 1.53087   1
  -8  -3   7 4.31689 3.71155   1
  11  -8  -8-0.37931 2.65923   1
  11  -8   8-1.73168 4.68814   1
 -11   8   8 4.17379 4.38108   1
 -11   8  -8 2.09744 4.45081   3
   3 -11  -8 0.40381 2.85569   3
  -8  -3   8-2.14722 2.85867   2
 -11   8   9 1.99717 4.24227   1
  -8  -3   9 10.7110 3.41863   2
 -11   8  -9 12.0283 4.99175   3
   3 -11  -9 5.15375 2.90486   3
   3 -11 -10 29.9010 4.63107   3
   9   2   0 225.620 10.5678   2
   2 -11   0 229.091 9.61691   2
 -11   9   0 223.906 11.9452   3
   2 -11   0 203.459 10.5092   3
  -9  -2   0 221.327 11.6999   1
  11  -9   0 209.124 12.7156   1
   9   2   0 209.397 12.0557   1
  11  -9   1 398.641 18.8083   1
  -9  -2  -1 369.545 16.1131   1
  11  -9  -1 376.718 17.5489   1
   2 -11   1 373.225 15.4788   3
   2 -11  -1 361.467 15.4988   3
 -11   9   1 365.910 16.2623   3
 -11   9  -1 371.798 17.0487   3
   9   2  -1 404.439 14.9921   2
   2 -11   1 373.417 14.4023   2
   2 -11  -1 386.973 13.7482   2
   9   2   1 373.966 15.5351   2
  -9  -2   1 361.821 15.3260   2
   9   2  -1 371.698 17.2760   1
   9   2   1 354.155 16.7511   1
  -9  -2   1 387.485 16.9004   1
   2 -11  -2 10.7852 2.15175   2
   9   2  -2 9.24212 2.47900   2
   9   2   2 18.1503 3.75628   2
  -9  -2   2 4.11952 2.50406   2
  11  -9  -2 13.1033 2.18297   2
   2 -11  -2 10.1572 2.36515   1
   2 -11  -2 13.8207 2.59824   4
   2 -11  -2 15.6695 3.26482   3
   2 -11   2 17.3070 3.24168   3
 -11   9   2 16.0467 3.52672   3
   9   2   2 13.9963 3.45250   1
  11  -9   2 12.9934 4.14442   1
  -9  -2  -2 8.73322 3.02411   1
  11  -9  -2 11.4036 3.44623   1
   9   2  -2 13.1845 3.73984   1
  -9  -2   2 14.6675 3.58883   1
 -11   9   3 344.040 14.6870   3
   2 -11   3 325.980 14.1809   3
 -11   9  -3 324.481 16.4526   3
   9   2   3 310.544 14.9941   1
  11  -9  -3 349.629 11.2817   2
  -9  -2   3 343.571 14.1902   2
   2 -11  -3 340.451 12.3095   2
   2 -11  -3 343.439 13.8503   4
  -9  -2  -3 340.756 14.5673   1
  11  -9  -3 340.722 15.7689   1
  -9  -2   3 351.600 16.1787   1
   2 -11  -3 350.558 12.6097   1
  -9  -2   4 144.961 9.98013   1
  11  -9  -4 155.729 9.39971   1
  11  -9   4 151.506 11.3912   1
   2 -11  -4 157.068 8.51978   4
   2 -11  -4 144.656 8.64255   3
 -11   9  -4 155.243 10.9074   3
 -11   9   4 144.189 8.27719   3
   2 -11   4 132.867 8.04716   3
  11  -9  -4 155.296 5.09168   2
   2 -11  -4 132.894 6.58794   2
  -9  -2   4 148.516 8.25619   2
   9   2   4 133.130 8.48084   1
   2 -11  -4 139.347 6.24627   1
   2 -11   4 133.407 8.99115   1
   2 -11  -5 161.960 7.30894   2
  -9  -2   5 147.752 10.4402   1
  11  -9  -5 154.348 9.22419   1
  11  -9   5 180.590 12.5586   1
   2 -11  -5 164.397 9.33867   4
 -11   9   5 160.918 9.21355   4
 -11   9   5 163.271 8.52943   3
   2 -11  -5 159.143 9.16926   3
   2 -11   5 186.638 9.11400   3
 -11   9  -5 165.004 11.6136   3
   9   2   5 158.135 8.77498   1
   9   2   5 164.094 11.5751   2
  -9  -2   5 170.084 8.88329   2
   9   2  -5 167.732 10.6297   1
   2 -11  -5 162.477 5.80999   1
   2 -11   5 167.662 10.2574   1
   2 -11  -5 159.050 6.10086   1
  11  -9   6 0.81510 3.78498   1
 -11   9   6 2.62056 2.81061   4
   2 -11  -6 3.13226 2.78807   4
 -11   9   6 4.30506 2.33817   3
   2 -11  -6 3.27617 2.71648   3
 -11   9  -6 2.16495 3.73158   3
   2 -11   6 1.38351 2.29457   3
   9   2   6 1.63253 1.98919   1
  11  -9  -6 2.46867 2.75584   1
   2 -11   6 2.78353 3.35084   1
   9   2  -6 1.12311 3.12938   1
  -9  -2   6 2.47521 2.60699   2
   9   2   6 2.94952 4.16549   2
   2 -11  -7 150.443 9.42094   4
 -11   9   7 149.947 7.58604   3
   2 -11  -7 142.864 8.62882   3
 -11   9  -7 170.435 11.8953   3
  11  -9   7 130.493 11.4539   1
   9   2   7 122.441 10.5162   2
  -9  -2   7 153.556 8.31792   2
  11  -9  -7 139.265 8.30923   1
   9   2   7 137.003 7.13104   1
  -9  -2   7 149.298 7.28531   4
  11  -9  -8 41.2425 4.63380   1
  -9  -2   8 41.9027 4.55296   2
   2 -11  -8 44.8433 5.11397   3
 -11   9  -8 53.6472 7.17535   3
  -9  -2   9 20.0132 3.93035   2
   2 -11  -9 27.7216 4.44939   3
 -11   9  -9 33.5735 6.13595   3
   1 -11   0 66.9539 5.36724   1
   1 -11   0 68.9423 5.73469   3
 -11  10   0 64.6609 6.26312   3
   1 -11   0 65.5228 4.78596   2
  10   1   0 68.7482 5.56101   2
  10   1   0 52.4830 6.45863   1
  11 -10   0 77.9580 7.53082   1
 -10  -1   0 63.1253 6.30529   1
 -10  -1   1 189.403 11.3038   1
  11 -10  -1 196.419 11.8922   1
 -10  -1  -1 177.968 10.6530   1
   1 -11  -1 195.098 8.52652   4
   1 -11   1 190.040 9.95119   3
   1 -11  -1 195.775 10.2499   3
 -11  10   1 199.391 10.9234   3
 -11  10  -1 209.571 11.6624   3
  10   1  -1 187.688 9.47517   2
   1 -11   1 184.083 9.06037   2
   1 -11  -1 198.877 8.73239   2
  10   1   1 183.854 10.0235   2
 -10  -1   1 196.483 10.2701   2
  11 -10   1 209.820 12.9204   1
  10   1   1 208.966 12.5438   1
  10   1  -1 185.241 11.8307   1
   1 -11  -1 193.613 9.31829   1
   1 -11   1 191.397 10.0042   1
 -10  -1   2 259.034 13.3930   1
  11 -10  -2 220.004 12.4562   1
 -10  -1  -2 234.515 12.0937   1
  11 -10   2 233.932 14.2249   1
  11 -10  -2 237.928 9.25358   2
   1 -11  -2 220.480 10.1571   4
   1 -11  -2 220.693 11.2412   3
   1 -11   2 212.089 10.8084   3
 -11  10   2 242.768 11.9439   3
   1 -11   2 202.800 10.3246   2
  10   1  -2 256.045 10.6904   2
 -10  -1   2 232.991 11.2465   2
  10   1   2 238.097 12.2055   2
   1 -11  -2 227.487 9.54198   2
  10   1  -2 235.857 13.3965   1
  10   1   2 243.249 13.5361   1
   1 -11  -2 217.532 9.73879   1
   1 -11   2 227.500 11.4754   1
   1 -11  -3 153.012 7.16195   1
   1 -11   3 154.855 9.31137   1
   1 -11   3 146.128 8.44738   3
 -11  10   3 152.278 8.84363   3
 -11  10  -3 141.032 10.2549   3
  10   1   3 136.296 9.86209   1
   1 -11  -3 158.977 7.46141   2
  11 -10  -3 152.683 6.01107   2
 -10  -1   3 153.187 8.60562   2
  10   1   3 164.570 10.3649   2
   1 -11  -3 159.098 8.45208   4
 -10  -1   3 140.499 9.97000   1
 -10  -1  -3 174.236 9.48279   1
  11 -10  -3 162.868 10.0108   1
   1 -11   4 79.6506 6.63161   1
  10   1  -4 65.4223 6.87032   1
   1 -11  -4 67.2674 3.77457   1
   1 -11  -4 70.6602 5.97176   3
 -11  10   4 63.2401 5.42044   3
 -11  10  -4 60.0957 7.04874   3
   1 -11   4 68.8511 5.57396   3
  11 -10  -4 56.7561 2.32084   2
 -10  -1   4 54.5813 5.08364   2
   1 -11  -4 67.9594 4.62602   2
  11 -10  -4 67.2591 6.38253   1
 -10  -1   4 78.1309 7.43797   1
  10   1   4 63.0949 6.50378   1
   1 -11  -4 69.2837 5.71619   4
   1 -11   5 76.9246 7.02291   1
  10   1  -5 78.8722 7.43079   1
 -11  10   5 85.6843 6.01695   3
   1 -11  -5 78.7217 6.39842   3
   1 -11   5 83.9020 6.10193   3
 -11  10  -5 88.2519 8.72326   3
   1 -11  -5 80.6550 3.28312   1
  10   1   5 83.6138 7.08564   1
  10   1   5 82.1330 8.71646   2
 -10  -1   5 72.7880 5.93752   2
  11 -10  -5 92.5529 6.92674   1
 -10  -1   5 92.8304 8.32776   1
   1 -11  -5 89.2264 5.44584   2
   1 -11  -5 85.4720 3.63556   1
   1 -11  -5 99.0686 6.95230   4
 -11  10   6 98.2589 6.34503   3
   1 -11  -6 97.6374 7.08820   3
 -11  10  -6 106.565 9.73544   3
   1 -11   6 92.3513 6.24658   3
  10   1   6 86.6662 6.92616   1
  10   1   6 80.3161 8.77742   2
 -10  -1   6 101.197 6.74741   2
   1 -11   6 99.4602 8.17963   1
  10   1  -6 106.192 8.47257   1
 -11  10   6 98.9405 7.39061   4
   1 -11  -6 115.859 7.83798   4
  11 -10  -6 108.034 7.30210   1
 -11  10  -7 35.1522 6.39134   3
 -10  -1   7 34.1351 3.91422   4
  10   1   7 27.5290 3.86377   1
  11 -10  -7 29.3572 4.44068   1
   1 -11  -7 39.0318 4.77136   3
 -11  10   7 31.9636 3.79234   3
 -10  -1   7 38.3053 4.41164   2
 -11  10  -8 53.9688 7.17444   3
 -10  -1   8 50.0085 5.11746   2
 -10  -1   9 12.1599 3.56492   2
 -11  10  -9 13.3721 4.31105   3
 -11   0   0 5.17472 3.73901   1
  11 -11   0 2.03080 3.38689   1
   0 -11   0 3.67356 1.76099   4
   0 -11   0 7.14234 2.59025   3
 -11  11   0 1.06646 2.84661   3
  11   0   0 8.29648 4.14489   1
   0 -11   0 6.78078 2.23811   2
  11   0   0 4.61511 2.31713   2
   0 -11   0 1.49151 2.32538   1
  11 -11   1 102.526 9.00430   1
   0 -11  -1 96.7994 5.57801   4
   0 -11   1 86.8793 6.60993   1
   0 -11  -1 93.8064 6.12965   1
   0 -11  -1 76.9663 6.32542   3
   0 -11   1 88.2272 6.50699   3
 -11  11   1 81.0061 7.00109   3
 -11  11  -1 95.5298 7.94044   3
  11   0  -1 89.4049 6.14503   2
   0 -11   1 102.117 6.41219   2
  11   0   1 96.3298 7.10718   2
   0 -11  -1 88.6413 5.72981   2
 -11   0  -1 82.0393 7.25437   1
  11 -11  -1 91.8194 8.15171   1
 -11   0   1 91.1282 8.05805   1
  11   0   1 86.9434 8.85326   1
  11   0  -1 93.6019 8.79576   1
  11 -11  -2 30.4823 5.07537   1
  11 -11   2 33.4273 6.26091   1
 -11   0  -2 28.5137 4.68839   1
 -11   0   2 35.5851 5.69812   1
 -11   0   2 34.5821 4.50624   2
   0 -11  -2 28.3356 4.10879   3
   0 -11   2 26.2907 3.92893   3
 -11  11   2 27.9137 4.30997   3
  11   0  -2 33.3458 3.68808   2
  11   0  -2 26.4083 5.49792   1
  11   0   2 26.3618 5.44868   1
   0 -11   2 25.8205 3.66230   2
  11   0   2 25.8007 4.38142   2
   0 -11  -2 35.0175 3.68186   4
   0 -11  -2 31.0441 3.45262   1
   0 -11   2 36.9269 4.56064   1
  11 -11   3 40.3680 6.54027   1
 -11   0   3 51.1093 6.64359   1
 -11   0  -3 54.3710 5.71932   1
   0 -11  -3 52.6792 4.92088   4
  11   0   3 55.1351 7.03398   1
 -11  11   3 53.8823 5.09891   4
 -11  11   3 56.7145 5.53089   3
   0 -11   3 53.7686 5.09057   3
   0 -11  -3 52.8099 3.96862   1
   0 -11   3 46.6137 4.84405   2
  11   0  -3 60.0538 4.65557   2
 -11  11  -3 58.8949 6.61755   3
  11 -11  -3 59.5418 3.14030   2
   0 -11  -3 55.5221 4.49970   2
  11   0   3 60.0898 6.55408   2
 -11   0   3 72.5220 5.80951   2
  11 -11  -3 59.9360 6.33246   1
   0 -11   3 60.9509 5.96851   1
  11 -11  -4 2.43223 2.96752   1
 -11   0   4 6.61084 4.43037   1
   0 -11   4 4.93814 2.56969   2
  11   0   4 6.78316 4.03719   2
  11   0   4 4.97844 3.30699   1
   0 -11  -4 7.95374 1.72573   1
   0 -11  -4 8.26861 2.69282   4
 -11  11   4 4.59868 2.39984   4
 -11  11   4 9.03141 2.94524   3
   0 -11  -4 6.11607 2.90262   3
   0 -11   4 8.11980 2.79013   3
 -11  11  -4 8.17392 4.15159   3
  11   0  -4 7.67261 3.41544   1
   0 -11   4 7.72535 3.21321   1
   0 -11  -4 6.17077 2.32202   2
 -11   0   4 8.07097 3.17718   2
   0 -11  -5 72.5908 6.11807   3
 -11  11   5 64.1767 5.45107   3
   0 -11   5 59.4558 5.23273   3
 -11  11  -5 81.1159 8.38010   3
  11   0   5 64.6058 7.15324   1
 -11   0   5 82.7850 5.97297   2
   0 -11   5 45.5165 5.25420   2
   0 -11  -5 76.8435 5.25296   2
   0 -11  -5 74.1853 6.13416   4
  11   0  -5 80.7595 7.49898   1
   0 -11   5 76.1199 7.11502   1
  11 -11  -5 57.7632 5.88661   1
 -11  11   6 20.1339 3.55258   3
   0 -11  -6 24.2323 4.11883   3
 -11  11  -6 24.7210 5.51377   3
   0 -11   6 23.8103 3.40190   3
   0 -11  -6 18.6215 4.01501   4
 -11   0   6 16.1609 3.53606   2
  11 -11  -6 17.4047 3.65744   1
  11   0   6 17.6226 4.54217   1
 -11  11   7 9.89437 2.85704   3
 -11  11  -7 14.1748 4.90393   3
 -11   0   7 15.1631 3.41467   2
  11 -11  -7 8.62977 3.10993   1
  11   0   7 10.6600 3.55468   1
 -11   0   7 9.48091 2.84459   4
 -11  11  -8 14.0658 4.98881   3
 -11   0   8 6.71273 3.22321   2
  -1 -11   0 44.9622 4.74135   1
  -1 -11   0 31.9717 4.46373   3
 -11  12   0 39.3273 5.31220   3
  12  -1   0 45.3692 4.80733   2
  -1 -11   0 42.0571 4.20270   2
  12  -1   0 36.9262 6.75042   1
  -1 -11   0 46.8223 3.59768   4
  11 -12   0 41.1800 6.01381   1
 -12   1   0 36.4855 6.00324   1
  12  -1   1-0.45243 2.69019   2
  -1 -11  -1 0.63370 2.16226   2
  12  -1  -1 1.41624 2.43842   2
  -1 -11   1 0.35184 2.28717   2
  -1 -11  -1 1.38405 1.99123   4
  -1 -11   1-0.14930 1.34439   4
  -1 -11   1 3.40133 2.49710   3
  -1 -11  -1 2.67695 2.55403   3
 -11  12   1-0.51858 2.80802   3
 -12   1  -1 1.18743 3.69841   1
 -12   1   1 3.84422 3.61902   1
  11 -12  -1 7.71108 4.00287   1
  11 -12   1 2.88535 3.78919   1
  -1 -11  -1 0.68342 2.24387   1
  -1 -11   1 0.42517 2.43392   1
  12  -1  -1-1.59067 3.30294   1
  12  -1   1 7.02609 4.61347   1
 -12   1   2 195.513 12.4392   1
  11 -12  -2 218.015 12.1941   1
 -12   1  -2 167.378 10.8619   1
  11 -12   2 214.115 13.5246   1
  -1 -11  -2 206.821 9.58042   4
 -11  12   2 171.722 9.59948   4
  -1 -11  -2 191.300 10.4967   3
  -1 -11   2 198.219 10.2401   3
 -11  12   2 189.755 10.8113   3
 -11  12  -2 176.418 11.5723   3
  -1 -11   2 186.202 9.74326   2
  12  -1  -2 194.891 9.34022   2
  -1 -11  -2 196.696 9.32144   2
  12  -1   2 204.899 11.4250   2
  -1 -11  -2 202.003 9.12982   1
  12  -1   2 183.491 13.8082   1
  12  -1  -2 199.061 13.0794   1
  -1 -11   2 197.943 10.7093   1
  -1 -11  -3 3.71594 2.56146   4
 -11  12   3 7.90434 2.84099   4
 -11  12   3 5.32238 3.00046   3
  -1 -11   3 1.56775 2.60153   3
  -1 -11   3 0.49643 2.98956   1
 -11  12  -3 4.61738 3.57333   3
  12  -1  -3 4.61702 2.60636   2
  12  -1   3 5.39813 3.10304   2
  -1 -11  -3 3.75743 2.32876   2
  -1 -11   3 1.61145 2.69994   2
  12  -1   3 2.65018 4.02023   1
  -1 -11  -3 5.59752 2.12495   1
  11 -12  -3 3.24535 1.43577   2
 -12   1   3 7.84651 3.05813   2
  11 -12  -3 4.24693 3.59051   1
 -12   1   3 11.5224 4.49612   1
 -12   1   4 37.7621 6.39442   1
  -1 -11   4 27.5770 4.40189   2
  12  -1   4 32.1405 5.82037   2
 -11  12   4 18.2169 3.78936   4
  -1 -11  -4 24.8869 4.09518   4
 -11  12   4 28.9712 4.21670   3
  -1 -11  -4 23.0289 4.02888   3
  -1 -11  -4 23.0727 3.55532   2
 -12   1   4 17.8648 3.73532   2
  11 -12  -4 22.3894 4.28776   1
  12  -1   4 19.5357 5.66876   1
  -1 -11   4 20.4003 3.55353   3
 -11  12  -4 17.1814 5.22384   3
  12  -1  -4 29.9764 5.32359   1
  -1 -11  -4 25.9065 2.53008   1
  -1 -11   4 23.8518 4.58256   1
  -1 -11  -5-0.87475 2.95680   4
 -11  12   5-1.51195 2.74140   3
  -1 -11  -5-0.44505 2.61380   3
  -1 -11   5 0.69605 2.28523   3
 -11  12  -5-5.61490 3.74399   3
 -12   1   5 0.39605 2.91909   2
  12  -1   5 1.57892 3.80924   1
  11 -12  -5-0.43791 2.72788   1
  -1 -11   5 0.56268 3.34563   1
  12  -1   6 72.5899 7.97193   1
 -12   1   6 87.2634 6.58498   2
  11 -12  -6 94.0837 6.70513   1
 -11  12   6 87.1191 6.34003   3
  -1 -11  -6 78.0188 6.88244   4
 -11  12  -6 96.0984 8.90181   3
  -1 -11   6 93.0140 6.10851   3
 -12   1   7 6.75419 3.06254   4
 -11  12   7 8.08646 2.99368   3
 -11  12  -7 9.08852 4.43326   3
  12  -1   7 6.80943 3.63977   1
 -12   1   7 3.31857 3.06751   2
 -12   1   8 4.23246 3.14347   2
  -2 -10   0 32.5017 4.26728   3
 -10  12   0 41.7026 5.50725   3
  -2 -10   0 40.9577 4.19654   2
  12  -2   0 38.6743 4.29414   2
  10 -12   0 37.9167 5.65466   1
 -12   2   0 34.6974 5.64605   1
  -2 -10   0 32.7955 4.09885   1
  12  -2   0 31.5818 6.48755   1
  -2 -10   0 40.0347 3.41853   4
 -10  12   1 2.55525 2.24877   4
  -2 -10  -1-1.27717 2.43721   3
  -2 -10   1 3.24681 2.55631   3
 -10  12   1 0.50835 2.62851   3
  -2 -10   1-0.41443 2.43417   1
  10 -12  -1 3.62388 3.31823   1
  10 -12   1 2.01616 3.41832   1
 -12   2   1 1.31626 3.45727   1
 -12   2  -1 0.59520 2.97656   1
  12  -2   1 3.50864 2.76242   2
  12  -2  -1 4.01349 2.08372   2
  -2 -10  -1 2.58645 1.89911   2
  -2 -10   1 3.83572 2.44492   2
  -2 -10  -1 0.66126 1.96624   1
  12  -2  -1-2.32913 4.01415   1
  -2 -10   1 1.94163 1.38161   4
  -2 -10  -1-0.87141 1.98244   4
  12  -2   1 0.87414 4.05874   1
  -2 -10  -2 11.7564 2.81173   4
  -2 -10   2 11.6908 1.42782   4
 -10  12   2 11.7853 2.98423   4
  -2 -10  -2 17.7065 3.53639   3
  -2 -10   2 12.4719 3.02665   3
 -10  12   2 18.4181 4.08187   3
 -10  12  -2 14.2753 4.32716   3
 -12   2   2 12.6310 4.37910   1
  10 -12  -2 15.0525 3.92414   1
  -2 -10  -2 15.2431 2.97150   2
  12  -2   2 15.0074 3.86025   2
  12  -2  -2 16.5633 2.99423   2
  -2 -10   2 10.7096 2.89045   2
  -2 -10  -2 10.1285 2.46190   1
  -2 -10   2 14.5134 3.54101   1
  12  -2   2 17.2416 5.53672   1
  12  -2   3 2.79176 4.88968   1
  -2 -10  -3 1.11858 2.52340   4
 -10  12   3 6.97772 2.85466   4
  -2 -10   3 6.30537 2.62567   3
 -10  12   3 5.64684 2.82594   3
 -10  12  -3 7.10520 3.55043   3
  10 -12  -3 3.99153 2.85848   1
 -12   2   3 4.78315 3.96427   1
  12  -2   3 5.95523 3.45547   2
  12  -2  -3 5.39167 2.35985   2
  -2 -10   3 4.73383 2.71924   2
  -2 -10  -3 3.66468 1.95289   1
  12  -2  -3 2.70531 3.38411   1
  -2 -10   3 1.47103 2.88216   1
  -2 -10  -3 4.53112 2.46286   2
 -10  12   4 16.3923 3.49474   4
  -2 -10  -4 14.2113 3.33546   4
  -2 -10  -4 16.2733 3.18828   2
  -2 -10   4 17.7414 3.22569   3
 -10  12   4 16.8537 3.48136   3
  -2 -10  -4 18.1380 3.78560   3
 -10  12  -4 10.5900 3.91009   3
  10 -12  -4 10.4845 3.51614   1
  -2 -10   4 14.7928 3.52263   2
  12  -2   4 18.1932 4.44456   2
  12  -2  -4 18.4301 4.47547   1
  12  -2   4 21.4075 6.06480   1
  -2 -10  -4 16.1694 2.15769   1
  -2 -10   4 15.2196 3.98167   1
  -2 -10   5 0.32195 2.25729   3
  -2 -10  -5 0.42583 2.50100   3
 -10  12   5 1.85447 2.43549   3
 -10  12  -5 1.32156 3.78254   3
 -10  12   5 0.91033 2.77169   4
  -2 -10  -5 0.86754 3.27240   4
  -2 -10   5 1.27093 2.78182   2
  10 -12  -5 4.88535 3.14035   1
  12  -2   5 4.54250 4.21819   1
  12  -2   5-0.75384 3.42942   2
 -12   2   5 1.55186 2.67189   2
  12  -2  -5 0.60230 3.01201   1
  -2 -10   5-1.11351 3.05870   1
 -10  12   6 7.17143 2.91570   3
  -2 -10  -6 8.37528 3.14374   3
 -12   2   6 11.8198 3.17081   2
  -2 -10   6 6.79101 2.35415   3
 -10  12  -6 11.3724 4.07133   3
  -2 -10  -6 12.7708 3.86556   4
  10 -12  -6 11.4648 3.26801   1
  12  -2   6 0.85772 4.22095   1
  12  -2   7 1.56154 4.22837   1
 -12   2   7 4.92469 2.95913   2
 -12   2   7 3.17059 3.05821   4
 -10  12  -7 1.72642 3.89126   3
  12  -2   8 6.82740 4.34679   1
 -12   2   8 1.33815 2.81370   2
 -10  12  -8 1.00335 3.51760   3
  -9  12   0 166.961 10.3806   3
  -3  -9   0 172.136 7.77461   4
  -3  -9   0 175.567 8.91073   1
  -3  -9   0 159.780 8.47026   2
  12  -3   0 154.698 8.58811   2
  -9  12   0 147.277 8.22627   4
 -12   3   0 155.910 10.7483   1
  12  -3   0 166.353 12.1964   1
  -3  -9  -1 8.95056 2.27669   4
  -3  -9   1 9.85020 1.99970   4
  -9  12   1 3.70359 2.31585   4
  -3  -9   1 10.1789 2.89254   3
  -9  12   1 6.55523 3.11250   3
 -12   3  -1 8.34896 3.67881   1
   9 -12  -1 13.5208 3.43636   1
 -12   3   1 2.65547 2.96332   1
  -3  -9  -1 8.39531 2.58719   1
  -3  -9   1 6.89626 2.82613   1
  -3  -9   1 4.20441 2.39931   2
  12  -3  -1 9.60849 2.66777   2
  -3  -9  -1 4.69650 2.40124   2
  12  -3   1 8.77729 2.74120   2
  12  -3   1 11.8761 4.59756   1
   9 -12  -2 117.090 8.52428   1
 -12   3   2 136.696 10.4075   1
  -3  -9   2 124.516 8.19666   1
  -3  -9  -2 121.112 6.69666   1
  12  -3  -2 126.658 6.83017   2
  -3  -9   2 130.461 7.67155   2
  12  -3   2 131.957 8.85857   2
  -3  -9  -2 130.213 7.36294   2
  12  -3   2 145.846 11.9623   1
  -3  -9   2 125.245 5.33511   4
  -9  12   2 115.874 7.46653   4
  -3  -9  -2 129.181 7.33220   4
  -9  12  -2 126.515 9.38361   3
  -9  12   2 133.082 8.52438   3
  -3  -9   2 124.397 7.53541   3
  -9  12   3 6.61402 2.77573   4
  -3  -9   3 5.93631 0.79928   4
  12  -3   3 8.31487 4.46255   1
  -3  -9  -3 9.02257 2.20054   1
  -9  12   3 5.99986 3.14032   3
  -9  12  -3 8.65030 3.89687   3
  -3  -9   3 7.05649 2.56719   3
  12  -3  -3 17.9263 2.71589   2
  -3  -9   3 8.78770 2.84583   2
  -3  -9   3 9.08993 3.33090   1
  12  -3  -3 15.9890 4.28756   1
  12  -3   3 11.6925 3.60695   2
  -3  -9  -3 8.69554 2.64328   2
   9 -12  -3 11.6642 3.39008   1
 -12   3   3 10.4064 4.32646   1
  -3  -9   4 89.0816 6.00629   3
  -9  12  -4 84.7121 7.93299   3
  -9  12   4 101.956 6.86400   3
  -3  -9   4 100.842 7.70216   1
  12  -3  -4 92.7832 8.15332   1
  -3  -9   4 98.3021 6.98873   2
  12  -3   4 98.1263 8.71616   2
  -3  -9  -4 98.1687 4.90963   1
  -3  -9  -4 91.1575 6.32302   2
   9 -12  -4 84.7354 6.57642   1
  12  -3   4 83.3443 9.83465   1
  -3  -9  -4 96.2112 6.83142   4
  -9  12   4 83.6966 6.71842   4
  12  -3   5 5.22031 4.54410   2
  -9  12   5 7.60315 2.89691   3
  -9  12  -5 6.57432 3.55755   3
  -3  -9   5 4.53024 2.24979   3
  12  -3   5 6.69264 5.10282   1
   9 -12  -5 8.61341 3.01625   1
  -3  -9   5 7.61135 3.50163   1
  12  -3  -5 9.75708 3.73444   1
 -12   3   5 8.78159 4.24700   1
  -3  -9  -5 5.69375 1.08353   1
   3   9   5 7.15137 2.86114   2
  -3  -9  -5 5.62822 2.84763   4
  -9  12   5 5.06829 2.74466   4
  12  -3  -6 62.3135 6.82557   1
   3   9   6 72.8871 5.73266   2
   9 -12  -6 65.3894 5.35851   1
  12  -3   6 55.0315 8.50947   1
 -12   3   6 73.0256 8.55622   1
  -9  12  -6 67.0087 7.00226   3
  -3  -9  -6 72.1772 6.04422   3
  -3  -9   6 65.9631 4.92861   3
  -3  -9  -6 75.3529 6.65444   4
  -9  12  -7 4.01007 3.35920   3
 -12   3   7 5.40970 2.93153   2
  12  -3   7 4.57929 4.66007   1
 -12   3   7 5.38384 3.17408   4
   3   9   7 5.28760 2.76145   2
  12  -3   8 30.5093 6.90835   1
   3   9   8 26.9749 3.86444   2
  -9  12  -8 32.4190 4.69954   3
 -12   3   8 32.2772 4.09935   2
  -4  -8   0 436.023 15.7074   4
  -8  12   0 418.499 16.5188   4
  12  -4   0 422.525 16.7927   2
  -4  -8   0 423.186 16.5479   2
  -8  12   0 491.815 19.4541   3
 -12   4   0 452.892 20.1340   1
  -4  -8   0 461.779 17.1525   1
  -4  -8   1 1.83236 1.66144   4
  -4  -8  -1 2.75002 1.96603   4
  -8  12   1-0.37410 2.11330   4
  -8  12  -1 1.94950 1.70703   4
  -8  12   1-0.98817 2.59555   3
 -12   4   1 2.01378 3.23903   1
  -4  -8  -1 0.98414 1.99776   1
  -4  -8   1 0.40139 2.23654   1
  -4  -8  -1 4.50601 2.61501   2
  -4  -8   1 0.34979 2.13016   2
  12  -4  -1 1.22211 1.83891   2
  12  -4   1 1.73149 2.16485   2
  12  -4   1-1.61168 3.50994   1
  -8  12  -2 710.356 25.7023   4
  -8  12   2 825.175 28.6161   3
  -8  12  -2 886.326 30.6303   3
 -12   4   2 829.214 31.6601   1
  -4  -8   2 817.630 28.2694   1
  -4  -8  -2 787.916 26.8647   2
  12  -4   2 811.050 29.0786   2
  12  -4  -2 824.691 25.8327   2
  -4  -8   2 795.581 27.1004   2
  -4  -8   2 829.647 24.6426   4
  -8  12   2 787.885 27.4810   4
  -4  -8  -2 778.630 26.6836   4
  12  -4  -2 833.402 31.1735   1
  -4  -8  -2 820.318 26.1428   1
  12  -4   2 849.298 33.5440   1
   8 -12  -2 863.088 29.0178   1
  -8  12   3 0.84803 2.55205   4
  -4  -8   3 1.14162 1.17868   4
  -4  -8  -3 3.34770 2.44275   4
  -4  -8  -3-0.24821 1.75584   1
  12  -4   3 5.29312 4.17726   1
  -4  -8   3-0.68413 2.03434   3
  -8  12  -3 8.73434 3.50444   3
  -8  12   3 1.67815 2.67115   3
  -4  -8   3 5.24962 2.48698   2
   4   8   3 2.59705 2.53201   2
   8 -12  -3 2.41195 1.18945   2
  12  -4  -3 1.45941 1.75008   2
  12  -4  -3 6.80826 3.76902   1
  -4  -8   3-0.47667 2.61898   1
  12  -4   3-1.14641 3.01128   2
  -4  -8  -3-0.35311 2.12546   2
   8 -12  -3 3.08872 2.71822   1
  -8  12   4 254.422 11.7570   3
  -4  -8   4 245.721 10.7269   3
  -8  12  -4 244.575 13.2647   3
  12  -4  -4 228.882 12.8964   1
  -4  -8   4 276.699 13.2786   1
  12  -4  -4 257.322 9.83257   2
   4   8   4 266.136 11.7712   2
   8 -12  -4 237.515 7.18413   2
  12  -4   4 269.285 14.6124   2
  12  -4   4 259.593 16.5761   1
  -4  -8  -4 237.502 11.4543   2
 -12   4   4 256.902 15.0354   1
  -4  -8  -4 246.013 9.43152   1
   8 -12  -4 243.133 11.4796   1
  -8  12   4 253.924 12.3959   4
  -4  -8  -4 273.908 12.0922   4
  12  -4   5 0.75903 3.92513   2
  -8  12  -5 3.21773 3.30431   3
  -4  -8   5 1.43404 1.94063   3
  12  -4   5 8.51219 5.19647   1
 -12   4   5 1.48156 4.12808   1
  -4  -8  -5 2.28833 1.23589   1
  -4  -8   5 5.96203 3.22371   1
  12  -4  -5 8.26707 3.39575   1
   4   8   5 4.58872 2.65848   2
   8 -12  -5 1.70723 2.28785   1
  -8  12   5 5.72466 3.16462   4
  -4  -8  -5 3.38402 2.48561   4
  12  -4  -6 388.353 16.8191   1
  -4  -8   6 374.327 17.0500   1
  -4  -8   6 357.224 15.3893   2
   4   8   6 379.895 15.2221   2
   8 -12  -6 348.643 13.5691   1
  -8  12  -6 344.023 15.8171   3
  -4  -8   6 324.124 13.0164   3
  -4  -8  -6 351.109 15.5148   4
  -8  12   6 363.482 16.1147   4
  12  -4   6 353.033 20.6922   1
 -12   4   6 366.065 18.9073   1
  -8  12  -7 1.74288 2.91847   3
   4   8   7 1.18280 2.76496   2
 -12   4   7 5.58478 3.11643   4
  12  -4   7 1.95217 5.58770   1
  12  -4   8 51.3246 8.86604   1
  -8  12  -8 38.8728 4.89560   3
   4   8   8 51.5107 5.31647   2
   4   8   9 7.05505 3.08756   2
  12  -4   9 1.77079 5.98727   1
  -7  12   0 15.2862 2.92212   4
  -5  -7   0 17.1832 3.23968   1
   7 -12   0 9.29591 3.16813   3
  12  -5   0 17.4006 3.21659   2
  -5  -7   0 12.9267 2.91313   2
  -5  -7   1 27.3289 3.70142   2
  -5  -7  -1 29.7963 3.83022   2
  -7  12  -1 27.5513 3.39400   4
  -7  12   1 29.2786 3.84221   4
  -5  -7  -1 26.7307 3.61873   1
  12  -5   1 23.6467 5.16208   1
  12  -5  -1 26.6695 5.01540   1
  -7  12   1 29.1761 4.18593   3
   7 -12  -1 26.8027 4.39800   3
  12  -5  -1 32.8844 3.68525   2
  -5  -7   1 25.6108 3.79209   1
 -12   5   1 24.5979 5.13046   1
  12  -5   1 28.0472 4.14962   2
  -7  12  -2 195.413 11.2748   3
  -7  12   2 192.382 10.3174   3
  -5  -7   2 186.026 10.1493   1
   5   7   2 195.282 9.78968   2
  12  -5  -2 185.385 8.30632   2
  12  -5   2 181.162 10.5683   2
  -5  -7   2 182.602 9.45437   2
  -5  -7  -2 181.406 9.38222   2
  -7  12   2 190.980 10.0304   4
  -7  12  -2 188.876 8.77181   4
  12  -5   2 195.948 13.2275   1
  12  -5  -2 194.369 11.7860   1
  -5  -7  -2 201.330 9.19995   1
 -12   5   2 190.667 12.5201   1
   7 -12  -2 171.795 10.0134   1
   7 -12  -3 5.69330 2.68048   1
  12  -5   3 10.0201 4.59317   1
  -7  12  -3 8.09972 2.19617   4
  -7  12  -3 12.8762 3.76859   3
  -7  12   3 7.83366 2.74417   3
   7 -12  -3 12.6723 3.30320   3
  -5  -7   3 7.56108 3.14256   1
  12  -5  -3 10.6884 3.86688   1
  -5  -7  -3 10.0441 2.87901   4
  -7  12   3 4.87549 2.77087   4
   5   7   3 8.97623 2.67340   2
   7 -12  -3 8.49469 1.40978   2
  12  -5  -3 10.6848 2.19341   2
  -5  -7  -3 9.23994 2.39225   1
  12  -5   3 13.3468 3.77927   2
  -5  -7  -3 5.99934 2.66203   2
  12  -5  -4 8.09920 2.08892   2
   5   7   4 9.43606 3.08064   2
   7 -12  -4 8.49969 1.17795   2
  -7  12  -4 9.45738 2.15576   4
  -7  12  -4 10.2924 3.67829   3
   7 -12  -4 8.02085 3.06177   3
  -5  -7   4 9.64929 3.44146   1
  12  -5  -4 11.7333 3.85507   1
  -7  12   4 8.44227 3.08878   4
  -5  -7  -4 11.5566 2.99288   4
   7 -12  -4 8.85911 2.62264   1
  12  -5   4 6.04762 4.54443   1
 -12   5   4 8.24303 4.18188   1
  -5  -7  -4 8.42833 2.07329   1
  12  -5   4 9.47692 3.83091   2
  -5  -7   5 31.1189 1.83009   4
   5   7   5 31.7919 4.34766   2
  -5  -7   5 38.9227 4.48163   2
  -7  12   5 37.1343 4.94291   4
  -5  -7  -5 37.0598 4.66098   4
  -5  -7   5 32.3153 3.59396   3
  -7  12  -5 34.4354 4.69685   3
   7 -12  -5 39.5386 5.30937   3
   7 -12  -5 30.7568 3.69415   1
 -12   5   5 42.0376 6.75206   1
  12  -5   5 28.7885 6.52928   1
  -5  -7   5 31.2945 4.83232   1
  12  -5  -5 25.1277 4.51352   1
  12  -5   5 29.6929 6.38523   2
 -12   5   6 103.560 9.72331   1
  12  -5   6 71.3670 9.13316   1
  -5  -7  -6 62.9715 6.14581   4
  -7  12   6 57.2261 6.29483   4
 -12   5   6 84.5318 6.51674   4
  -7  12  -6 81.0294 6.60057   3
  -5  -7   6 62.5642 4.43045   3
 -12   5   6 78.8611 5.63761   3
   7 -12  -6 63.2681 6.55390   3
   5   7   6 66.8181 6.07087   2
  -5  -7   6 81.6932 6.24316   2
   7 -12  -6 64.3632 4.63458   1
  -5  -7   6 64.1214 6.84772   1
  12  -5  -6 84.5318 7.16849   1
  12  -5   6 69.8023 8.81066   2
  -7  12  -7 2.14400 1.11566   4
 -12   5   7 3.53749 3.41194   4
  -7  12  -7 2.29450 2.61102   3
  12  -5  -7 12.5980 4.02532   1
 -12   5   7 14.8243 5.42244   1
  12  -5   7 7.75403 5.32543   1
   5   7   7 1.73629 2.82294   2
   7 -12  -7 3.43500 3.73089   3
 -12   5   7 4.32244 2.27340   3
   5   7   8-0.42557 3.03565   2
  12  -5   8 1.95706 5.37574   1
  -7  12  -8 2.31920 2.49964   3
   5   7   9 16.8077 3.79408   2
  12  -5   9 15.1772 6.89362   1
  -6  12   0 40.6550 4.20192   4
  12  -6   0 51.5358 4.61189   2
  -6  -6   0 54.2120 4.91247   2
   6 -12   0 53.4455 5.37953   3
   6   6   0 45.1567 4.75733   1
  -6  -6   0 47.3735 4.71227   1
  -6  12   1 9.01180 2.66371   4
  -6  12  -1 12.2497 2.63689   4
  -6  -6   1 14.2148 3.11855   1
  12  -6  -1 12.6269 4.10314   1
  -6  -6  -1 13.8374 2.98049   1
  -6  12   1 4.60785 2.54699   3
  -6  12  -1 11.8911 3.32962   3
   6 -12   1 10.3330 3.14505   3
   6 -12  -1 6.76159 2.81489   3
  12  -6  -1 9.16566 2.34662   2
  -6  -6   1 10.3177 2.79407   2
  -6  -6  -1 12.6790 2.86937   2
  12  -6   1 14.8066 3.17963   2
   6   6   1 10.1215 2.64670   1
  12  -6   2 327.197 17.4073   1
  -6  12  -2 334.705 15.1427   3
   6 -12   2 303.230 14.5570   3
   6 -12  -2 326.107 11.1396   2
   6   6   2 324.910 13.8360   2
  -6  -6  -2 288.351 13.2636   2
  12  -6  -2 344.828 12.0817   2
  12  -6   2 312.545 14.9061   2
  -6  12  -2 299.336 11.9146   4
  -6  12   2 284.513 13.5672   4
  -6  -6  -2 313.641 12.9995   1
  12  -6  -2 335.278 16.3083   1
  -6  -6   2 316.643 14.4023   1
   6   6   3 13.2909 3.36182   2
   6 -12  -3 9.72334 1.66870   2
  12  -6  -3 8.11476 1.90492   2
  -6  -6   3 10.1924 3.40974   1
  -6  -6  -3 6.04393 2.78348   2
  12  -6   3 16.0644 4.06589   2
  -6  12  -3 5.35655 2.75928   3
   6 -12  -3 11.9203 3.40799   3
  12  -6  -3 12.0967 3.71238   1
   6 -12  -3 6.39101 2.69043   1
  -6  -6  -3 7.77879 2.35123   1
  12  -6   3-0.79159 4.09850   1
 -12   6   3 7.45361 4.15860   1
  -6  12   3 8.62106 3.01695   4
  -6  12  -3 7.00876 1.76809   4
  -6  12   4 40.4299 4.92254   4
  -6  -6  -4 34.0457 3.46468   1
   6 -12  -4 43.0724 4.33938   1
  -6  12  -4 36.4833 4.88175   3
   6   6   4 52.2255 5.27055   2
  12  -6  -4 41.9184 3.09595   2
   6 -12  -4 36.5604 4.77387   3
   6 -12  -4 46.3748 2.58438   2
  -6  -6   4 45.0565 4.58150   2
  -6  12  -4 36.4748 2.65607   4
 -12   6   4 47.0071 6.69555   1
  12  -6   4 43.1150 7.01621   1
  12  -6  -4 41.0607 5.28123   1
  -6  -6   4 38.3020 5.15972   1
  -6  -6   5 7.69282 2.92787   2
   6   6   5 9.00260 3.20704   2
  -6  12  -5 9.34834 3.32855   3
 -12   6   5 4.60705 2.28544   3
   6 -12  -5 7.57757 3.26531   3
  -6  12  -5 4.09480 0.87814   4
  -6  -6  -5 8.94995 3.19459   4
  -6  12   5 8.06354 3.41063   4
 -12   6   5 13.1379 4.97440   1
  12  -6   5 10.4142 5.58552   1
   6 -12  -5 8.37339 2.48804   1
  12  -6  -5 3.56218 3.02989   1
  -6  -6   5 15.9180 3.91825   1
 -12   6   6 150.157 8.85299   4
  -6  -6   6 140.331 6.85956   3
  -6  12  -6 132.316 8.17739   3
 -12   6   6 147.004 7.73559   3
   6 -12  -6 155.862 9.39770   3
  12  -6   6 179.514 13.3520   1
 -12   6   6 169.832 12.2787   1
  -6  -6   6 140.144 8.38500   2
   6   6   6 142.324 9.25760   2
  -6  -6   6 140.191 9.94142   1
  12  -6  -6 140.505 9.17506   1
   6 -12  -6 143.502 6.59824   1
  -6  -6  -6 147.535 8.99563   4
  -6  12   6 137.238 9.37985   4
 -12   6   7 3.25165 2.11142   3
   6 -12  -7 5.61925 3.22884   3
  12  -6   7 3.81293 5.08742   1
 -12   6   7 8.67623 4.97015   1
   6   6   7 8.35094 3.50750   2
  -6  -6   7 8.38718 3.21588   2
  12  -6  -7 8.85176 3.46467   1
  12  -6   8 28.2941 7.27764   1
   6   6   8 28.9008 4.82075   2
   6 -12  -8 19.9215 4.24440   3
   6 -12  -9 4.97533 3.61545   3
   7   5   0-0.36857 1.99567   2
   5 -12   0 0.92823 2.43799   3
  -7  -5   0 0.76834 2.04933   2
  12  -7   0 4.59826 2.50146   2
  -5  12   0-0.31659 1.85934   4
   7   5   0 0.44693 2.11623   1
  -7  -5   0-1.25712 2.36693   1
  12  -7   0 3.44248 3.13208   1
  -5  12   1 10.3514 2.73165   4
  -5  12  -1 7.26570 2.05373   4
  -7  -5  -1 7.76918 2.86963   2
  12  -7   1 6.94580 2.82840   2
   7   5  -1 8.60045 3.04787   1
   7   5   1 12.3483 3.01578   1
   5 -12  -1 5.56214 2.79608   3
   5 -12   1 8.35680 2.89844   3
   5 -12  -1 5.38125 1.86066   2
  -7  -5   1 4.19112 2.55862   2
  12  -7  -1 7.82365 2.24343   2
  -7  -5   1 3.08707 2.75392   1
  -7  -5  -1 8.29915 2.75299   1
  12  -7  -1 9.76934 3.78178   1
   7   5   2 104.936 6.68717   1
   7   5  -2 96.0957 7.41686   1
   5 -12   2 85.1836 6.77598   3
   5 -12  -2 100.997 5.02923   2
   7   5   2 85.6733 6.68093   2
  12  -7  -2 93.8822 5.25132   2
  -7  -5   2 94.0840 7.18144   1
  12  -7  -2 90.5370 7.91123   1
  -7  -5  -2 86.6059 6.63058   2
  -7  -5  -2 94.0567 6.47292   1
  12  -7   2 80.3712 8.22917   1
  -5  12   2 97.6046 6.84654   4
  -5  12  -2 85.3308 4.70177   4
  -7  -5   3 4.09457 2.65503   2
  12  -7  -3 0.72631 1.39048   2
   5 -12  -3-0.31627 1.31347   2
   7   5   3 1.37329 2.55048   2
   7   5   3 2.64739 2.10673   1
   5 -12   3-1.86093 2.59209   3
 -12   7   3-0.43180 2.47175   3
   5 -12  -3 1.83375 2.44550   3
  -5  12  -3 0.11867 0.98569   4
  -5  12   3 0.45570 2.31775   4
   7   5  -3 2.63327 3.01469   1
  12  -7   3 0.77677 3.53367   1
 -12   7   3 0.76119 4.12149   1
  -7  -5  -3 1.97960 2.31310   1
  -7  -5   3-0.99397 2.61065   1
  12  -7  -3 0.56932 2.99058   1
   7   5   4 1.95568 1.81618   1
 -12   7   4 0.39312 2.36590   3
   5 -12  -4-1.37307 2.40430   3
   7   5   4 1.49307 2.88621   2
   5 -12  -4 2.71254 1.30588   2
  12  -7  -4-0.14776 1.32342   2
  -7  -5   4-1.86868 2.35389   2
  -7  -5   4-0.52951 2.82468   1
  12  -7  -4 1.05347 2.67912   1
  -5  12   4-1.46588 2.64580   4
  12  -7   4-0.81571 3.86234   1
 -12   7   4 2.32152 3.80243   1
  -7  -5  -4 2.88746 2.16183   1
   5 -12  -4 3.58087 2.11043   1
   7   5   5 7.37628 1.97415   1
   7   5   5 6.91521 3.56778   2
  -7  -5   5 6.12317 2.93755   2
  -7  -5   5 17.4205 4.52369   1
  12  -7  -5 11.4467 3.70277   1
   5 -12  -5 7.31067 3.18163   3
 -12   7   5 7.71152 2.59157   3
  -5  12   5 7.72655 3.58522   4
  12  -7   5 7.81504 4.63649   1
   5 -12  -5 5.87024 2.12383   1
 -12   7   5 6.22801 4.40200   1
 -12   7   6 46.3954 5.10621   4
 -12   7   6 40.6079 4.19692   3
   5 -12  -6 52.8744 5.47221   3
  -7  -5   6 43.2705 3.06889   4
  -7  -5   6 50.1387 5.04434   2
  -7  -5   6 44.8688 6.15027   1
  12  -7  -6 42.7250 5.33152   1
   7   5   6 47.8144 5.98698   2
  -7  -5  -6 46.7677 5.23842   4
  -5  12   6 34.5085 5.22314   4
  12  -7   6 56.4312 8.19625   1
 -12   7   6 53.6750 7.67177   1
  12  -7  -7-0.44973 3.01216   1
 -12   7   7-0.77613 4.32472   1
  -7  -5   7 2.72099 2.88839   2
   7   5   7-0.56296 3.38852   2
 -12   7   7 6.63567 2.39564   3
   5 -12  -7 0.45114 2.96295   3
   5 -12  -8 0.44561 3.06882   3
 -12   7   8 5.36555 4.72138   1
  12  -7   8 1.93416 5.15876   1
  12  -7  -8-0.86160 2.91240   1
   5 -12  -9 4.80426 3.44370   3
   8   4   0 117.237 8.22987   1
   4 -12   0 118.030 7.97976   3
   8   4   0 136.513 7.91617   2
   4 -12   0 127.411 6.87566   2
  -8  -4   0 139.574 8.13855   2
  -8  -4   0 141.134 8.72217   1
  12  -8   0 133.714 7.73615   2
  -4  12   0 121.002 6.67043   4
  12  -8   0 137.667 10.1577   1
  12  -8  -1 62.7930 7.03837   1
   8   4  -1 55.2797 5.83954   1
   8   4   1 57.2468 5.61248   1
 -12   8   1 71.1611 6.28662   3
   4 -12  -1 65.6010 5.80844   3
   4 -12   1 61.8769 5.67649   3
   8   4   1 76.7238 5.94554   2
   4 -12  -1 74.5531 4.56114   2
   8   4  -1 62.4565 5.16719   2
  -8  -4  -1 54.8047 5.32376   2
  12  -8  -1 67.3695 4.72426   2
  -8  -4   1 53.7729 5.57159   1
  -8  -4  -1 61.9439 5.78833   1
  12  -8   1 57.5855 6.94620   1
  -4  12   1 66.3821 5.10959   4
   4 -12   2 395.663 17.0436   3
 -12   8   2 429.663 17.7326   3
  -4  12   2 427.043 16.7719   4
   4 -12  -2 417.187 14.2590   2
  12  -8  -2 434.318 14.6058   2
  -8  -4   2 431.916 16.7121   2
  -8  -4  -2 421.386 16.8140   1
  12  -8  -2 440.603 19.2367   1
  -8  -4   2 424.410 18.0207   1
   8   4   2 391.957 16.7031   1
   8   4  -2 413.150 18.1873   1
  -8  -4  -2 385.554 16.8377   2
  -4  12   3 31.5554 4.31672   4
  -8  -4  -3 31.1090 3.93436   1
  12  -8   3 22.2106 5.21202   1
   8   4  -3 21.4285 4.18332   1
   8   4   3 28.4281 3.70291   1
   4 -12  -3 27.5032 4.10871   3
   4 -12   3 34.4721 4.55961   3
 -12   8   3 24.0583 3.98220   3
  12  -8  -3 26.3779 2.47170   2
   4 -12  -3 31.5703 2.75521   2
  12  -8  -3 30.5524 4.81807   1
  -8  -4   3 25.5748 4.71066   1
   8   4   3 42.2269 5.17252   2
  -8  -4   3 25.0020 3.77232   2
   8   4   4 68.8902 5.24203   1
   4 -12  -4 58.9235 5.71552   3
 -12   8   4 70.7538 5.69896   3
   4 -12   4 69.8743 5.95964   3
  12  -8  -4 73.9249 3.62183   2
   8   4   4 70.5183 6.76438   2
   4 -12  -4 69.6236 3.97746   2
  -8  -4   4 68.3291 5.64520   2
  -8  -4   4 56.1277 6.12883   1
  12  -8  -4 55.1750 6.23457   1
  -8  -4  -4 65.3710 5.19281   1
   4 -12  -4 69.4623 4.85259   1
  12  -8   4 64.6638 7.98789   1
  -4  12   4 81.7684 6.76378   4
   8   4   5 65.2597 4.72845   1
   4 -12  -5 72.0375 6.25448   3
 -12   8   5 63.6387 5.34636   3
   8   4   5 53.5566 6.58168   2
  -8  -4   5 61.6837 5.48813   2
  -8  -4   5 52.6880 6.28178   1
   4 -12  -5 65.1194 4.12615   1
  12  -8   5 76.6585 8.96908   1
  12  -8  -5 67.6880 6.17345   1
 -12   8   5 77.9378 6.19579   4
   8   4   6 147.697 6.63158   1
 -12   8   6 136.712 7.58608   3
   4 -12  -6 131.632 8.75304   3
  -8  -4   6 136.199 10.0710   1
  12  -8   6 154.641 12.6526   1
 -12   8   6 156.881 11.9775   1
   8   4   6 154.219 10.6240   2
  -8  -4   6 138.892 8.31744   2
 -12   8   6 152.506 9.02557   4
  -8  -4   6 142.589 6.51516   4
  12  -8  -6 137.398 8.92054   1
  12  -8   7 7.35011 5.46593   1
 -12   8   7 3.78767 4.66969   1
   8   4   7 7.70753 1.63103   1
 -12   8   7 6.23140 2.35972   3
   4 -12  -7 7.02839 3.29379   3
  -8  -4   7 4.99045 3.00929   2
   8   4   7 7.56381 4.10127   2
  12  -8  -7 7.77895 3.24065   1
  12  -8  -8 6.60513 3.47538   1
   4 -12  -8 6.54528 3.41835   3
 -12   8   8 5.17572 4.85781   1
   3 -12   0 566.014 19.7341   2
   9   3   0 622.007 21.5202   2
   9   3   0 546.368 22.7087   1
   3 -12   0 578.102 21.8108   3
 -12   9   0 575.389 23.0075   3
  -9  -3   0 573.639 22.4102   1
  12  -9   0 585.570 24.6396   1
  -9  -3   1 7.73171 3.55194   1
   9   3  -1 1.70423 2.64061   1
   9   3   1 4.71074 2.87824   1
  12  -9   1 9.32807 4.16299   1
  12  -9  -1 1.93597 3.39219   1
  -9  -3  -1 6.55803 3.19895   1
 -12   9   1 2.51752 2.56401   3
   3 -12  -1 7.58431 3.01864   3
 -12   9  -1 8.50503 3.45489   3
   3 -12   1 7.44860 2.82169   3
   3 -12   1 5.46267 2.23653   2
   9   3  -1 2.53267 2.37908   2
   3 -12  -1 4.77353 2.05111   2
   9   3   1 2.54664 2.58760   2
  -9  -3   1 4.86427 2.52822   2
  12  -9  -1 3.50862 2.05376   2
  -9  -3  -1 7.62490 3.30825   2
  -9  -3   2-2.13323 2.80139   1
  12  -9  -2-0.60713 3.33531   1
   9   3  -2-1.16729 3.06579   1
   9   3   2-0.48608 2.25681   1
  -9  -3  -2 2.18666 2.66298   1
   3 -12   2 2.59423 2.23542   3
 -12   9   2-0.46873 2.57503   3
   9   3   2-1.89794 2.75154   2
   3 -12  -2-0.67174 1.65034   2
  12  -9  -2 0.87302 1.69564   2
  -9  -3   2 1.19572 2.28150   2
   9   3   3 1.32118 2.20333   1
   9   3  -3 0.58679 2.93512   1
 -12   9  -3 2.51780 3.40890   3
   3 -12   3 1.28703 2.42422   3
 -12   9   3 3.02510 2.60163   3
  -9  -3  -3-0.81161 2.58432   1
   3 -12  -3 3.77463 1.78606   2
  -9  -3   3 7.89581 2.93360   2
  12  -9  -3 3.34502 1.50247   2
  -9  -3   3 3.35633 3.32677   1
  12  -9  -3 4.49449 3.34117   1
   3 -12  -4 401.877 13.7196   1
   3 -12  -4 338.963 15.8625   3
 -12   9  -4 405.390 19.0465   3
 -12   9   4 399.534 16.0413   3
   3 -12   4 358.435 15.8637   3
  12  -9  -4 400.283 12.1254   2
  -9  -3   4 393.278 15.8723   2
   9   3   4 396.922 18.2858   2
   3 -12  -4 403.070 13.6643   2
  12  -9   4 402.210 20.5298   1
  -9  -3  -4 392.860 15.5923   1
  12  -9  -4 389.494 17.2641   1
  -9  -3   4 409.000 18.1709   1
   9   3   4 350.085 15.4887   1
 -12   9   5 0.85348 2.41104   4
   3 -12  -5 2.07977 2.59166   4
   9   3  -5 1.77856 3.16298   1
   3 -12  -5 2.48944 1.41382   1
   9   3   5 2.03695 2.11550   1
   3 -12   5 1.21154 2.57154   3
   3 -12  -5 9.83293 3.24200   3
 -12   9   5 4.99762 2.45898   3
 -12   9  -5 2.10692 3.85860   3
   3 -12  -5 1.83554 1.64083   1
  12  -9   5 0.85660 4.20938   1
   3 -12  -5 0.20212 1.83984   2
   3 -12   5 1.08715 3.07084   1
  12  -9  -5 4.76301 3.18987   1
  -9  -3   5 0.61262 3.16783   1
  -9  -3   5 3.46593 2.79353   2
   9   3   5 0.65511 3.49503   2
   3 -12  -6 3.09358 3.09864   3
 -12   9  -6 10.2610 5.00146   3
 -12   9   6-0.32453 2.48546   3
  12  -9   6-0.87850 4.54222   1
  12  -9  -6 0.44742 3.24524   1
   3 -12  -6 3.57732 3.05166   4
  -9  -3   6 0.38067 2.66915   2
   9   3   6-0.69317 4.12177   2
   9   3   6 3.66712 2.11235   1
 -12   9  -7 1.48941 4.26303   3
   3 -12  -7 2.61567 3.26398   3
   9   3   7 2.31705 1.97591   1
 -12   9   7 0.88194 2.31676   3
  12  -9  -7 1.66205 2.98899   1
  -9  -3   7 0.37701 2.99142   2
  12  -9  -8 129.754 8.30107   1
   2 -12   0 120.070 8.12362   3
 -12  10   0 126.562 9.05643   3
  10   2   0 146.382 8.43227   2
   2 -12   0 154.055 7.77999   2
  12 -10   0 161.025 11.1260   1
 -10  -2   0 154.360 9.71447   1
  10   2   0 138.082 10.0483   1
   2 -12   0 135.727 8.07079   1
   2 -12  -1 12.0625 3.28892   3
   2 -12   1 14.8624 3.44162   3
 -12  10   1 16.7099 3.95256   3
 -12  10  -1 11.9884 3.73044   3
 -10  -2  -1 14.7078 3.98668   1
 -10  -2   1 15.0384 3.71333   1
  12 -10   1 16.4281 5.06254   1
  12 -10  -1 14.2617 4.18805   1
   2 -12   1 15.3995 2.83104   2
  10   2  -1 13.4049 3.14325   2
  10   2   1 15.8613 3.34573   2
   2 -12  -1 15.2415 2.59679   2
  10   2   1 15.2738 3.98965   1
  10   2  -1 19.9463 4.48748   1
   2 -12  -1 12.4931 2.66534   1
   2 -12   1 8.82734 2.89376   1
 -10  -2   1 17.2491 3.62415   2
  12 -10  -1 14.3308 2.84305   2
  12 -10  -2 7.52306 2.07320   2
 -10  -2   2 5.75209 2.96125   2
   2 -12   2 5.90130 2.77055   1
 -10  -2   2 6.91927 3.51608   1
   2 -12  -2 3.14105 2.64201   3
   2 -12   2 6.42932 2.73512   3
 -12  10   2 5.68204 2.88937   3
  12 -10  -2 6.71886 3.50143   1
 -10  -2  -2 1.93675 2.88507   1
  12 -10   2 7.02728 3.97571   1
  10   2   2 6.94019 3.13715   1
  10   2   2 8.00221 3.28935   2
  10   2  -2 6.59813 2.42048   2
   2 -12   2 7.25902 2.66046   2
   2 -12  -2 14.7261 2.58776   2
  10   2  -2 9.61865 3.95425   1
   2 -12  -2 9.14616 2.39287   1
   2 -12  -3 33.3322 4.02535   4
  10   2  -3 31.1981 5.40776   1
 -12  10  -3 35.1837 5.59254   3
   2 -12   3 41.3995 4.58096   3
 -12  10   3 38.2139 4.71500   3
  12 -10  -3 42.5376 2.79877   2
   2 -12  -3 30.2763 3.34657   2
  10   2   3 34.2026 4.98179   1
 -10  -2  -3 35.5495 4.71063   1
  12 -10  -3 30.4299 5.08406   1
 -10  -2   3 34.6318 5.60050   1
 -10  -2   3 37.0114 4.49321   2
   2 -12   3 34.0843 4.75403   1
   2 -12  -3 35.9738 3.46390   1
  12 -10  -4 95.8098 7.60897   1
 -10  -2   4 88.6350 8.44701   1
  12 -10   4 92.4354 9.50812   1
   2 -12  -4 86.8077 6.42184   4
   2 -12  -4 88.5367 6.98298   3
 -12  10   4 84.8185 6.53725   3
   2 -12   4 87.9286 6.59128   3
 -12  10  -4 102.270 9.03545   3
  12 -10  -4 97.5219 3.63850   2
   2 -12  -4 91.5209 5.33910   2
 -10  -2   4 84.7523 6.48589   2
   2 -12  -4 103.288 5.10377   1
   2 -12   4 79.2240 7.15363   1
  10   2   4 75.9112 6.61139   1
  12 -10   5 0.85608 4.42698   1
 -12  10   5 1.75952 2.91844   4
   2 -12  -5 4.26326 2.68652   4
   2 -12  -5 2.67076 3.01051   3
 -12  10   5 3.29403 2.58992   3
   2 -12   5 2.73357 2.73924   3
 -12  10  -5 2.85853 3.81314   3
  10   2   5 0.70601 3.98885   2
 -10  -2   5 5.11395 3.18579   2
  10   2   5 4.62808 2.62238   1
   2 -12  -5 5.03972 2.15098   2
  12 -10  -5 2.84607 2.95615   1
 -10  -2   5 4.55034 3.91298   1
   2 -12   5 1.09899 3.02005   1
  10   2  -5 9.19726 3.86266   1
   2 -12  -6 1.32369 2.86935   3
   2 -12   6 4.11088 2.77757   3
 -12  10  -6 2.22094 4.06790   3
  10   2   6 3.21636 2.50692   1
  12 -10  -6 3.48271 3.13250   1
 -10  -2   6 5.80812 3.11505   2
   2 -12  -6 2.29057 3.18457   4
 -12  10   6 3.32720 2.69483   3
  10   2   7 15.0817 2.96159   1
  12 -10  -7 20.9657 3.99794   1
 -12  10  -7 23.6497 5.96720   3
 -12  10   7 23.7532 3.44666   3
 -10  -2   7 20.7711 3.80074   2
 -10  -2   8 24.6767 4.10391   2
   1 -12   0 9.84770 3.03839   3
 -12  11   0 9.34853 3.39827   3
  11   1   0 13.3944 3.18765   2
   1 -12   0 9.38283 2.70719   2
  11   1   0 9.51252 4.14215   1
 -11  -1   0 13.1784 4.13036   1
  12 -11   0 4.26118 3.74061   1
   1 -12   0 11.9722 2.88200   1
   1 -12  -1 15.0067 3.46528   3
   1 -12   1 19.7310 3.93741   3
 -12  11   1 26.1524 4.30776   3
 -12  11  -1 29.0837 5.16477   3
   1 -12  -1 26.6399 3.29071   2
  11   1   1 23.1382 4.07050   2
  11   1  -1 27.8841 3.82115   2
   1 -12   1 27.2664 3.72892   2
  11   1  -1 19.4889 4.73614   1
  11   1   1 28.4099 5.44994   1
 -11  -1   1 22.2102 4.12710   2
   1 -12   1 20.4260 3.98447   1
   1 -12  -1 24.6923 3.53774   1
  12 -11  -1 26.2551 5.14025   1
 -11  -1  -1 30.8605 5.05534   1
 -11  -1   1 22.5527 4.97145   1
  12 -11   1 30.3464 6.05368   1
   1 -12  -2 22.3715 3.24091   4
   1 -12  -2 14.7019 3.45146   3
   1 -12   2 15.0543 3.33343   3
 -12  11   2 22.5084 4.01059   3
  11   1   2 22.4047 4.16566   2
  11   1  -2 14.6119 3.03966   2
   1 -12   2 18.0722 3.48004   2
   1 -12  -2 18.3912 2.96230   2
  11   1   2 25.1645 5.25833   1
  12 -11  -2 16.6388 2.64800   2
 -11  -1   2 20.1154 3.90753   2
 -11  -1  -2 29.0385 4.77010   1
  12 -11   2 30.0420 6.11967   1
 -11  -1   2 21.0226 4.96574   1
  12 -11  -2 24.3596 4.79260   1
  11   1  -2 22.6386 4.94281   1
   1 -12   2 17.0065 3.70735   1
   1 -12  -2 17.3601 3.19093   1
  11   1  -3 8.95977 4.15408   1
   1 -12   3 7.38812 3.36891   1
   1 -12  -3 9.47392 2.18406   1
   1 -12   3 5.84145 2.72201   3
 -12  11   3 5.32541 2.71217   3
 -12  11  -3 12.4147 4.29657   3
   1 -12  -3 11.4784 2.68372   2
  12 -11  -3 8.46933 1.61616   2
   1 -12   3 12.3951 2.95609   2
  11   1   3 7.07902 3.51520   2
  11   1   3 12.4397 4.03942   1
 -11  -1   3 10.9081 3.22091   2
  12 -11  -3 10.1666 3.96646   1
 -11  -1   3 5.11765 3.62071   1
 -11  -1  -3 9.45415 3.54649   1
  12 -11   3 10.5968 4.48400   1
   1 -12  -3 6.83036 2.61748   4
 -12  11   3 6.41721 2.89413   4
   1 -12  -4 11.2507 2.76024   2
 -11  -1   4 8.06418 3.12140   2
   1 -12  -4 11.0255 3.44946   3
 -12  11   4 8.98294 3.29427   3
   1 -12   4 14.4217 3.43986   3
 -12  11  -4 9.67220 3.96355   3
   1 -12   4 8.99239 3.09141   2
   1 -12  -4 8.79466 2.95829   4
 -12  11   4 11.5451 3.51674   4
 -11  -1   4 9.28793 4.23171   1
  12 -11  -4 14.4191 3.98098   1
  11   1   4 7.11827 3.78557   1
   1 -12  -4 10.2785 2.10817   1
   1 -12   4 5.22516 3.30146   1
   1 -12  -5 33.8285 4.77171   4
   1 -12   5 21.0927 3.72363   3
 -12  11  -5 36.9055 6.34696   3
  11   1   5 30.2836 4.65898   1
 -12  11   5 27.2718 3.99418   3
   1 -12  -5 29.5515 4.58756   3
  12 -11  -5 26.3772 4.34911   1
 -11  -1   5 23.4323 4.14036   2
   1 -12  -5 28.9585 3.47746   2
 -12  11   6 14.7468 3.44242   3
 -11  -1   6 9.78021 3.05347   2
  11   1   6 9.45325 3.08569   1
 -12  11  -6 11.8405 5.15078   3
   1 -12   6 8.28250 2.91074   3
   1 -12  -6 16.6464 4.19533   4
  12 -11  -6 9.79250 3.80344   1
  11   1   7 0.75305 2.42238   1
  12 -11  -7 0.78632 2.87470   1
 -11  -1   7 0.38574 2.77459   2
 -12  11   7-0.31752 2.62068   3
 -11  -1   8 5.29870 3.10716   2
   0 -12   0 654.185 24.5917   3
 -12  12   0 659.130 25.8051   3
  12   0   0 715.953 29.6176   1
  12   0   0 661.080 23.9987   2
   0 -12   0 683.258 23.1368   2
   0 -12   0 669.622 23.9092   1
 -12   0   0 680.430 26.7613   1
  12 -12   0 684.407 28.1101   1
   0 -12  -1 4.03636 2.07793   4
   0 -12   1 3.13680 3.11545   3
   0 -12  -1 5.12209 2.86984   3
   0 -12   1 4.37988 2.73006   1
   0 -12  -1 5.34385 2.41037   1
 -12  12   1 3.67195 2.84197   3
 -12  12  -1 8.87730 3.52024   3
  12   0  -1 4.02986 3.74335   1
  12   0   1 1.68056 3.66112   1
  12   0   1 1.39458 2.86501   2
   0 -12  -1 3.46919 2.21321   2
  12   0  -1 4.96771 2.72736   2
   0 -12   1 1.42833 2.17654   2
  12 -12   1 1.53464 3.83829   1
 -12   0   1 5.07778 3.63459   1
  12 -12  -1 5.31535 3.59886   1
 -12   0  -1 1.18581 3.25865   1
   0 -12  -2 44.1926 4.39710   4
   0 -12  -2 32.2586 3.79411   2
  12   0   2 44.7510 5.63932   2
  12   0  -2 46.9455 6.94229   1
  12   0   2 46.1573 7.18256   1
   0 -12   2 42.0246 4.83567   3
   0 -12  -2 35.3142 4.81613   3
  12   0  -2 43.5163 4.52095   2
   0 -12   2 45.2791 4.90615   2
 -12  12   2 47.1192 5.35077   3
   0 -12   2 42.5511 5.08740   1
  12 -12   2 41.3363 6.89385   1
 -12   0  -2 42.3429 5.56201   1
 -12   0   2 33.3944 5.64762   1
  12 -12  -2 35.5812 5.60267   1
   0 -12  -2 43.3807 4.17768   1
 -12   0   3 0.44653 3.15827   2
   0 -12  -3 1.46869 2.50608   4
 -12  12   3 2.52237 2.61929   4
   0 -12   3 2.53555 3.29673   1
 -12  12   3 1.36249 2.79798   3
 -12  12  -3 3.31451 3.64213   3
   0 -12   3-0.41954 2.64286   3
   0 -12  -3 0.49476 1.89507   1
  12   0   3 6.35231 4.17135   1
   0 -12   3-0.40715 2.47979   2
  12   0   3 0.60047 3.25176   2
  12 -12  -3 5.60319 1.57864   2
   0 -12  -3 1.21814 2.26298   2
  12 -12  -3 3.96866 3.45270   1
  12 -12   3 3.28334 4.17519   1
 -12   0   3 3.37572 4.06333   1
 -12  12   4 398.514 16.5034   3
   0 -12  -4 374.687 16.6650   3
   0 -12   4 383.278 16.0210   3
 -12  12  -4 444.942 20.2085   3
   0 -12   4 379.884 16.3330   2
   0 -12  -4 386.137 14.9041   2
 -12   0   4 418.703 16.7636   2
 -12  12   4 373.243 16.3770   4
   0 -12  -4 402.767 16.3523   4
  12 -12  -4 416.509 17.7569   1
   0 -12   4 436.983 18.3130   1
  12   0   4 374.194 19.3213   1
   0 -12   5 3.01030 2.88220   3
 -12  12  -5 7.23834 4.40808   3
 -12   0   5 1.64376 2.83084   2
   0 -12  -5 3.10025 2.52715   2
   0 -12  -5 1.31895 2.94479   4
  12   0   5 1.98686 3.31255   1
  12 -12  -5 2.79891 3.00191   1
 -12  12   5 2.30942 2.88242   3
 -12  12   6 4.64358 2.95255   3
  12   0   6 6.90252 3.54672   1
   0 -12   6 9.50540 3.01830   3
 -12   0   6 3.57291 3.02178   2
  12 -12  -6 5.85290 3.10988   1
  12   0   7 0.97005 3.05483   1
 -12   0   7 1.05639 2.75538   4
 -12  12   7 0.98563 2.72890   3
 -12   0   7 1.54493 3.00082   2
 -12   0   8 120.072 7.71910   2
  12 -13   0 5.13419 4.46861   1
 -13   1   0 11.2399 4.51409   1
 -12  13   0 5.19649 3.47789   3
  -1 -12   0 5.06514 2.00922   4
  13  -1   0 10.8753 4.61179   1
  -1 -12   0 8.05174 3.26512   3
  13  -1   0 7.10739 3.10939   2
  -1 -12   0 2.87891 2.41432   2
  -1 -12   0 3.28439 2.90720   1
  12 -13   1 21.5912 5.49086   1
  12 -13  -1 28.4525 5.55714   1
 -13   1   1 20.5816 5.25387   1
 -13   1  -1 20.6047 5.02868   1
  -1 -12  -1 24.4780 3.37658   4
 -12  13   1 19.1035 3.62127   4
  -1 -12  -1 27.0950 4.44859   3
  -1 -12   1 27.5848 4.52325   3
 -12  13   1 18.8749 4.41252   3
  -1 -12  -1 27.5708 3.83537   1
  13  -1   1 18.6342 5.96591   1
  13  -1  -1 20.8811 5.39735   1
  -1 -12   1 24.8407 3.80244   2
  13  -1   1 30.2096 4.68286   2
  13  -1  -1 24.3699 3.82941   2
  -1 -12  -1 24.3441 3.84790   2
  -1 -12   1 24.4061 4.18294   1
  12 -13   2 81.6049 8.65436   1
 -13   1  -2 74.8440 7.38206   1
  -1 -12  -2 68.8608 5.44230   4
  13  -1  -2 74.8282 8.65043   1
  13  -1   2 55.6233 8.34328   1
 -12  13   2 65.0661 5.89045   4
 -12  13  -2 86.7225 8.09063   3
  -1 -12  -2 68.9076 6.54437   3
 -12  13   2 69.6047 6.69191   3
  -1 -12   2 69.5559 6.23229   3
  -1 -12  -2 79.7327 5.46975   1
  13  -1  -2 76.0714 5.78051   2
  -1 -12   2 70.2264 5.81081   2
  -1 -12  -2 71.4993 5.49442   2
  13  -1   2 70.6306 6.92523   2
  12 -13  -2 67.2891 7.30207   1
 -13   1   2 72.0966 7.93458   1
  -1 -12   2 71.6331 6.65146   1
  -1 -12   3 36.8740 4.57496   3
 -12  13   3 34.9842 5.03696   3
  12 -13  -3 32.1486 5.46523   1
  -1 -12  -3 31.0232 4.23663   4
 -12  13   3 28.0748 4.32593   4
  -1 -12  -3 29.1441 3.46829   1
  13  -1   3 39.7540 7.43852   1
  -1 -12   3 37.5386 5.44271   1
  -1 -12  -3 34.7432 4.02374   2
  13  -1  -3 36.5864 4.21577   2
  12 -13  -4-0.51394 3.20145   1
  13  -1   4-1.74835 4.44616   1
  -1 -12   4 2.41515 2.84667   3
  -1 -12  -4 0.66676 2.60855   2
  -1 -12  -4 1.66122 2.83396   4
  12 -13  -5 9.72404 3.50028   1
  13  -1   5 10.4021 4.82047   1
  -1 -12   5 5.63632 2.86471   3
  -1 -12  -5 12.9145 3.81901   4
 -13   1   5 6.12690 3.35851   2
  13  -1   6 35.4431 6.28843   1
  12 -13  -6 31.4846 4.63176   1
 -13   1   6 20.9647 4.24059   2
 -13   1   7 25.8170 4.74425   2
 -13   2   0 84.2677 8.13263   1
  11 -13   0 89.3578 8.41656   1
  13  -2   0 81.3004 6.27850   2
  -2 -11   0 72.3064 5.71862   2
  -2 -11   0 85.5924 5.11867   4
  13  -2   0 60.0144 8.63223   1
  -2 -11   0 83.8685 6.42054   1
 -11  13   0 86.9819 7.59769   3
  -2 -11   0 76.0818 6.51167   3
  -2 -11   1 99.1514 7.32118   3
 -11  13   1 94.8223 7.91674   3
  -2 -11  -1 99.5090 7.37619   3
  -2 -11   1 108.414 7.47171   1
  13  -2   1 113.844 10.6809   1
  13  -2  -1 108.093 10.0608   1
  -2 -11  -1 113.105 6.99217   1
 -13   2   1 106.912 9.27971   1
  11 -13  -1 100.764 8.82897   1
  13  -2  -1 115.267 7.11113   2
  -2 -11   1 100.007 6.89019   2
  13  -2   1 111.805 7.80282   2
  -2 -11  -1 113.847 6.99043   2
  -2 -11   1 109.067 5.14349   4
  -2 -11  -1 101.020 6.19940   4
 -11  13   1 95.0356 6.88944   4
 -13   2  -1 97.8929 8.59395   1
  11 -13   1 109.113 9.42037   1
 -11  13  -2 67.2769 7.22800   3
  -2 -11   2 67.6775 5.85719   3
  -2 -11  -2 64.4285 6.18379   3
 -11  13   2 76.3272 6.64000   3
  -2 -11   2 64.8511 6.35542   1
  -2 -11  -2 74.2735 5.31156   1
  13  -2  -2 76.1357 5.56164   2
  -2 -11   2 72.4493 5.86618   2
  -2 -11  -2 72.8354 5.61176   2
  13  -2   2 67.4277 6.65483   2
  -2 -11  -2 75.4961 5.59038   4
 -11  13   2 59.2826 5.65114   4
  13  -2   2 63.5111 8.86491   1
 -13   2   2 78.4683 8.15131   1
  11 -13  -2 68.3454 7.12916   1
  11 -13   2 68.2093 8.00546   1
  -2 -11   3 92.8748 7.60563   1
  -2 -11  -3 94.8301 5.72195   1
  13  -2  -3 97.6565 6.16566   2
  -2 -11   3 96.9932 7.00889   2
  13  -2   3 82.4502 7.68702   2
  -2 -11  -3 91.3795 6.37206   2
 -11  13   3 95.6772 7.09528   4
  -2 -11  -3 98.3718 6.74339   4
  13  -2   3 101.416 10.7568   1
 -11  13  -3 99.7428 8.93038   3
 -11  13   3 90.9464 7.24693   3
  -2 -11   3 86.5687 6.64787   3
 -13   2   3 92.0406 8.93723   1
  11 -13  -3 94.1010 7.93748   1
 -11  13  -4 50.2869 7.09023   3
  -2 -11  -4 75.0448 5.66142   2
 -11  13   4 62.1755 5.95694   4
  -2 -11  -4 66.6764 6.05843   4
  11 -13  -4 67.3174 6.52358   1
  13  -2   4 69.4347 9.22348   1
  -2 -11   4 66.3635 5.65070   3
 -11  13   4 68.9690 5.97241   3
  -2 -11   4 66.8732 6.75652   1
  -2 -11  -5 50.2983 5.57590   4
  -2 -11   5 46.4097 4.84254   3
 -11  13   5 56.2781 5.50328   3
 -11  13  -5 48.3002 7.00197   3
  13  -2   5 53.0319 8.02635   1
  11 -13  -5 41.6031 5.28584   1
  -2 -11   6 34.6250 4.20152   3
  13  -2   6 27.0547 6.29630   1
  11 -13  -6 35.9740 4.66661   1
 -13   2   7 22.9515 4.17742   2
  13  -2   7 21.1209 5.59166   1
 -13   3   0 178.479 11.8498   1
  10 -13   0 219.247 12.6448   1
  -3 -10   0 195.574 9.86750   1
  13  -3   0 174.842 9.35652   2
  -3 -10   0 159.855 8.89104   2
  -3 -10   0 164.686 9.75301   3
 -10  13   0 170.503 10.8218   3
  13  -3   0 215.834 14.1599   1
  -3 -10   0 187.913 8.42723   4
 -10  13   0 177.458 9.31539   4
 -10  13  -1 46.6017 4.38798   4
  -3 -10  -1 59.6373 5.69945   3
 -10  13   1 54.3062 5.93359   3
  -3 -10   1 54.3287 5.33506   3
 -13   3   1 57.9493 7.28488   1
  10 -13  -1 67.9439 7.07283   1
 -13   3  -1 49.0232 6.45920   1
  -3 -10  -1 52.2284 4.85430   1
  -3 -10   1 65.0208 5.74404   1
  -3 -10  -1 56.4402 4.92135   2
  13  -3  -1 59.7330 5.08121   2
  -3 -10   1 54.2326 5.14960   2
  13  -3   1 51.8651 5.44227   2
  13  -3  -1 47.7853 6.76488   1
 -10  13   1 52.1628 5.21820   4
  -3 -10   1 57.8457 3.84024   4
  -3 -10  -1 58.6662 4.79612   4
  13  -3   1 60.3355 8.24263   1
  13  -3   2 37.6785 7.26102   1
  -3 -10  -2 30.2813 4.42425   3
 -10  13   2 22.6779 4.12836   3
  -3 -10   2 32.2595 4.33742   3
 -10  13  -2 33.0886 5.54278   3
 -13   3   2 39.8221 6.43267   1
  10 -13  -2 39.1856 5.46782   1
  13  -3  -2 35.8096 3.87231   2
  -3 -10   2 27.2956 4.40591   1
  -3 -10  -2 29.7147 3.63623   1
  -3 -10   2 25.7747 3.89388   2
  -3 -10  -2 28.2370 3.87526   2
  13  -3   2 29.7287 4.81809   2
  -3 -10   2 32.3912 2.40767   4
 -10  13   2 31.7752 4.43717   4
  -3 -10  -2 33.7864 4.03644   4
  -3 -10  -3 56.7947 5.36395   4
 -10  13   3 48.2303 5.17825   4
  13  -3   3 47.4804 6.11357   2
  13  -3  -3 53.8625 6.98985   1
  -3 -10  -3 61.2303 4.45448   1
  10 -13  -3 72.0213 6.58388   1
  13  -3   3 43.8070 7.77590   1
  -3 -10   3 55.0271 5.23805   3
 -10  13   3 60.2311 5.85007   3
 -10  13  -3 52.5632 6.83691   3
  13  -3  -3 69.9710 4.87433   2
  -3 -10   3 62.7573 5.66463   2
  -3 -10  -3 57.7461 5.09221   2
  -3 -10   3 65.8217 6.29152   1
 -13   3   3 56.5781 7.45105   1
  -3 -10  -4 113.953 7.79855   4
 -10  13   4 129.975 8.41777   4
  -3 -10   4 104.682 8.44656   1
  13  -3  -4 117.151 9.63363   1
  -3 -10   4 124.037 8.09970   2
  13  -3   4 129.231 10.0946   2
  -3 -10  -4 126.393 5.88792   1
  13  -3   4 112.731 11.6097   1
 -10  13  -4 133.988 10.1875   3
  -3 -10   4 116.446 7.35501   3
  -3 -10  -4 121.509 8.22767   3
 -10  13   4 132.476 8.19833   3
  10 -13  -4 126.097 8.49820   1
  -3 -10  -4 126.915 7.59913   2
 -10  13   5 13.4689 3.28899   3
 -10  13  -5 6.49387 4.05636   3
  -3 -10   5 7.28781 2.69859   3
  -3 -10  -5 11.2113 3.44716   4
  13  -3   5 14.8214 5.73790   1
  10 -13  -5 19.0709 3.83585   1
  13  -3   6 7.68592 5.71571   1
  10 -13  -6 5.62553 2.88999   1
 -10  13  -6 15.9092 4.79161   3
  -3 -10   6 5.97988 2.55203   3
 -10  13  -7 25.3904 4.93391   3
  13  -3   7 23.4294 6.46135   1
  -4  -9   0 3.10053 1.79897   4
  13  -4   0 7.32078 3.92691   1
  -9  13   0 9.87758 2.80302   4
  -4  -9   0 7.00379 3.00403   1
  -9  13   0 7.91647 3.52468   3
 -13   4   0-0.67056 3.41295   1
  13  -4   0 3.02623 2.48714   2
  -4  -9   0 4.84719 2.57094   2
  -9  13   1 2.82091 2.69845   4
  -4  -9  -1 0.32272 2.16100   4
  -4  -9   1 0.23454 1.74232   4
  -9  13  -1 0.35763 2.07390   4
  -9  13   1-0.52918 2.94836   3
 -13   4   1-2.80727 4.01733   1
   9 -13  -1 0.57451 3.24506   1
  -4  -9   1-0.42852 2.57879   1
  -4  -9  -1-0.70611 2.17467   1
  -4  -9  -1 0.37112 2.43678   2
  13  -4  -1-0.99249 2.25747   2
  -4  -9   1 3.76351 2.63847   2
  13  -4   1 0.44658 2.38222   2
  13  -4   1-1.72266 3.91829   1
  -9  13   2 106.605 7.62809   3
  -4  -9   2 81.5395 6.29641   3
  -9  13  -2 98.7943 8.33047   3
  -9  13   2 93.8767 6.80591   4
  -4  -9  -2 85.7881 6.13621   4
  -4  -9   2 95.5906 4.74748   4
  13  -4  -2 83.3986 8.44579   1
  -4  -9   2 82.1869 6.88239   1
  -4  -9  -2 90.0330 6.39654   2
  13  -4  -2 92.5154 5.75576   2
  -4  -9   2 87.2249 6.44700   2
  13  -4   2 89.5935 7.37594   2
  -9  13  -2 89.1519 5.96225   4
  13  -4   2 93.7611 9.77349   1
  -4  -9  -2 79.1455 5.67318   1
 -13   4   2 103.693 9.46026   1
   9 -13  -2 89.2937 7.57991   1
  -9  13  -3 2.52485 3.04663   3
  -4  -9   3 7.80072 2.86628   3
  -9  13   3 3.15088 2.70992   3
  -4  -9  -3 7.13520 2.29018   1
  13  -4   3-0.93841 4.17978   1
  -4  -9   3 2.41442 2.69565   2
   9 -13  -3 2.83548 1.23855   2
  13  -4  -3 2.92208 1.95942   2
  -4  -9   3 4.54501 3.04003   1
  13  -4  -3 1.33894 3.46212   1
  -4  -9   3 2.24618 1.22395   4
  -9  13   3 1.34377 2.53121   4
  -4  -9  -3 0.77622 2.62485   4
  13  -4   3 2.90995 3.05809   2
  -4  -9  -3 1.11213 2.53079   2
   9 -13  -3 3.37406 3.03666   1
 -13   4   3 4.51895 4.36825   1
  -9  13  -4 0.62099 3.41148   3
  -9  13   4-1.23470 2.67524   3
  -4  -9   4 2.07837 2.40707   3
  13  -4   4-0.96714 5.08028   1
  13  -4  -4 1.22750 1.82376   2
  -4  -9   4 0.83306 2.67974   2
  13  -4  -4-1.87702 3.12874   1
  -4  -9   4 0.53760 3.11756   1
  13  -4   4 1.96214 3.59306   2
  -4  -9  -4 0.38870 2.77248   2
  -4  -9  -4 0.41864 1.80256   1
   9 -13  -4 0.42218 2.71605   1
  -4  -9  -4-0.41742 2.71328   4
  -9  13   4-0.47164 2.90509   4
  13  -4   5-0.99373 4.52081   1
   9 -13  -5 1.86963 2.73443   1
  -4  -9   5 1.26215 2.32612   3
  -9  13  -5 5.91898 3.84768   3
   4   9   5-0.80113 2.38215   2
  -4  -9  -5 4.45054 3.03726   4
  -9  13   5 2.96638 2.86739   4
 -13   4   5 0.77987 4.28455   1
  -4  -9   6 39.8348 4.00779   3
   4   9   6 50.2192 5.37958   2
  -9  13  -6 29.9524 5.21711   3
  13  -4   6 39.1804 7.30409   1
  -9  13  -7 5.34199 3.55259   3
   4   9   7 4.71520 2.78105   2
  13  -4   7 0.98929 4.68551   1
  -9  13  -8 0.83995 3.07072   3
   4   9   8 0.37877 2.79171   2
  13  -4   8-3.75386 5.71444   1
  -5  -8   0 519.164 19.5664   1
  13  -5   0 518.890 19.2410   2
  -5  -8   0 541.260 19.6235   2
  -5  -8   0 517.961 18.2970   4
  -8  13   0 488.254 19.1333   4
  -8  13   0 520.813 21.5162   3
  -5  -8  -1 3.95553 2.24101   1
  13  -5   1 12.2376 4.91013   1
  -5  -8   1 1.91672 2.46717   2
  13  -5   1 2.19729 2.67680   2
  -5  -8  -1 3.82277 2.40855   2
  13  -5  -1 1.57795 2.23288   2
  -5  -8   1 0.86761 2.67293   1
  -5  -8  -1 2.66240 2.20801   4
  -8  13   1 1.66676 2.62520   4
  -8  13  -1 0.71868 2.00324   4
 -13   5   1 2.13543 3.62097   1
  -8  13   1 6.73484 3.22783   3
  -8  13  -2 5.58904 2.18595   4
  -8  13  -2 8.33418 3.67018   3
  -8  13   2 6.69889 3.29898   3
  13  -5   2 4.25763 4.11173   1
  13  -5  -2 7.50112 3.64103   1
  -5  -8  -2 6.50222 2.68796   1
  13  -5  -2 5.45641 2.19968   2
  -5  -8   2 5.45316 2.66262   2
  -5  -8   2 3.25852 2.80584   1
  -8  13   2 7.02590 2.94466   4
  -5  -8  -2 6.90654 2.53091   4
   8 -13  -2 3.99710 3.11635   1
 -13   5   2 5.90381 4.05723   1
  13  -5   2 5.54544 3.17895   2
  -5  -8  -2 7.22118 2.82781   2
   8 -13  -3 5.41525 2.84227   1
   5   8   3 3.32271 2.58740   2
  -5  -8   3 0.40253 2.56276   2
   8 -13  -3 0.48690 1.26415   2
  13  -5  -3 2.18937 1.96954   2
  -5  -8  -3 3.52855 2.52250   4
  -8  13   3-0.93426 2.97394   4
  -8  13  -3 3.58363 1.96114   4
  -8  13  -3-0.59337 3.06799   3
  -8  13   3-0.88537 2.50065   3
   8 -13  -3-1.66217 3.33443   3
  -5  -8   3 2.99535 3.04002   1
  13  -5  -3-0.64421 3.33081   1
  13  -5   3 0.89135 4.05497   1
  -5  -8  -3 1.13328 2.00387   1
  13  -5   3-0.57307 2.96304   2
  -5  -8  -3 2.34462 2.54024   2
  -8  13   4 386.840 16.4755   4
  -5  -8   4 365.463 11.3134   4
  -5  -8  -4 393.440 15.7143   4
  -8  13  -4 328.489 13.1439   4
  -8  13  -4 362.873 17.0208   3
  -5  -8   4 326.019 14.0395   3
   8 -13  -4 354.645 16.6782   3
  13  -5  -4 383.299 13.1486   2
   5   8   4 393.905 15.7938   2
   8 -13  -4 356.026 10.7151   2
  13  -5   4 354.612 17.8500   2
  13  -5   4 386.568 20.8245   1
  -5  -8   4 364.386 16.5982   1
  13  -5  -4 361.954 17.2139   1
 -13   5   4 386.707 19.5391   1
   8 -13  -4 338.638 14.8019   1
  -5  -8  -4 357.445 13.0258   1
   5   8   5 1.71923 2.76588   2
  -5  -8   5 2.10224 2.64874   2
  -5  -8   5 3.95583 3.23547   1
  13  -5  -5 1.70321 3.25045   1
  -8  13   5 4.56385 3.08843   4
  -5  -8  -5 0.44208 2.72374   4
  -8  13  -5 1.79998 1.60610   4
  13  -5   5 4.85241 5.33181   1
   8 -13  -5 1.37145 2.81255   1
 -13   5   5 3.20207 4.39818   1
  -8  13  -5 2.67564 3.02328   3
  -5  -8   5 4.24060 2.28593   3
  -5  -8   6 1.33703 2.07751   3
  -8  13  -6-0.48520 2.95447   3
  -8  13  -6-0.18451 1.46390   4
  13  -5   6-1.00339 5.01753   1
 -13   5   6-0.33577 2.57111   3
   5   8   6 0.87022 2.91353   2
  -8  13  -7-0.42819 2.97547   3
   5   8   7 1.30272 3.12341   2
  13  -5   7 1.01879 4.73019   1
  -8  13  -8 117.954 7.70737   3
  13  -5   8 147.790 13.5537   1
  -6  -7   0 106.763 7.19510   2
  13  -6   0 112.681 7.08520   2
  -7  13   0 111.521 7.19950   4
   7 -13   0 97.1553 7.77045   3
  -6  -7  -1 24.8953 3.83397   2
  13  -6   1 32.4344 4.31540   2
  -7  13   1 33.6925 4.86568   3
  -7  13  -1 33.1024 4.80965   3
   7 -13  -1 23.2882 4.44782   3
   7 -13   1 22.1853 4.15022   3
  13  -6  -1 32.3547 3.52307   2
  -6  -7   1 30.9769 4.37446   1
  13  -6  -1 19.7611 4.82950   1
  13  -6   1 25.0785 5.54513   1
  -6  -7  -1 29.3509 3.98075   1
  -6  -7   1 28.2759 4.16927   2
  -7  13  -1 27.1137 3.57097   4
  -7  13   1 27.2799 4.04777   4
  -7  13   2 8.05574 2.98834   3
  -7  13  -2 3.89557 3.06108   3
  13  -6   2 6.54176 4.09195   1
  13  -6  -2 5.29321 3.53279   1
  -6  -7  -2 6.61170 2.72709   1
  -7  13  -2 6.09593 1.98714   4
  -7  13   2 5.03123 2.69055   4
  -6  -7   2 1.43307 2.77438   1
  -6  -7   2 7.88012 2.81447   2
   6   7   2 3.36216 2.31388   2
   7 -13  -2 5.77586 1.69968   2
  13  -6  -2 6.22900 2.22726   2
  13  -6   2 9.50514 3.15442   2
  -6  -7  -2 5.96595 2.74329   2
   6   7   3 33.7905 4.61476   2
  -6  -7   3 21.9337 4.29291   1
  -7  13   3 38.5956 4.95863   4
  -7  13  -3 25.9655 3.10573   4
  13  -6  -3 29.6357 4.90330   1
  -7  13  -3 30.5879 4.80484   3
   7 -13  -3 21.6524 4.38435   3
  13  -6  -3 41.7116 3.45124   2
   7 -13  -3 33.9582 2.45553   2
  -6  -7  -3 29.7914 3.66199   1
  13  -6   3 29.9874 6.21961   1
   7 -13  -3 34.8038 4.63425   1
  13  -6   3 29.6527 5.10542   2
  -6  -7  -3 30.7327 4.30721   2
  -6  -7  -4 84.2405 6.61165   4
  -7  13   4 83.3544 7.18958   4
  -7  13  -4 70.6945 4.50983   4
  13  -6   4 104.115 10.5356   1
  -6  -7  -4 88.1075 5.35150   1
   7 -13  -4 86.7081 6.20637   1
  -7  13  -4 90.7424 7.46356   3
   7 -13  -4 87.1442 7.31652   3
  13  -6  -4 90.9382 4.90641   2
   6   7   4 87.6160 6.80821   2
   7 -13  -4 87.0693 3.71929   2
  -6  -7   4 82.7480 6.45191   2
  13  -6   4 93.5427 8.61884   2
  13  -6  -4 85.3170 7.60723   1
  -6  -7   4 80.7558 7.31726   1
 -13   6   4 68.5278 8.55023   1
  -6  -7   5 3.56385 2.49841   3
  -7  13  -5 3.34834 2.91361   3
   7 -13  -5 0.51927 3.08842   3
 -13   6   5 1.50911 2.57552   3
  -7  13  -5 2.38261 1.30639   4
  -6  -7  -5 1.77256 2.69939   4
  -7  13   5 5.22264 3.49795   4
  13  -6  -5-0.54522 3.24265   1
  -6  -7   5 2.28581 3.43977   1
 -13   6   5 6.42789 5.11559   1
   7 -13  -5 6.13933 2.62905   1
  13  -6   5 4.64387 5.45510   1
  -6  -7   5 2.47898 2.74089   2
   6   7   5 4.86488 3.32048   2
  13  -6   5 4.63430 4.24381   2
  13  -6   6 0.97106 5.25786   1
 -13   6   6 1.62925 4.78419   1
   7 -13  -6-0.51759 3.43233   3
 -13   6   6 0.99672 2.72471   3
   6   7   6-1.45357 3.11715   2
  -7  13  -6-0.43172 2.68922   3
  -6  -7   6 0.25748 2.13851   3
  13  -6   7 18.0268 7.09195   1
   6   7   7 12.4483 4.13930   2
   7 -13  -7 12.7801 4.26170   3
  -7  13  -7 14.2233 3.58848   3
  13  -7   0 14.2993 3.14432   2
   7   6   0 17.8640 3.68848   1
  13  -7   0 18.9417 4.51690   1
  -7  -6   0 19.2195 3.77493   1
   6 -13   0 22.1473 4.30872   3
  -7  -6   0 23.6503 3.70710   2
  -6  13   0 20.7761 3.33895   4
   6 -13  -1 211.378 11.6186   3
   6 -13   1 198.913 11.4538   3
   6 -13  -1 205.377 8.93789   2
  13  -7  -1 219.061 9.76331   2
  -7  -6   1 225.784 10.9785   2
  13  -7   1 236.758 11.4448   2
  -7  -6  -1 204.865 10.6575   2
  -7  -6   1 236.660 11.6815   1
  -7  -6  -1 214.231 10.8787   1
  13  -7  -1 226.342 13.4110   1
   7   6  -1 207.944 11.5115   1
   7   6   1 211.457 10.9397   1
  -6  13   1 212.755 10.7758   4
  -6  13  -1 190.415 9.33790   4
   7   6   2 8.34961 3.06266   2
   6 -13  -2 9.38270 1.99377   2
  13  -7  -2 9.08852 2.29291   2
  -6  13  -2 7.49915 1.93347   4
  -6  13   2 8.56963 2.78799   4
  13  -7   2 13.5210 4.73484   1
  -6  13  -2 8.85280 3.35839   3
   6 -13   2 4.67588 3.09796   3
  -7  -6   2 10.2542 3.40118   1
  -7  -6  -2 8.71458 2.86789   1
  13  -7  -2 8.45461 3.82662   1
   7   6   2 10.1057 2.73494   1
  -7  -6  -2 6.33936 2.94607   2
  13  -7   2 13.3323 3.69573   2
  13  -7   3 142.959 11.7493   1
  -7  -6  -3 146.494 7.92610   1
  -6  13  -3 137.607 9.01113   3
   6 -13  -3 124.500 8.68060   3
   7   6   3 150.839 9.13775   2
  13  -7  -3 137.778 6.29029   2
   6 -13  -3 132.644 5.76061   2
  -7  -6   3 132.115 8.99891   1
  13  -7  -3 141.851 9.86066   1
  13  -7   3 123.268 9.31287   2
  -7  -6  -3 138.603 8.69667   2
  -6  13   3 135.359 8.82268   4
  -6  13  -3 113.222 5.48681   4
   6 -13  -3 133.421 8.00453   1
 -13   7   3 160.663 11.9990   1
  -6  13   4 17.5775 3.98590   4
 -13   7   4 23.9603 6.04300   1
  -7  -6  -4 16.3352 3.05186   1
   6 -13  -4 15.5821 3.08490   1
  13  -7   4 14.7315 5.47733   1
  -6  13  -4 21.9118 4.17534   3
 -13   7   4 23.9022 3.96001   3
   6 -13  -4 20.1283 4.17913   3
   6 -13  -4 21.5978 2.12306   2
  -7  -6   4 16.0366 4.13418   1
  13  -7  -4 17.4872 2.18008   2
  -7  -6   4 15.7193 3.42092   2
   7   6   4 19.1773 4.11173   2
  -6  13  -4 15.2586 1.36179   4
  13  -7  -4 12.9966 3.77594   1
 -13   7   5 162.949 12.2831   1
   6 -13  -5 135.017 9.02587   3
 -13   7   5 131.852 8.01815   3
  -7  -6  -5 145.289 8.85920   4
  -6  13   5 144.959 9.64521   4
  -7  -6   5 139.733 9.89924   1
  13  -7  -5 136.566 9.39394   1
  13  -7   5 121.579 11.5790   1
   6 -13  -5 135.421 7.14182   1
   7   6   5 134.830 9.34413   2
  -7  -6   5 127.384 8.12473   2
 -13   7   6 14.6314 3.11394   3
   6 -13  -6 17.7902 4.24975   3
  13  -7   6 14.2395 5.72693   1
 -13   7   6 14.5596 5.58483   1
  13  -7  -6 11.5304 4.02472   1
   7   6   6 17.7681 4.48996   2
   6 -13  -7 16.6309 4.44949   3
   8   5   0 156.527 9.86993   1
   5 -13   0 148.261 9.57292   3
   8   5   0 179.591 9.45835   2
  13  -8   0 182.295 9.16223   2
  -8  -5   0 174.477 9.54883   2
  13  -8   0 194.068 12.3708   1
  -8  -5   0 171.533 9.94378   1
  -5  13   0 152.150 8.16523   4
  -8  -5  -1 2.16353 2.57284   2
  13  -8   1-2.22583 2.98091   2
   8   5  -1 0.52773 2.77215   1
   8   5   1-0.45765 2.36618   1
   5 -13  -1-0.49641 2.68785   3
   5 -13   1 2.47553 2.79657   3
  13  -8  -1-0.60156 2.05249   2
   5 -13  -1 1.45567 1.87141   2
  -5  13  -1 3.73264 1.74461   4
  -5  13   1-0.76147 2.09165   4
  -8  -5  -1 0.44325 2.76112   1
  -8  -5   1-0.98309 2.54139   1
  13  -8  -1 2.74082 3.54263   1
  -5  13   2 42.1581 4.81832   4
   8   5   2 51.6372 5.06368   1
  -8  -5  -2 47.4727 5.15450   2
 -13   8   2 52.5045 5.74687   3
   8   5  -2 40.9528 5.37748   1
   5 -13  -2 49.7565 3.64608   2
   5 -13   2 40.1594 5.06630   3
  13  -8  -2 52.7177 3.94368   2
  -8  -5   2 50.5215 5.83337   1
  -8  -5  -2 54.6113 5.20249   1
  13  -8  -2 47.6437 6.34970   1
  13  -8   2 55.8037 6.16773   2
  13  -8  -3 1.86704 1.71654   2
   5 -13  -3-0.54154 1.50889   2
  -8  -5   3 0.82723 2.45947   2
   8   5   3 4.58807 3.38073   2
  -5  13   3 1.92240 2.85773   4
   8   5   3 0.37066 2.00719   1
   5 -13   3 2.46421 2.89455   3
 -13   8   3 1.84292 2.96422   3
   5 -13  -3 0.49129 2.62084   3
   8   5  -3 1.72881 3.07415   1
  13  -8   3 3.28977 3.49988   1
  -8  -5  -3 3.29601 2.74189   1
  -8  -5   3 0.54161 3.25948   1
  13  -8  -3-0.60095 3.52945   1
  13  -8   4 148.421 11.9557   1
   8   5   4 117.827 7.02616   1
   8   5  -4 122.724 9.34522   1
   5 -13   4 127.273 8.49501   3
   5 -13  -4 133.943 8.73286   3
 -13   8   4 119.937 7.88693   3
  13  -8  -4 132.678 5.53658   2
   8   5   4 133.706 9.41133   2
   5 -13  -4 131.906 5.73085   2
  -8  -5   4 118.498 7.92559   2
  -5  13   4 103.562 8.25865   4
  -8  -5  -4 128.541 7.37389   1
   5 -13  -4 132.774 7.24201   1
  13  -8  -4 119.950 8.95363   1
  -8  -5   4 127.217 9.26968   1
   8   5   5 1.74883 3.29269   2
  -8  -5   5 1.21801 2.92033   2
  13  -8  -5-0.52065 3.20701   1
   5 -13  -5-0.48623 2.92614   3
 -13   8   5-0.74700 2.59544   3
 -13   8   5-2.41968 4.67727   1
  13  -8   5 2.71155 4.51979   1
   5 -13  -5 2.15918 2.17140   1
  -5  13   5 1.63770 3.04153   4
  -8  -5   5 1.79513 3.37988   1
   8   5   5-0.25618 1.76429   1
 -13   8   6 44.9109 7.26161   1
  13  -8   6 28.5089 7.40832   1
  -8  -5   6 34.4558 4.50355   2
  13  -8  -6 44.3616 5.51879   1
 -13   8   6 41.9881 4.60073   3
   5 -13  -6 45.3825 5.63062   3
  -9  -4   0 26.1726 4.45698   1
   9   4   0 17.4233 4.18933   1
  13  -9   0 20.8678 4.99799   1
 -13   9   0 27.4534 4.89612   3
   4 -13   0 24.5922 4.08210   3
  13  -9   0 24.8205 3.89608   2
   4 -13   0 24.7220 3.33227   2
   9   4   0 27.6747 4.07508   2
  -9  -4   1 3.14396 3.26535   1
   9   4   1 3.06329 2.51036   1
   9   4  -1 3.98827 3.13136   1
 -13   9   1 4.25479 3.20197   3
   4 -13  -1 1.93807 2.70109   3
   4 -13   1 3.38655 2.69706   3
  13  -9  -1-1.36675 3.47694   1
  -9  -4  -1 10.4832 3.54104   1
  13  -9   1-0.75695 3.91466   1
  13  -9  -1 4.44533 2.07973   2
  -9  -4  -1 3.22166 2.86839   2
   9   4  -1 5.86711 2.71958   2
   9   4   1 3.13542 2.63220   2
   4 -13  -1 3.66574 2.14936   2
   4 -13   2 157.327 9.56871   3
 -13   9   2 164.970 9.82718   3
  -9  -4   2 162.146 10.2391   1
  13  -9  -2 136.970 10.3068   1
   9   4  -2 163.196 10.6600   1
   9   4   2 152.862 9.36681   1
  -9  -4  -2 166.263 9.46585   1
  -9  -4   2 159.033 9.18575   2
   4 -13  -2 148.687 7.10712   2
  13  -9  -2 175.187 7.56017   2
   9   4   3 0.42217 2.38472   1
   9   4  -3-0.60613 3.13386   1
  13  -9   3-1.66434 4.30252   1
  -9  -4  -3-1.22061 2.75064   1
   4 -13  -3 6.30546 3.15288   3
 -13   9   3 0.45448 2.73512   3
   4 -13   3 0.47315 2.67265   3
  -9  -4   3-0.57096 3.13671   1
  13  -9  -3 1.79122 3.50664   1
  13  -9  -3 2.05731 1.63150   2
  -9  -4   3 1.26697 2.57172   2
   4 -13  -3 0.41007 1.65999   2
   9   4   3 4.36038 3.20110   2
   9   4  -4 16.6463 4.29864   1
   9   4   4 8.90255 2.57864   1
   4 -13  -4 15.3423 2.86321   1
  13  -9   4 11.4425 5.24532   1
  -9  -4  -4 9.58167 3.05847   1
   4 -13   4 10.1669 3.34261   3
   4 -13  -4 15.9322 3.74058   3
 -13   9   4 14.0997 3.50477   3
  13  -9  -4 7.71607 3.41301   1
  -9  -4   4 11.9857 4.36054   1
   9   4   4 8.97460 3.74352   2
   4 -13  -4 15.6881 2.43449   2
  13  -9  -4 16.3369 1.87037   2
  -9  -4   4 13.7759 3.44159   2
   9   4   5 5.93962 2.38327   1
   4 -13  -5 8.13450 3.55942   3
   4 -13   5 5.33404 3.03877   3
 -13   9   5 7.47868 3.16880   3
  13  -9   5 10.0641 4.80948   1
   9   4   5 7.73712 3.93037   2
  -9  -4   5 6.58645 3.11094   2
  13  -9  -5 7.11656 3.34282   1
 -13   9   6 62.3826 5.32687   3
  13  -9  -6 62.3055 6.22520   1
   9   4   6 66.2197 4.63747   1
  -9  -4   6 61.6945 5.75592   2
 -13   9   7 3.04074 2.73877   3
  10   3   0 6.75236 3.65022   1
   3 -13   0 4.29847 2.80541   3
 -13  10   0 3.34859 3.10988   3
 -10  -3   0 8.09237 3.61286   1
  13 -10   0 1.45292 3.37329   1
  10   3   0 0.83697 2.33215   2
   3 -13   0 1.21822 2.11695   2
  13 -10   0-1.55759 3.00402   2
  10   3  -1 117.238 9.23683   1
  10   3   1 111.326 8.65206   1
   3 -13  -1 94.1567 7.39548   3
   3 -13   1 92.1969 7.35839   3
 -13  10   1 109.146 8.17983   3
 -13  10  -1 104.068 8.51873   3
  10   3   1 115.193 7.91630   2
  10   3  -1 113.987 7.26944   2
   3 -13   1 107.669 6.75972   2
   3 -13  -1 119.066 6.40010   2
 -10  -3   1 116.230 7.87187   2
  13 -10  -1 115.715 6.53732   2
 -10  -3   1 105.882 8.45945   1
  13 -10   1 107.371 9.68820   1
  13 -10  -1 116.648 9.43604   1
 -10  -3  -1 108.536 8.27246   1
  13 -10  -2 23.1640 5.19472   1
 -10  -3   2 30.9984 5.20713   1
  10   3  -2 26.6043 5.23772   1
  10   3   2 28.6510 4.95033   1
   3 -13  -2 23.2799 4.14716   3
   3 -13   2 22.8188 3.98763   3
 -13  10   2 32.4929 4.72256   3
  13 -10  -2 31.6398 3.10479   2
 -10  -3  -2 26.6829 4.46632   1
  13 -10   2 27.5540 6.02037   1
   3 -13   2 30.3111 3.89537   2
   3 -13  -2 30.2826 3.36137   2
  10   3   2 31.4198 4.77048   2
 -10  -3   2 26.7754 4.19689   2
   3 -13  -2 25.7919 3.58103   1
 -13  10   3 49.7649 5.52374   3
   3 -13   3 68.6140 6.08459   3
 -13  10  -3 61.9411 7.03126   3
 -10  -3   3 67.5026 6.00528   2
  13 -10  -3 66.2673 3.76640   2
   3 -13  -3 66.8057 4.53234   2
  10   3  -3 73.2610 7.59868   1
   3 -13  -3 62.3378 4.67364   1
  10   3   3 59.6895 5.95127   1
 -10  -3  -3 68.9804 6.09387   1
 -10  -3   3 68.3806 7.29502   1
  13 -10  -3 68.7756 7.13463   1
 -10  -3   4 1.26204 3.61245   1
  13 -10  -4 0.54789 3.17766   1
   3 -13  -4 2.88849 1.93618   1
  10   3  -4 1.93202 3.48738   1
  10   3   4 3.03692 2.51641   1
 -13  10  -4 2.77481 3.81126   3
   3 -13  -4 2.89596 2.87029   3
 -13  10   4 0.41538 2.52987   3
   3 -13   4 3.13355 2.66216   3
 -10  -3  -4 0.77269 2.63679   1
  13 -10   4 2.65195 4.85652   1
   3 -13  -4 2.50395 2.02810   2
  10   3   4 1.93203 3.27589   2
 -10  -3   4 2.95195 2.82427   2
   3 -13   4-1.06044 3.15302   1
   3 -13   5 57.4141 5.76913   3
 -13  10  -5 67.0617 8.16072   3
 -10  -3   5 62.7046 5.91679   2
 -13  10   5 64.2009 5.63763   3
   3 -13  -5 65.8981 6.33046   3
  10   3   5 58.9668 5.34587   1
  13 -10  -5 76.1179 6.79416   1
  13 -10  -6 20.1221 4.53102   1
 -10  -3   6 25.2573 4.18022   2
 -13  10   6 20.6905 3.80478   3
  10   3   6 19.9363 3.30943   1
 -13  10   7 7.86870 2.98804   3
   2 -13   0 4.32417 3.12364   3
 -13  11   0 1.68565 3.17429   3
  13 -11   0 2.20603 3.80231   1
 -11  -2   0 0.57383 3.45376   1
   2 -13   0 0.40674 2.44847   1
  11   2   0 11.2834 4.14209   1
  11   2   0 1.74274 2.74459   2
   2 -13   0 1.59218 2.45696   2
 -11  -2   1 121.425 8.50685   2
  13 -11  -1 126.516 7.11432   2
   2 -13  -1 117.991 7.39429   1
  11   2  -1 131.437 10.4580   1
   2 -13   1 111.182 7.80489   1
  11   2  -1 133.377 7.97274   2
   2 -13   1 109.595 7.12544   2
  11   2   1 123.478 8.40099   2
   2 -13  -1 120.788 6.80609   2
 -13  11   1 121.901 8.77204   3
 -13  11  -1 133.873 9.55218   3
   2 -13   1 125.655 8.28237   3
   2 -13  -1 121.003 8.32121   3
 -11  -2   1 128.479 9.49735   1
 -11  -2  -1 143.027 9.44370   1
  13 -11  -1 154.796 10.8061   1
  13 -11   1 122.873 10.7536   1
  11   2   1 120.633 9.74030   1
   2 -13  -2 272.506 11.8488   1
  11   2  -2 318.064 16.5285   1
   2 -13   2 262.518 13.2077   1
   2 -13  -2 290.601 13.8048   3
   2 -13   2 271.737 13.2858   3
 -13  11   2 273.538 13.5696   3
   2 -13   2 275.252 12.5959   2
  11   2  -2 282.093 12.5056   2
 -11  -2   2 285.037 13.4398   2
  11   2   2 290.892 14.3287   2
  13 -11  -2 277.306 10.6753   2
   2 -13  -2 274.280 11.2616   2
  11   2   2 275.682 14.9060   1
 -11  -2   2 302.722 15.3833   1
  13 -11  -2 263.906 14.8951   1
 -11  -2  -2 316.568 14.5645   1
  13 -11   2 314.988 17.6484   1
 -13  11   3 109.181 7.75562   3
   2 -13   3 99.9377 7.47224   3
 -13  11  -3 102.551 8.96956   3
   2 -13   3 97.8476 7.17496   2
   2 -13  -3 99.4519 5.87502   2
 -11  -2   3 95.7752 7.30501   2
  11   2   3 107.903 8.92588   2
  13 -11  -3 110.270 4.88271   2
 -11  -2  -3 110.961 7.83323   1
 -11  -2   3 95.9489 8.58804   1
  13 -11  -3 117.923 8.91518   1
  11   2   3 86.9805 7.93622   1
   2 -13  -3 104.907 6.02217   1
   2 -13   3 101.277 7.90906   1
  11   2  -3 89.4492 8.79367   1
   2 -13   4 1.60667 3.02511   1
 -13  11   4 0.42235 2.68884   3
   2 -13   4-0.87732 2.67117   3
 -13  11  -4 2.09499 3.49214   3
   2 -13  -4 1.57842 2.37481   4
   2 -13  -4-0.51411 2.10824   2
 -11  -2   4 0.85354 2.85778   2
  13 -11  -4 2.72877 3.28438   1
  11   2   4 3.61869 2.99793   1
 -13  11   5 61.0544 5.67744   3
 -11  -2   5 57.3076 5.78987   2
  11   2   5 59.4209 5.74258   1
   2 -13   5 59.7010 5.70142   3
  13 -11  -5 62.6886 6.46594   1
   2 -13  -5 72.9077 6.25036   4
   2 -13   6 158.363 8.95282   3
  11   2   6 145.954 8.49660   1
 -11  -2   6 149.738 9.02800   2
  13 -11  -6 144.143 9.16517   1
 -13  11   6 142.505 8.29243   3
   1 -13   0 20.7221 4.00331   3
 -12  -1   0 23.2244 4.92350   1
  13 -12   0 20.8927 5.53644   1
 -13  12   0 20.3193 4.46212   3
  12   1   0 23.3201 5.42227   1
   1 -13   0 21.1132 3.59161   2
  12   1   0 34.2404 4.65571   2
   1 -13   0 27.9865 4.26918   1
   1 -13  -1 9.81760 3.53447   3
   1 -13   1 3.32905 3.06384   3
 -13  12   1 3.20032 3.13666   3
 -13  12  -1 5.40992 3.44459   3
  13 -12   1 8.86604 5.18787   1
 -12  -1  -1 2.95907 3.60724   1
 -12  -1   1 15.2169 4.32947   1
  13 -12  -1 7.65440 3.98646   1
  12   1   1-0.79085 3.60126   1
   1 -13  -1 7.58968 2.61501   2
  12   1  -1 7.53617 2.95092   2
   1 -13   1 5.09659 2.66664   2
  12   1   1 3.38260 2.98082   2
   1 -13  -1 7.44003 2.74654   1
  12   1  -1 3.99334 4.51404   1
   1 -13   1 8.93455 3.08064   1
  13 -12  -2 119.242 9.65109   1
 -12  -1   2 113.715 9.56063   1
 -12  -1   2 121.691 8.48496   2
 -12  -1  -2 116.303 8.72629   1
   1 -13  -2 121.472 7.08173   4
   1 -13  -2 123.619 8.55320   3
   1 -13   2 106.892 7.84830   3
 -13  12   2 134.547 9.02812   3
   1 -13   2 129.026 7.94077   2
  12   1  -2 113.409 7.28786   2
  13 -12  -2 129.500 6.23241   2
  12   1   2 128.812 9.10145   2
   1 -13  -2 118.366 6.86955   2
   1 -13  -2 120.759 7.03090   1
   1 -13   2 131.479 8.64190   1
  12   1  -2 143.250 11.2310   1
  12   1   2 116.480 10.1730   1
   1 -13  -3 9.76860 3.09024   4
   1 -13   3 8.18955 3.50247   1
   1 -13  -3 11.1766 2.61655   1
 -13  12   3 13.0278 3.57237   3
   1 -13   3 7.17633 2.83686   3
 -12  -1  -3 7.48928 3.47933   1
  12   1   3 9.83001 3.92074   1
  13 -12  -3 8.92109 4.02906   1
 -12  -1   3 10.5481 3.57260   2
   1 -13  -3 10.9292 2.99101   2
   1 -13   3 10.0559 3.12356   2
   1 -13  -4 17.9180 3.76894   4
   1 -13  -4 20.0272 3.30450   2
 -12  -1   4 12.3854 3.92116   2
  12   1   4 10.7031 3.94615   1
  13 -12  -4 17.3369 4.60417   1
 -13  12   4 15.8484 3.75675   3
   1 -13   4 18.4693 3.78804   3
   1 -13   5 1.64104 2.72064   3
 -13  12   5-0.39436 2.92958   3
   1 -13  -5-0.44316 3.18761   4
 -12  -1   5 0.42629 3.01471   2
  12   1   5 0.55134 2.80419   1
  13 -12  -5 1.47864 3.17093   1
  12   1   6 49.8742 5.84022   1
   1 -13   6 69.3239 5.90475   3
  13 -12  -6 62.0721 6.19489   1
 -13   0   0 2.63208 3.86606   1
   0 -13   0 4.20949 2.50536   1
  13   0   0 4.51930 4.44260   1
   0 -13   0 3.93750 2.66145   2
  13   0   0 3.07435 2.70750   2
   0 -13   0 6.42517 3.04633   3
   0 -13   1 4.82303 3.19954   3
  13 -13  -1-2.10113 4.06243   1
 -13   0  -1 3.73826 3.88200   1
 -13   0   1 2.68693 4.32241   1
   0 -13   1 6.43965 2.79329   2
  13   0  -1 4.84992 2.93245   2
   0 -13  -1 4.39271 2.79020   2
  13   0  -1 0.87927 4.08329   1
  13   0   1 1.81065 4.11936   1
   0 -13  -1 2.38206 2.18620   4
   0 -13   1 2.75674 2.92622   1
   0 -13  -1 2.64734 2.58212   1
 -13   0  -2 57.2167 6.69317   1
   0 -13  -2 47.2569 4.74389   4
 -13  13   2 53.8218 5.37136   4
   0 -13   2 59.2931 5.92144   3
   0 -13  -2 60.4921 5.00907   1
   0 -13   2 55.5668 5.38348   2
  13   0  -2 48.7405 5.29052   2
   0 -13  -2 55.6525 4.93843   2
  13   0   2 47.4301 7.57529   1
  13 -13  -2 71.0431 7.75102   1
   0 -13   2 56.4830 5.86059   1
   0 -13   3 3.62023 2.97189   3
   0 -13  -3 2.59715 2.55861   2
   0 -13  -3 3.76491 2.81918   4
  13 -13  -3 0.59809 3.76721   1
   0 -13   3-0.52766 3.39512   1
  13   0   3 2.47575 4.19766   1
  13 -13  -4 3.24674 4.35240   1
   0 -13   4 2.57494 2.81912   3
   0 -13  -4 2.49414 2.99114   4
   0 -13  -4 6.02396 2.88581   2
 -13   0   4 2.33155 3.35512   2
  13   0   4 1.49806 3.93546   1
  13 -13  -5 0.48802 3.33011   1
 -13   0   5-0.44850 3.33181   2
   0 -13   5 0.80316 2.98321   3
  13   0   5 0.66530 3.70672   1
  13   0   6 12.6096 4.13649   1
  -1 -13   0 13.2620 3.60034   1
  -1 -13   0 18.5821 3.75077   2
  -1 -13  -1 59.6223 5.31842   2
 -13  14   1 48.8268 5.26042   4
 -14   1  -1 51.2372 6.88077   1
  -1 -13   1 46.9751 5.69650   1
  -1 -13  -1 56.1702 5.33338   1
  -1 -13   2 55.3109 6.10689   1
  -1 -13  -2 74.0701 5.81689   2
  14  -1   2 52.5995 8.55792   1
 -14   1  -2 60.2674 6.90404   1
  -1 -13  -2 66.0763 5.43465   4
  14  -1   3 42.3465 7.46361   1
  -1 -13  -3 51.0985 5.05819   2
  -1 -13  -3 41.7915 4.85252   4
  -1 -13  -4 16.4533 3.83451   4
  -1 -13  -4 9.44605 3.06782   2
  14  -1   4 19.4420 6.09604   1
  14  -1   5 16.7501 5.70680   1
  14  -1   6 32.0774 6.10070   1
  12 -14   0 58.3279 7.54675   1
 -14   2   0 55.8661 7.49405   1
  -2 -12   0 56.5217 5.67363   1
  14  -2   0 56.7186 5.63944   2
  -2 -12   0 64.6962 5.62300   2
  -2 -12   0 57.1180 4.24899   4
 -12  14   0 57.5563 5.45006   4
  12 -14  -1 1.38147 4.10703   1
 -14   2  -1 5.22206 4.24303   1
  -2 -12   1 0.40297 2.72425   2
  -2 -12  -1 0.37790 2.45643   2
  14  -2  -1 0.76307 2.55486   2
  -2 -12   1 2.31069 3.06469   1
  -2 -12  -1-0.37470 2.62699   1
  14  -2   1 0.99339 5.05247   1
  -2 -12  -1 0.29649 2.23678   4
  -2 -12   1-0.47737 2.80362   3
 -12  14   1 0.84949 2.70401   4
  12 -14  -2 3.72999 3.69867   1
  14  -2  -2 4.20470 2.83955   2
  -2 -12  -2 2.97598 2.72312   2
  -2 -12   2 4.97901 3.27191   1
  -2 -12  -2 4.47809 2.50620   1
  14  -2   2 8.11330 5.24501   1
  -2 -12  -2 9.78205 2.86813   4
 -12  14   2 5.28357 3.03500   4
  -2 -12   2 2.73947 2.97072   3
  14  -2  -3 1.97562 2.59471   2
  -2 -12  -3 0.72372 2.60309   2
  12 -14  -3 2.25853 3.47809   1
  -2 -12   3 0.43626 2.86476   3
  14  -2   3-1.00676 4.94697   1
  -2 -12  -3 3.14447 2.87418   4
  -2 -12  -4 44.8565 4.93482   2
  14  -2   4 29.1295 6.83469   1
  -2 -12  -4 40.2439 5.09909   4
  -2 -12   4 40.2611 5.01453   3
  12 -14  -4 44.0495 5.83001   1
  14  -2   5-1.82431 4.79144   1
  12 -14  -5 1.82013 3.53522   1
  -2 -12   5 0.37920 2.61145   3
  14  -2   6-1.65733 4.55256   1
  -3 -11   0 83.8052 7.14766   3
  14  -3   0 99.5016 7.17358   2
  -3 -11   0 100.684 6.89641   2
  -3 -11   0 105.173 7.20065   1
  14  -3   0 106.473 10.7825   1
  11 -14   0 113.251 9.80877   1
 -14   3   0 110.543 9.49921   1
 -11  14   0 102.598 7.18885   4
  -3 -11   0 99.8256 5.88156   4
  -3 -11  -1 179.699 10.6345   3
  -3 -11   1 180.501 10.4798   3
  11 -14  -1 185.305 12.1329   1
 -14   3   1 195.618 13.0517   1
 -14   3  -1 209.625 12.8296   1
  11 -14   1 195.574 12.9550   1
  14  -3  -1 198.899 14.0555   1
  -3 -11  -1 214.217 10.2273   1
  -3 -11   1 194.266 10.7567   1
  14  -3   1 219.414 15.3204   1
  -3 -11  -1 199.346 10.1056   2
  14  -3  -1 200.551 9.99500   2
  -3 -11   1 186.128 10.0614   2
  14  -3   1 199.895 10.7408   2
 -11  14  -1 172.993 9.52225   4
  -3 -11   1 202.999 8.04112   4
  -3 -11  -1 199.599 9.38504   4
 -11  14   1 188.908 10.2155   4
  14  -3   2 5.91999 5.11131   1
  -3 -11   2 11.5079 3.35443   3
  11 -14  -2 13.2966 4.46620   1
  -3 -11   2 14.8603 3.94308   1
  -3 -11  -2 10.6321 2.94888   1
  14  -3   2 10.4377 3.79859   2
  14  -3  -2 17.7519 3.46434   2
  -3 -11  -2 15.5653 3.37825   2
 -11  14   2 7.95142 3.34793   4
  -3 -11  -2 10.5469 3.16634   4
  -3 -11   3 126.072 8.16063   3
  -3 -11   3 122.343 8.91961   1
  14  -3  -3 132.993 7.32236   2
  -3 -11  -3 123.784 7.72420   2
  14  -3   3 139.239 12.6565   1
  11 -14  -3 138.226 9.44256   1
  -3 -11  -3 117.730 7.89755   4
 -11  14   3 136.234 8.73578   4
  14  -3   4 72.9074 9.62314   1
  -3 -11   4 57.6349 5.44256   3
  -3 -11  -4 62.0752 5.53672   2
  11 -14  -4 55.7505 6.26933   1
  -3 -11  -4 51.5186 5.57028   4
  11 -14  -5 119.105 7.97448   1
  -3 -11   5 112.339 7.17028   3
  14  -3   5 88.5501 10.7049   1
  14  -3   6 0.94981 5.50799   1
  14  -3   7 29.6082 6.76378   1
  -4 -10   0 1.73273 2.17919   4
  14  -4   0 0.86054 3.91503   1
 -10  14   0 2.44818 2.36673   4
  -4 -10   0 2.07362 2.49630   1
  -4 -10   0 1.40592 2.91967   3
 -10  14   0 1.78604 3.07845   3
 -14   4   0 2.78922 3.66321   1
  10 -14   0 2.63541 3.72179   1
  -4 -10   0 5.60196 2.90246   2
  14  -4   0-0.78476 2.96050   2
  -4 -10  -1 4.67929 2.59817   4
 -10  14   1 2.14476 2.45694   4
  -4 -10   1 3.50875 1.93259   4
 -10  14  -1 7.36484 2.74262   4
 -10  14   1 5.56755 3.58290   3
  -4 -10   1 1.80047 2.83616   3
  10 -14  -1 8.07682 4.12098   1
 -14   4   1-2.19263 3.77974   1
  -4 -10   1 3.16700 2.72407   1
  -4 -10  -1 1.49941 2.55936   1
  14  -4  -1 5.55786 2.86829   2
  14  -4   1 1.35940 2.91651   2
  -4 -10  -1 2.37566 2.62712   2
  -4 -10   1 4.44370 2.88269   2
  14  -4   1 0.90646 4.37459   1
 -10  14  -2 179.753 9.54652   4
 -10  14   2 235.980 12.1327   3
 -10  14  -2 217.830 13.1355   3
  -4 -10   2 192.728 10.5028   3
  10 -14  -2 219.173 12.4148   1
  -4 -10   2 199.001 11.2053   1
  14  -4  -2 224.654 9.81346   2
  -4 -10  -2 200.434 10.2981   2
  14  -4   2 202.305 11.4855   2
  -4 -10   2 201.443 10.6050   2
  -4 -10  -2 204.469 9.75110   1
  14  -4   2 214.770 15.1956   1
 -14   4   2 198.193 13.4348   1
 -10  14   2 181.313 10.5209   4
  -4 -10  -2 219.212 10.4407   4
  14  -4  -3-0.56786 2.19017   2
  -4 -10  -3 2.03918 2.80867   4
 -10  14   3 2.81751 2.82601   4
  -4 -10  -3 3.33582 2.08125   1
  14  -4   3 3.93900 4.66271   1
 -10  14  -3 1.66721 1.90881   4
  -4 -10   3 1.58359 3.02166   1
  -4 -10   3 0.80951 2.83769   3
 -10  14  -3 2.00847 3.73014   3
  -4 -10  -3-0.38882 3.10595   2
  10 -14  -3-6.63978 3.54923   1
  -4 -10  -4 4.03130 3.30695   2
  14  -4   4 1.00999 5.05108   1
  -4 -10   4 2.63260 2.51946   3
  10 -14  -4 1.36014 3.09464   1
  -4 -10  -4 4.81226 3.27605   4
 -10  14   4 2.94181 3.25228   4
  10 -14  -5-0.80421 3.29787   1
  14  -4   5 3.07860 5.47419   1
  -4 -10  -5 0.92448 3.21224   4
  -4 -10   5 3.74536 2.73835   3
  14  -4   6 103.855 11.6055   1
  -5  -9   0 136.995 8.44997   1
  -5  -9   0 138.272 8.39515   2
  14  -5   0 128.485 7.86830   2
  -5  -9   0 135.947 7.42920   4
  -9  14   0 115.458 7.83586   4
  -9  14   0 132.792 9.69811   3
  14  -5   0 133.385 11.3067   1
  -5  -9  -1 13.6707 3.26553   1
  14  -5   1 10.3606 4.75301   1
 -14   5   1 13.2492 4.89082   1
   9 -14  -1 7.63018 3.74909   1
  -5  -9   1 8.27002 3.26366   1
  -5  -9   1 12.3777 3.41913   2
  14  -5  -1 9.38737 2.95303   2
  -5  -9  -1 8.91834 2.85855   2
  14  -5   1 14.8808 3.41563   2
  -9  14  -1 13.2667 3.17365   4
  -9  14   1 9.33709 3.21282   4
  -5  -9   1 10.3485 2.38326   4
  -5  -9  -1 17.0783 3.31484   4
  -9  14   1 15.4405 4.07600   3
  -9  14   2 16.7090 3.79156   4
  -5  -9   2 20.8617 2.71481   4
  -5  -9  -2 24.0365 3.76711   4
  -9  14  -2 17.8993 4.95704   3
  -9  14   2 11.7004 3.75416   3
  14  -5   2 15.3492 5.58460   1
  -5  -9  -2 16.3531 3.32680   1
  14  -5  -2 24.1359 5.10775   1
  -5  -9   2 23.1057 4.38435   1
  -9  14  -2 18.7928 3.39422   4
  14  -5  -2 18.4508 3.13040   2
  14  -5   2 20.5110 4.23594   2
  -5  -9   2 19.6135 3.88904   2
  -5  -9  -2 17.5989 3.65562   2
   9 -14  -2 20.0958 4.45470   1
 -14   5   2 19.8652 5.42714   1
  -9  14   3 4.87902 3.23642   4
  -5  -9  -3 0.82109 2.64237   4
  -9  14  -3 3.65225 2.36946   4
  -9  14  -3 4.49443 3.67610   3
  -5  -9   3 5.14449 2.72633   3
  -9  14   3 1.40811 2.72299   3
   9 -14  -3 4.42408 3.47716   1
  -5  -9   3 0.52193 2.94906   1
  -5  -9   3 1.72310 2.77244   2
  14  -5  -3 1.08088 2.23160   2
  14  -5   3 1.15459 2.98572   2
  -5  -9  -3 2.85346 2.70433   2
  -5  -9  -3 5.30237 2.24036   1
  14  -5   3 7.51860 4.45063   1
   9 -14  -4 107.767 7.46121   1
  14  -5  -4 95.3547 5.58397   2
  14  -5   4 107.221 11.1079   1
  -5  -9  -4 89.5525 6.95622   2
  -9  14  -4 94.3916 8.54083   3
  -5  -9   4 89.6094 6.52288   3
  -9  14  -4 77.1128 5.61907   4
  -9  14   4 94.8180 7.58584   4
  -5  -9  -4 105.265 7.35075   4
  14  -5   5 5.06568 5.95333   1
  -9  14  -5 7.03183 2.27731   4
   9 -14  -5 8.19749 3.13947   1
  -5  -9  -5 7.78028 3.53571   4
   5   9   5 10.2282 3.69882   2
  -9  14  -5 7.05632 3.98013   3
  -5  -9   5 6.26333 2.69340   3
 -14   5   6 9.51938 3.19873   3
  14  -5   6 11.3727 5.76454   1
   5   9   6 6.16995 3.15125   2
  -6  -8   0 117.124 7.65941   1
  14  -6   0 106.508 7.06759   2
  -6  -8   0 98.1186 7.22323   2
  -8  14   0 89.0043 6.82437   4
  14  -6   1 13.2318 4.62763   1
  14  -6  -1 18.6538 5.01481   1
  -6  -8  -1 17.1627 3.56166   1
  -8  14  -1 19.2504 3.41886   4
  -8  14   1 11.4314 3.14971   4
  -8  14   1 17.8270 4.21897   3
  -8  14  -1 15.5526 4.42977   3
  -6  -8   1 12.5913 3.64855   1
  -6  -8  -1 20.8612 3.89810   2
  14  -6   1 11.1079 3.32861   2
  -6  -8   1 21.2767 3.89544   2
  14  -6  -1 17.1166 3.13179   2
  14  -6   2 5.06266 3.12483   2
  -6  -8  -2 4.57788 3.07393   2
  -8  14   2 6.07809 3.49388   3
  -8  14  -2 11.5660 3.83908   3
  14  -6   2 2.58578 4.38843   1
  14  -6  -2 8.37851 4.30534   1
  -6  -8  -2 5.79239 2.61171   1
  -6  -8  -2 7.79855 2.99255   4
  -8  14  -2 10.0136 2.82075   4
  -8  14   2 5.35894 3.42134   4
  -6  -8   2 10.5432 3.52547   1
  -6  -8   2 10.6033 3.20589   2
  14  -6  -2 10.8441 2.57687   2
   8 -14  -2 6.29746 1.89477   2
 -14   6   2 8.49168 4.36500   1
   8 -14  -2 7.69187 3.60062   1
   6   8   3 33.6938 4.88927   2
  14  -6  -3 25.6224 3.03701   2
  -8  14   3 20.3321 4.18884   4
  -6  -8  -3 24.1352 4.27891   4
  -8  14  -3 16.2889 2.92576   4
  14  -6   3 14.4594 5.47437   1
  -8  14  -3 25.7958 5.02168   3
   8 -14  -3 21.9000 4.70720   3
   8 -14  -3 23.2468 2.22477   2
  14  -6   3 27.4227 4.78611   2
  -6  -8  -3 26.6681 4.12105   2
   8 -14  -3 27.7263 4.78076   1
  -6  -8  -3 24.7877 3.67984   1
  14  -6  -3 20.4779 4.83154   1
  -6  -8   3 24.1115 4.73540   1
   8 -14  -4 65.0513 6.82967   3
   6   8   4 70.1821 6.49662   2
  14  -6  -4 63.9143 4.39639   2
  -6  -8  -4 69.1357 6.24188   4
  -8  14   4 73.9695 6.66135   4
  -8  14  -4 52.6432 4.08803   4
  -8  14  -4 59.6892 6.59253   3
   8 -14  -4 68.6713 5.89683   1
  14  -6   4 55.7547 8.44846   1
  -6  -8   4 63.4589 6.72293   1
  -6  -8   5 9.56698 2.87606   3
  -8  14  -5 4.25105 3.27747   3
  14  -6   5 9.87540 6.42135   1
  -8  14  -5 5.04157 1.66986   4
  -6  -8  -5 6.46679 3.12725   4
   6   8   5 5.26029 3.55651   2
 -14   6   5 9.07178 3.23916   3
  -8  14  -6 3.81823 2.87405   3
 -14   6   6 3.83685 2.86240   3
  -8  14  -7 16.9193 4.01195   3
  -7  -7   0 0.45337 2.66314   1
   7 -14   0-4.55353 3.25860   3
  -7  -7   0 0.43142 2.56571   2
  14  -7   0-4.95534 2.69620   2
  -7  14   0-0.40791 2.14338   4
  14  -7  -1 146.764 7.64892   2
  14  -7   1 145.081 8.74762   2
  -7  -7   1 145.021 8.81734   2
  -7  -7  -1 157.160 9.02125   2
  -7  14   1 134.205 8.66698   4
  -7  14  -1 121.575 7.51372   4
  14  -7  -1 145.925 10.9506   1
  -7  -7  -1 145.805 8.68133   1
  -7  -7   1 131.450 8.89212   1
  -7  14  -1 136.683 9.63321   3
   7 -14   1 136.223 9.68240   3
   7 -14  -1 137.894 9.66998   3
   7   7   2 302.454 13.7232   2
   7 -14  -2 284.211 10.4535   2
  -7  -7   2 291.197 13.3297   2
  14  -7   2 266.040 13.4776   2
  14  -7  -2 268.411 11.2105   2
  -7  -7  -2 306.454 13.5065   2
  -7  -7   2 287.658 13.8941   1
  -7  -7  -2 279.167 12.6540   1
  14  -7   2 293.109 17.0452   1
  14  -7  -2 270.640 15.2534   1
  -7  14   2 285.412 13.6767   4
  -7  14  -2 241.794 11.0338   4
  -7  14  -2 286.943 14.6173   3
   7 -14  -3 111.420 7.47380   1
 -14   7   3 78.7417 9.04017   1
  -7  14  -3 84.6922 7.63286   3
   7 -14  -3 88.7921 7.58191   3
   7   7   3 101.833 7.74856   2
  14  -7  -3 111.633 5.61365   2
   7 -14  -3 110.146 4.93153   2
  14  -7   3 105.832 8.57946   2
  -7  -7  -3 86.3401 7.13671   2
  -7  14   3 93.3046 7.64570   4
  -7  14  -3 90.4728 5.17267   4
  -7  -7   3 107.083 8.43081   1
  14  -7  -3 91.8052 8.46270   1
  14  -7   3 106.590 10.5600   1
  -7  -7  -3 104.435 6.62952   1
  14  -7   4 1.33482 3.76984   2
  -7  14  -4 2.63262 3.01400   3
 -14   7   4 1.31536 3.01953   3
   7 -14  -4 0.54597 2.95628   3
  -7  -7   4 0.57590 3.29662   1
  14  -7   4 0.91545 4.16453   1
  -7  -7  -4-0.87868 2.30791   1
   7 -14  -4 1.50239 2.72411   1
 -14   7   4 2.45700 4.02430   1
  14  -7  -4 3.67952 1.78942   2
   7   7   4-0.50797 2.79068   2
  -7  -7  -4 1.78166 3.06747   4
  -7  14  -4 0.11941 1.18926   4
  -7  14   4-0.54121 3.13855   4
  14  -7   5 78.2318 10.0310   1
  -7  14   5 70.5726 6.94293   4
  -7  14  -5 70.0611 6.51845   3
 -14   7   5 61.0688 5.71274   3
 -14   7   6 140.329 8.04702   3
  -6  14   0 145.301 8.21966   4
  14  -8   0 161.112 11.7151   1
  -8  -6   0 155.395 9.53487   1
  14  -8   0 160.149 8.67428   2
  -8  -6   0 158.978 9.29983   2
   8   6   0 152.019 9.71368   1
   6 -14   0 143.604 9.69128   3
  -6  14  -1 32.4706 3.55540   4
   6 -14   1 32.0961 5.02860   3
   6 -14  -1 30.7346 3.53302   2
   6 -14  -1 41.1142 5.31962   3
  -8  -6  -1 48.6027 5.28562   2
  14  -8  -1 50.9117 4.55164   2
  14  -8   1 43.1360 4.99343   2
   8   6  -1 42.1842 5.33643   1
   8   6   1 42.5276 5.10625   1
  14  -8  -1 33.5826 5.98521   1
  -8  -6  -1 39.3250 5.03556   1
  -8  -6   1 39.5713 5.44736   1
  -8  -6   1 39.8481 4.79784   2
  -6  14   1 32.1731 4.28390   4
  -6  14  -2 21.9516 2.64086   4
  -6  14   2 22.8021 4.15046   4
   6 -14  -2 32.2978 3.09135   2
   6 -14   2 32.2891 5.18016   3
  -8  -6  -2 17.9285 3.77920   1
  14  -8   2 29.8757 6.15664   1
  14  -8   2 25.7965 4.81815   2
  -8  -6  -2 28.3230 4.53523   2
   8   6   2 26.4573 4.15847   1
  14  -8  -2 29.5867 5.59395   1
  -8  -6   2 22.4771 4.55441   1
   8   6   2 28.7191 4.52923   2
  14  -8  -2 28.8855 3.23222   2
  14  -8   3 61.7898 6.80753   2
   8   6   3 47.9679 4.83747   1
  14  -8   3 60.3008 8.31588   1
   6 -14  -3 52.2794 5.24013   1
 -14   8   3 49.1163 5.77560   3
   6 -14   3 48.7315 5.92471   3
   6 -14  -3 44.3958 5.50799   3
   8   6   3 56.8259 6.11193   2
  -8  -6   3 49.6140 5.42021   2
  14  -8  -3 60.1360 3.95932   2
   6 -14  -3 51.9659 3.59423   2
  -6  14   3 42.7407 5.46467   4
  -8  -6  -3 55.6978 5.22571   1
  -8  -6   3 55.0687 6.30975   1
  14  -8  -3 49.7104 6.47402   1
  14  -8  -4 118.225 5.48930   2
   8   6   4 109.547 8.64488   2
  14  -8  -4 112.108 8.84401   1
  14  -8   4 93.0763 9.34052   2
   6 -14  -4 113.173 7.15383   1
  14  -8   4 126.096 11.5070   1
  -8  -6  -4 115.927 7.01899   1
   6 -14  -4 111.399 8.33509   3
 -14   8   4 115.218 7.89136   3
  -6  14   4 114.311 8.70906   4
  -6  14   5 9.13347 4.05417   4
 -14   8   5 17.5731 3.53556   3
 -14   8   6 11.5035 3.21922   3
  14  -9   0 135.544 10.8104   1
   9   5   0 129.265 8.34341   2
   5 -14   0 127.154 7.28711   2
  14  -9   0 144.166 8.02303   2
  -9  -5   0 126.744 8.47766   2
   5 -14   0 129.526 8.98518   3
  -9  -5   0 133.371 9.06406   1
   9   5   0 111.321 8.65164   1
  -9  -5  -1 190.361 10.8968   1
  14  -9   1 172.891 12.8871   1
 -14   9   1 188.417 11.2942   3
   5 -14  -1 186.268 10.9000   3
   5 -14   1 167.330 10.5281   3
   5 -14  -1 203.815 8.80207   2
  14  -9  -1 194.967 9.11422   2
  -9  -5   1 183.611 11.1592   1
  14  -9  -1 194.478 12.8758   1
   9   5  -1 204.807 11.8158   1
   9   5   1 185.879 10.8171   1
  14  -9   1 185.289 10.3000   2
  -9  -5  -1 182.527 10.4958   2
  -9  -5   2 21.3988 4.70261   1
  14  -9  -2 14.7486 4.47253   1
   9   5  -2 21.2065 4.63127   1
   9   5   2 12.7867 3.32102   1
 -14   9   2 17.2039 4.13681   3
   5 -14   2 15.7245 4.10151   3
  -9  -5  -2 22.1873 4.10843   1
  14  -9  -2 20.7531 2.87373   2
  -9  -5   2 21.6095 4.06113   2
   5 -14  -2 17.3818 2.70444   2
  14  -9   2 18.1568 4.51706   2
  -9  -5  -3 157.959 9.26708   1
  14  -9   3 166.003 13.1478   1
   5 -14  -3 177.504 10.6467   3
 -14   9   3 175.608 10.3150   3
   5 -14   3 178.462 10.6848   3
  14  -9  -3 182.079 7.42154   2
  -9  -5   3 193.799 10.4057   2
   5 -14  -3 168.907 7.47590   2
  14  -9  -3 164.896 11.2241   1
  -9  -5   3 191.938 11.5164   1
   9   5   3 170.040 9.40304   1
   9   5  -3 154.657 11.1173   1
   9   5   3 201.379 11.4916   2
  14  -9  -4 91.4028 7.98621   1
   9   5   4 80.8173 5.97326   1
   5 -14  -4 81.1620 5.79007   1
  -9  -5  -4 87.4409 6.27408   1
   5 -14   4 84.9511 7.26327   3
 -14   9   4 74.1998 6.57471   3
 -14   9   5 85.7698 6.67973   3
   9   5   5 95.6705 5.97286   1
 -14   9   6 3.87180 2.86993   3
  10   4   0 1.79387 2.93863   1
 -10  -4   0 6.03265 3.81132   1
  14 -10   0 0.76075 3.46116   1
 -14  10   0-1.16871 3.34541   3
   4 -14   0 1.03387 2.95954   3
  14 -10   0 4.20470 2.74995   2
  10   4   0 2.24204 2.85512   2
   4 -14   0 2.79621 2.49910   2
 -10  -4   1-1.14389 3.40070   1
  10   4   1-0.56011 3.12064   1
  10   4  -1 1.88314 3.13894   1
 -14  10  -1-0.61437 3.42297   3
   4 -14  -1 0.51806 2.84600   3
   4 -14   1 0.51537 2.70720   3
 -14  10   1-1.64318 3.25671   3
  14 -10  -1 0.71800 3.88764   1
 -10  -4  -1 0.51289 3.15914   1
  14 -10   1 1.59441 4.18761   1
  14 -10  -1-0.60774 2.25736   2
 -10  -4   1 1.40029 2.90754   2
  14 -10   1-2.33945 3.28023   2
 -10  -4  -1 2.01104 3.39876   2
   4 -14   1 0.70238 2.46208   2
  10   4   1-0.48336 2.61718   2
   4 -14  -1 2.75753 2.12700   2
   4 -14  -2 221.894 12.3602   3
   4 -14   2 233.233 12.5360   3
 -14  10   2 243.932 12.7350   3
 -10  -4   2 253.232 13.7154   1
  14 -10  -2 267.535 14.6969   1
  10   4  -2 238.090 13.9282   1
  10   4   2 233.388 12.5848   1
 -10  -4  -2 232.711 12.1707   1
  14 -10  -2 239.616 9.91102   2
   4 -14  -2 246.283 10.0301   2
 -10  -4   2 256.634 12.4926   2
 -14  10   3-1.89346 2.98123   3
   4 -14   3 2.00749 3.05597   3
 -10  -4   3-0.90568 2.85198   2
 -10  -4  -3 0.43780 3.01494   1
  14 -10  -3 4.98384 3.61267   1
 -10  -4   3 0.61835 3.53956   1
  10   4   3 1.84631 2.67669   1
  10   4  -3 3.32111 3.48907   1
   4 -14  -3-1.13781 2.03782   2
  14 -10  -3-0.17320 1.67911   2
   4 -14   4 2.44620 2.87344   3
 -14  10   4 2.59443 2.95077   3
 -10  -4  -4 1.52930 2.72716   1
  10   4   4-0.40502 2.40842   1
 -14  10   5 1.57113 2.75367   3
   4 -14   5-0.93858 3.37550   3
  10   4   5 0.34247 2.29325   1
 -14  10   6 111.149 7.19944   3
  11   3   0 108.849 7.62108   2
   3 -14   0 124.378 7.05159   2
 -11  -3   0 105.296 8.62666   1
  14 -11   0 107.851 9.79647   1
   3 -14   0 98.4003 7.74943   3
 -14  11   0 94.6838 8.10382   3
  11   3   0 116.665 9.63793   1
   3 -14   0 85.7378 6.94746   1
  14 -11   0 123.104 7.68918   2
   3 -14  -1 30.3915 3.67219   2
  11   3  -1 28.6532 4.30251   2
   3 -14   1 30.7137 4.10803   2
 -11  -3  -1 26.7267 4.91934   1
  14 -11  -1 36.2583 6.14661   1
 -11  -3   1 26.6730 5.30722   1
  11   3  -1 33.0869 6.00558   1
  11   3   1 24.2020 5.04305   1
   3 -14  -1 25.3158 3.93826   1
  14 -11  -1 29.2532 3.74834   2
 -11  -3   1 23.5385 4.41230   2
   3 -14   1 29.6472 4.60740   1
   3 -14  -1 37.7504 4.98105   3
   3 -14   1 25.3323 4.45591   3
 -14  11   1 31.1018 4.94714   3
   3 -14   2 15.0183 4.15236   3
 -14  11   2 16.4044 4.17042   3
  14 -11  -2 16.8575 4.61970   1
 -11  -3   2 9.42048 4.14435   1
 -11  -3  -2 12.9200 3.92049   1
   3 -14  -2 20.1381 3.37598   1
  11   3   2 12.3711 4.36153   1
  11   3  -2 13.5786 4.89411   1
   3 -14   2 12.1006 3.56307   1
 -11  -3   2 19.8229 4.20116   2
  14 -11  -2 17.2269 2.75425   2
   3 -14   2 15.8044 3.38791   2
   3 -14  -2 15.1033 2.92835   2
   3 -14   3 24.5099 4.38142   2
   3 -14  -3 28.5061 3.50690   2
 -11  -3  -3 25.6712 4.33181   1
  11   3   3 27.6184 4.63269   1
   3 -14  -3 25.1060 3.40605   1
 -14  11   3 32.9645 4.88594   3
   3 -14   3 33.8364 4.83240   3
   3 -14   3 22.5758 4.45400   1
 -11  -3   3 30.1630 4.66845   2
 -14  11   4 81.0241 6.65672   3
   3 -14   4 74.0169 6.81008   3
  11   3   4 70.7775 6.41806   1
  11   3   5 3.62945 2.83033   1
   3 -14   5 6.84406 3.36553   3
 -12  -2   0 107.291 8.92416   1
   2 -14   0 100.887 7.29648   1
  12   2   0 92.1345 9.40070   1
   2 -14   0 99.8471 6.60102   2
  12   2  -1 8.66588 4.62786   1
   2 -14   1 1.37739 2.82993   1
   2 -14  -1 5.02177 2.75720   1
  12   2   1 2.20868 3.55385   1
   2 -14  -1 5.65177 2.57711   2
   2 -14   1 5.23963 2.78218   2
  14 -12  -1 3.13082 2.80554   2
 -12  -2  -1 0.58910 3.79133   1
 -12  -2   1 3.17265 3.68110   1
   2 -14   2 9.19480 3.18829   2
   2 -14  -2 13.2276 2.85513   2
   2 -14   2 12.8828 3.78009   3
 -12  -2  -2 13.1134 4.49272   1
   2 -14   2 8.32460 3.53710   1
  12   2   2 23.8883 4.96061   1
   2 -14  -2 10.9190 3.02338   1
  12   2   3 3.70061 3.71196   1
   2 -14   3-0.95914 2.92056   3
 -12  -2  -3 1.98515 3.25901   1
   2 -14  -3 2.86754 2.48410   2
   2 -14   4 53.5617 5.88680   3
  12   2   4 49.7346 6.03603   1
  12   2   5 1.89268 2.67320   1
   2 -14   5 2.21029 2.93197   3
 -13  -1   0 4.53362 4.16707   1
   1 -14   0 2.16729 2.81811   1
   1 -14   0 1.07146 2.79511   2
 -13  -1  -1 51.9792 6.62436   1
   1 -14  -1 49.9268 4.72631   2
   1 -14  -1 47.8635 5.14082   1
  13   1   1 47.4265 7.36130   1
   1 -14   1 41.6993 5.19463   1
   1 -14   1 47.2011 5.02377   2
   1 -14   2 132.094 9.12517   1
   1 -14  -2 143.132 8.08037   1
  13   1   2 144.850 11.5238   1
 -13  -1  -2 148.314 10.2657   1
   1 -14  -2 145.683 7.96378   2
 -13  -1  -3 33.3091 5.31926   1
   1 -14  -3 46.5001 4.65291   2
  13   1   3 41.0587 6.33541   1
  13   1   4 1.30620 3.59105   1
   1 -14  -4 9.68037 3.45644   4
  13   1   5 24.4284 4.99182   1
   0 -14   0 113.059 8.02625   1
   0 -14  -1 62.5075 5.90738   1
   0 -14  -1 44.3413 4.96310   2
   0 -14   1 55.0698 5.91754   1
   0 -14  -2 33.2748 4.43893   2
   0 -14  -3 36.2379 4.36845   2
  14   0   4 60.0229 8.03043   1
   0 -14  -4 62.0793 6.09349   4
  14   0   5 51.9254 7.30106   1
  -1 -14   0 36.7616 5.03279   1
 -13  15   0 11.5258 3.35696   4
  -2 -13   0 13.6627 3.53657   1
  -2 -13  -1 88.7198 6.82910   1
  -2 -13   1 95.5759 7.69862   1
 -13  15  -1 94.1890 6.76870   4
  -3 -12   0 35.9780 4.82268   1
 -12  15   0 23.1973 3.96138   4
  -3 -12  -1 6.21806 3.00209   1
  -3 -12   1 3.34406 3.17218   1
 -12  15   1 6.23580 2.98701   4
 -12  15  -1 8.16465 2.86663   4
  -3 -12  -2 39.0575 4.55829   4
 -12  15  -2 33.3322 4.44401   4
  15  -3  -2 40.6501 4.52962   2
  15  -3  -3 6.52361 3.14257   2
  -3 -12  -3 10.9315 3.49500   4
  12 -15  -3 11.3262 4.43776   1
  -3 -12  -4 23.2229 4.56668   4
  12 -15  -4 19.3814 4.60296   1
 -11  15   0 24.6734 4.07098   4
  15  -4   0 23.4601 4.16655   2
  -4 -11   0 24.0435 4.22887   1
  11 -15  -1 0.66381 4.31494   1
  -4 -11   1-0.47296 3.10561   1
  -4 -11  -1 0.39308 3.01008   1
  15  -4  -1 0.72840 2.61978   2
 -11  15  -1 2.88073 2.47675   4
  -4 -11  -1 1.01944 2.50474   4
 -11  15   1 2.70751 2.99259   4
  -4 -11   2 106.488 8.36151   1
  15  -4  -2 134.372 7.44196   2
  -4 -11  -2 115.718 7.06477   1
 -11  15  -2 92.0483 6.78080   4
  11 -15  -2 123.179 9.72686   1
 -11  15   2 108.674 8.18915   4
  -4 -11  -2 115.494 7.48933   4
 -11  15  -3 2.17959 2.29003   4
  11 -15  -3 6.49525 3.59079   1
  15  -4  -3 3.63407 2.40477   2
  -4 -11   3 3.91483 3.10416   3
  -4 -11  -3 4.62315 3.24339   4
  -4 -11   4 22.8674 3.94198   3
  -4 -11  -4 24.2161 4.45739   4
  11 -15  -4 18.7576 4.47443   1
 -11  15  -4 15.7195 3.04036   4
  -4 -11   5 0.36566 2.73756   3
  10 -15   0 24.0125 4.97601   1
  -5 -10   0 30.5490 4.58731   1
 -10  15   0 33.2955 4.67270   4
  -5 -10   0 27.6304 3.73793   4
  15  -5   0 28.1236 4.26377   2
  -5 -10  -1 53.1179 4.85627   4
 -10  15   1 60.3015 5.91935   4
  10 -15  -1 71.4135 7.37648   1
  15  -5  -1 50.3204 5.00217   2
  15  -5   1 55.5601 5.80683   2
 -10  15  -1 42.9209 4.99742   4
  -5 -10  -1 56.1674 5.38709   1
  -5 -10   1 42.8905 5.68369   1
  -5 -10   1 63.4922 6.02147   3
  -5 -10   2-0.90236 2.77907   3
  15  -5  -2-2.18781 2.54673   2
  -5 -10  -2 0.78178 2.66732   4
 -10  15   2 0.97091 3.31262   4
 -10  15  -2-1.17189 2.29415   4
  10 -15  -2 0.58354 3.86970   1
  -5 -10   2 1.03220 3.25038   1
  -5 -10  -2-1.06663 2.72253   1
  15  -5  -3 54.8437 4.45505   2
  -5 -10   3 57.4794 5.57144   3
 -10  15  -3 43.1295 4.65250   4
  -5 -10  -3 52.1508 5.53235   4
 -10  15   3 50.6850 6.02205   4
  10 -15  -3 55.7801 6.40812   1
  -5 -10   4 20.7589 3.78350   3
 -10  15  -4 19.9355 3.28509   4
  10 -15  -4 15.4601 3.97536   1
  -5 -10  -4 18.9694 3.85904   4
  15  -5  -4 24.1150 3.29216   2
  -5 -10   5 13.7697 3.45833   3
  15  -6   0 1.95721 2.93073   2
  -9  15   0 0.45126 2.77974   4
  -6  -9   0 0.67087 2.26786   4
  -6  -9   0 2.70786 2.90367   1
  -6  -9   1 143.531 9.30720   1
  -6  -9  -1 124.731 8.11718   1
  -6  -9   1 127.075 7.15146   4
  -9  15   1 129.314 8.80188   4
  -6  -9  -1 132.733 7.85465   4
  -9  15  -1 115.396 7.85885   4
   9 -15  -1 141.358 9.95782   1
  15  -6   1 132.154 8.56379   2
  15  -6  -1 137.365 7.88182   2
  15  -6  -2 171.755 8.42908   2
  15  -6   2 179.656 10.5093   2
  -9  15   2 171.818 10.3062   4
  -6  -9  -2 177.972 9.61346   4
  -9  15  -2 128.386 8.25935   4
   9 -15  -2 165.674 10.6199   1
  -6  -9   2 194.770 11.1440   1
  -6  -9  -2 168.381 9.17228   1
  -6  -9  -3 94.8814 7.10466   4
  -9  15  -3 81.8170 6.06589   4
  -9  15   3 98.4824 8.18826   4
  15  -6  -3 112.602 6.15033   2
   9 -15  -3 91.5176 7.69630   1
   9 -15  -4 3.41996 3.07676   1
  -6  -9   4 3.80944 2.89747   3
  -9  15  -4 4.35615 2.05671   4
  -6  -9  -4 4.10558 3.25549   4
 -15   6   5 53.9591 5.66190   3
  -6  -9   5 47.0960 4.94171   3
  -8  15   0 27.5822 4.20357   4
  -7  -8   0 32.0822 4.80218   1
  15  -7   0 28.1412 4.08348   2
  -8  15   1 4.85223 3.16112   4
  -8  15  -1 9.83160 2.81300   4
  -7  -8  -1 8.75878 3.31056   1
  -7  -8   1 5.03306 3.31155   1
  15  -7   1 12.1322 3.76126   2
  15  -7  -1 7.52003 2.88808   2
   8 -15  -2 136.487 6.27795   2
  15  -7   2 129.366 8.88295   2
  15  -7  -2 132.816 7.06329   2
  -7  -8  -2 141.732 8.28825   1
  -7  -8   2 126.266 9.18318   1
   8 -15  -2 130.235 9.16166   1
  -7  -8  -2 141.952 8.52648   4
  -8  15   2 127.380 8.87969   4
  -8  15  -2 100.023 6.80266   4
  -8  15  -3 3.04457 1.88756   4
  -7  -8  -3 3.97127 3.01271   4
  -8  15   3 1.07370 3.15454   4
   8 -15  -3 4.71329 3.21784   1
  -7  -8  -3 3.44849 2.93668   1
  15  -7  -3 6.55706 2.47248   2
  -7  -8  -4 29.5503 4.78870   4
  -8  15   4 19.0183 4.56347   4
 -15   7   4 16.7924 4.05999   3
 -15   7   5 8.61566 3.66297   3
  -7  -8   5 10.1130 3.12491   3
  15  -8   0 1.54851 2.54193   2
  -8  -7   0-1.48796 3.28910   1
  -7  15   0-0.80169 2.68413   4
  15  -8   1 8.01625 3.33822   2
  15  -8  -1 8.40227 2.89868   2
   7 -15  -1 6.72882 2.40891   2
  -7  15  -1 4.93823 2.35402   4
  -7  15   1 2.76571 3.12054   4
  -8  -7  -1 8.33995 3.13660   1
  -8  -7   1 4.19771 3.55105   1
  -8  -7   2 38.1973 5.70354   1
  15  -8  -2 25.9244 3.52754   2
   7 -15  -2 28.9384 3.06050   2
  -8  -7  -2 32.6358 4.71618   1
  15  -8   2 42.0362 5.31066   2
  -7  15  -2 22.5360 2.93166   4
  -7  15   2 21.4018 4.24503   4
  15  -8  -3 2.23312 2.12510   2
   7 -15  -3 1.77983 3.06440   1
  -8  -7  -3-0.37081 2.71140   1
  -7  15  -3 1.53332 1.30536   4
  -7  15   3 1.09331 3.08788   4
 -15   8   3-1.49582 3.37084   3
  -7  15   4-0.57062 3.55452   4
 -15   8   4-0.45298 3.06224   3
 -15   8   5 9.73190 3.46087   3
  15  -9   0 84.6731 6.34634   2
   9   6   0 99.5450 8.00708   1
  -9  -6   0 67.1158 6.93978   1
  -6  15   0 73.2350 5.73156   4
   6 -15   0 88.5371 5.87235   2
   9   6  -1 48.5415 6.36437   1
   9   6   1 46.2629 5.53680   1
  15  -9   1 56.8646 5.81238   2
  15  -9  -1 59.7794 4.96222   2
   6 -15  -1 62.8310 4.60853   2
  -9  -6   1 56.7680 6.55672   1
  -9  -6  -1 53.5202 6.08731   1
  -6  15   1 46.2661 5.10873   4
  -9  -6   2 24.9278 5.06517   1
  15  -9   2 26.9995 4.99103   2
   9   6   2 32.7552 4.65360   1
   9   6  -2 32.3052 5.35627   1
  -6  15   2 19.1919 4.05168   4
   6 -15  -2 32.5531 3.36964   2
  15  -9  -2 35.4087 3.70835   2
   9   6   3 35.8798 4.59893   1
  -9  -6  -3 30.3056 4.62253   1
   6 -15  -3 40.9871 4.99205   1
  -6  15   3 38.7048 5.23068   4
   5 -15   0 69.8368 5.48671   2
  15 -10   0 69.8417 5.83783   2
 -10  -5   0 76.9328 7.38796   1
  10   5   0 68.4262 7.01484   1
   5 -15   1 91.6925 6.49960   2
   5 -15  -1 78.0261 5.38861   2
  15 -10   1 90.1854 7.20869   2
  15 -10  -1 93.9503 6.11180   2
 -10  -5  -1 83.1194 7.53701   1
 -10  -5   1 88.3025 8.06494   1
  10   5  -1 69.2383 7.57396   1
  10   5   1 77.9593 7.21072   1
 -10  -5   2 3.02722 4.01566   1
  15 -10   2 2.67680 3.61993   2
   5 -15  -2 1.22409 2.09727   2
  15 -10  -2 3.91432 2.21550   2
  10   5   2 2.47714 2.98240   1
 -10  -5  -2 4.75398 3.33371   1
  10   5   3 41.1429 4.97571   1
 -10  -5  -3 57.0092 5.84249   1
  10   5   4 35.7625 4.46291   1
  11   4   0-1.94926 3.35932   1
   4 -15   0-0.33361 2.55453   2
 -11  -4   0 0.57983 3.95655   1
  15 -11   0 1.15447 2.92498   2
  11   4  -1 1.36984 3.48356   1
  11   4   1-0.60437 3.59348   1
   4 -15   1-0.36522 2.77600   2
   4 -15  -1-0.88267 2.35025   2
 -11  -4  -1 2.73211 3.65890   1
 -11  -4   1-2.45566 3.78144   1
  15 -11  -1-1.22881 2.33500   2
  15 -11   1 0.93825 3.34609   2
   4 -15  -1 0.40752 2.62172   1
  11   4   2 16.0037 3.83318   1
   4 -15   2 17.0486 3.80238   2
   4 -15  -2 19.8650 3.04310   2
   4 -15  -2 17.4305 3.54745   1
 -11  -4  -2 24.4356 4.68255   1
  11   4   3 2.47142 3.37333   1
 -11  -4  -3 1.84919 3.51431   1
  11   4   4-0.43177 2.50383   1
   3 -15   0 225.091 11.6612   1
  15 -12   0 235.318 11.3936   2
 -12  -3   0 260.907 14.0803   1
   3 -15   0 226.729 10.7652   2
 -12  -3  -1 3.46811 3.90768   1
   3 -15  -1 0.31254 2.56343   2
   3 -15   1 3.44900 2.97749   2
   3 -15   1 0.46967 2.89317   1
   3 -15  -1 0.80728 2.67695   1
  12   3   1 0.68527 3.81813   1
 -12  -3  -2 3.25340 3.87020   1
   3 -15  -2 5.49093 2.41949   2
   3 -15  -2 7.87429 3.12114   1
  12   3   2 3.76419 3.49832   1
  12   3   3 1.12481 3.38458   1
 -12  -3  -3 0.48805 3.48114   1
  12   3   4 145.685 9.55927   1
   2 -15   0 37.1966 4.42496   2
   2 -15   0 30.4800 4.58474   1
   2 -15  -1 10.3864 3.30287   2
   2 -15  -1 12.1035 3.58332   1
   2 -15   1 7.10114 3.27057   1
 -13  -2  -2 5.66062 4.43024   1
   2 -15  -2 3.47609 2.54328   2
  13   2   2 2.90787 4.16252   1
 -13  -2  -3 4.60433 3.83128   1
  13   2   3 2.61007 4.02039   1
  13   2   4 25.1825 4.83051   1
   1 -15   0 20.9947 4.18596   1
  -3 -13   0 4.47901 3.19695   1
 -13  16  -1 13.3354 3.76422   4
 -13  16  -2 3.65732 3.04385   4
 -13  16  -3 13.3458 3.37806   4
 -12  16   0 34.3150 4.69422   4
  -4 -12   0 46.7729 5.58275   1
 -12  16   1 1.88270 2.89935   4
 -12  16  -1 0.86230 2.62557   4
 -12  16  -2 97.2983 7.10970   4
 -12  16  -3 4.26026 3.11664   4
 -11  16   0 125.881 8.79421   4
  -5 -11   0 170.173 9.84537   1
 -11  16  -1 2.63199 2.70340   4
 -11  16   1 5.32876 3.54311   4
  -5 -11   1 6.01499 3.60645   1
  -5 -11  -1 0.41387 3.17034   1
  16  -5  -2 0.65888 2.82042   2
 -11  16  -2 0.41229 2.48114   4
  16  -5  -3 4.75763 2.65022   2
  -5 -11  -3 1.30507 3.18226   4
  11 -16  -3 5.42873 4.45319   1
  -6 -10   0 53.8935 5.84845   1
 -10  16   0 51.8928 5.86968   4
  -6 -10   1 30.8865 5.13996   1
  -6 -10  -1 27.4778 4.51915   1
  16  -6  -1 28.1319 4.12007   2
 -10  16  -1 30.4956 4.31005   4
 -10  16   1 24.2522 4.58541   4
  -6 -10  -1 27.8542 4.20217   4
  10 -16  -1 24.3823 5.63864   1
  16  -6  -2 11.7985 3.17991   2
 -10  16  -2 6.47218 2.79533   4
 -10  16   2 8.46751 3.65188   4
  -6 -10  -2 8.64143 3.48890   4
  10 -16  -2 8.27979 4.72989   1
  -6 -10  -3 20.6284 4.36679   4
  10 -16  -3 20.1060 4.99212   1
  16  -7   0 0.78595 3.05311   2
  -7  -9   0 0.97871 3.43074   1
  -9  16   0 2.37404 2.89123   4
  -7  -9   0-0.72288 2.55614   4
  -7  -9  -1-0.89989 3.34249   1
  -7  -9   1-1.56207 3.31475   1
   9 -16  -1 0.60834 4.22730   1
  -9  16   1-1.02226 3.14832   4
  -9  16  -1 0.42598 2.59385   4
  -7  -9  -1 0.79360 2.83022   4
  16  -7  -1-0.33964 2.65750   2
   9 -16  -2 14.0941 4.36358   1
  -9  16   2 9.69226 3.88991   4
  -9  16  -2 14.5987 2.93777   4
  -7  -9  -2 13.6754 3.90503   4
  16  -7  -2 14.3751 3.22062   2
   9 -16  -3-0.50503 3.66271   1
  -9  16   3 0.55477 3.29861   4
  -7  -9  -3-1.36570 3.38180   4
  -8  -8   0 290.223 13.8221   1
  16  -8   0 270.276 12.2188   2
  -8  -8  -1 8.52706 3.46787   1
  -8  -8   1 9.20477 4.05716   1
  -8  16   1 6.89952 3.51919   4
  -8  16  -1 4.01117 2.40033   4
   8 -16  -1 6.28140 2.64546   2
  16  -8   1 9.93251 3.58595   2
  16  -8  -1 4.26727 2.73156   2
  -8  16  -2 13.5288 2.55893   4
  -8  16   2 16.1184 4.31245   4
   8 -16  -2 15.5363 4.71208   1
  -8  -8  -2 18.0116 4.00447   1
  16  -8  -2 17.5914 3.16123   2
  -8  -8  -3 5.60641 3.70778   4
  -8  16   3 1.71129 3.51473   4
   7 -16   0 19.2163 3.53025   2
  16  -9   0 15.5220 3.55437   2
  -7  16   0 11.3023 2.91391   4
  -9  -7   0 18.2299 4.44428   1
  16  -9   1 7.16937 3.48390   2
  -7  16   1 0.45053 2.68227   4
  -9  -7  -1 5.97089 3.64067   1
  16  -9  -1 6.46158 2.86514   2
   7 -16  -1 7.25725 2.62130   2
  -7  16   2 52.7571 6.09738   4
  -9  -7  -2 67.1337 6.24581   1
  -7  16   3 4.47824 3.67752   4
  16 -10   0 14.1576 3.50531   2
   6 -16   0 15.2077 3.12037   2
 -10  -6   0 17.9557 4.70722   1
  10   6   0 14.7835 4.41188   1
   6 -16   1-1.86133 2.89217   2
   6 -16  -1-0.28173 2.49556   2
  16 -10  -1-0.63657 2.57657   2
 -10  -6  -1 2.08212 3.34878   1
  16 -10   1 2.22678 3.67572   2
  10   6   1 0.54264 3.26554   1
 -10  -6  -2 0.47414 3.38185   1
  10   6   2-0.49041 2.91587   1
  10   6   3 0.86850 2.48584   1
   5 -16   0 26.8305 4.00524   2
  16 -11   0 21.9549 3.96827   2
 -11  -5  -1 17.4913 4.70226   1
   5 -16   1 15.3226 3.56906   2
   5 -16  -1 15.0182 3.23373   2
  11   5   1 15.7361 4.38764   1
  16 -11   1 26.3034 4.59777   2
 -11  -5  -2 44.7283 5.85907   1
  11   5   2 31.5942 5.27118   1
  11   5   3 12.1867 3.68195   1
   4 -16   0 100.638 7.64521   1
   4 -16   0 123.889 7.49221   2
   4 -16  -1 2.51402 2.80646   1
   4 -16  -1 2.48943 2.74207   2
  16 -12   1 2.31116 3.51394   2
 -12  -4  -2 199.632 11.6144   1
  12   4   2 186.434 11.6853   1
  12   4   3-0.51866 3.15823   1
   3 -16   0 22.4712 4.35870   1
 -12  17   0 1.43965 2.98951   4
 -12  17  -1 5.01183 3.25253   4
 -11  17   0-0.98764 3.33841   4
 -11  17   1 40.0122 5.64665   4
 -10  17   0 2.48057 2.91437   4
 -10  17   1 77.2824 7.41811   4
  -9  17   0 1.85226 2.75376   4
  -9  17   1 19.6238 4.73572   4
  17  -8  -1 23.9314 4.05184   2
  -9  17   2 0.55709 3.65796   4
  -8  17   1-6.71451 3.18296   4
  -9  -8  -1 1.00387 3.58230   1
  -8  17   2 59.7359 6.65349   4
  17 -10   0 4.60762 3.23103   2
 -10  -7  -1 83.5639 7.91471   1
   6 -17   0 40.8976 4.72060   2
  11   6   2 3.60224 3.34637   1
   0   0   0    0.00    0.00   0
;
_shelx_hkl_checksum              55603
loop_
_space_group_symop_operation_xyz
'x, y, z'
'-x, -y, z+1/2'
'-y, x-y, z'
'y, -x+y, z+1/2'
'-x+y, -x, z'
'x-y, x, z+1/2'
'-x, -y, -z'
'x, y, -z-1/2'
'y, -x+y, -z'
'-y, x-y, -z-1/2'
'x-y, x, -z'
'-x+y, -x, -z-1/2'
loop_
_atom_site_label
_atom_site_type_symbol
_atom_site_fract_x
_atom_site_fract_y
_atom_site_fract_z
_atom_site_U_iso_or_equiv
_atom_site_adp_type
_atom_site_occupancy
_atom_site_site_symmetry_order
_atom_site_calc_flag
_atom_site_refinement_flags_posn
_atom_site_refinement_flags_adp
_atom_site_refinement_flags_occupancy
_atom_site_disorder_assembly
_atom_site_disorder_group
Pb1 Pb 0.3333 0.6667 0.50673(4) 0.02062(8) Uani 1 3 d S T P . .
Pb2 Pb 0.00503(3) 0.25169(3) 0.2500 0.02343(8) Uani 1 2 d S T P . .
As3 As 0.38361(6) 0.40888(7) 0.2500 0.01097(10) Uani 1 2 d S T P . .
O1 O 0.4935(6) 0.3303(7) 0.2500 0.0217(10) Uani 1 2 d S T P . .
O2 O 0.4853(7) 0.5985(6) 0.2500 0.0384(17) Uani 1 2 d S T P . .
O3 O 0.2691(7) 0.3587(7) 0.0720(7) 0.0481(15) Uani 1 1 d . . . . .
Cl Cl 0.0000 0.0000 0.0000 0.0261(6) Uani 1 6 d S T P . .
loop_
_atom_site_aniso_label
_atom_site_aniso_U_11
_atom_site_aniso_U_22
_atom_site_aniso_U_33
_atom_site_aniso_U_23
_atom_site_aniso_U_13
_atom_site_aniso_U_12
Pb1 0.02495(10) 0.02495(10) 0.01198(11) 0.000 0.000 0.01247(5)
Pb2 0.01882(12) 0.01445(11) 0.03684(15) 0.000 0.000 0.00819(9)
As3 0.0098(2) 0.0113(2) 0.0123(2) 0.000 0.000 0.00559(19)
O1 0.025(2) 0.033(3) 0.019(2) 0.000 0.000 0.024(2)
O2 0.017(2) 0.013(2) 0.080(5) 0.000 0.000 0.004(2)
O3 0.055(3) 0.070(4) 0.044(3) -0.040(3) -0.037(3) 0.050(3)
Cl 0.0253(8) 0.0253(8) 0.0276(14) 0.000 0.000 0.0127(4)
loop_
_atom_type_symbol
_atom_type_description
_atom_type_scat_dispersion_real
_atom_type_scat_dispersion_imag
_atom_type_scat_source
O O 0.0056 0.0036 'International Tables Vol C Tables 4.2.6.8 and 6.1.1.4'
Cl Cl 0.0998 0.0984 'International Tables Vol C Tables 4.2.6.8 and 6.1.1.4'
As As 0.2758 1.3314 'International Tables Vol C Tables 4.2.6.8 and 6.1.1.4'
Pb Pb -1.1676 6.9287 'International Tables Vol C Tables 4.2.6.8 and 6.1.1.4'
loop_
_geom_angle_atom_site_label_1
_geom_angle_atom_site_label_2
_geom_angle_atom_site_label_3
_geom_angle
_geom_angle_site_symmetry_1
_geom_angle_site_symmetry_3
_geom_angle_publ_flag
O1 Pb1 O1 74.30(13) 9_566 11_556 ?
O1 Pb1 O1 74.30(13) 9_566 7_666 ?
O1 Pb1 O1 74.30(13) 11_556 7_666 ?
O1 Pb1 O2 90.95(12) 9_566 3_665 ?
O1 Pb1 O2 150.75(17) 11_556 3_665 ?
O1 Pb1 O2 126.57(17) 7_666 3_665 ?
O1 Pb1 O2 126.57(17) 9_566 5_565 ?
O1 Pb1 O2 90.95(12) 11_556 5_565 ?
O1 Pb1 O2 150.75(17) 7_666 5_565 ?
O2 Pb1 O2 77.57(13) 3_665 5_565 ?
O1 Pb1 O2 150.75(17) 9_566 . ?
O1 Pb1 O2 126.57(17) 11_556 . ?
O1 Pb1 O2 90.95(12) 7_666 . ?
O2 Pb1 O2 77.57(13) 3_665 . ?
O2 Pb1 O2 77.57(13) 5_565 . ?
O1 Pb1 Pb1 135.79(8) 9_566 8_556 ?
O1 Pb1 Pb1 135.79(8) 11_556 8_556 ?
O1 Pb1 Pb1 135.79(8) 7_666 8_556 ?
O2 Pb1 Pb1 46.33(9) 3_665 8_556 ?
O2 Pb1 Pb1 46.33(9) 5_565 8_556 ?
O2 Pb1 Pb1 46.33(9) . 8_556 ?
O1 Pb1 O3 119.20(9) 9_566 7_656 ?
O1 Pb1 O3 69.83(14) 11_556 7_656 ?
O1 Pb1 O3 49.78(12) 7_666 7_656 ?
O2 Pb1 O3 138.52(11) 3_665 7_656 ?
O2 Pb1 O3 101.65(12) 5_565 7_656 ?
O2 Pb1 O3 62.16(10) . 7_656 ?
Pb1 Pb1 O3 103.52(2) 8_556 7_656 ?
O2 Pb2 O3 84.28(15) 5_565 11 ?
O2 Pb2 O3 84.28(15) 5_565 6 ?
O3 Pb2 O3 131.8(3) 11 6 ?
O2 Pb2 O3 74.44(17) 5_565 . ?
O3 Pb2 O3 81.64(8) 11 . ?
O3 Pb2 O3 138.46(16) 6 . ?
O2 Pb2 O3 74.44(17) 5_565 8_556 ?
O3 Pb2 O3 138.46(15) 11 8_556 ?
O3 Pb2 O3 81.64(8) 6 8_556 ?
O3 Pb2 O3 58.62(19) . 8_556 ?
O2 As3 O3 106.8(3) . 8_556 ?
O2 As3 O3 106.8(3) . . ?
O3 As3 O3 104.8(5) 8_556 . ?
O2 As3 O1 112.1(3) . . ?
O3 As3 O1 112.86(19) 8_556 . ?
O3 As3 O1 112.86(19) . . ?
As3 O1 Pb1 129.05(14) . 7_666 ?
As3 O1 Pb1 129.05(14) . 2_664 ?
Pb1 O1 Pb1 91.57(16) 7_666 2_664 ?
As3 O2 Pb2 128.2(3) . 3_665 ?
As3 O2 Pb1 100.9(2) . . ?
Pb2 O2 Pb1 115.53(16) 3_665 . ?
As3 O2 Pb1 100.9(2) . 8_556 ?
Pb2 O2 Pb1 115.53(16) 3_665 8_556 ?
Pb1 O2 Pb1 87.34(17) . 8_556 ?
As3 O3 Pb2 137.9(3) . 9 ?
As3 O3 Pb2 98.3(3) . . ?
Pb2 O3 Pb2 115.74(19) 9 . ?
loop_
_geom_bond_atom_site_label_1
_geom_bond_atom_site_label_2
_geom_bond_distance
_geom_bond_site_symmetry_2
_geom_bond_publ_flag
Pb1 O1 2.530(3) 9_566 ?
Pb1 O1 2.530(4) 11_556 ?
Pb1 O1 2.530(3) 7_666 ?
Pb1 O2 2.771(4) 3_665 ?
Pb1 O2 2.771(4) 5_565 ?
Pb1 O2 2.771(4) . ?
Pb1 Pb1 3.8272(6) 8_556 ?
Pb1 O3 13.435(5) 7_656 ?
Pb2 O2 2.352(6) 5_565 ?
Pb2 O3 2.629(5) 11 ?
Pb2 O3 2.629(5) 6 ?
Pb2 O3 2.710(7) . ?
Pb2 O3 2.710(7) 8_556 ?
As3 O2 1.689(6) . ?
As3 O3 1.674(4) 8_556 ?
As3 O3 1.674(4) . ?
As3 O1 1.684(5) . ?
O1 Pb1 2.530(3) 7_666 ?
O1 Pb1 2.530(3) 2_664 ?
O2 Pb2 2.352(6) 3_665 ?
O2 Pb1 2.771(4) 8_556 ?
O3 Pb2 2.629(5) 9 ?
