#------------------------------------------------------------------------------
#$Date: 2022-09-02 04:49:51 +0300 (Fri, 02 Sep 2022) $
#$Revision: 277573 $
#$URL: file:///home/coder/svn-repositories/cod/cif/2/10/90/2109043.cif $
#------------------------------------------------------------------------------
#
# This file is available in the Crystallography Open Database (COD),
# http://www.crystallography.net/. The original data for this entry
# were provided by IUCr Journals, http://journals.iucr.org/.
#
# The file may be used within the scientific community so long as
# proper attribution is given to the journal article from which the
# data were obtained.
#
data_2109043
loop_
_publ_author_name
'Bogdanov, Nikita E.'
'Korabel'nikov, Dmitry V.'
'Fedorov, Igor A.'
'Zakharov, Boris A.'
'Boldyreva, Elena V.'
_publ_section_title
;
 The effect of hydrostatic compression on the crystal structure of
 glycinium phosphite
;
_journal_issue                   5
_journal_name_full               'Acta Crystallographica Section B'
_journal_page_first
;
;
_journal_paper_doi               10.1107/S2052520622008289
_journal_volume                  78
_journal_year                    2022
_chemical_formula_moiety         'C2 H6 N O2, H2 O3 P'
_chemical_formula_sum            'C2 H8 N O5 P'
_chemical_formula_weight         157.06
_space_group_crystal_system      monoclinic
_space_group_IT_number           14
_space_group_name_Hall           '-P 2yab'
_space_group_name_H-M_alt        'P 1 21/a 1'
_atom_sites_solution_hydrogens   geom
_atom_sites_solution_primary     direct
_atom_sites_solution_secondary   difmap
_audit_creation_method           SHELXL-2018/3
_cell_angle_alpha                90
_cell_angle_beta                 100.98(6)
_cell_angle_gamma                90
_cell_formula_units_Z            4
_cell_length_a                   9.0700(17)
_cell_length_b                   8.4856(9)
_cell_length_c                   6.610(11)
_cell_measurement_pressure       6520000
_cell_measurement_reflns_used    459
_cell_measurement_temperature    293(2)
_cell_measurement_theta_max      25.1080
_cell_measurement_theta_min      3.3010
_cell_volume                     499.4(8)
_computing_cell_refinement       'CrysAlisPro 1.171.40.53 (Rigaku OD, 2019)'
_computing_data_collection       'CrysAlisPro 1.171.40.53 (Rigaku OD, 2019)'
_computing_data_reduction        'CrysAlisPro 1.171.40.53 (Rigaku OD, 2019)'
_computing_structure_refinement  'SHELXL-2018/3 (Sheldrick, 2018)'
_diffrn_ambient_pressure         6520000
_diffrn_ambient_temperature      293(2)
_diffrn_detector                 'CCD plate'
_diffrn_detector_area_resol_mean 10.3457
_diffrn_detector_type            Ruby
_diffrn_measured_fraction_theta_full 0.366
_diffrn_measured_fraction_theta_max 0.328
_diffrn_measurement_device       'four-circle diffractometer'
_diffrn_measurement_device_type  'Xcalibur, Ruby, Gemini ultra'
_diffrn_radiation_monochromator  graphite
_diffrn_radiation_probe          x-ray
_diffrn_radiation_type           'Mo K\a'
_diffrn_radiation_wavelength     0.71073
_diffrn_reflns_av_R_equivalents  0.1361
_diffrn_reflns_av_unetI/netI     0.1268
_diffrn_reflns_Laue_measured_fraction_full 0.366
_diffrn_reflns_Laue_measured_fraction_max 0.328
_diffrn_reflns_limit_h_max       11
_diffrn_reflns_limit_h_min       -11
_diffrn_reflns_limit_k_max       11
_diffrn_reflns_limit_k_min       -11
_diffrn_reflns_limit_l_max       3
_diffrn_reflns_limit_l_min       -3
_diffrn_reflns_number            2523
_diffrn_reflns_point_group_measured_fraction_full 0.366
_diffrn_reflns_point_group_measured_fraction_max 0.328
_diffrn_reflns_theta_full        25.242
_diffrn_reflns_theta_max         28.003
_diffrn_reflns_theta_min         3.316
_diffrn_source                   'fine-focus sealed X-ray tube'
_diffrn_source_type              'Enhance (Mo) X-ray Source'
_exptl_absorpt_coefficient_mu    0.497
_exptl_absorpt_correction_T_max  1.00000
_exptl_absorpt_correction_T_min  0.01258
_exptl_absorpt_correction_type   multi-scan
_exptl_absorpt_process_details
;
CrysAlisPro 1.171.40.53 (Rigaku Oxford Diffraction, 2019)
Empirical absorption correction using spherical harmonics,
 implemented in SCALE3 ABSPACK scaling algorithm.
;
_exptl_crystal_colour            white
_exptl_crystal_density_diffrn    2.089
_exptl_crystal_description       plates
_exptl_crystal_F_000             328
_exptl_crystal_size_max          0.21
_exptl_crystal_size_mid          0.10
_exptl_crystal_size_min          0.05
_refine_diff_density_max         0.373
_refine_diff_density_min         -0.415
_refine_diff_density_rms         0.102
_refine_ls_extinction_method     none
_refine_ls_goodness_of_fit_ref   1.074
_refine_ls_hydrogen_treatment    constr
_refine_ls_matrix_type           full
_refine_ls_number_parameters     86
_refine_ls_number_reflns         397
_refine_ls_number_restraints     44
_refine_ls_restrained_S_all      1.023
_refine_ls_R_factor_all          0.1422
_refine_ls_R_factor_gt           0.0752
_refine_ls_shift/su_max          0.000
_refine_ls_shift/su_mean         0.000
_refine_ls_structure_factor_coef Fsqd
_refine_ls_weighting_details
'w=1/[\s^2^(Fo^2^)+(0.1184P)^2^+1.5202P] where P=(Fo^2^+2Fc^2^)/3'
_refine_ls_weighting_scheme      calc
_refine_ls_wR_factor_gt          0.1739
_refine_ls_wR_factor_ref         0.2197
_reflns_Friedel_coverage         0.000
_reflns_number_gt                244
_reflns_number_total             397
_reflns_threshold_expression     'I > 2\s(I)'
_cod_data_source_file            xk5096sup1.cif
_cod_data_source_block           6.46
_cod_original_sg_symbol_H-M      'P 21/a'
_cod_database_code               2109043
_shelx_shelxl_version_number     2018/3
_shelx_space_group_comment
;
The symmetry employed for this shelxl refinement is uniquely defined
by the following loop, which should always be used as a source of
symmetry information in preference to the above space-group names.
They are only intended as comments.
;
_oxdiff_exptl_absorpt_empirical_full_min 0.703
_oxdiff_exptl_absorpt_empirical_full_max 63.473
_oxdiff_exptl_absorpt_empirical_details
;
Empirical correction (ABSPACK) includes:
- Absorption correction using spherical harmonics
- Frame scaling
;
_shelx_res_file
;
TITL GPI_6 in P2(1)/c
    6.46.res
    created by SHELXL-2018/3 at 17:56:53 on 15-Aug-2022
REM  transformed to space group : P21/a:b3
REM P2(1)/c (#14 in standard setting)
CELL   0.71073  9.0700  8.4856  6.6096   90.000  100.976   90.000
ZERR   4        0.0017  0.0009  0.0108    0.000    0.056    0.000
LATT    1
SYMM   1/2-X,1/2+Y,-Z
SFAC C H N O P
UNIT 8 32 4 20 4
LIST 4 ! automatically inserted. Change 6 to 4 for CHECKCIF!!
PLAN 30
FMAP 2
L.S. 20
BOND
BOND $H
CONF
ACTA
EQIV $1 1-X, 1-Y,1-Z
EQIV $2 1/2+X, 3/2-Y,Z
EQIV $3 1-X, 2-Y, 2-Z
EQIV $4 1-X, 2-Y, 1-Z
EQIV $5 1/2+X, 1/2-Y, Z
HTAB N1 O2_$1
HTAB N1 O3_$2
HTAB N1 O2
HTAB O1 O1_$3
HTAB O3 O3_$4
HTAB O5 O2_$5
DFIX 1.66  H1 O1_$3
DFIX 1.70  H3 O3_$4
SIMU 0.005
WGHT    0.118400    1.520200
FVAR       1.66071
C1    1    0.672549    0.281255    0.797842    11.00000    0.02751    0.01117 =
         0.02433    0.01130   -0.00515    0.00094
AFIX  23
H1D   2    0.572946    0.234954    0.771747    11.00000   -1.20000
H1E   2    0.699144    0.308972    0.942586    11.00000   -1.20000
AFIX   0
C2    1    0.786531    0.167286    0.739126    11.00000    0.02399    0.00895 =
         0.02448    0.00987   -0.00189   -0.00068
N1    3    0.677493    0.424303    0.664339    11.00000    0.03116    0.01184 =
         0.02132    0.01171    0.00247    0.00537
AFIX 137
H1A   2    0.642651    0.399245    0.533198    11.00000   -1.20000
H1B   2    0.771825    0.457958    0.678244    11.00000   -1.20000
H1C   2    0.620924    0.500223    0.702699    11.00000   -1.20000
AFIX   0
O1    4    0.537451    0.864527    0.987981    11.00000    0.03525    0.01287 =
         0.07420    0.00686    0.00669    0.01006
AFIX 147
H1    2    0.538018    0.961156    0.989071    10.50000   -1.20000
AFIX   0
O2    4    0.461515    0.645244    0.734904    11.00000    0.02511    0.01039 =
         0.07234   -0.00413    0.00399   -0.00579
O3    4    0.445125    0.926036    0.628448    11.00000    0.02626    0.01799 =
         0.07275    0.00210    0.00164   -0.00162
AFIX 147
H3    2    0.492167    0.947840    0.537822    10.50000   -1.20000
AFIX   0
O4    4    0.851131    0.179166    0.600928    11.00000    0.02924    0.01658 =
         0.02429    0.00389    0.00285    0.00241
O5    4    0.807340    0.051777    0.887895    11.00000    0.03949    0.01440 =
         0.02318    0.00478    0.00302    0.00490
AFIX 147
H5    2    0.860891   -0.017937    0.855229    11.00000   -1.20000
AFIX   0
P1    5    0.531056    0.806835    0.771656    11.00000    0.01961    0.01223 =
         0.07545    0.00031    0.00827    0.00041
AFIX  13
H1P   2    0.633777    0.801934    0.745627    11.00000   -1.20000
AFIX   0
HKLF 4




REM  GPI_6 in P2(1)/c
REM wR2 = 0.2197, GooF = S = 1.074, Restrained GooF = 1.023 for all data
REM R1 = 0.0752 for 244 Fo > 4sig(Fo) and 0.1422 for all 397 data
REM 86 parameters refined using 44 restraints

END

WGHT      0.1217      1.5268

REM Highest difference peak  0.373,  deepest hole -0.415,  1-sigma level  0.102
Q1    1   0.6958  0.3214  0.4886  11.00000  0.05    0.37
Q2    1   0.6664  0.7533  0.7508  11.00000  0.05    0.34
Q3    1   0.9529  0.1991  0.5477  11.00000  0.05    0.33
Q4    1   0.7853  0.3089  1.0180  11.00000  0.05    0.31
Q5    1   0.9362  0.1742  0.5920  11.00000  0.05    0.31
Q6    1   0.9392  0.1552  0.6505  11.00000  0.05    0.30
Q7    1   0.3967  0.6240  0.7767  11.00000  0.05    0.30
Q8    1   0.5784  0.1330  0.7417  11.00000  0.05    0.29
Q9    1   0.8817  0.2388  0.6997  11.00000  0.05    0.28
Q10   1   0.7562  0.2448  0.7316  11.00000  0.05    0.28
Q11   1   0.4586  0.8225  0.9112  11.00000  0.05    0.28
Q12   1   0.7847  0.1695  0.5304  11.00000  0.05    0.25
Q13   1   0.6580  0.9713  0.5588  11.00000  0.05    0.25
Q14   1   0.8490  0.4554  0.4994  11.00000  0.05    0.24
Q15   1   0.8767  0.1881  0.9568  11.00000  0.05    0.24
Q16   1   0.8965  0.1421  0.8143  11.00000  0.05    0.23
Q17   1   0.6584  0.6193  0.7765  11.00000  0.05    0.23
Q18   1   0.6592  0.3273  0.9682  11.00000  0.05    0.23
Q19   1   0.7182  0.1950  0.9690  11.00000  0.05    0.23
Q20   1   0.8241  0.4583  0.6998  11.00000  0.05    0.23
Q21   1   0.5831  0.1896  0.9081  11.00000  0.05    0.22
Q22   1   0.3433  0.9369  0.5932  11.00000  0.05    0.22
Q23   1   1.0030  0.0552  0.9244  11.00000  0.05    0.22
Q24   1   0.6735  0.2025  1.0845  11.00000  0.05    0.21
Q25   1   0.9680  0.0529  1.0515  11.00000  0.05    0.21
Q26   1   0.4802  1.0542  0.7398  11.00000  0.05    0.21
Q27   1   0.3186  0.7528  0.7897  11.00000  0.05    0.21
Q28   1   0.3418  0.8145  0.5442  11.00000  0.05    0.20
Q29   1   0.4010  0.7487  0.7821  11.00000  0.05    0.20
Q30   1   0.3363  0.8797  0.7639  11.00000  0.05    0.20
;
_shelx_res_checksum              99944
_shelx_hkl_file
;
  -1   0   0 6.93969 7.05221   7-0.03981-0.03981-0.01377 0.01368-0.98811 0.97279
   1   0   0 4.20679 4.83451   8 0.03979 0.03978 0.04342-0.04346 0.98726-0.97195
   2   0   0 5243.31 206.140   8 0.07958 0.07955 0.02821-0.02827 0.99312-0.96251
  -2   0   0 5570.96 159.779   6-0.07971-0.07972-0.33656 0.33667-0.93597 0.90525
  -2   0   0 4902.90 213.268   7-0.07963-0.07964-0.00647 0.00629-0.99350 0.96287
  -3   0   0 2.95684 16.7840   7-0.11944-0.11945 0.00086-0.00114-0.99728 0.95132
   3   0   0 5.07091 14.9295   9 0.11937 0.11937-0.27331 0.27323 0.95972-0.91384
  -3   0   0 2.90334 10.2634   6-0.11954-0.11958-0.24252 0.24267-0.96768 0.92163
   3   0   0 14.0086 17.3474   8 0.11939 0.11932 0.01290-0.01299 0.99718-0.95127
  -3   0   0 -13.127 8.54414   4-0.11949-0.11948-0.24270 0.24234-0.96763 0.92174
  -4   0   0 2942.26 255.705   7-0.15925-0.15927 0.00824-0.00861-0.99940 0.93813
   4   0   0 2909.41 236.230   8 0.15920 0.15909-0.00254 0.00240 0.99943-0.93822
  -4   0   0 2655.42 150.256   6-0.15935-0.15943-0.14242 0.14257-0.98925 0.92789
  -4   0   0 2857.03 157.093   4-0.15932-0.15930-0.14256 0.14210-0.98923 0.92800
   5   0   0 -0.1168 18.0353   1 0.19916 0.19943 0.06542-0.06600 0.99781-0.92104
  -5   0   0 32.0415 51.0896   7-0.19907-0.19909 0.01565-0.01612-0.99986 0.92326
   5   0   0 16.2737 53.9400   8 0.19902 0.19885-0.01808 0.01791 0.99982-0.92332
  -5   0   0 -33.116 27.1014   6-0.19914-0.19927-0.03545 0.03557-0.99933 0.92267
  -6   0   0 4659.39 422.817   7-0.23888-0.23892 0.02309-0.02366-0.99860 0.90668
   6   0   0 4191.44 378.232   8 0.23884 0.23861-0.03374 0.03351 0.99830-0.90653
  -6   0   0 4121.73 232.632   6-0.23891-0.23910 0.07973-0.07968-0.99567 0.90369
   7   0   0 95.1850 108.266   8 0.27867 0.27836-0.04952 0.04924 0.99482-0.88778
   7   0   0 63.0148 80.2017   2 0.27886 0.27884 0.04130-0.04169 0.99515-0.88786
  -7   0   0 87.3540 85.2623   7-0.27869-0.27874 0.03058-0.03125-0.99558 0.88833
  -8   0   0 1333.35 233.567   3-0.31884-0.31948-0.07574 0.07541-0.98844 0.86546
  -8   0   0 1499.09 314.449   7-0.31850-0.31856 0.03811-0.03887-0.99074 0.86816
   8   0   0 1308.91 237.737   2 0.31874 0.31871 0.09082-0.09127 0.98715-0.86448
   8   0   0 1246.24 278.191   8 0.31851 0.31811-0.06543 0.06508 0.98929-0.86699
  -9   0   0 -66.904 123.271   7-0.35832-0.35839 0.04568-0.04653-0.98400 0.84608
  -9   0   0 -9.4290 81.2311   3-0.35865-0.35944-0.11138 0.11108-0.97845 0.84004
   9   0   0 30.0464 109.544   8 0.35835 0.35786-0.08146 0.08105 0.98161-0.84408
  10   0   0 844.445 304.879   8 0.39821 0.39762-0.09763 0.09715 0.97168-0.81892
 -10   0   0 1254.16 375.936   7-0.39813-0.39821 0.05329-0.05424-0.97527 0.82202
 -11   0   0 136.631 187.875   7-0.43794-0.43804 0.06095-0.06199-0.96444 0.79584
  11   0   0 360.794 268.448   8 0.43806 0.43737-0.11394 0.11339 0.95933-0.79137
  11   0   0 60.0874 85.2132   5 0.43825 0.43751 0.13744-0.13686 0.95596-0.78792
   0  -1   0 9.54382 7.64083   9 0.21296-0.21293-0.04178-0.04178 0.99892-0.99889
   0   1   0 5.00636 7.64346   4-0.22620 0.22630 0.04178 0.04178-0.99853 0.99850
   0  -1   0 0.43093 4.22743   1 0.21732-0.21722-0.04178-0.04178 0.99881-0.99879
   0   1   0 1.59683 3.29140   6-0.22615 0.22616 0.04177 0.04178-0.99854 0.99851
  -1  -1   0 338.265 45.9577   9 0.14370-0.22325-0.21651 0.13297 0.97533-0.99060
   1  -1   0 301.508 41.2046   8 0.10360-0.02397 0.01899-0.10253 0.99579-0.98044
  -1   1   0 322.808 46.7209   4-0.17889 0.09933-0.09092 0.17434-0.99574 0.98041
   1  -1   0 348.992 34.5017   9 0.29636-0.21675 0.20255-0.28611 0.97287-0.95753
  -1   1   0 270.757 40.8094   8-0.01590-0.06371 0.06454 0.01902 0.97607-0.99142
   1  -1   0 334.289 43.7915   7 0.05165 0.02787-0.03041-0.05308-0.96961 0.98494
   1  -1   0 357.385 45.7408   1 0.19214-0.11240 0.10332-0.18703 0.99461-0.97923
   1   1   0 350.383 38.7130   1 0.23198-0.15248-0.14151 0.22503 0.98907-0.97378
  -1  -1   0 317.727 33.6487   7-0.07635-0.00338-0.00708-0.07661-0.99312 0.97781
  -1  -1   0 345.789 33.7174   6-0.27025 0.19066 0.17790-0.26141-0.98058 0.96530
  -1   1   0 335.799 47.1433   6-0.17891 0.09925-0.09076 0.17441-0.99576 0.98039
   1   1   0 335.350 33.8661   6-0.33050 0.41006 0.39467-0.31119-0.90500 0.92027
  -1   1   0 320.589 40.5116   7-0.08863 0.00911-0.00482 0.08830-0.99450 0.97917
   1  -1   0 360.170 50.6472   6-0.13382 0.21347-0.20735 0.12369-0.97664 0.99201
  -1  -1   0 352.064 34.8896   4-0.27028 0.19047 0.17779-0.26150-0.98060 0.96528
   2  -1   0 929.120 93.3551   4-0.07760 0.23680-0.34139 0.25810-0.93402 0.96462
   2   1   0 922.321 60.6575   1 0.24870-0.08957-0.28075 0.36432 0.95762-0.92700
   2  -1   0 938.450 83.0814   1 0.18232-0.02289 0.15373-0.23761 0.98803-0.95727
   2  -1   0 884.619 93.3062   8 0.11018 0.04901 0.01645-0.10001 0.99641-0.96575
  -2   1   0 907.968 95.5877   7-0.10263-0.05652-0.00224 0.08563-0.99588 0.96524
  -2  -1   0 866.014 86.1896   9 0.08372-0.24286-0.35279 0.26926 0.93078-0.96134
  -2  -1   0 921.299 87.7336   7-0.10025-0.05911-0.00268-0.08110-0.99566 0.96503
  -2   1   0 896.215 89.0377   6-0.16651 0.00714-0.12371 0.20742-0.99197 0.96125
   2   1   0 914.948 76.9578   8 0.08845 0.07066 0.02481 0.05864 0.99418-0.96361
   3  -1   0 16756.7 464.510   4-0.02540 0.26422-0.45577 0.37261-0.87784 0.92368
   3   1   0 15803.4 417.961   8 0.13103 0.10766 0.00839 0.07502 0.99803-0.95216
  -3   1   0 15479.2 412.563   6-0.17218-0.06689-0.10875 0.19250-0.99384 0.94779
  -3  -1   0 17203.3 447.005   9 0.02919-0.26793-0.46621 0.38269 0.87347-0.91932
   3  -1   0 15843.3 478.067   8 0.13626 0.10249 0.00636-0.08996 0.99836-0.95241
  -3   1   0 16002.0 494.894   7-0.13280-0.10598 0.00333 0.07996-0.99817 0.95222
  -3  -1   0 16138.7 471.651   7-0.13550-0.10350 0.00383-0.08771-0.99833 0.95238
   4  -1   0 112.913 60.6212   8 0.16857 0.14975-0.00619-0.07744 0.99969-0.93844
  -4   1   0 57.2732 46.5853   7-0.16755-0.15086 0.00978 0.07342-0.99964 0.93837
  -4  -1   0 145.159 53.8523   7-0.17316-0.14548 0.01082-0.09479-0.99975 0.93848
   4  -1   0 109.431 44.3799   4 0.02429 0.29417-0.55615 0.47308-0.81033 0.87139
   4   1   0 158.364 53.6275   8 0.17211 0.14617-0.00757 0.09093 0.99976-0.93860
  -4   1   0 136.733 48.3053   6-0.18780-0.13095-0.06671 0.15046-0.99774 0.93635
   4  -1   0 81.3663 23.9825   9 0.06963 0.24874-0.38301 0.29933 0.91745-0.85624
  -4  -1   0 150.439 61.4225   9-0.02202-0.29629-0.56419 0.48068 0.80592-0.86704
   5   1   0 795.151 137.625   8 0.21267 0.18520-0.02344 0.10676 0.99952-0.92306
  -5   1   0 946.723 176.470   7-0.20425-0.19379 0.01661 0.06649-0.99979 0.92320
  -5  -1   0 1142.30 181.892   7-0.21172-0.18655 0.01801-0.10208-0.99965 0.92304
   5  -1   0 787.444 149.719   8 0.20365 0.19425-0.01990-0.06376 0.99974-0.92320
  -5   1   0 801.232 116.118   6-0.20934-0.18908-0.00678 0.09052-0.99982 0.92311
   6  -1   0 931.736 190.820   8 0.24019 0.23728-0.03427-0.04943 0.99822-0.90640
   6   1   0 700.575 157.429   8 0.25300 0.22446-0.03935 0.12260 0.99729-0.90556
  -6  -1   0 351.013 44.5441   6-0.28694-0.19081 0.23353-0.31715-0.96696 0.87507
  -6   1   0 914.112 196.378   7-0.24195-0.23573 0.02367 0.05936-0.99843 0.90652
  -6  -1   0 759.544 181.974   7-0.25072-0.22719 0.02532-0.10948-0.99789 0.90595
  -6   1   0 883.619 134.144   6-0.23457-0.24349 0.06672 0.01697-0.99684 0.90480
  -7  -1   0 -267.97 143.882   7-0.28996-0.26758 0.03271-0.11697-0.99440 0.88713
   7   1   0 235.711 134.210   8 0.29320 0.26385-0.05531 0.13852 0.99304-0.88605
  -7   1   0 9.63207 52.0191   6-0.26219-0.29550 0.15192-0.06832-0.98567 0.87829
   7   1   0 13.2319 79.1312   2 0.27888 0.27872 0.04132 0.04190 0.99515-0.88795
   7  -1   0 -92.295 81.1266   8 0.27761 0.27943-0.04910-0.03467 0.99494-0.88785
   7  -1   0 8.13353 49.7192   2 0.29424 0.26360 0.06024-0.14430 0.99260-0.88520
  -7   1   0 -105.58 98.0585   7-0.28023-0.27708 0.03087 0.05206-0.99543 0.88820
  -8  -1   0 1068.74 295.231   7-0.32936-0.30783 0.04017-0.12452-0.98910 0.86649
  -8   1   0 466.759 172.384   7-0.31888-0.31807 0.03818 0.04466-0.99069 0.86813
   8  -1   0 615.392 205.815   8 0.31560 0.32103-0.06426-0.01956 0.98976-0.86742
   8   1   0 593.856 214.283   8 0.33333 0.30333-0.07137 0.15452 0.98669-0.86444
  -8   1   0 397.128 142.340   3-0.33618-0.30198-0.09118 0.17458-0.98451 0.86152
  -8  -1   0 849.069 219.890   3-0.31492-0.32351-0.07227-0.01180-0.98925 0.86626
   8   1   0 646.173 181.268   2 0.31316 0.32415 0.08381-0.00063 0.98854-0.86599
   9  -1   0 -84.901 114.711   8 0.35397 0.36224-0.07969-0.00420 0.98256-0.84499
   9   1   0 85.2127 113.445   2 0.34844 0.36863 0.12859-0.04543 0.97812-0.84020
   9   1   0 -130.11 155.825   8 0.37342 0.34285-0.08756 0.17063 0.97813-0.84064
  -9   1   0 -80.473 144.815   7-0.35778-0.35881 0.04557 0.03717-0.98411 0.84622
  -9  -1   0 181.720 131.701   3-0.35138-0.36684-0.10482 0.02078-0.98053 0.84211
  -9  -1   0 -50.467 137.901   7-0.36885-0.34797 0.04769-0.13214-0.98189 0.84394
  10  -1   0 1564.27 363.794   8 0.39262 0.40318-0.09536 0.01141 0.97321-0.82041
 -10  -1   0 1071.51 272.373   3-0.38838-0.40960-0.13845 0.05445-0.96869 0.81482
 -10  -1   0 1878.49 483.981   7-0.40842-0.38804 0.05526-0.13982-0.97268 0.81939
  10   1   0 1941.65 428.506   8 0.41347 0.38240-0.10386 0.18687 0.96724-0.81454
 -10   1   0 1708.31 422.565   7-0.39685-0.39937 0.05304 0.02960-0.97559 0.82236
 -11   1   0 275.651 233.141   7-0.43605-0.43982 0.06058 0.02196-0.96500 0.79644
  11  -1   0 13.9062 129.098   8 0.43146 0.44393-0.11123 0.02722 0.96155-0.79354
 -11  -1   0 291.217 254.367   7-0.44803-0.42807 0.06290-0.14755-0.96135 0.79270
  11   1   0 0.95080 183.665   8 0.45351 0.42199-0.12030 0.20324 0.95387-0.78596
   0  -2   0 4263.12 161.363   3-0.32763 0.32756-0.08355-0.08356-0.98653 0.98659
   0  -2   0 4226.08 197.614   9 0.19714-0.19707-0.08356-0.08356 0.99651-0.99646
   0   2   0 4177.72 201.357   6-0.24017 0.24020 0.08355 0.08358-0.99529 0.99524
   0  -2   0 4290.77 122.766   8 0.36363-0.36352-0.08358-0.08358 0.98043-0.98040
   1   2   0 123.395 32.1500   6-0.28887 0.36849 0.24013-0.07313-0.96509 0.98035
  -1   2   0 188.296 35.7536   2 0.50426-0.58387 0.34294-0.17540 0.87465-0.89015
   1  -2   0 200.063 40.7962   8 0.18710-0.10740-0.01342-0.15367 0.99990-0.98453
  -1   2   0 164.229 44.7297   6-0.21221 0.13258 0.00143 0.16579-0.99979 0.98440
   1  -2   0 129.883 33.0769   9 0.23104-0.15139 0.00749-0.17461 0.99919-0.98382
  -1  -2   0 101.980 33.0984   9 0.15949-0.23900-0.17843 0.01133 0.98355-0.99880
  -1  -2   0 159.829 36.6227   4-0.21104 0.13114-0.00207-0.16520-0.99982 0.98453
   1   2   0 134.955 37.4255   1 0.21016-0.13074 0.00228 0.16480 0.99983-0.98457
  -1   2   0 163.312 33.7185   7-0.18696 0.10751 0.01339 0.15365-0.99990 0.98454
   1  -2   0 176.703 35.4857   7 0.12392-0.04449-0.04343-0.12366-0.94897 0.96430
  -2   2   0 2223.48 173.295   6-0.20052 0.04119-0.03159 0.19889-0.99945 0.96872
   2  -2   0 2292.58 179.937   4-0.11044 0.26957-0.26456 0.09772-0.96128 0.99194
   2   2   0 2023.82 98.6271   8 0.17730-0.01817-0.00959 0.17660 0.99984-0.96930
  -2  -2   0 2099.23 118.765   6-0.23332 0.07408 0.06297-0.23003-0.99714 0.96657
   2  -2   0 2099.04 154.043   8 0.16310-0.00384-0.00406-0.16303 0.99955-0.96887
  -2   2   0 2023.70 150.698   7-0.15863-0.00042 0.00812 0.15883-0.99938 0.96873
   2   2   0 2366.56 143.179   6-0.35383 0.51293 0.49653-0.32961-0.84602 0.87656
  -2  -2   0 2112.03 166.912   9 0.11947-0.27857-0.27309 0.10601 0.95979-0.99034
   2  -2   0 2112.52 121.117   9 0.25896-0.09974 0.08723-0.25437 0.99376-0.96308
  -2  -2   0 2043.78 122.654   7-0.18030 0.02086 0.01215-0.17953-0.99986 0.96924
  -2  -2   0 2085.80 121.899   4-0.23324 0.07365 0.06262-0.23001-0.99716 0.96653
   2   2   0 1939.17 129.776   1 0.21845-0.05938-0.04895 0.21600 0.99846-0.96789
   3  -2   0 2444.62 118.546   9 0.27705-0.03826 0.14164-0.30878 0.98586-0.93986
   3  -2   0 2675.91 217.504   4-0.07120 0.30998-0.35589 0.18920-0.92798 0.97390
  -3  -2   0 2540.96 199.741   9 0.07791-0.31659-0.36533 0.19826 0.92541-0.97125
  -3   2   0 2579.39 205.430   7-0.17050-0.06818 0.01033 0.15654-0.99970 0.95374
   3   2   0 2542.29 144.746   1 0.22031 0.01849-0.06089 0.22794 0.99774-0.95185
  -3  -2   0 2492.23 120.894   4-0.24342 0.00412 0.09326-0.26075-0.99425 0.94826
   3   2   0 2537.20 152.535   8 0.18723 0.05149-0.01347 0.18042 0.99990-0.95406
   3  -2   0 2643.69 208.218   8 0.17252 0.06630-0.00773-0.15937 0.99977-0.95378
  -3  -2   0 2552.19 181.136   7-0.18757-0.05152 0.01350-0.18099-0.99990 0.95395
  -3   2   0 2489.29 197.950   6-0.20037-0.03867-0.03202 0.19935-0.99944 0.95336
  -5  -2   0 2100.93 233.474   9-0.00800-0.38988-0.53817 0.37110 0.82573-0.90214
  -5  -2   0 2407.03 255.484   7-0.24449-0.15388 0.02415-0.19182-0.99829 0.92167
   5   2   0 2288.48 218.284   8 0.25009 0.14783-0.03819 0.20502 0.99752-0.92111
  -5   2   0 1822.40 200.375   6-0.22190-0.17652 0.02935 0.13799-0.99912 0.92236
   5  -2   0 2196.60 250.168   8 0.22269 0.17526-0.02738-0.13978 0.99915-0.92258
  -5   2   0 2168.08 257.815   7-0.22533-0.17260 0.02055 0.14613-0.99923 0.92264
   5  -2   0 2016.37 222.234   4 0.01127 0.38675-0.53066 0.36421-0.82931 0.90569
   6   2   0 441.610 122.077   8 0.28645 0.19107-0.05262 0.21939 0.99390-0.90222
  -6   2   0 530.726 163.708   7-0.25855-0.21901 0.02679 0.13981-0.99734 0.90543
   6  -2   0 362.783 121.414   8 0.25422 0.22329-0.03983-0.12737 0.99719-0.90534
   6  -2   0 322.414 71.7391   2 0.28589 0.19236 0.04993-0.21762 0.99407-0.90193
  -6  -2   0 -167.14 82.8113   9-0.05186-0.42560-0.61748 0.45042 0.76049-0.85217
  -6  -2   0 507.280 151.542   7-0.27904-0.19897 0.03065-0.19843-0.99555 0.90360
  -6   2   0 640.398 131.325   6-0.23958-0.23852 0.08175 0.08555-0.99547 0.90338
  -7   2   0 2255.69 225.555   3-0.32935-0.22885-0.08508 0.25216-0.98613 0.87855
  -7   2   0 2136.70 322.262   7-0.29355-0.26365 0.03338 0.13313-0.99400 0.88677
   7  -2   0 2514.80 336.152   8 0.28786 0.26922-0.05318-0.11405 0.99373-0.88661
   7   2   0 2542.00 340.035   2 0.28806 0.26943 0.05260 0.11422 0.99370-0.88659
  -7   2   0 2535.53 281.641   6-0.26015-0.29759 0.14547 0.02177-0.98681 0.87937
  -7  -2   0 2704.15 364.306   7-0.31519-0.24246 0.03748-0.20535-0.99122 0.88392
   7   2   0 2240.16 291.322   8 0.32398 0.23314-0.06762 0.23433 0.98836-0.88142
   8  -2   0 83.0128 137.599   8 0.32288 0.31376-0.06718-0.10011 0.98855-0.86618
  -8   2   0 172.264 159.479   7-0.32968-0.30715 0.04023 0.12619-0.98905 0.86650
   8   2   0 119.983 95.9524   8 0.36219 0.27454-0.08300 0.24966 0.98076-0.85856
  -8  -2   0 44.3175 136.872   3-0.32061-0.31789-0.07731-0.09047-0.98807 0.86507
   8   2   0 230.894 145.410   2 0.31724 0.31997 0.08892 0.07787 0.98753-0.86508
  -8  -2   0 -136.08 146.536   7-0.35232-0.28498 0.04453-0.21250-0.98515 0.86251
   9   2   0 403.601 176.312   8 0.40083 0.31550-0.09870 0.26528 0.97094-0.83351
  -9   2   0 1101.46 300.773   7-0.36659-0.34987 0.04725 0.11907-0.98236 0.84449
  -9  -2   0 954.800 303.842   7-0.39008-0.32685 0.05175-0.21982-0.97721 0.83922
  -9  -2   0 1029.64 303.135   3-0.35340-0.36489-0.10664-0.06112-0.97997 0.84154
   9   2   0 1038.45 287.105   2 0.34812 0.36882 0.12817 0.03862 0.97823-0.84043
   9  -2   0 842.100 251.005   8 0.35887 0.35736-0.08167-0.08567 0.98150-0.84388
 -10  -2   0 194.808 173.815   3-0.38727-0.41080-0.13744-0.03029-0.96909 0.81520
 -10  -2   0 -119.87 157.860   7-0.42828-0.36829 0.05908-0.22725-0.96727 0.81394
  10   2   0 360.856 160.237   8 0.43979 0.35617-0.11464 0.28116 0.95875-0.80610
 -10   2   0 -117.13 148.572   7-0.40405-0.39205 0.05442 0.11180-0.97380 0.82060
  10  -2   0 271.092 179.565   8 0.39556 0.40025-0.09655-0.07086 0.97241-0.81957
 -11  -2   0 205.246 205.390   7-0.46679-0.40943 0.06653-0.23479-0.95520 0.78651
 -11  -2   0 238.154 155.460   3-0.42197-0.45588-0.16955 0.00185-0.95511 0.78573
  11  -2   0 239.972 201.106   8 0.43276 0.44265-0.11176-0.05571 0.96112-0.79308
   0  -3   0 17.6741 18.7327   3-0.37398 0.37389-0.12530-0.12533-0.97367 0.97376
   0  -3   0 11.3784 32.8862   9 0.18086-0.18076-0.12534-0.12532 0.99210-0.99202
   0   3   0 10.2134 25.9543   2 0.34603-0.34596 0.12549 0.12540 0.97895-0.97905
   0   3   0 -4.1759 26.0718   6-0.25375 0.25380 0.12531 0.12536-0.99006 0.98997
   0  -3   0 7.72294 13.2622   8 0.46586-0.46569-0.12541-0.12539 0.94921-0.94921
   0  -3   0 14.0486 24.8348   4-0.16593 0.16562-0.12533-0.12536-0.99175 0.99182
   1   3   0 702.927 104.041   2 0.28416-0.20452 0.04782 0.20289 0.99435-0.97913
   1  -3   0 750.452 96.7547   9 0.20069-0.12101-0.07428-0.17639 0.99722-0.98183
   1  -3   0 801.050 77.9433   3-0.57620 0.65569-0.32106 0.07070-0.84835 0.86379
  -1  -3   0 723.700 109.460   9 0.15581-0.23529-0.18741-0.06325 0.98177-0.99699
  -1  -3   0 867.663 106.428   4-0.18295 0.10295-0.07996-0.17086-0.99673 0.98147
   1   3   0 718.894 97.2624   6-0.28549 0.36515 0.22861 0.02193-0.96832 0.98354
  -1   3   0 658.644 105.629   6-0.23359 0.15397 0.06378 0.18700-0.99708 0.98165
   1   3   0 593.379 92.7764   1 0.19738-0.11805 0.07519 0.17547 0.99713-0.98190
  -1   3   0 703.104 72.1945   7-0.31587 0.23646 0.03761 0.21297-0.99112 0.97573
   1  -3   0 688.628 81.2701   8 0.27869-0.19889-0.04953-0.20115 0.99481-0.97943
  -1   3   0 768.966 86.7646   2 0.46514-0.54467 0.28595-0.03479 0.91154-0.92704
  -2   3   0 740.646 117.099   6-0.22349 0.06418 0.03398 0.21688-0.99892 0.96816
  -2  -3   0 737.850 93.9060   4-0.19254 0.03285-0.05383-0.19712-0.99853 0.96792
  -2  -3   0 771.287 70.4995   7-0.34532 0.18584 0.04320-0.29422-0.98642 0.95583
   2  -3   0 809.442 104.066   8 0.22964-0.07028-0.03012-0.22052 0.99882-0.96812
   2   3   0 785.190 105.692   1 0.20243-0.04345 0.04713 0.20350 0.99882-0.96828
   2   3   0 693.551 91.6017   6-0.32787 0.48706 0.38412-0.13370-0.91017 0.94068
   2  -3   0 676.391 88.2884   9 0.21348-0.05424-0.04037-0.21032 0.99896-0.96825
  -2   3   0 705.282 93.3082   7-0.24002 0.08104 0.02331 0.22719-0.99854 0.96786
  -2  -3   0 754.709 118.762   9 0.12675-0.28582-0.25631 0.00566 0.96483-0.99535
   2  -3   0 850.123 128.400   4-0.11656 0.27560-0.24981-0.00060-0.96564 0.99633
   3  -3   0 5058.41 230.815   9 0.21613 0.02268-0.03326-0.21746 0.99916-0.95314
  -3  -3   0 5176.48 347.598   9 0.09458-0.33323-0.32904 0.07841 0.94033-0.98616
   3  -3   0 5219.27 331.370   8 0.22245 0.01648-0.02728-0.22334 0.99916-0.95314
  -3   3   0 5129.89 337.730   6-0.22149-0.01752 0.02816 0.22276-0.99917 0.95306
  -3   3   0 5217.03 312.054   7-0.22853-0.01005 0.02115 0.22926-0.99910 0.95312
  -3  -3   0 4735.41 248.646   7-0.28459 0.04544 0.03169-0.28281-0.99498 0.94905
   3   3   0 5064.24 283.748   1 0.20267 0.03604 0.04576 0.20483 0.99888-0.95301
   3  -3   0 5221.15 365.726   4-0.08638 0.32509-0.32123 0.07098-0.94194 0.98792
   3   3   0 5530.12 206.558   8 0.32040-0.08160-0.06618 0.31675 0.98897-0.94316
  -3  -3   0 4824.35 236.378   4-0.19131-0.04807-0.05723-0.19381-0.99834 0.95239
   3   3   0 5742.04 381.433   6-0.37227 0.61092 0.59374-0.34339-0.77180 0.81760
  -4   3   0 2170.87 226.821   7-0.23939-0.07881 0.02319 0.22714-0.99858 0.93729
  -4  -3   0 1741.67 204.836   9 0.05992-0.37816-0.40346 0.15285 0.90765-0.96877
  -4  -3   0 1930.15 186.671   7-0.28294-0.03587 0.03138-0.28259-0.99516 0.93388
   4   3   0 1973.23 154.857   8 0.30513 0.01327-0.06007 0.31054 0.99138-0.93029
   4  -3   0 2090.51 221.301   8 0.23320 0.08528-0.03151-0.21911 0.99864-0.93732
  -4  -3   0 1845.45 132.044   4-0.17173-0.14729-0.11003-0.14110-0.99369 0.93242
   4   3   0 1894.00 160.276   1 0.19705 0.12146 0.07702 0.17350 0.99699-0.93577
   4  -3   0 1774.25 120.357   9 0.20186 0.11651-0.07122-0.17953 0.99743-0.93610
  -4   3   0 2155.72 224.575   6-0.22583-0.09288 0.04084 0.21011-0.99859 0.93713
   4  -3   0 2142.22 243.793   4-0.05350 0.37184-0.39536 0.14525-0.90999 0.97122
  -5  -3   0 265.351 85.2722   7-0.30012-0.09834 0.03463-0.28593-0.99321 0.91659
   5  -3   0 194.379 82.9576   8 0.25325 0.14478-0.03944-0.21121 0.99727-0.92067
  -5  -3   0 163.144 36.0982   4-0.10765-0.29098-0.27126 0.02006-0.95922 0.88268
  -5  -3   0 294.022 100.910   9 0.02325-0.42109-0.47798 0.22737 0.86632-0.94272
   5   3   0 233.436 59.8231   1 0.18293 0.21542 0.15069 0.09969 0.98850-0.91188
   5  -3   0 147.037 58.6664   4-0.01841 0.41639-0.47038 0.22041-0.86916 0.94563
   5   3   0 263.891 78.5764   8 0.31933 0.07866-0.06576 0.31616 0.98915-0.91278
  -5   3   0 152.100 84.5153   7-0.26061-0.13722 0.02718 0.22307-0.99718 0.92059
  -5   3   0 104.378 69.2437   6-0.23509-0.16334 0.06826 0.18269-0.99671 0.91991
   5  -3   0 194.918 36.5397   9 0.14785 0.25010-0.20660-0.04422 0.97764-0.90102
   6   3   0 405.381 114.763   8 0.34439 0.13321-0.07583 0.32616 0.98455-0.89292
  -6  -3   0 425.854 136.340   7-0.32568-0.15243 0.03947-0.29088-0.98967 0.89771
   6  -3   0 259.786 114.630   8 0.27875 0.19883-0.04955-0.20112 0.99481-0.90293
  -6  -3   0 153.625 78.9693   9-0.01506-0.46237-0.55134 0.30073 0.81588-0.90757
  -6   3   0 337.119 121.927   7-0.28746-0.18999 0.03223 0.21793-0.99468 0.90278
   6  -3   0 186.059 79.5489   4 0.01851 0.45909-0.54491 0.29506-0.81887 0.91055
  -6   3   0 259.479 107.322   6-0.24812-0.22999 0.10784 0.14308-0.99249 0.90034
   6   3   0 279.254 117.638   2 0.28139 0.19635 0.04440 0.20603 0.99478-0.90306
  -6   3   0 276.792 62.9194   3-0.36682-0.11131-0.11878 0.36948-0.97597 0.88376
   7   3   0 -29.784 107.519   2 0.30310 0.25432 0.07124 0.17917 0.99083-0.88379
  -7   3   0 119.707 90.1744   6-0.26407-0.29372 0.15793 0.09293-0.98456 0.87705
   7  -3   0 223.329 139.150   8 0.30771 0.24944-0.06110-0.18961 0.99099-0.88385
  -7   3   0 75.7292 92.4205   7-0.31772-0.23936 0.03796 0.21211-0.99086 0.88365
   7   3   0 45.9641 97.6587   8 0.37464 0.18257-0.08805 0.33831 0.97783-0.87094
  -7  -3   0 72.1937 101.842   7-0.35571-0.20204 0.04518-0.29668-0.98451 0.87720
  -8  -3   0 1044.99 276.055   3-0.33341-0.30510-0.08871-0.16278-0.98518 0.86217
  -8   3   0 418.631 206.799   7-0.35019-0.28653 0.04413 0.20586-0.98554 0.86301
   8   3   0 440.035 152.088   8 0.40779 0.22903-0.10154 0.35173 0.96893-0.84680
  -8  -3   0 547.991 192.800   7-0.38839-0.24901 0.05142-0.30302-0.97760 0.85494
   8  -3   0 698.435 198.314   8 0.33899 0.29772-0.07366-0.17711 0.98561-0.86321
   8   3   0 370.391 181.830   2 0.32774 0.30937 0.10218 0.14822 0.98470-0.86234
   9  -3   0 204.672 149.840   8 0.37192 0.34436-0.08695-0.16385 0.97849-0.84085
  -9  -3   0 -185.29 151.268   7-0.42278-0.29426 0.05802-0.30971-0.96882 0.83081
  -9   3   0 -110.63 128.709   7-0.38418-0.33217 0.05061 0.19929-0.97857 0.84072
  -9  -3   0 -92.237 151.464   3-0.36248-0.35584-0.11485-0.13663-0.97731 0.83886
   9   3   0 -124.35 126.115   2 0.35459 0.36224 0.13651 0.11388 0.97590-0.83820
  10  -3   0 180.117 195.223   8 0.40605 0.38979-0.10083-0.15003 0.96944-0.81658
 -10  -3   0 240.390 199.779   3-0.39312-0.40500-0.14281-0.10866-0.96695 0.81303
  10   3   0 521.166 243.908   2 0.38314 0.41343 0.17376 0.07661 0.96391-0.81088
 -10   3   0 300.700 198.464   7-0.41925-0.37673 0.05735 0.19246-0.96980 0.81663
 -10  -3   0 230.179 197.082   7-0.45834-0.33834 0.06489-0.31667-0.95803 0.80466
 -11  -3   0 188.263 211.476   7-0.49473-0.38159 0.07196-0.32383-0.94507 0.77634
 -11  -3   0 -106.36 223.548   3-0.42496-0.45295-0.17235-0.07909-0.95376 0.78435
   0   4   0 2793.77 231.987   1 0.17961-0.18001 0.16714 0.16714 0.98582-0.98594
   0  -4   0 2873.37 222.361   9 0.16411-0.16398-0.16712-0.16710 0.98565-0.98554
   0   4   0 3004.46 235.914   6-0.26691 0.26697 0.16706 0.16716-0.98280 0.98267
   0  -4   0 3021.14 238.776   4-0.14980 0.14938-0.16711-0.16717-0.98505 0.98514
   0  -4   0 2962.76 187.444   3-0.41927 0.41918-0.16703-0.16709-0.95630 0.95641
   0  -4   0 3272.27 147.382   8 0.56560-0.56539-0.16724-0.16722 0.90129-0.90133
   0   4   0 3106.90 223.514   2 0.37826-0.37813 0.16733 0.16717 0.96616-0.96631
   0   4   0 2781.91 149.223   5 0.48629-0.48640 0.16730 0.16738 0.93511-0.93514
   1   4   0 20.6621 56.0583   6-0.29048 0.37017 0.24572 0.08837-0.96347 0.97866
  -1  -4   0 -83.779 67.5703   4-0.16094 0.08084-0.13836-0.19603-0.98988 0.97463
  -1   4   0 67.8671 44.2733   7-0.46410 0.38471 0.06601 0.26810-0.95611 0.94068
  -1   4   0 56.6713 68.3123   6-0.25101 0.17142 0.11677 0.21756-0.99129 0.97583
   1  -4   0 57.2639 55.1666   3-0.56716 0.64664-0.31166-0.02218-0.85716 0.87262
   1   4   0 39.9033 76.3141   2 0.32541-0.24573 0.09923 0.23508 0.98536-0.97018
  -1   4   0 -17.223 34.3398   2 0.46661-0.54608 0.28807 0.04672 0.91031-0.92586
   1  -4   0 -42.680 60.4645   9 0.17726-0.09755-0.13442-0.19982 0.99088-0.97545
  -1  -4   0 113.513 89.5486   9 0.14588-0.22533-0.21131-0.12291 0.97656-0.99175
   1  -4   0 -31.541 45.0189   8 0.37374-0.29385-0.08769-0.24663 0.97805-0.96269
   1   4   0 99.5836 80.1082   1 0.18661-0.10737 0.13206 0.20217 0.99119-0.97599
  -1  -4   0 -9.3186 66.7854   3-0.34084 0.26104-0.09535-0.23902-0.98334 0.96809
   2   4   0 2240.61 208.001   1 0.19004-0.03114 0.11433 0.21988 0.99340-0.96289
  -2   4   0 2167.99 230.107   6-0.24218 0.08290 0.08967 0.24476-0.99465 0.96385
   2   4   0 2392.88 209.356   6-0.32125 0.48049 0.35799-0.02404-0.92225 0.95273
  -2  -4   0 2722.82 127.210   7-0.64393 0.48449 0.10146-0.43616-0.86804 0.83744
  -2  -4   0 2062.03 190.478   4-0.16552 0.00572-0.12641-0.20808-0.99160 0.96101
  -2   4   0 2264.61 174.432   7-0.34112 0.18221 0.04240 0.29162-0.98715 0.95643
   2  -4   0 2157.15 185.826   9 0.18396-0.02469-0.11747-0.21678 0.99309-0.96235
   2  -4   0 2351.95 193.111   8 0.30483-0.14535-0.05995-0.27427 0.99142-0.96072
  -2  -4   0 1961.97 219.757   9 0.12351-0.28255-0.26379-0.07041 0.96263-0.99313
  -3  -4   0 3073.18 226.145   4-0.16123-0.07824-0.13760-0.19699-0.98999 0.94406
  -3  -4   0 3015.09 177.819   7-0.43948 0.20030 0.06124-0.39601-0.96398 0.91805
   3  -4   0 3055.54 252.312   8 0.28222-0.04318-0.05093-0.28325 0.99441-0.94838
   3   4   0 2980.28 126.872   8 0.62036-0.38142-0.19074 0.52502 0.86592-0.82013
   3  -4   0 2924.00 298.448   4-0.08878 0.32741-0.31566-0.01817-0.94403 0.99005
   3  -4   0 2970.45 208.553   9 0.18199 0.05685-0.12248-0.21181 0.99247-0.94642
  -3   4   0 2741.48 270.450   6-0.23945 0.00046 0.08138 0.25311-0.99551 0.94936
  -3  -4   0 3076.65 290.474   9 0.09771-0.33633-0.32212-0.01207 0.94297-0.98877
   3   4   0 2882.80 232.480   1 0.18958 0.04906 0.11674 0.21744 0.99312-0.94728
  -3   4   0 3026.70 244.549   7-0.30360 0.06510 0.03528 0.29867-0.99277 0.94677
   3   4   0 3010.32 237.908   6-0.35594 0.59466 0.50668-0.17283-0.83917 0.88493
   4   4   0 294.518 100.429   2 0.28431 0.03411 0.04800 0.28606 0.99432-0.93327
  -4  -4   0 362.582 116.424   9 0.06900-0.38721-0.38434 0.05016 0.91683-0.97793
  -4   4   0 354.327 103.626   7-0.29832-0.01979 0.03429 0.29958-0.99343 0.93213
   4  -4   0 515.986 124.727   8 0.28161 0.03697-0.05069-0.28347 0.99448-0.93315
   4   4   0 307.887 55.0167   8 0.46664-0.14813-0.12574 0.45987 0.94891-0.88784
  -4  -4   0 323.233 79.8847   7-0.38925 0.07038 0.05159-0.38644-0.97740 0.91613
  -4  -4   0 477.722 91.6623   4-0.14381-0.17532-0.18234-0.15232-0.98210 0.92083
  -4   4   0 322.557 101.322   6-0.24180-0.07690 0.08851 0.24602-0.99478 0.93327
   4   4   0 469.234 102.689   1 0.18450 0.13393 0.14276 0.19136 0.98969-0.92850
   4  -4   0 227.212 37.9019   5 0.55941-0.24054 0.21390-0.54784 0.89342-0.83239
   4  -4   0 484.016 83.9204   9 0.16715 0.15125-0.15962-0.17469 0.98696-0.92560
   4  -4   0 351.160 115.827   4-0.06167 0.37995-0.37729 0.04361-0.91851 0.97980
  -5  -4   0 5843.11 296.702   4-0.10309-0.29567-0.28211-0.05262-0.95574 0.87918
  -5   4   0 5867.52 450.175   7-0.30861-0.08911 0.03623 0.29755-0.99212 0.91552
  -5   4   0 5468.34 427.704   6-0.24833-0.15007 0.10850 0.22604-0.99241 0.91555
   5  -4   0 5941.50 260.315   9 0.12948 0.26849-0.24996-0.08440 0.96663-0.88998
   5   4   0 6198.50 352.691   1 0.17333 0.22495 0.19746 0.13655 0.98012-0.90353
   5   4   0 5270.34 449.064   2 0.29159 0.10646 0.05697 0.27706 0.99309-0.91674
   5  -4   0 5792.66 439.846   8 0.29313 0.10501-0.05528-0.27888 0.99305-0.91643
   5   4   0 6169.55 320.964   8 0.43347-0.03535-0.11205 0.44608 0.96089-0.88456
  -5  -4   0 5091.92 359.089   7-0.38197-0.01657 0.05019-0.38514-0.97907 0.90244
  -5  -4   0 5979.58 453.076   9 0.03782-0.43561-0.44890 0.11474 0.88355-0.95994
  -6  -4   0 -2.4327 62.8091   7-0.39282-0.08537 0.05227-0.38732-0.97656 0.88458
   6  -4   0 30.9292 66.8569   4-0.00001 0.47757-0.50809 0.17471-0.84503 0.93679
   6  -4   0 53.8651 73.0254   8 0.31202 0.16567-0.06283-0.27135 0.99033-0.89843
  -6   4   0 178.033 90.4859   6-0.25826-0.21986 0.13947 0.19505-0.98782 0.89561
   6   4   0 10.7378 72.4780   2 0.30466 0.17304 0.07319 0.26082 0.99049-0.89885
  -6  -4   0 -11.779 60.5747   9 0.00448-0.48187-0.51450 0.18033 0.84253-0.93421
  -6   4   0 206.317 120.862   7-0.32758-0.14976 0.03983 0.29388-0.98938 0.89748
   6   4   0 -81.891 70.0390   8 0.43451 0.04321-0.11248 0.44642 0.96054-0.86895
  -6  -4   0 79.8688 72.9322   3-0.30920-0.16964-0.06721-0.26785-0.99036 0.89818
   7  -4   0 2892.67 378.932   8 0.33573 0.22151-0.07234-0.26186 0.98624-0.87907
  -7  -4   0 2510.63 315.101   7-0.41302-0.14482 0.05615-0.39129-0.97148 0.86414
  -7  -4   0 3405.28 405.630   9-0.03074-0.52623-0.58003 0.24588 0.79312-0.90009
  -7   4   0 2949.28 392.585   7-0.35189-0.20507 0.04445 0.28917-0.98523 0.87802
   7   4   0 2828.31 406.565   2 0.32204 0.23531 0.09498 0.23901 0.98628-0.87932
  -7  -4   0 2679.98 394.023   3-0.32870-0.22998-0.08450-0.25061-0.98628 0.87869
  -7   4   0 2851.90 352.693   6-0.27093-0.28688 0.18010 0.15438-0.98011 0.87253
   8   4   0 205.210 147.154   2 0.34271 0.29433 0.12123 0.21274 0.98007-0.85781
  -8  -4   0 -15.637 104.131   7-0.43869-0.19880 0.06109-0.39632-0.96422 0.84152
  -8   4   0 109.736 89.0849   6-0.28576-0.35173 0.22951 0.10490-0.96808 0.84513
   8  -4   0 160.452 144.709   8 0.36274 0.27406-0.08323-0.25100 0.98063-0.85821
  -8  -4   0 -96.436 130.604   3-0.35159-0.28691-0.10501-0.23015-0.98047 0.85745
  -8   4   0 -63.734 93.3333   7-0.37972-0.25687 0.04976 0.28378-0.97957 0.85705
  -9  -4   0 1033.17 255.372   7-0.46782-0.24931 0.06673-0.40205-0.95485 0.81680
   9  -4   0 283.756 152.590   8 0.39212 0.32423-0.09515-0.23912 0.97334-0.83569
  -9   4   0 914.620 299.411   7-0.40998-0.30625 0.05556 0.27790-0.97228 0.83445
   9   4   0 873.152 300.015   2 0.36593 0.35081 0.15120 0.18277 0.97148-0.83389
  -9  -4   0 551.730 261.235   3-0.37703-0.34129-0.12808-0.20710-0.97266 0.83419
  10   4   0 199.381 197.395   2 0.39114 0.40532 0.18436 0.14962 0.96002-0.80712
 -10  -4   0 476.939 295.945   3-0.40445-0.39368-0.15326-0.18191-0.96255 0.80860
 -10   4   0 -19.517 137.271   7-0.44200-0.35387 0.06173 0.27164-0.96321 0.81007
  10  -4   0 157.537 197.178   8 0.42328 0.37264-0.10787-0.22645 0.96421-0.81133
   0   5   0 24.7579 56.1138   1 0.17090-0.17141 0.20894 0.20893 0.97770-0.97785
   0   5   0 -4.7772 44.5762   6-0.27962 0.27971 0.20881 0.20896-0.97348 0.97331
   0  -5   0 21.9509 30.9483   3-0.46345 0.46334-0.20876-0.20886-0.93419 0.93431
   0  -5   0 50.5431 43.5018   8 0.66232-0.66208-0.20907-0.20905 0.83346-0.83357
   0   5   0 -9.3109 31.2927   2 0.40969-0.40950 0.20919 0.20894 0.95008-0.95030
   0   5   0 3.12333 28.3312   5 0.55205-0.55219 0.20913 0.20925 0.89823-0.89822
   0  -5   0 -55.104 45.8219   9 0.14688-0.14673-0.20891-0.20887 0.97711-0.97697
   1   5   0 397.291 108.376   1 0.17639-0.09726 0.18280 0.23504 0.98300-0.96784
  -1   5   0 415.247 63.8298   7-0.62420 0.54477 0.09750 0.32012-0.88077 0.86533
   1   5   0 332.377 95.1517   6-0.29835 0.37806 0.27323 0.14440-0.95491 0.97005
  -1   5   0 266.697 75.2374   2 0.48084-0.56023 0.30851 0.10991 0.89784-0.91347
  -1   5   0 438.328 121.876   6-0.26647 0.18689 0.16564 0.25225-0.98308 0.96758
   1  -5   0 387.410 110.701   4-0.12085 0.20001-0.23939-0.17831-0.96854 0.98397
   1  -5   0 379.618 101.966   9 0.15606-0.07633-0.18678-0.23101 0.98190-0.96644
   1  -5   0 352.120 74.0354   8 0.46994-0.38997-0.12710-0.29086 0.94761-0.93230
  -1  -5   0 283.686 71.0205   3-0.39191 0.31212-0.14170-0.27618-0.96740 0.95216
  -1  -5   0 360.097 98.1145   9 0.13298-0.21240-0.24179-0.17597 0.96889-0.98406
   1  -5   0 424.044 85.6287   3-0.58218 0.66166-0.32731-0.09003-0.84229 0.85777
   2   5   0 1355.76 202.688   2 0.33520-0.17592 0.11166 0.30613 0.98248-0.95206
  -2   5   0 1198.11 135.687   7-0.45755 0.29865 0.06474 0.35281-0.95829 0.92754
   2  -5   0 1224.64 190.446   4-0.10446 0.26331-0.27884-0.13872-0.95681 0.98755
   2   5   0 1300.89 180.211   1 0.17884-0.02001 0.17092 0.24689 0.98517-0.95469
  -2  -5   0 1293.70 203.000   9 0.11511-0.27411-0.28303-0.13473 0.95664-0.98712
  -2   5   0 667.664 150.928   2 0.57828-0.73735 0.46015-0.04141 0.77226-0.80348
   2   5   0 1477.81 193.646   6-0.32226 0.48154 0.36192 0.05556-0.92049 0.95094
   2  -5   0 1348.53 165.275   8 0.38555-0.22595-0.09247-0.32536 0.97509-0.94441
  -2  -5   0 1177.58 171.112   3-0.35174 0.19221-0.10515-0.31295-0.98043 0.94982
   2  -5   0 1290.56 164.868   9 0.15945-0.00015-0.17853-0.23928 0.98353-0.95276
  -2   5   0 1229.54 197.417   6-0.25863 0.09937 0.14064 0.27736-0.98763 0.95678
  -3  -5   0 2159.06 222.525   4-0.13715-0.10244-0.19910-0.21902-0.97853 0.93259
  -3  -5   0 2767.30 175.124   7-0.67335 0.43421 0.10740-0.52586-0.84736 0.80138
   3   5   0 2205.69 231.320   6-0.34961 0.58840 0.47685-0.05951-0.85879 0.90451
  -3   5   0 2132.09 218.469   7-0.39298 0.15453 0.05230 0.36516-0.97652 0.93049
  -3  -5   0 1809.36 233.499   3-0.33200 0.09267-0.08744-0.33085-0.98551 0.93953
  -3   5   0 2066.59 262.431   6-0.25558 0.01661 0.13105 0.28701-0.98918 0.94298
   3   5   0 1876.29 254.861   2 0.32107-0.08222 0.09376 0.32395 0.98654-0.94083
   3  -5   0 2169.39 279.869   4-0.08463 0.32316-0.32527-0.09214-0.94040 0.98645
   3  -5   0 2032.49 221.167   8 0.34917-0.11000-0.07775-0.34001 0.98358-0.93756
   3   5   0 2097.17 230.770   1 0.17796 0.06060 0.17520 0.24259 0.98441-0.93859
  -3  -5   0 2167.96 271.861   9 0.09383-0.33242-0.33067-0.08707 0.93970-0.98548
   3  -5   0 2183.41 213.352   9 0.15540 0.08346-0.18839-0.22944 0.98157-0.93548
  -4  -5   0 52.2542 35.5685   7-0.53990 0.22102 0.08079-0.49932-0.92607 0.86478
   4  -5   0 61.5627 63.7513   8 0.33767-0.01895-0.07312-0.34460 0.98587-0.92455
  -4   5   0 36.9647 52.3960   7-0.37004 0.05201 0.04791 0.36947-0.98165 0.92033
  -4  -5   0 -29.453 64.6779   9 0.06958-0.38775-0.38311-0.03463 0.91740-0.97849
   4  -5   0 75.0733 61.2650   9 0.14104 0.17738-0.22282-0.19504 0.97380-0.91240
  -4  -5   0 -9.6475 50.6502   3-0.32592 0.00678-0.08203-0.33642-0.98691 0.92553
   4   5   0 -113.93 62.6208   6-0.37596 0.69422 0.61662-0.19936-0.75124 0.81225
  -4   5   0 -142.44 99.7731   6-0.25672-0.06196 0.13460 0.28350-0.98862 0.92707
  -4  -5   0 69.7675 49.2081   4-0.12128-0.19796-0.23832-0.17989-0.96884 0.90757
   4   5   0 50.1638 57.2008   1 0.17322 0.14513 0.19795 0.21979 0.98002-0.91885
   4   5   0 42.3050 61.9574   2 0.31706 0.00137 0.08871 0.32893 0.98757-0.92658
   4  -5   0 71.4552 73.3252   4-0.06179 0.37999-0.37702-0.04024-0.91863 0.97996
   5  -5   0 84.6625 169.468   4-0.03627 0.43414-0.43269 0.01560-0.89081 0.96739
  -5   5   0 634.305 150.914   7-0.36801-0.02962 0.04752 0.36979-0.98207 0.90546
   5  -5   0 665.627 167.155   8 0.34060 0.05766-0.07430-0.34340 0.98530-0.90868
  -5   5   0 548.383 160.303   6-0.26142-0.13698 0.14949 0.26864-0.98610 0.90919
  -5  -5   0 742.679 187.811   9 0.04271-0.44047-0.43897 0.02124 0.88910-0.96549
   5   5   0 475.782 159.696   2 0.32062 0.07743 0.09319 0.32441 0.98665-0.91037
  -5  -5   0 478.378 110.225   7-0.49432 0.09575 0.07188-0.49049-0.94523 0.86859
  -5  -5   0 448.377 148.129   3-0.32934-0.06963-0.08507-0.33350-0.98613 0.90936
  -6   5   0 72.0479 81.5661   7-0.37792-0.09932 0.04942 0.36782-0.97996 0.88806
   6   5   0 62.1716 106.677   2 0.32991 0.14775 0.10493 0.31263 0.98407-0.89250
   6  -5   0 -18.882 72.3073   4-0.00838 0.48588-0.49108 0.07414-0.85623 0.94805
  -6   5   0 18.3607 69.2948   6-0.26915-0.20897 0.17431 0.24382-0.98133 0.88905
   6  -5   0 -37.116 88.0434   8 0.35263 0.12518-0.07915-0.33854 0.98285-0.89095
  -6  -5   0 84.4342 86.1911   9 0.01350-0.49085-0.49709 0.07937 0.85418-0.94586
  -6  -5   0 227.094 122.377   3-0.33957-0.13924-0.09422-0.32446-0.98366 0.89148
  -6  -5   0 144.584 78.2785   7-0.48309 0.00485 0.06969-0.48840-0.94943 0.85743
   7  -5   0 67.9148 123.614   4 0.02170 0.53544-0.55113 0.13434-0.81417 0.92121
  -7  -5   0 126.584 115.680   3-0.35482-0.20381-0.10793-0.31084-0.97956 0.87195
   7  -5   0 -91.439 104.419   8 0.37075 0.18662-0.08648-0.33122 0.97877-0.87160
  -7  -5   0 149.657 118.854   9-0.01781-0.53913-0.55643 0.13872 0.81198-0.91894
  -7   5   0 83.2654 111.106   7-0.39531-0.16155 0.05275 0.36442-0.97596 0.86876
   7   5   0 58.8641 116.440   2 0.34364 0.21368 0.12243 0.29513 0.97977-0.87289
  -7   5   0 204.598 136.256   6-0.27937-0.27844 0.20799 0.21010-0.97368 0.86603
   8  -5   0 209.854 139.752   8 0.39315 0.24376-0.09557-0.32215 0.97307-0.85065
   8   5   0 230.222 177.233   2 0.36085 0.27614 0.14459 0.27295 0.97351-0.85134
  -8  -5   0 324.212 166.277   3-0.37388-0.26460-0.12520-0.29361-0.97371 0.85066
  -8   5   0 -58.287 117.491   6-0.29166-0.34586 0.24977 0.16825-0.96227 0.83923
  -8  -5   0 -146.55 94.1065   9-0.05106-0.58547-0.61608 0.19836 0.76177-0.88403
  -8   5   0 210.178 152.728   7-0.41766-0.21882 0.05704 0.36005-0.97023 0.84772
   9  -5   0 -48.069 128.973   8 0.41865 0.29780-0.10598-0.31177 0.96566-0.82800
   9   5   0 -74.983 146.590   2 0.38080 0.33586 0.17069 0.24687 0.96500-0.82752
  -9   5   0 -6.8810 152.551   7-0.44350-0.27261 0.06202 0.35499-0.96275 0.82494
  10   5   0 416.103 240.772   2 0.40299 0.39339 0.20017 0.21740 0.95383-0.80105
 -10   5   0 141.839 177.407   7-0.47186-0.32388 0.06751 0.34941-0.95345 0.80033
   0  -6   0 1330.12 204.183   4-0.11622 0.11557-0.25064-0.25076-0.96540 0.96550
   0   6   0 1241.84 202.685   6-0.29188 0.29199 0.25055 0.25076-0.96204 0.96182
   0  -6   0 1216.02 193.808   9 0.12917-0.12897-0.25070-0.25064 0.96643-0.96625
   0   6   0 1582.27 162.713   5 0.61575-0.61594 0.25096 0.25112 0.85136-0.85127
   0  -6   0 1226.59 159.610   3-0.50643 0.50633-0.25048-0.25062-0.90705 0.90716
   1   6   0 -54.623 111.385   6-0.30736 0.38710 0.30565 0.19551-0.94356 0.95865
   1   6   0 120.212 65.9497   2 0.39841-0.31860 0.19403 0.30751 0.95629-0.94125
   1   6   0 105.462 47.1632   5 0.50253-0.42289 0.17752 0.32459 0.92696-0.91168
  -1  -6   0 70.4112 50.6078   4-0.12151 0.04117-0.23777-0.26373-0.96899 0.95374
  -1  -6   0 92.4800 82.6874   9 0.11830-0.19768-0.27576-0.22556 0.95896-0.97410
  -1   6   0 49.4667 66.3939   6-0.28067 0.20112 0.21233 0.28911-0.97260 0.95704
   1  -6   0 79.6770 52.3526   8 0.56589-0.48585-0.16736-0.33427 0.90113-0.88589
   1  -6   0 73.2393 50.0896   9 0.13567-0.05591-0.23550-0.26585 0.97057-0.95508
   1  -6   0 67.6505 70.0650   3-0.60649 0.68598-0.35312-0.14770-0.81567 0.83114
  -1   6   0 41.6412 41.8503   2 0.50021-0.57953 0.33691 0.16513 0.87892-0.89465
  -1  -6   0 88.3301 37.6481   3-0.44044 0.36067-0.18689-0.31447-0.94639 0.93115
   1  -6   0 90.8041 81.0678   4-0.10659 0.18563-0.27378-0.22749-0.95842 0.97386
  -2   6   0 709.882 170.581   6-0.27363 0.11440 0.18898 0.31256-0.97817 0.94727
   2   6   0 916.703 168.862   6-0.32673 0.48606 0.37955 0.12147-0.91235 0.94275
   2   6   0 759.442 166.852   1 0.16799-0.00927 0.22246 0.27897 0.97466-0.94421
   2  -6   0 933.870 202.307   4-0.09322 0.25196-0.30534-0.19580-0.94780 0.97855
  -2  -6   0 994.065 176.118   4-0.12161-0.03842-0.23752-0.26406-0.96905 0.93846
  -2   6   0 845.328 115.480   7-0.58570 0.42678 0.08983 0.41121-0.90317 0.87241
   2   6   0 760.108 168.987   2 0.37135-0.21200 0.15826 0.34312 0.96921-0.93886
  -2   6   0 434.707 126.152   2 0.57833-0.73730 0.46024 0.04214 0.77217-0.80349
   2  -6   0 881.486 162.865   9 0.13693 0.02240-0.23254-0.26882 0.97134-0.94053
  -2  -6   0 762.285 151.853   3-0.39974 0.24022-0.14891-0.35270-0.96441 0.93381
   2  -6   0 826.267 131.522   8 0.46973-0.31003-0.12701-0.37447 0.94770-0.91708
  -2  -6   0 966.296 191.262   9 0.10368-0.26265-0.30883-0.19249 0.94785-0.97830
  -3  -6   0 121.922 91.9486   9 0.08578-0.32432-0.34832-0.15299 0.93264-0.97840
   3   6   0 112.225 92.1793   6-0.34888 0.58774 0.47355 0.02732-0.86086 0.90654
  -3   6   0 1.79632 70.8103   7-0.49432 0.25590 0.07188 0.42909-0.94523 0.89917
   3  -6   0 -27.262 67.7892   9 0.13164 0.10724-0.24493-0.25646 0.96803-0.92192
  -3  -6   0 20.9586 59.0721   3-0.37694 0.13765-0.12799-0.37384-0.97269 0.92670
   3  -6   0 101.205 105.114   4-0.07657 0.31501-0.34373-0.15725-0.93307 0.97913
   3   6   0 -14.703 61.0689   1 0.16682 0.07165 0.22788 0.27353 0.97339-0.92761
   3   6   0 -1.1308 66.2382   2 0.35592-0.11703 0.13822 0.36307 0.97540-0.92976
  -3   6   0 22.5028 84.0085   6-0.27048 0.03153 0.17866 0.32296-0.98042 0.93417
   3  -6   0 28.7966 71.3980   8 0.42136-0.18207-0.10709-0.39429 0.96481-0.91884
  -3  -6   0 8.45088 60.5460   4-0.11525-0.12446-0.25299-0.24868-0.96472 0.91878
   4   6   0 556.796 157.486   6-0.37119 0.68953 0.58733-0.08658-0.77733 0.83828
   4  -6   0 322.004 126.335   4-0.05700 0.37512-0.38763-0.11320-0.91369 0.97504
  -4  -6   0 341.815 131.056   3-0.36691 0.04781-0.11886-0.38314-0.97595 0.91456
   4   6   0 386.041 145.305   2 0.34954-0.03107 0.12999 0.37122 0.97773-0.91681
  -4  -6   0 734.374 194.215   9 0.06495-0.38308-0.39290-0.10839 0.91279-0.97386
  -4   6   0 399.332 138.187   6-0.27082-0.04784 0.17976 0.32192-0.98019 0.91857
   4  -6   0 425.986 107.096   9 0.11770 0.20074-0.27713-0.22430 0.95853-0.89710
  -4   6   0 507.699 126.748   7-0.45292 0.13494 0.06384 0.43705-0.95979 0.89846
   4  -6   0 259.007 141.703   8 0.39968-0.08083-0.09823-0.40308 0.97126-0.90997
  -5  -6   0 163.300 153.058   3-0.36617-0.03275-0.11819-0.38396-0.97618 0.89939
   5   6   0 -3.0605 82.7199   2 0.35020 0.04784 0.13084 0.37032 0.97750-0.90129
  -5   6   0 -28.674 81.9208   7-0.43761 0.04005 0.06088 0.43995-0.96454 0.88792
   5  -6   0 -2.6609 96.9067   4-0.03478 0.43258-0.43587-0.06480-0.88907 0.96570
  -5  -6   0 -119.62 94.5627   9 0.04150-0.43922-0.44144-0.05985 0.88774-0.96411
  -5   6   0 60.0529 88.4173   6-0.27423-0.12415 0.19095 0.31075-0.97772 0.90074
   5  -6   0 -77.352 107.140   8 0.39425 0.00416-0.09602-0.40524 0.97277-0.89618
  -6   6   0 90.3271 87.2331   7-0.43757-0.03959 0.06088 0.43988-0.96455 0.87264
  -6  -6   0 -101.70 135.241   3-0.37236-0.10640-0.12381-0.37846-0.97421 0.88200
   6   6   0 -178.58 140.795   2 0.35642 0.12124 0.13887 0.36227 0.97521-0.88372
  -6   6   0 -21.970 123.165   6-0.28032-0.19778 0.21115 0.29055-0.97289 0.88054
   6  -6   0 30.9908 120.706   4-0.01017 0.48762-0.48740-0.01311-0.85858 0.95045
  -6  -6   0 46.0200 114.072   9 0.01566-0.49298-0.49288-0.00840 0.85691-0.94858
   6  -6   0 52.5644 84.3664   8 0.39939 0.07856-0.09811-0.40312 0.97135-0.87947
   7  -6   0 -4.9482 116.911   4 0.01667 0.54042-0.54130 0.04094-0.82155 0.92865
   7   6   0 161.095 136.819   2 0.36706 0.19023 0.15267 0.34846 0.97101-0.86424
  -7   6   0 182.851 146.101   6-0.28869-0.26914 0.23951 0.26217-0.96527 0.85754
  -7   6   0 169.016 131.498   7-0.44724-0.10953 0.06274 0.43794-0.96159 0.85439
   7  -6   0 270.019 208.239   8 0.41178 0.14572-0.10316-0.39805 0.96775-0.86060
  -7  -6   0 22.6204 93.9062   3-0.38380-0.17478-0.13427-0.36811-0.97033 0.86269
  -7  -6   0 343.163 162.863   9-0.01236-0.54454-0.54633 0.04505 0.81967-0.92664
   8   6   0 159.826 188.408   2 0.38124 0.25570 0.17126 0.32987 0.96480-0.84273
  -8  -6   0 206.843 170.864   3-0.39933-0.23909-0.14854-0.35391-0.96457 0.84149
  -8   6   0 472.385 182.557   6-0.29897-0.33856 0.27541 0.22622-0.95418 0.83106
  -8  -6   0 -170.71 155.526   9-0.04243-0.59407-0.60093 0.09967 0.77534-0.89760
  -8   6   0 -65.272 157.979   7-0.46344-0.17294 0.06588 0.43474-0.95633 0.83384
   8  -6   0 70.8365 171.979   8 0.42935 0.20769-0.11036-0.39086 0.96225-0.83984
   9   6   0 -274.05 208.307   5 0.43820 0.27892 0.13741 0.36448 0.95598-0.81838
   9  -6   0 353.983 258.825   8 0.45075 0.26583-0.11917-0.38207 0.95487-0.81724
  -9  -6   0 157.949 184.300   3-0.41808-0.30018-0.16592-0.33658-0.95683 0.81828
   9   6   0 26.0098 161.240   2 0.39831 0.31831 0.19389 0.30724 0.95635-0.81899
  -9   6   0 41.3340 147.883   7-0.48425-0.23175 0.06992 0.43063-0.94901 0.81121
   0  -7   0 -98.446 94.1693   9 0.11095-0.11073-0.29248-0.29241 0.95352-0.95332
   0   7   0 111.912 85.1013   6-0.30368 0.30382 0.29228 0.29257-0.94840 0.94812
   0   7   0 24.8824 67.2433   2 0.47002-0.46968 0.29293 0.29246 0.90742-0.90785
   0  -7   0 -0.5082 76.6432   4-0.09874 0.09797-0.29239-0.29256-0.95231 0.95240
   0  -7   0 21.6470 56.8666   3-0.54815 0.54804-0.29219-0.29236-0.87443 0.87453
   1   7   0 805.449 174.893   2 0.43192-0.35205 0.23948 0.34569 0.93632-0.92138
   1  -7   0 968.379 204.558   4-0.09117 0.17010-0.31012-0.27472-0.94607 0.96150
  -1  -7   0 752.012 183.700   9 0.10235-0.18171-0.31180-0.27308 0.94678-0.96189
  -1   7   0 578.228 133.420   2 0.52184-0.60107 0.36948 0.21620 0.85482-0.87069
   1  -7   0 640.016 158.674   9 0.11548-0.03569-0.28221-0.30269 0.95690-0.94139
  -1   7   0 734.032 166.825   6-0.29394 0.21443 0.25772 0.32727-0.95985 0.94423
  -1  -7   0 813.744 173.397   4-0.10229 0.02182-0.28400-0.30105-0.95512 0.93987
   1   7   0 759.635 171.431   6-0.31677 0.39655 0.34079 0.24391-0.92967 0.94470
  -1  -7   0 691.895 136.008   3-0.48690 0.40714-0.23137-0.35346-0.92013 0.90488
  -2   7   0 1967.08 311.884   6-0.28758 0.12836 0.23572 0.34938-0.96635 0.93539
  -2  -7   0 1773.74 260.122   4-0.10112-0.05903-0.28677-0.29836-0.95421 0.92360
  -2  -7   0 1670.60 241.484   3-0.44633 0.28684-0.19246-0.39265-0.94341 0.91279
   2  -7   0 1581.71 251.754   9 0.11520 0.04415-0.28284-0.30208 0.95670-0.92587
  -2  -7   0 1865.91 293.354   9 0.09021-0.24914-0.33864-0.24623 0.93657-0.96700
   2  -7   0 1502.26 269.270   4-0.08010 0.23873-0.33568-0.24904-0.93633 0.96708
   2   7   0 1455.93 205.025   5 0.50279-0.34337 0.17768 0.40815 0.92683-0.89625
   2  -7   0 1496.44 206.196   8 0.55587-0.39608-0.16310-0.42206 0.90685-0.87632
   2   7   0 1877.50 283.197   6-0.33291 0.49227 0.40452 0.18002-0.90003 0.93037
   2   7   0 1570.99 252.127   2 0.40583-0.24643 0.20398 0.38101 0.95226-0.92201
  -3   7   0 2744.22 364.049   6-0.28443 0.04551 0.22498 0.36020-0.96930 0.92298
   3  -7   0 2713.21 309.587   9 0.10905 0.12985-0.29678-0.28817 0.95206-0.90592
   3   7   0 2969.47 359.872   6-0.35123 0.59014 0.48436 0.10002-0.85400 0.89962
   3   7   0 2802.40 356.580   2 0.38967-0.15073 0.18240 0.40248 0.96076-0.91520
  -3  -7   0 2963.48 350.617   4-0.09419-0.14563-0.30306-0.28216-0.94861 0.90265
  -3  -7   0 2207.71 291.293   3-0.42143 0.18218-0.16905-0.41629-0.95535 0.90934
  -3  -7   0 2404.49 353.971   9 0.07493-0.31344-0.37172-0.21314 0.92258-0.96833
   3   7   0 2154.97 261.310   5 0.46288-0.22368 0.15267 0.43310 0.94587-0.90001
   4  -7   0 54.1597 80.0015   8 0.46633-0.14734-0.12561-0.45932 0.94903-0.88779
  -4  -7   0 -46.904 74.5379   3-0.40831 0.08928-0.15685-0.42869-0.96097 0.89957
   4  -7   0 -0.2759 112.110   4-0.04893 0.36695-0.40536-0.17906-0.90506 0.96643
  -4  -7   0 28.0482 102.651   4-0.07993-0.23954-0.33607-0.24920-0.93617 0.87487
   4  -7   0 46.1369 78.9130   9 0.09536 0.22310-0.32731-0.25766 0.94100-0.87954
  -4  -7   0 68.5136 89.9306   9 0.05682-0.37491-0.40994-0.17492 0.90442-0.96547
   4   7   0 78.0588 107.990   6-0.36998 0.68838 0.58026 0.00399-0.78331 0.84420
  -4   7   0 64.7567 97.0678   6-0.28423-0.03441 0.22432 0.36093-0.96948 0.90779
   4   7   0 -39.172 69.1963   5 0.44137-0.12245 0.13936 0.44637 0.95475-0.89358
   4   7   0 172.472 114.370   2 0.38156-0.06306 0.17168 0.41311 0.96465-0.90381
  -5  -7   0 10.9652 101.597   3-0.40414 0.00528-0.15298-0.43273-0.96267 0.88585
  -5  -7   0 103.465 105.187   9 0.03613-0.43381-0.45230-0.13254 0.88161-0.95797
   5   7   0 143.185 111.682   2 0.37997 0.01810 0.16959 0.41516 0.96538-0.88926
   5  -7   0 -43.694 102.560   8 0.45294-0.05437-0.12006-0.46479 0.95408-0.87754
  -5   7   0 -90.631 127.631   6-0.28670-0.11166 0.23273 0.35256-0.96719 0.89013
   5  -7   0 62.1565 137.644   4-0.02937 0.42707-0.44739-0.13687-0.88265 0.95929
   6  -7   0 416.258 228.532   8 0.45131 0.02680-0.11940-0.46540 0.95467-0.86284
  -6  -7   0 627.194 202.747   3-0.40684-0.07185-0.15548-0.43037-0.96158 0.86934
   6  -7   0 45.0685 254.820   4-0.00743 0.48482-0.49301-0.09110-0.85499 0.94689
  -6  -7   0 674.658 223.439   9 0.01307-0.49035-0.49793-0.08690 0.85363-0.94529
   6   7   0 649.220 218.912   2 0.38367 0.09400 0.17446 0.41025 0.96366-0.87226
  -6   7   0 923.300 264.234   6-0.29154-0.18655 0.24936 0.33593-0.96239 0.86996
  -7  -7   0 232.783 138.783   9-0.01220-0.54468-0.54602-0.03881 0.81991-0.92687
  -7   7   0 -49.611 105.425   7-0.50700-0.04967 0.07435 0.50985-0.94024 0.83304
   7  -7   0 42.5862 85.0025   4 0.01672 0.54032-0.54139-0.04256-0.82148 0.92863
  -7  -7   0 -10.326 99.3300   3-0.41491-0.14361-0.16297-0.42300-0.95820 0.85052
   7   7   0 124.646 165.972   2 0.39168 0.16559 0.18507 0.39962 0.95976-0.85308
   7   7   0 -150.25 162.330   5 0.44062 0.11735 0.13890 0.44671 0.95504-0.84800
   7  -7   0 210.308 152.024   8 0.45796 0.09969-0.12214-0.46263 0.95222-0.84512
  -7   7   0 -7.7404 115.619   6-0.29844-0.25937 0.27354 0.31174-0.95480 0.84698
  -8   7   0 550.585 214.829   7-0.51649-0.11979 0.07621 0.50793-0.93633 0.81385
  -8  -7   0 261.243 180.422   3-0.42722-0.21113-0.17447-0.41159-0.95272 0.82959
   8   7   0 257.006 177.836   5 0.45316 0.18445 0.14665 0.43893 0.94999-0.82767
   8  -7   0 297.129 249.789   8 0.47062 0.16657-0.12738-0.45737 0.94735-0.82499
  -8   7   0 350.795 160.334   6-0.30711-0.33042 0.30474 0.28050-0.94389 0.82067
  -8  -7   0 521.475 244.306   9-0.03954-0.59693-0.59580 0.01098 0.77981-0.90206
   8   7   0 299.878 213.072   2 0.40325 0.23367 0.20051 0.38418 0.95369-0.83174
  -9   7   0 466.095 233.712   7-0.53178-0.18411 0.07920 0.50487-0.92973 0.79195
   0  -8   0 4450.50 469.230   4-0.08076 0.07988-0.33415-0.33435-0.93693 0.93701
   0   8   0 4456.53 405.544   2 0.49879-0.49837 0.33481 0.33421 0.88038-0.88096
   0   8   0 4045.87 430.987   6-0.31498 0.31515 0.33401 0.33438-0.93248 0.93212
   0  -8   0 3850.10 420.601   9 0.09220-0.09195-0.33427-0.33418 0.93829-0.93807
  -1  -8   0 937.662 195.128   3-0.53149 0.45174-0.27537-0.39294-0.88827 0.87299
   1   8   0 910.235 199.840   6-0.32624 0.40605 0.37758 0.29066-0.91328 0.92824
  -1  -8   0 779.822 225.398   4-0.08295 0.00237-0.32912-0.33948-0.93891 0.92363
   1  -8   0 785.106 196.691   4-0.07482 0.15364-0.34770-0.32071-0.93143 0.94684
   1   8   0 847.254 203.630   2 0.46391-0.38396 0.28422 0.38456 0.91255-0.89774
  -1   8   0 710.083 185.751   6-0.30643 0.22694 0.30229 0.36624-0.94480 0.92911
   1  -8   0 791.434 198.233   9 0.09518-0.01538-0.32770-0.34075 0.94085-0.92530
  -1   8   0 822.555 184.005   2 0.54432-0.62347 0.40448 0.26483 0.82582-0.84186
  -1  -8   0 834.360 214.264   9 0.08539-0.16472-0.34915-0.31928 0.93229-0.94738
   2   8   0 -62.468 90.1192   6-0.33990 0.49930 0.43387 0.23420-0.88432 0.91458
   2  -8   0 56.8884 86.2638   4-0.06558 0.22411-0.36853-0.29974-0.92246 0.95321
  -2  -8   0 16.3839 96.7103   4-0.08078-0.07949-0.33411-0.33458-0.93695 0.90632
  -2   8   0 -98.807 100.183   6-0.30065 0.14147 0.28142 0.38723-0.95217 0.92113
   2   8   0 23.1613 79.2640   2 0.43888-0.27941 0.24909 0.41951 0.93157-0.90142
   2  -8   0 -86.358 116.985   9 0.09371 0.06567-0.33096-0.33751 0.93959-0.90873
  -2  -8   0 97.9156 101.358   9 0.07523-0.23413-0.37109-0.29734 0.92287-0.95328
  -2  -8   0 7.12571 62.5306   3-0.49153 0.33207-0.23587-0.43271-0.91715 0.88649
   3   8   0 345.424 153.357   6-0.35528 0.59424 0.50352 0.16439-0.84132 0.88688
  -3  -8   0 259.662 144.102   3-0.46526 0.22605-0.21050-0.45833-0.93317 0.88713
  -3  -8   0 433.011 160.799   9 0.06205-0.30053-0.39899-0.26942 0.90985-0.95557
  -3  -8   0 340.515 185.059   4-0.07339-0.16655-0.35096-0.31779-0.93007 0.88409
   3  -8   0 28.5195 159.852   4-0.05338 0.29161-0.39560-0.27255-0.90987 0.95594
   3   8   0 455.968 148.444   5 0.52306-0.28388 0.19054 0.47899 0.91578-0.86989
   3  -8   0 266.418 99.3288   9 0.08686 0.15206-0.34597-0.32253 0.93360-0.88743
  -3   8   0 278.847 130.882   6-0.29756 0.05867 0.27044 0.39831-0.95582 0.90942
   3   8   0 315.107 122.568   2 0.42237-0.18337 0.22638 0.44209 0.94249-0.89705
  -4  -8   0 218.170 155.260   9 0.04615-0.36422-0.43195-0.23646 0.89293-0.95397
  -4  -8   0 83.3836 96.9678   3-0.44978 0.13079-0.19573-0.47332-0.94162 0.88018
  -4   8   0 92.8823 86.5048   6-0.29700-0.02161 0.26846 0.40035-0.95646 0.89469
   4   8   0 123.758 81.9981   5 0.49688-0.17795 0.17395 0.49552 0.92986-0.86869
   4   8   0 167.012 155.600   2 0.41303-0.09448 0.21368 0.45469 0.94815-0.88742
   4  -8   0 12.5490 95.9230   4-0.03848 0.35641-0.42796-0.24004-0.89336 0.95473
  -5   8   0 371.275 197.967   6-0.29877-0.09957 0.27473 0.39413-0.95441 0.87727
   5   8   0 421.392 154.765   5 0.48345-0.08479 0.16551 0.50391 0.93648-0.86002
   5   8   0 362.431 215.622   2 0.40967-0.01157 0.20916 0.45917 0.95010-0.87409
  -5  -8   0 616.268 229.233   9 0.02774-0.42539-0.46911-0.19930 0.87173-0.94808
   5  -8   0 144.388 133.443   8 0.51565-0.11696-0.14615-0.52231 0.92770-0.85124
  -5  -8   0 285.509 166.305   3-0.44277 0.04398-0.18909-0.48014-0.94522 0.86836
   5  -8   0 12.8667 234.346   4-0.02109 0.41871-0.46478-0.20308-0.87253 0.94919
   6  -8   0 38.8317 216.863   4-0.00139 0.47870-0.50529-0.16241-0.84691 0.93883
   6   8   0 462.718 216.573   2 0.41130 0.06638 0.21136 0.45693 0.94916-0.85787
   6  -8   0 343.081 201.445   8 0.50753-0.02927-0.14275-0.52565 0.93152-0.83976
  -6   8   0 709.623 260.584   6-0.30264-0.17544 0.28853 0.38034-0.94972 0.85719
  -6  -8   0 329.555 200.740   3-0.44248-0.03614-0.18882-0.48058-0.94537 0.85308
   6   8   0 500.469 186.696   5 0.47946-0.00109 0.16302 0.50636 0.93837-0.84662
  -6  -8   0 414.688 212.505   9 0.00699-0.48424-0.50969-0.15872 0.84580-0.93746
   7   8   0 220.051 147.376   5 0.48262 0.07542 0.16500 0.50434 0.93688-0.82984
  -7  -8   0 -141.17 189.875   3-0.44755-0.11089-0.19363-0.47591-0.94278 0.83505
  -7  -8   0 62.9513 146.018   9-0.01594-0.54090-0.55298-0.11542 0.81464-0.92159
  -7   8   0 -49.275 115.244   6-0.30835-0.24944 0.30934 0.35952-0.94218 0.83425
   7  -8   0 -4.2434 100.255   4 0.02049 0.53649-0.54877-0.11877-0.81596 0.92313
   7  -8   0 20.9220 150.698   8 0.50854 0.04927-0.14317-0.52517 0.93105-0.82402
  -8   8   0 30.9112 173.017   6-0.31570-0.32183 0.33672 0.33211-0.93136 0.80802
   8  -8   0 -82.979 133.749   8 0.51628 0.12106-0.14641-0.52189 0.92740-0.80511
   0  -9   0 -75.018 107.669   4-0.06228 0.06127-0.37591-0.37616-0.91914 0.91918
   0   9   0 70.5700 111.245   6-0.32577 0.32598 0.37574 0.37620-0.91415 0.91370
   0  -9   0 -131.41 132.707   9 0.07290-0.07263-0.37606-0.37593 0.92063-0.92038
   1  -9   0 88.0022 107.293   4-0.05768 0.13638-0.38612-0.36584-0.91440 0.92980
  -1  -9   0 -71.047 114.929   4-0.06335-0.01735-0.37353-0.37862-0.92022 0.90492
   1  -9   0 -36.579 102.944   9 0.07461 0.00522-0.37241-0.37961 0.92228-0.90671
   1   9   0 201.004 130.557   6-0.33554 0.41538 0.41544 0.33633-0.89434 0.90922
  -1  -9   0 144.624 150.966   9 0.06756-0.14686-0.38740-0.36459 0.91540-0.93047
  -1   9   0 -97.962 108.298   6-0.31821 0.23874 0.34629 0.40579-0.92734 0.91156
   1   9   0 150.021 131.405   2 0.49451-0.41448 0.32848 0.42393 0.88473-0.87009
  -2  -9   0 -82.846 125.084   3-0.53530 0.37588-0.27920-0.47284-0.88520 0.85450
   2   9   0 5.59931 99.5437   6-0.34722 0.50667 0.46605 0.28556-0.86550 0.89568
   2  -9   0 46.3379 105.686   4-0.04994 0.20834-0.40313-0.34872-0.90617 0.93690
  -2   9   0 -141.14 94.4744   6-0.31295 0.15379 0.32639 0.42581-0.93556 0.90443
  -2  -9   0 -107.48 109.535   9 0.05902-0.21790-0.40535-0.34663 0.90672-0.93711
  -2  -9   0 63.2246 102.549   4-0.06035-0.10005-0.38022-0.37201-0.91716 0.88649
   2  -9   0 -381.43 218.410   9 0.07213 0.08726-0.37769-0.37434 0.91989-0.88900
   2   9   0 -76.187 123.438   2 0.47060-0.31106 0.29376 0.45845 0.90692-0.87692
   3   9   0 210.166 177.239   2 0.45402-0.21496 0.27023 0.48184 0.92043-0.87512
   3  -9   0 73.6689 166.024   4-0.03937 0.27749-0.42604-0.32569-0.89438 0.94044
  -3   9   0 252.820 143.116   6-0.30997 0.07110 0.31529 0.43700-0.93991 0.89342
   3   9   0 435.201 181.876   6-0.36025 0.59925 0.52797 0.22346-0.82414 0.86961
  -3  -9   0 468.715 196.513   9 0.04759-0.28605-0.42899-0.32298 0.89452-0.94022
  -3  -9   0 350.325 225.916   4-0.05251-0.18755-0.39751-0.35477-0.90894 0.86292
   3  -9   0 657.603 208.383   9 0.06466 0.17427-0.39351-0.35854 0.91250-0.86630
  -3  -9   0 336.013 137.217   3-0.50825 0.26908-0.25226-0.50004-0.90577 0.85967
  -4  -9   0 415.025 161.268   3-0.49098 0.17205-0.23534-0.51719-0.91750 0.85601
   4  -9   0 -59.542 165.311   4-0.02621 0.34403-0.45404-0.29755-0.87883 0.94019
   4   9   0 747.998 234.418   2 0.44383-0.12523 0.25596 0.49602 0.92805-0.86745
  -4   9   0 427.525 229.272   6-0.30917-0.00943 0.31233 0.44004-0.94104 0.87918
  -4  -9   0 977.021 297.309   9 0.03353-0.35156-0.45754-0.29444 0.87858-0.93960
   5   9   0 390.130 222.852   2 0.43910-0.04095 0.24939 0.50252 0.93141-0.85553
   5  -9   0 -5.3526 133.356   4-0.01064 0.40817-0.48642-0.26503-0.85921 0.93586
  -5  -9   0 366.605 193.952   9 0.01702-0.41464-0.49023-0.26174 0.85861-0.93494
  -5   9   0 122.185 179.857   6-0.31040-0.08792 0.31688 0.43553-0.93930 0.86205
  -5  -9   0 -21.420 106.227   3-0.48167 0.08295-0.22630-0.52644-0.92342 0.84650
   5   9   0 189.275 133.390   5 0.53561-0.13691 0.19856 0.55462 0.90844-0.83196
  -6  -9   0 97.5073 150.581   3-0.47884 0.00029-0.22356-0.52936-0.92516 0.83281
  -6   9   0 107.892 140.834   6-0.31350-0.16456 0.32842 0.42402-0.93475 0.84211
   6   9   0 256.909 234.880   2 0.43903 0.03867 0.24930 0.50256 0.93146-0.84031
   6  -9   0 97.1888 261.361   4 0.00718 0.47004-0.52251-0.22879-0.83510 0.92703
  -6  -9   0 112.180 139.615   9-0.00177-0.47545-0.52641-0.22555 0.83421-0.92586
   6   9   0 212.019 190.099   5 0.52755-0.04914 0.19341 0.55972 0.91320-0.82143
   7   9   0 187.543 230.271   5 0.52684 0.03127 0.19295 0.56013 0.91361-0.80656
   0 -10   0 294.195 164.760   4-0.04326 0.04212-0.41766-0.41796-0.89879 0.89880
   0 -10   0 124.275 116.277   9 0.05300-0.05271-0.41785-0.41769 0.90038-0.90010
   0  10   0 -154.75 126.364   6-0.33602 0.33625 0.41746 0.41801-0.89327 0.89272
   1 -10   0 207.459 128.928   4-0.03979 0.11836-0.42514-0.41039-0.89486 0.91022
  -1 -10   0 251.982 175.168   4-0.04336-0.03747-0.41744-0.41827-0.89890 0.88356
  -1  10   0 414.943 220.099   6-0.32932 0.24988 0.38990 0.44571-0.90736 0.89147
  -1 -10   0 601.462 257.155   9 0.04892-0.12819-0.42627-0.40927 0.89597-0.91101
   1  10   0 152.243 151.120   6-0.34454 0.42441 0.45405 0.38126-0.87272 0.88750
   1 -10   0 140.980 100.411   9 0.05363 0.02622-0.41656-0.41900 0.90105-0.88545
  -2  10   0 473.879 255.695   6-0.32453 0.16540 0.37084 0.46490-0.91643 0.88519
   2  10   0 324.170 187.105   6-0.35457 0.51405 0.50014 0.33501-0.84361 0.87369
  -2 -10   0 320.275 198.190   4-0.03962-0.12090-0.42552-0.41025-0.89466 0.86395
   2 -10   0 635.217 239.668   9 0.05027 0.10913-0.42349-0.41209 0.89744-0.86653
  -2 -10   0 510.053 208.235   9 0.04176-0.20060-0.44092-0.39462 0.88803-0.91839
   2 -10   0 39.7037 214.905   4-0.03333 0.19161-0.43898-0.39645-0.88736 0.91806
   2  10   0 119.128 114.959   2 0.50104-0.34141 0.33814 0.49770 0.87806-0.84825
  -3 -10   0 346.695 170.491   9 0.03181-0.27023-0.46097-0.37455 0.87657-0.92226
   3 -10   0 3.05904 118.926   4-0.02415 0.26213-0.45839-0.37692-0.87630 0.92233
  -3  10   0 -155.69 139.057   6-0.32169 0.08284 0.35971 0.47613-0.92148 0.87488
   3  10   0 79.6708 126.260   2 0.48462-0.24549 0.31400 0.52168 0.89432-0.84918
  -4 -10   0 34.1721 116.184   3-0.53168 0.21280-0.27556-0.56045-0.88812 0.82655
   4  10   0 33.5743 106.708   2 0.47387-0.15521 0.29844 0.53713 0.90409-0.84365
  -5 -10   0 -105.54 177.436   3-0.52054 0.12186-0.26442-0.57181-0.89677 0.81977
   0 -11   0 199.737 211.826   9 0.03248-0.03216-0.45965-0.45945 0.87735-0.87706
   0  11   0 -52.357 147.561   6-0.34569 0.34594 0.45917 0.45982-0.86967 0.86900
   0 -11   0 -165.36 187.470   4-0.02366 0.02239-0.45942-0.45976-0.87570 0.87566
   1  11   0 206.016 153.877   6-0.35312 0.43301 0.49318 0.42566-0.84825 0.86290
   1 -11   0 468.823 225.423   9 0.03213 0.04774-0.46033-0.45878 0.87695-0.86133
  -1 -11   0 391.887 222.278   4-0.02290-0.05806-0.46100-0.45825-0.87477 0.85937
 -11   0   1 -154.35 180.855   7-0.53924-0.31567 0.08066-0.08162-0.92637 0.86702
  11   0  -1 -200.56 141.117   5 0.53769 0.31750 0.19989-0.19934 0.90719-0.84859
  11   0  -1 -49.773 176.176   8 0.53841 0.31658-0.15571 0.15506 0.91631-0.85751
  10   0  -1 -159.18 153.107   8 0.51244 0.26297-0.14480 0.14421 0.92922-0.88563
  10   0  -1 -65.580 111.799   5 0.51190 0.26371 0.18344-0.18298 0.92198-0.87859
  -9   0   1 65.9104 80.1583   3-0.48663-0.20925-0.23111 0.23115-0.92030 0.89205
   9   0  -1 14.2848 94.4400   8 0.48919 0.20664-0.13509 0.13456 0.93969-0.91133
  -9   0   1 -104.75 111.538   7-0.48992-0.20570 0.07102-0.07178-0.94690 0.91822
   9   0  -1 40.4095 72.5485   5 0.48879 0.20723 0.16886-0.16848 0.93390-0.90574
   8   0  -1 1508.99 236.854   5 0.46938 0.14705 0.15672-0.15641 0.94300-0.93009
   8   0  -1 1437.29 218.172   2 0.46398 0.15276 0.28430-0.28437 0.91250-0.89928
  -8   0   1 1898.01 306.132   7-0.47040-0.14559 0.06723-0.06789-0.95396 0.94061
  -8   0   1 1515.60 230.472   3-0.46753-0.14857-0.21267 0.21268-0.93187 0.91906
   8   0  -1 1366.73 244.475   8 0.46967 0.14659-0.12699 0.12652 0.94772-0.93461
   7   0  -1 -82.993 67.7019   2 0.44999 0.08701 0.26456-0.26458 0.92351-0.92565
  -7   0   1 -15.581 50.8416   3-0.45358-0.08273-0.19935 0.19934-0.93961 0.94220
  -7   0   1 -71.460 75.8222   7-0.45623-0.08011 0.06448-0.06505-0.95872 0.96070
   7   0  -1 -76.106 63.8606   5 0.45524 0.08160 0.14794-0.14769 0.94913-0.95150
   7   0  -1 -8.3944 70.3339   8 0.45545 0.08123-0.12110 0.12070 0.95315-0.95531
   6   0  -1 -7.7667 43.0302   5 0.44887 0.00837 0.14399-0.14380 0.95176-0.96942
   6   0  -1 0.10040 35.1451   2 0.44326 0.01401 0.25517-0.25514 0.92846-0.94595
  -6   0   1 -44.243 44.0721   7-0.44997-0.00673 0.06327-0.06375-0.96073 0.97804
   6   0  -1 -45.536 50.9512   8 0.44906 0.00804-0.11847 0.11811 0.95548-0.97292
   5   0  -1 21.8847 46.4002   2 0.44757-0.07001 0.26118-0.26109 0.92532-0.95816
  -5   0   1 26.0145 45.3786   7-0.45606 0.07898 0.06445-0.06483-0.95878 0.99140
  -5   0   1 1.99462 33.7776   3-0.45256 0.07582-0.19838 0.19838-0.94015 0.97345
   5   0  -1 -11.037 22.9585   4-0.05857 0.43582-0.38417 0.38467-0.91532 0.88223
  -5   0   1 45.7277 29.0653   9 0.05418-0.43114-0.41542 0.41554 0.90163-0.86898
   5   0  -1 74.0452 70.2854   8 0.45485-0.07733-0.12085 0.12055 0.95338-0.98613
   5   0  -1 57.0523 53.4115   5 0.45452-0.07688 0.14749-0.14735 0.94943-0.98241
   4   0  -1 1451.99 161.837   8 0.48070-0.18277-0.13155 0.13130 0.94327-0.99135
   4   0  -1 1331.71 101.337   4-0.18570 0.48344-0.07254 0.07293-0.99732 0.94902
  -4   0   1 1506.70 177.942   7-0.48261 0.18517 0.06960-0.06989-0.94961 0.99755
   4   0  -1 1375.15 142.499   2 0.46916-0.17130 0.29169-0.29156 0.90816-0.95637
  -4   0   1 1373.65 95.5452   9 0.18330-0.48067-0.11914 0.11926 0.99289-0.94502
  -4   0   1 1293.45 136.925   3-0.47671 0.17973-0.22151 0.22154-0.92645 0.97505
   4   0  -1 1424.18 147.898   5 0.47985-0.18184 0.16326-0.16318 0.93819-0.98651
   3   0  -1 27.2847 26.4242   5 0.53917-0.32081 0.20084-0.20081 0.90629-0.96998
   3   0  -1 22.5904 17.0395   4-0.30828 0.52649 0.30881-0.30860-0.94236 0.87874
   3   0  -1 -7.7603 15.4223   2 0.51748-0.29933 0.36284-0.36266 0.85995-0.92353
  -3   0   1 8.05640 16.4158   3-0.53204 0.31479-0.27592 0.27598-0.88783 0.95166
   3   0  -1 8.99829 13.1023   6-0.30873 0.52613 0.31073-0.31049-0.94165 0.87818
   3   0  -1 -4.8059 18.8960   8 0.54178-0.32348-0.15714 0.15694 0.91453-0.97797
  -3   0   1 6.07578 10.3914   9 0.31362-0.53142 0.26001-0.25995 0.95645-0.89334
  -3   0   1 39.3874 33.5052   7-0.54562 0.32781 0.08192-0.08211-0.92341 0.98667
  -2   0   1 444.541 73.4497   3-0.63478 0.49713-0.38407 0.38411-0.78001 0.85903
  -2   0   1 410.276 71.7847   7-0.67593 0.53774 0.10792-0.10801-0.84544 0.92401
   2   0  -1 461.111 80.7838   5 0.65634-0.51768 0.27847-0.27848 0.81431-0.89339
   2   0  -1 449.130 75.1040   8 0.66587-0.52726-0.21063 0.21048 0.83047-0.90932
  -5   0  -1 121.737 94.3624   7 0.03219-0.45145-0.02689 0.02632-0.97426 0.78840
   5   0   1 50.0959 62.2329   8-0.03205 0.45030 0.07062-0.07069 0.97218-0.78680
   6   0   1 127.364 83.9704   8 0.04605 0.45178 0.04105-0.04116 0.98830-0.78762
  -6   0  -1 121.689 95.1401   7-0.04628-0.45261-0.01259 0.01193-0.98909 0.78791
   7   0   1 95.2137 97.4214   8 0.11472 0.46270 0.01470-0.01486 0.99680-0.78083
  -7   0  -1 8.10815 81.4245   7-0.11507-0.46345 0.00006-0.00081-0.99694 0.78043
 -11  -1   1 732.922 326.758   7-0.55056-0.30447 0.08289-0.16745-0.92108 0.86169
  11   1  -1 219.488 198.043   8 0.55673 0.29831-0.16346 0.24631 0.90637-0.84765
  11  -1  -1 435.357 229.031   8 0.52860 0.32636-0.15158 0.06744 0.92135-0.86248
  11   1  -1 366.815 201.910   5 0.52441 0.33081 0.19140-0.10737 0.91501-0.85638
 -10  -1   1 334.829 200.727   7-0.52517-0.25022 0.07790-0.16236-0.93263 0.88860
  10   1  -1 -10.689 123.269   5 0.49886 0.27678 0.17520-0.09124 0.92886-0.88545
 -10  -1   1 30.6061 98.7763   3-0.49089-0.28496-0.23525 0.15160-0.91757 0.87392
  10  -1  -1 98.5848 104.226   5 0.53526 0.24035 0.19833-0.28134 0.90866-0.86531
  10  -1  -1 229.685 187.610   8 0.50271 0.27268-0.14073 0.05665 0.93373-0.89007
  10   1  -1 140.686 141.071   8 0.53156 0.24390-0.15283 0.23575 0.91984-0.87633
 -10   1   1 60.6844 111.081   7-0.50984-0.26532 0.07490 0.00783-0.93908 0.89509
   9   1  -1 244.012 114.522   2 0.45862 0.23770 0.27671-0.19311 0.91683-0.88836
  -9  -1   1 235.846 130.138   3-0.46841-0.22765-0.21351 0.12984-0.93136 0.90318
   9   1  -1 85.4729 75.0435   5 0.47587 0.22019 0.16077-0.07687 0.94005-0.91187
   9  -1  -1 276.516 131.203   5 0.51322 0.18281 0.18428-0.26737 0.92126-0.89315
   9  -1  -1 222.685 163.173   8 0.47944 0.21638-0.13103 0.04701 0.94379-0.91536
  -9   1   1 136.982 134.705   7-0.48669-0.20883 0.07039 0.01244-0.94811 0.91944
   9   1  -1 229.603 113.782   8 0.50940 0.18647-0.14353 0.22651 0.93065-0.90237
  -9  -1   1 311.701 152.822   7-0.50271-0.19303 0.07351-0.15788-0.94195 0.91326
   8   1  -1 13.3848 64.1548   5 0.45635 0.16011 0.14863-0.06479 0.94866-0.93575
   8   1  -1 244.950 114.938   2 0.43975 0.17684 0.25029-0.16666 0.93096-0.91783
  -8  -1   1 188.489 124.831   7-0.48429-0.13179 0.06993-0.15420-0.94899 0.93564
  -8   1   1 223.414 113.754   7-0.46725-0.14864 0.06662 0.01631-0.95504 0.94170
  -8  -1   1 44.2577 65.7694   3-0.44923-0.16703-0.19521 0.11153-0.94191 0.92915
   8  -1  -1 56.1591 100.668   8 0.45972 0.15652-0.12287 0.03889 0.95156-0.93839
  -8   1   1 54.7108 61.6297   3-0.50140-0.11448-0.24552 0.32921-0.91055 0.89763
   8   1  -1 30.2860 72.7685   8 0.49143 0.12486-0.13602 0.21908 0.93873-0.92569
   8  -1  -1 205.883 109.693   5 0.49543 0.12101 0.17304-0.25622 0.93060-0.91772
  -7   1   1 -8.7747 50.3902   6-0.35900-0.17693 0.52171-0.43873-0.82865 0.83073
   7   1  -1 88.2156 65.2660   2 0.42511 0.11175 0.23013-0.14644 0.94076-0.94298
  -7  -1   1 42.8534 66.9230   7-0.47168-0.06478 0.06748-0.15165-0.95351 0.95549
   7  -1  -1 8.93310 38.4178   4 0.03220 0.50417-0.57139 0.48859-0.79831 0.79569
   7  -1  -1 29.4349 38.4115   2 0.49804 0.03911 0.33369-0.41749 0.88116-0.88320
   7  -1  -1 69.0181 89.7828   8 0.44498 0.09170-0.11679 0.03286 0.95693-0.95903
  -7   1   1 68.1862 79.7315   7-0.45304-0.08321 0.06386 0.01915-0.95975 0.96173
  -7  -1   1 151.931 115.714   9-0.03228-0.50381-0.58282 0.49936 0.79082-0.78870
   7   1  -1 5.42809 57.5325   5 0.44167 0.09519 0.13955-0.05577 0.95463-0.95700
   7  -1  -1 27.1079 50.3530   5 0.48384 0.05301 0.16576-0.24902 0.93630-0.93869
  -7  -1   1 16.9987 56.3983   3-0.43464-0.10182-0.18142 0.09775-0.94923 0.95188
   7   1  -1 32.8134 59.4242   8 0.47950 0.05720-0.13106 0.21418 0.94376-0.94599
  -6  -1   1 916.712 130.647   9 0.04239-0.49890-0.43963 0.35619 0.88874-0.87137
  -6  -1   1 890.633 166.338   7-0.46770 0.01089 0.06670-0.15078-0.95489 0.97220
   6  -1  -1 908.364 125.046   2 0.49817-0.04076 0.33389-0.41763 0.88102-0.89844
  -6   1   1 990.489 136.338   6-0.35015-0.10616 0.47932-0.39627-0.85722 0.87468
   6   1  -1 838.382 150.947   2 0.41642 0.04073 0.21828-0.13456 0.94614-0.96369
  -6  -1   1 973.961 156.419   3-0.42655-0.03011-0.17383 0.09017-0.95303 0.97105
   6  -1  -1 747.185 128.222   5 0.48164-0.02438 0.16438-0.24771 0.93734-0.95504
  -6   1   1 882.989 162.175   7-0.44650-0.01011 0.06260 0.02051-0.96182 0.97912
  -6   1   1 885.627 135.204   3-0.48966 0.03333-0.23405 0.31769-0.91836 0.93621
   6  -1  -1 874.299 130.642   4-0.04153 0.49835-0.42140 0.33851-0.89684 0.87904
   6   1  -1 760.368 147.373   5 0.43395 0.02332 0.13479-0.05105 0.95760-0.97527
   6   1  -1 804.615 144.903   8 0.47665-0.01955-0.12988 0.21307 0.94493-0.96244
   6  -1  -1 891.902 165.381   8 0.43745 0.01966-0.11369 0.02981 0.95954-0.97693
  -5   1   1 454.651 86.0360   3-0.50457 0.12800-0.24863 0.33225-0.90836 0.94152
   5   1  -1 292.159 86.3074   5 0.43661-0.05898 0.13644-0.05274 0.95659-0.98957
   5  -1  -1 233.087 80.6167   8 0.44087-0.06333-0.11509 0.03125 0.95837-0.99107
  -5   1   1 419.253 111.151   7-0.45177 0.07479 0.06362 0.01959-0.96016 0.99277
   5  -1  -1 355.132 75.7977   4-0.11623 0.49349-0.25061 0.16758-0.96541 0.93240
   5   1  -1 311.076 90.6486   2 0.41630-0.03883 0.21812-0.13434 0.94621-0.97910
  -5  -1   1 412.098 103.521   7-0.47731 0.10015 0.06857-0.15255-0.95152 0.98417
   5  -1  -1 352.078 70.4663   2 0.51459-0.13692 0.35845-0.44216 0.86328-0.89605
  -5  -1   1 390.825 73.1296   9 0.11889-0.49582-0.27440 0.19098 0.95938-0.92676
   5  -1  -1 360.130 78.7099   5 0.49446-0.11680 0.17242-0.25582 0.93109-0.96410
  -5   1   1 438.606 85.5927   6-0.34526-0.03142 0.45726-0.37416-0.87081 0.90363
   5   1  -1 318.518 92.0499   8 0.48822-0.11070-0.13469 0.21794 0.94010-0.97293
  -4   1   1 10989.0 474.039   7-0.47633 0.17898 0.06838 0.01492-0.95187 0.99979
  -4  -1   1 10074.6 352.689   9 0.19615-0.49348-0.08613 0.00269 0.99630-0.94843
  -4  -1   1 10706.8 445.309   7-0.50970 0.21219 0.07488-0.15877-0.93914 0.98711
   4   1  -1 10320.0 397.821   8 0.52415-0.22624-0.14971 0.23304 0.92356-0.97172
  -4   1   1 10934.7 378.692   6-0.34594 0.04889 0.46028-0.37716-0.86900 0.91713
  -4   1   1 10832.1 357.938   3-0.54623 0.24940-0.29024 0.37383-0.87608 0.92451
   4  -1  -1 11915.8 381.440   2 0.55702-0.25907 0.42483-0.50853 0.80736-0.85549
  -4  -1   1 10801.8 430.453   3-0.44408 0.14701-0.19033 0.10677-0.94456 0.99323
   4   1  -1 10396.0 425.384   5 0.45563-0.15763 0.14818-0.06452 0.94896-0.99729
   4   1  -1 10414.3 421.424   2 0.42880-0.13102 0.23519-0.15134 0.93838-0.98661
   4  -1  -1 10336.5 374.322   4-0.19064 0.48833-0.05907-0.02413-0.99823 0.94997
   4  -1  -1 10423.6 445.480   8 0.46181-0.16385-0.12372 0.03992 0.95077-0.99880
   4  -1  -1 10570.5 380.963   5 0.53282-0.23478 0.19678-0.28024 0.91011-0.95847
  -3  -1   1 85.3036 42.1481   7-0.58297 0.36509 0.08929-0.17308-0.90465 0.96793
  -3   1   1 74.3055 44.7363   7-0.53459 0.31684 0.07975 0.00364-0.92848 0.99170
  -3  -1   1 87.4280 40.2179   3-0.48311 0.26576-0.22768 0.14419-0.92252 0.98647
  -3   1   1 88.1951 36.0096   6-0.35344 0.13600 0.49473-0.41159-0.84722 0.91064
  -3  -1   1 68.1161 30.9870   9 0.27089-0.48865 0.12286-0.20633 0.98898-0.92585
   3  -1  -1 77.8503 36.5763   5 0.61638-0.39798 0.25138-0.33492 0.85083-0.91459
  -3   1   1 96.2340 30.1138   2 0.35735-0.57531 0.14007-0.05658 0.97486-0.91139
   3  -1  -1 74.0600 29.2592   4-0.26152 0.47959 0.14961-0.23300-0.98608 0.92250
   3  -1  -1 67.6278 36.4532   8 0.51250-0.29416-0.14483 0.06104 0.92919-0.99260
  -3   1   1 68.8411 30.0602   3-0.63181 0.41462-0.38077 0.46430-0.78402 0.84766
   3   1  -1 104.367 49.7208   2 0.46011-0.24200 0.27882-0.19490 0.91564-0.97924
  -3   1   1 88.8987 30.7041   1 0.23987-0.45707-0.20261 0.28618 0.97790-0.91440
   3   1  -1 55.9637 31.9422   8 0.60365-0.38538-0.18353 0.26693 0.87750-0.94101
  -2   1   1 25113.3 553.394   7-0.65420 0.51605 0.10353-0.02004-0.86107 0.93960
  -2  -1   1 27560.7 573.832   7-0.72986 0.59163 0.11895-0.20265-0.80100 0.87959
   2   1  -1 26524.9 580.291   2 0.51797-0.37954 0.36357-0.27957 0.85939-0.93838
  -2   1   1 27869.6 565.680   6-0.36752 0.22967 0.56645-0.48328-0.79467 0.87336
  -2  -1   1 26887.0 524.967   9 0.33665-0.47483 0.34225-0.42576 0.92551-0.84709
   2  -1  -1 26263.0 561.508   8 0.61553-0.47685-0.18864 0.10488 0.86935-0.94816
   4  -1   1 477.596 113.450   8-0.09329 0.43201 0.09354-0.17700 0.95474-0.78463
  -4   1  -1 345.139 110.237   7 0.10682-0.44632-0.04036 0.12348-0.95434 0.78385
   5  -1   1 224.050 88.8336   8-0.01140 0.42968 0.06284-0.14636 0.97710-0.79167
  -5   1  -1 210.550 95.0873   7 0.01918-0.43832-0.02453 0.10755-0.97715 0.79133
  -5  -1  -1 475.395 151.649   7 0.02902-0.44840-0.02631-0.05784-0.97498 0.78908
   5   1   1 120.335 90.4235   8-0.03820 0.45643 0.07293 0.01045 0.97062-0.78529
  -6  -1  -1 1793.84 300.671   7-0.05150-0.44751-0.01164-0.07262-0.98986 0.78864
   6   1   1 1120.30 216.516   8 0.04615 0.45168 0.04101 0.04234 0.98832-0.78767
  -6   1  -1 1173.43 213.788   7-0.05510-0.44366-0.01098 0.09390-0.99037 0.78923
   6  -1   1 1271.92 210.161   8 0.05922 0.43863 0.03601-0.11958 0.99034-0.78961
  -7  -1  -1 253.012 134.677   7-0.12154-0.45709 0.00125-0.08560-0.99743 0.78088
   7   1   1 520.848 165.117   8 0.11893 0.45850 0.01307 0.07022 0.99715-0.78121
 -11  -2   1 -181.56 163.888   3-0.50584-0.34995-0.24989 0.08255-0.90746 0.84834
 -11   2   1 -198.46 208.614   7-0.53958-0.31509 0.08073 0.08550-0.92621 0.86690
 -11  -2   1 61.6614 133.539   7-0.57006-0.28507 0.08674-0.25491-0.91143 0.85201
  11  -2  -1 455.716 270.596   8 0.52644 0.32852-0.15068-0.01694 0.92242-0.86351
  11   2  -1 205.279 183.564   5 0.51914 0.33613 0.18804-0.02051 0.91799-0.85934
 -10   2   1 341.371 164.492   7-0.51458-0.26046 0.07583 0.09049-0.93713 0.89314
  10   2  -1 -2.8344 95.5111   5 0.49452 0.28117 0.17246-0.00499 0.93106-0.88764
 -10  -2   1 -81.860 138.995   7-0.54616-0.22933 0.08203-0.25010-0.92316 0.87910
  10   2  -1 345.956 181.712   8 0.56117 0.21435-0.16535 0.33181 0.90385-0.86043
  10  -2  -1 108.710 141.948   8 0.50134 0.27404-0.14016-0.02740 0.93434-0.89065
 -10  -2   1 31.0634 126.142   3-0.48201-0.29398-0.22663 0.05926-0.92321 0.87958
   9   2  -1 88.7978 73.9341   2 0.44638 0.24980 0.25953-0.09227 0.92618-0.89780
  -9  -2   1 67.3342 88.8205   3-0.46061-0.23557-0.20604 0.03866-0.93578 0.90762
  -9   2   1 253.527 174.099   7-0.49242-0.20298 0.07151 0.09490-0.94595 0.91729
  -9  -2   1 82.8474 80.8484   7-0.52558-0.17026 0.07799-0.24597-0.93246 0.90374
   9  -2  -1 -47.572 120.056   8 0.47891 0.21693-0.13081-0.03670 0.94400-0.91554
   9   2  -1 87.5380 80.0653   5 0.47249 0.22362 0.15866 0.00876 0.94159-0.91343
   9  -2  -1 99.2845 83.4749   5 0.55160 0.14447 0.20885-0.37540 0.89852-0.87049
   9   2  -1 201.460 113.127   8 0.54145 0.15448-0.15700 0.32354 0.91470-0.88651
   8   2  -1 817.369 200.398   5 0.45390 0.16261 0.14711 0.02028 0.94969-0.93679
   8   2  -1 764.408 180.119   2 0.42865 0.18780 0.23499-0.06770 0.93847-0.92542
  -8   2   1 817.344 221.317   7-0.47411-0.14165 0.06795 0.09856-0.95266 0.93931
  -8  -2   1 1028.00 224.081   7-0.50962-0.10657 0.07486-0.24275-0.93917 0.92581
   8  -2  -1 910.915 182.605   5 0.53762 0.07886 0.19985-0.36650 0.90723-0.89444
  -8  -2   1 734.782 183.562   3-0.44242-0.17394-0.18877 0.02138-0.94540 0.93267
   8  -2  -1 1058.47 230.723   8 0.46004 0.15623-0.12300-0.04447 0.95144-0.93822
   8   2  -1 1040.42 206.225   8 0.52676 0.08957-0.15082 0.31742 0.92226-0.90932
   7  -2  -1 78.4229 72.9058   4-0.01839 0.55477-0.47042 0.30413-0.86914 0.86661
   7  -2  -1 57.7020 64.7300   8 0.44611 0.09061-0.11725-0.05018 0.95654-0.95860
  -7  -2   1 133.856 86.2625   3-0.42856-0.10800-0.17572 0.00836-0.95210 0.95477
  -7   2   1 297.378 120.400   7-0.46118-0.07495 0.06544 0.10116-0.95709 0.95906
  -7  -2   1 0.08595 53.2406   7-0.50027-0.03627 0.07304-0.24083-0.94292 0.94490
   7   2  -1 152.461 99.8299   5 0.44001 0.09690 0.13852 0.02881 0.95528-0.95767
   7   2  -1 210.545 110.718   2 0.41483 0.12191 0.21615-0.04881 0.94708-0.94936
  -7   2   1 254.404 99.6978   6-0.33880-0.19728 0.42916-0.26256-0.88693 0.88906
  -7  -2   1 316.897 110.045   9 0.02062-0.55669-0.48315 0.31617 0.86310-0.86100
  -7   2   1 287.584 110.457   3-0.55377 0.01793-0.29792 0.46518-0.86948 0.87178
   7  -2  -1 -57.027 88.8028   5 0.53158 0.00532 0.19598-0.36272 0.91084-0.91332
   7   2  -1 194.997 94.5261   8 0.51943 0.01731-0.14773 0.31441 0.92588-0.92820
  -6  -2   1 1913.02 232.238   7-0.50085 0.04395 0.07315-0.24084-0.94269 0.96001
  -6   2   1 1578.22 229.544   7-0.45606-0.00045 0.06445 0.10224-0.95878 0.97606
  -6   2   1 2280.58 203.623   3-0.56505 0.10896-0.30950 0.47670-0.85915 0.87679
   6  -2  -1 2084.62 231.811   4-0.07528 0.53210-0.34667 0.18024-0.93186 0.91414
  -6   2   1 1961.64 211.865   6-0.32991-0.12652 0.39230-0.22564-0.90618 0.92368
  -6  -2   1 2006.09 242.912   3-0.42065-0.03609-0.16832 0.00100-0.95569 0.97374
   6   2  -1 2030.04 243.763   2 0.40630 0.05075 0.20462-0.03724 0.95200-0.96960
   6   2  -1 1985.84 217.538   8 0.52332-0.06618-0.14936 0.31613 0.92398-0.94158
  -6  -2   1 1856.74 199.931   9 0.07913-0.53561-0.36269 0.19571 0.92655-0.90920
   6  -2  -1 1966.51 203.267   5 0.53789-0.08057 0.20002-0.36684 0.90707-0.92485
   6  -2  -1 1942.85 246.734   8 0.43917 0.01798-0.11439-0.05300 0.95896-0.97631
   5   2  -1 4533.88 330.651   2 0.40503-0.02764 0.20291-0.03547 0.95271-0.98564
   5  -2  -1 4403.36 314.491   4-0.13049 0.50772-0.21568 0.04908-0.97466 0.94171
  -5   2   1 4454.78 340.444   7-0.46278 0.08588 0.06575 0.10103-0.95656 0.98914
  -5  -2   1 4589.07 318.308   7-0.51712 0.13988 0.07633-0.24393-0.93607 0.96872
   5  -2  -1 4506.00 336.873   8 0.44261-0.06503-0.11582-0.05156 0.95777-0.99043
  -5   2   1 5433.95 279.889   3-0.60022 0.22385-0.34639 0.51352-0.82287 0.85579
  -5  -2   1 4158.76 284.000   9 0.13638-0.51326-0.23383 0.06684 0.97100-0.93839
   5   2  -1 4185.47 277.552   8 0.54532-0.16779-0.15864 0.32548 0.91264-0.94555
  -5   2   1 4408.69 295.707   6-0.32449-0.05227 0.37070-0.20401-0.91650 0.94934
  -5  -2   1 4393.74 326.070   3-0.42115 0.04422-0.16879 0.00154-0.95547 0.98887
   5   2  -1 4290.47 313.980   5 0.43493-0.05727 0.13540 0.03188 0.95723-0.99024
   5  -2  -1 4667.87 276.884   5 0.56452-0.18680 0.21721-0.38413 0.89000-0.92310
   3   2  -1 72.8312 38.9995   8 0.70499-0.48676-0.22803 0.39508 0.79465-0.85826
   3   2  -1 43.2425 32.7162   2 0.43702-0.21893 0.24652-0.07892 0.93286-0.99647
  -3   2   1 58.5733 40.4426   7-0.54638 0.32870 0.08207 0.08489-0.92306 0.98625
  -3  -2   1 30.3307 26.0178   7-0.64906 0.43114 0.10249-0.26991-0.86459 0.92789
  -3   2   1 61.3393 33.3909   1 0.22254-0.43986-0.07559 0.24275 0.99667-0.93316
  -3  -2   1 53.0004 37.2467   9 0.24376-0.46147 0.04323-0.21025 0.99765-0.93450
   3   2  -1 58.4802 22.0198   4-0.14712 0.36529-0.17394 0.34127-0.98376 0.92008
   3   2  -1 34.3413 20.0663   6-0.14651 0.36420-0.17541 0.34275-0.98347 0.91975
   3  -2  -1 76.5053 36.1724   8 0.50802-0.28964-0.14296-0.02440 0.93129-0.99466
   3  -2  -1 57.5714 40.5497   4-0.23267 0.45063 0.06089-0.22787-0.99730 0.93376
  -3   2   1 25.6955 25.5791   6-0.32842 0.11094 0.38630-0.21962-0.90911 0.97257
  -3   2   1 35.4816 16.8820   9 0.17787-0.39573-0.13288 0.30010 0.99109-0.92794
  -2  -2   1 -1.4534 25.0419   9 0.29105-0.42919 0.18548-0.35253 0.97696-0.89851
  -2   2   1 -6.6146 16.1647   6-0.33946 0.20159 0.43200-0.26532-0.88536 0.96411
   2   2  -1 28.1020 27.3505   5 0.56618-0.42757 0.21829-0.05106 0.88887-0.96792
  -2   2   1 -15.037 19.9560   7-0.66095 0.52283 0.10489 0.06217-0.85634 0.93484
   2   2  -1 -1.4901 15.1572   6-0.06634 0.20444-0.36684 0.53427-0.92321 0.84406
  -2   2   1 1.45250 16.3375   1 0.24317-0.38097-0.23029 0.39732 0.97150-0.89266
   2  -2  -1 -22.965 21.8609   4-0.27706 0.41533 0.20007-0.36721-0.97560 0.89670
   2  -2  -1 10.0171 25.2901   8 0.59826-0.45954-0.18120 0.01384 0.88108-0.95986
  -1  -2   1 7998.56 351.426   3-0.61646 0.55831-0.36390 0.19702-0.80373 0.89820
  -1  -2   1 7389.44 322.842   9 0.33152-0.39008 0.32326-0.49033 0.93347-0.83972
  -1   2   1 7164.73 318.367   6-0.35623 0.29794 0.50807-0.34141-0.83821 0.93221
   1   2  -1 7537.76 438.567   5 0.69391-0.63510 0.30466-0.13748 0.77369-0.86804
   0   2   1 -16.485 16.9036   6-0.37551 0.39674 0.61370-0.44702-0.75394 0.86319
   0  -2  -1 2.97819 15.3556   9-0.05115 0.03024-0.61623 0.44904 0.76163-0.87068
  -4  -2  -1 1457.56 238.997   7 0.10534-0.44519-0.04009-0.12757-0.95479 0.78418
  -4   2  -1 1656.83 213.810   7 0.07046-0.40983-0.03381 0.20051-0.96476 0.79430
   4  -2   1 1620.65 209.474   8-0.04898 0.38776 0.07699-0.24390 0.96778-0.79760
   5  -2   1 148.578 90.8288   8 0.02110 0.39723 0.05054-0.21749 0.98389-0.79841
  -5   2  -1 61.6849 72.2926   7-0.00852-0.41049-0.01949 0.18609-0.98273 0.79695
  -5  -2  -1 261.571 125.537   7 0.00774-0.42722-0.02245-0.14531-0.97955 0.79362
   5   2   1 129.314 67.6603   8-0.02616 0.44442 0.06840 0.09845 0.97363-0.78833
  -6  -2  -1 1537.32 306.820   7-0.07220-0.42691-0.00784-0.16002-0.99262 0.79136
  -6   2  -1 786.465 179.350   7-0.07680-0.42184-0.00699 0.17350-0.99317 0.79206
   6   2   1 994.203 214.799   8 0.06249 0.43538 0.03476 0.13206 0.99082-0.79020
   6  -2   1 739.328 174.596   8 0.08349 0.41441 0.02671-0.19373 0.99360-0.79282
  -7  -2  -1 419.683 226.502   7-0.14151-0.43724 0.00495-0.17291-0.99866 0.78207
   7   2   1 325.494 175.526   8 0.13766 0.43982 0.00582 0.16094 0.99844-0.78252
 -11  -3   1 1482.03 389.531   3-0.50302-0.35287-0.24712-0.00396-0.90943 0.85031
 -11  -3   1 840.891 270.163   7-0.59806-0.25717 0.09229-0.34409-0.89631 0.83685
  11   3  -1 1028.39 323.278   5 0.52077 0.33459 0.18907 0.06199 0.91708-0.85843
 -10   3   1 -165.85 155.233   7-0.52698-0.24794 0.07826 0.17163-0.93185 0.88788
 -10  -3   1 194.653 152.819   7-0.57661-0.19899 0.08803-0.33974-0.90803 0.86393
  10   3  -1 282.833 164.128   2 0.46168 0.31410 0.28105-0.03017 0.91437-0.87076
 -10  -3   1 123.599 139.763   3-0.48070-0.29537-0.22536-0.02573-0.92402 0.88040
  10   3  -1 286.712 199.864   5 0.49757 0.27819 0.17438 0.07663 0.92951-0.88611
  10  -3  -1 520.315 218.462   8 0.50743 0.26799-0.14271-0.10833 0.93156-0.88783
  -9  -3   1 1847.61 330.812   3-0.46087-0.23539-0.20629-0.04479-0.93564 0.90748
   9   3  -1 1875.06 340.123   2 0.44270 0.25336 0.25440-0.00349 0.92886-0.90057
  -9   3   1 1564.92 314.088   7-0.50655-0.18874 0.07426 0.17572-0.94042 0.91176
  -9  -3   1 1548.33 294.455   7-0.55908-0.13686 0.08457-0.33618-0.91695 0.88821
   9   3  -1 1327.13 310.310   5 0.47707 0.21911 0.16153 0.08946 0.93949-0.91134
   9   3  -1 1996.20 307.765   8 0.58687 0.10911-0.17632 0.42643 0.88842-0.86033
   9  -3  -1 1694.66 338.864   8 0.48649 0.20938-0.13397-0.11702 0.94084-0.91235
   8  -3  -1 132.498 119.612   8 0.46927 0.14706-0.12682-0.12414 0.94788-0.93464
   8   3  -1 184.729 120.760   2 0.42660 0.18976 0.23217 0.01876 0.93981-0.92683
  -8   3   1 211.067 129.688   7-0.49028-0.12538 0.07109 0.17898-0.94676 0.93342
  -8  -3   1 24.5179 69.5320   7-0.54701-0.06928 0.08219-0.33371-0.92276 0.90938
   8   3  -1 137.796 93.4847   5 0.46009 0.15648 0.15095 0.10001 0.94707-0.93420
  -8  -3   1 44.9869 72.3057   3-0.44425-0.17218-0.19049-0.06057-0.94447 0.93175
   8   3  -1 201.977 111.356   8 0.57761 0.03877-0.17235 0.42255 0.89415-0.88131
  -7  -3   1 1341.44 240.563   3-0.43186-0.10475-0.17881-0.07222-0.95055 0.95323
  -7   3   1 965.800 208.065   7-0.47974-0.05629 0.06904 0.18112-0.95065 0.95261
  -7  -3   1 1300.21 222.225   7-0.54282 0.00619 0.08137-0.33279-0.92472 0.92669
   7  -3  -1 340.100 228.614   4-0.04127 0.57765-0.42195 0.17211-0.89655 0.89411
   7   3  -1 1830.59 306.891   2 0.41423 0.12244 0.21532 0.03564 0.94744-0.94978
  -7   3   1 1148.14 213.415   6-0.32873-0.20745 0.38753-0.13730-0.90851 0.91063
   7  -3  -1 1346.03 190.559   5 0.60371-0.06672 0.24295-0.49318 0.86119-0.86382
  -7  -3   1 991.471 179.312   9 0.04524-0.58126-0.43381 0.18327 0.89192-0.88985
   7   3  -1 1862.23 263.228   5 0.44783 0.08913 0.14335 0.10758 0.95218-0.95460
   7  -3  -1 1169.35 227.569   8 0.45709 0.07968-0.12178-0.12915 0.95254-0.95458
   7   3  -1 1292.94 225.965   8 0.57778-0.04099-0.17242 0.42271 0.89405-0.89647
  -6   3   1 -35.561 54.3116   7-0.47741 0.02100 0.06859 0.18166-0.95149 0.96875
   6  -3  -1 102.172 77.0306   4-0.08740 0.54418-0.31886 0.06887-0.94284 0.92518
  -6   3   1 121.922 83.6839   6-0.32073-0.13577 0.35601-0.10573-0.92313 0.94061
  -6  -3   1 44.3812 63.3247   9 0.09304-0.54948-0.33243 0.08190 0.93901-0.92167
   6  -3  -1 148.492 63.7741   5 0.62487-0.16747 0.25709-0.50742 0.84357-0.86153
   6  -3  -1 17.4099 53.2320   8 0.45197 0.00524-0.11967-0.13125 0.95443-0.97177
   5   3  -1 1604.93 177.345   8 0.63064-0.25310-0.19520 0.44568 0.85844-0.89145
   5  -3  -1 1404.01 200.904   4-0.13113 0.50829-0.21410-0.03609-0.97504 0.94214
  -5   3   1 1325.68 195.636   7-0.48736 0.11056 0.07052 0.17981-0.94786 0.98042
  -5  -3   1 1452.05 207.508   3-0.42608 0.04909-0.17339-0.07749-0.95325 0.98666
  -5   3   1 1221.63 170.728   6-0.31577-0.06107 0.33700-0.08671-0.93125 0.96408
   5   3  -1 1606.13 215.111   2 0.40569-0.02836 0.20380 0.04725 0.95234-0.98531
  -5  -3   1 1442.07 193.951   9 0.13865-0.51550-0.22849-0.02207 0.97238-0.93976
  -5  -3   1 1267.03 163.003   7-0.57676 0.19946 0.08806-0.33930-0.90795 0.94060
   5   3  -1 1355.09 192.837   5 0.44528-0.06759 0.14179 0.10913 0.95320-0.98625
   5  -3  -1 1905.47 209.088   5 0.67455-0.29676 0.29107-0.54152 0.79547-0.82881
   5  -3  -1 1327.40 196.506   8 0.45705-0.07941-0.12176-0.12915 0.95256-0.98521
   4   3  -1 336.021 94.4295   8 0.70792-0.41005-0.22937 0.47996 0.79173-0.84008
  -4   3   1 328.784 96.6279   7-0.51653 0.21931 0.07621 0.17420-0.93632 0.98418
  -4  -3   1 230.701 61.6369   7-0.63408 0.33645 0.09948-0.35064-0.87451 0.92249
   4   3  -1 218.753 84.3493   2 0.41325-0.11556 0.21399 0.03714 0.94802-0.99631
  -4  -3   1 278.469 88.6897   9 0.18164-0.47891-0.12335-0.12721 0.99236-0.94447
   4   3  -1 221.124 48.9801   4-0.30657 0.60467 0.30253-0.05134-0.94470 0.89630
   4  -3  -1 250.149 83.4004   4-0.17206 0.46958-0.10917-0.14121-0.99380 0.94561
   4   3  -1 254.632 48.7308   6-0.30569 0.60278 0.29959-0.04892-0.94578 0.89749
  -4   3   1 352.442 93.7993   6-0.31459 0.01742 0.33257-0.08227-0.93307 0.98123
  -4   3   1 205.470 68.5911   1 0.18717-0.48414 0.12921 0.12171 0.99157-0.94346
  -4   3   1 171.513 42.2029   9 0.34069-0.63818 0.35754-0.10679 0.91873-0.87095
   4  -3  -1 209.098 61.0374   8 0.47749-0.17943-0.13023-0.12069 0.94458-0.99258
  -3   3   1 3189.48 262.833   7-0.57727 0.35964 0.08817 0.16235-0.90768 0.97083
   3  -3  -1 2814.46 268.489   4-0.20968 0.42754-0.00593-0.24464-0.99982 0.93632
  -3   3   1 2648.18 246.274   1 0.20960-0.42704 0.00562 0.24511 0.99983-0.93633
   3   3  -1 2896.91 196.218   6-0.21578 0.43342 0.01162 0.23926-0.99965 0.93593
  -3   3   1 3257.57 278.136   6-0.31794 0.10043 0.34524-0.09498-0.92779 0.99126
  -3  -3   1 3150.70 290.976   9 0.22146-0.43915-0.01881-0.23177 0.99939-0.93621
  -3  -3   1 3036.85 245.488   7-0.74346 0.52551 0.12176-0.37282-0.78835 0.85163
   3   3  -1 2642.39 259.079   5 0.49802-0.27969 0.17467 0.07623 0.92929-0.99301
   3  -3  -1 3375.92 278.755   8 0.52200-0.30355-0.14881-0.10213 0.92462-0.98799
  -2   3   1 8201.73 354.213   7-0.69073 0.55264 0.11093 0.13967-0.83409 0.91256
   2  -3  -1 7645.85 409.468   4-0.24343 0.38159 0.09331-0.34404-0.99425 0.91539
  -2   3   1 7402.70 367.163   1 0.22674-0.36467-0.10409 0.35470 0.99394-0.91510
   2   3  -1 7273.06 316.100   6-0.15830 0.29636-0.14514 0.39617-0.98883 0.90969
  -2   3   1 7276.08 373.250   6-0.32634 0.18847 0.37799-0.12776-0.91309 0.99184
  -2  -3   1 7148.75 377.230   3-0.51275 0.37501-0.25672 0.00621-0.90253 0.98182
   2   3  -1 7964.25 370.471   5 0.56423-0.42565 0.21702 0.03386 0.89020-0.96925
  -2  -3   1 7820.81 394.912   9 0.25748-0.39557 0.08288-0.33348 0.99425-0.91577
  -2  -3   1 8241.51 369.372   4 0.02432-0.16296-0.55621 0.30551-0.81028 0.88915
   2  -3  -1 8033.48 378.093   9-0.01482 0.15312-0.55090 0.30008 0.81622-0.89463
  -2  -3   1 8330.33 268.658   8 0.59518-0.73365-0.17987-0.07087 0.88310-0.80431
   2  -3  -1 8053.07 365.766   8 0.60514-0.46636-0.18417-0.06679 0.87650-0.95529
  -1  -3   1 447.927 97.1568   3-0.58912 0.53096-0.33461 0.08423-0.83504 0.92957
  -1  -3   1 548.859 101.897   4 0.00717-0.06617-0.52248 0.27190-0.83512 0.92928
   1   3  -1 406.661 98.3257   2 0.51908-0.46030 0.36527-0.11378 0.85808-0.95251
  -1   3   1 346.952 80.9263   6-0.33985 0.28158 0.43365-0.18346-0.88444 0.97847
   1   3  -1 377.624 91.1867   6-0.12486 0.18325-0.22951 0.48065-0.97118 0.87663
   1  -3  -1 338.628 78.2548   9 0.00183 0.05688-0.51956 0.26878 0.83903-0.93273
  -1  -3   1 510.809 101.902   9 0.28900-0.34751 0.17894-0.42956 0.97843-0.88466
   1  -3  -1 -10.389 44.7843   8 0.74498-0.68599-0.24622-0.00474 0.75173-0.84596
   1   3  -1 625.566 122.747   5 0.67278-0.61401 0.28983-0.03898 0.79737-0.89172
   0  -3   1 139.631 58.1009   4 0.00396 0.01669-0.51606 0.26560-0.83959 0.94905
   0  -3  -1 109.604 50.1954   4-0.29710 0.27578 0.26855-0.51955-0.95642 0.84681
   0   3  -1 127.095 60.9294   6-0.10815 0.08684-0.26999 0.52122-0.95961 0.84966
   0   3   1 64.7879 35.5967   6-0.35738 0.37867 0.51375-0.26361-0.83427 0.94354
   0  -3  -1 92.0324 49.2124   9 0.00402-0.02489-0.51539 0.26464 0.84191-0.95091
   0  -3   1 166.277 59.6088   9 0.31543-0.29438 0.26620-0.51682 0.95443-0.84535
  -1  -3  -1 12216.5 480.421   4-0.31620 0.21514 0.33832-0.58940-0.93069 0.80569
  -1   3  -1 12679.7 545.436   6-0.10324 0.00219-0.28172 0.53301-0.95587 0.83052
   1  -3   1 12757.1 482.715   9 0.33639-0.23576 0.34128-0.59190 0.92593-0.80153
  -2  -3  -1 1350.28 191.508   9-0.01730-0.16275-0.55549 0.30478 0.81270-0.95230
   2  -3   1 1351.24 180.025   4 0.02287 0.15708-0.55340 0.30317-0.81244 0.95246
  -2   3  -1 1397.18 192.619   6-0.10681-0.07397-0.27322 0.52458-0.95860 0.81787
  -3   3  -1 2224.50 235.733   7 0.09969-0.35931-0.03908 0.28943-0.95649 0.80138
  -3   3  -1 2462.86 273.143   6-0.11664-0.14387-0.24956 0.50097-0.96570 0.80960
  -3  -3  -1 2463.11 282.706   9-0.03616-0.22349-0.58978 0.33908 0.78497-0.93986
   3  -3   1 2412.50 249.241   8-0.05958 0.31891 0.08096-0.33130 0.96486-0.80992
  -4  -3  -1 165.959 107.554   7 0.05876-0.39873-0.03170-0.21958-0.96782 0.79718
  -4   3  -1 100.934 80.1423   6-0.13120-0.20904-0.21386 0.46531-0.97510 0.80363
  -4   3  -1 109.157 71.0638   7 0.01857-0.35783-0.02442 0.27468-0.97728 0.80685
   4  -3   1 199.750 94.0029   8 0.00545 0.33341 0.05646-0.30685 0.98077-0.81052
   5  -3   1 5950.79 464.620   8 0.06349 0.35493 0.03438-0.28480 0.99096-0.80542
  -5  -3  -1 5630.47 481.761   7-0.03424-0.38535-0.01479-0.23658-0.98722 0.80126
   5   3   1 4773.67 383.384   8 0.00964 0.40868 0.05489 0.19547 0.98163-0.79634
  -6   3  -1 1630.68 265.962   7-0.11044-0.38808-0.00080 0.25088-0.99657 0.79549
  -6  -3  -1 1890.08 325.129   7-0.11028-0.38894-0.00083-0.25065-0.99655 0.79526
  -6   3  -1 1406.24 246.747   6-0.17043-0.32924-0.11337 0.36482-0.99329 0.79115
   6   3   1 2003.54 285.330   8 0.09933 0.39861 0.02063 0.22969 0.99536-0.79475
   6  -3   1 1446.42 245.864   8 0.11717 0.38081 0.01375-0.26422 0.99701-0.79617
  -7  -3  -1 1467.37 321.598   7-0.17638-0.40247 0.01142-0.26299-0.99981 0.78318
   7   3   1 1277.25 276.875   8 0.17424 0.40333-0.00840 0.25868 0.99980-0.78389
  11   4  -1 419.552 216.060   2 0.48182 0.37357 0.30993 0.02456 0.89693-0.83812
  10   4  -1 -22.572 155.929   2 0.46240 0.31326 0.28207 0.05243 0.91379-0.87028
 -10  -4   1 -63.006 166.259   3-0.48543-0.29070-0.22994-0.10486-0.92106 0.87742
 -10   4   1 237.708 193.951   7-0.54655-0.22826 0.08210 0.25135-0.92298 0.87901
 -10  -4   1 290.984 180.538   7-0.61688-0.15880 0.09604-0.43138-0.88526 0.84114
  10   4  -1 80.2872 162.403   5 0.50689 0.26897 0.18027 0.15433 0.92467-0.88128
  10  -4  -1 359.386 186.711   8 0.52015 0.25533-0.14803-0.18647 0.92553-0.88179
  -9  -4   1 297.858 153.910   7-0.60363-0.09240 0.09340-0.42865-0.89312 0.86435
  -9  -4   1 176.906 127.920   3-0.46743-0.22887-0.21257-0.12220-0.93193 0.90375
   9   4  -1 -144.12 157.503   2 0.44524 0.25072 0.25793 0.07657 0.92702-0.89881
  -9   4   1 95.1577 141.855   7-0.52851-0.16666 0.07856 0.25498-0.93118 0.90252
   9   4  -1 92.7115 117.234   5 0.48830 0.20796 0.16856 0.16602 0.93414-0.90601
   9  -4  -1 -106.33 100.781   8 0.50120 0.19473-0.14010-0.19437 0.93441-0.90591
   8   4  -1 314.182 138.301   5 0.47338 0.14328 0.15922 0.17535 0.94119-0.92835
  -8  -4   1 216.168 134.427   3-0.45268-0.16379-0.19849-0.13625-0.94009 0.92735
   8   4  -1 110.474 95.2804   2 0.43094 0.18532 0.23814 0.09640 0.93697-0.92407
   8  -4  -1 7.72858 100.548   4-0.00956 0.62550-0.48866 0.15543-0.85778 0.87060
  -8   4   1 100.260 94.0568   7-0.51503-0.10053 0.07592 0.25770-0.93694 0.92359
  -8  -4   1 176.337 77.1390   7-0.59702-0.01935 0.09208-0.42725-0.89690 0.88349
  -8  -4   1 329.122 132.054   9 0.01318-0.62876-0.49772 0.16362 0.85377-0.86697
  -8   4   1 317.994 164.654   6-0.33398-0.28194 0.40897-0.07517-0.89774 0.88442
   8  -4  -1 157.206 106.489   8 0.48620 0.13019-0.13385-0.20061 0.94096-0.92772
  -7  -4   1 1013.33 223.883   3-0.44212-0.09452-0.18847-0.14621-0.94555 0.94822
  -7   4   1 947.003 217.245   7-0.50778-0.02815 0.07450 0.25920-0.93992 0.94187
   7   4  -1 832.891 212.435   2 0.42024 0.11634 0.22349 0.11108 0.94381-0.94621
  -7  -4   1 1253.19 213.747   7-0.59997 0.06326 0.09267-0.42774-0.89522 0.89717
   7  -4  -1 311.795 244.420   4-0.05064 0.58699-0.40161 0.06821-0.90693 0.90455
   7   4  -1 951.017 217.571   5 0.46325 0.07378 0.15290 0.18165 0.94571-0.94816
  -7   4   1 1137.48 216.016   6-0.32493-0.21132 0.37239-0.03854-0.91571 0.91779
  -7  -4   1 1003.05 196.051   9 0.05573-0.59172-0.41221 0.07811 0.90327-0.90120
   7  -4  -1 838.611 203.370   8 0.47647 0.06038-0.12980-0.20463 0.94500-0.94704
   6   4  -1 138.752 74.5299   5 0.45956-0.00217 0.15061 0.18394 0.94730-0.96507
   6   4  -1 403.094 129.329   8 0.68709-0.22991-0.22004 0.55407 0.81172-0.82955
  -6   4   1 101.239 88.5583   7-0.50936 0.05304 0.07481 0.25897-0.93928 0.95652
  -6  -4   1 249.160 97.7080   7-0.61723 0.16020 0.09611-0.43110-0.88505 0.90235
   6   4  -1 325.436 144.835   2 0.41413 0.04281 0.21518 0.11942 0.94750-0.96521
   6  -4  -1 3.40043 111.309   4-0.08935 0.54609-0.31434-0.01924-0.94452 0.92691
  -6  -4   1 296.216 111.409   9 0.09602-0.55243-0.32584-0.00826 0.94156-0.92421
  -6   4   1 236.444 113.250   6-0.31799-0.13856 0.34546-0.01158-0.92769 0.94514
  -6  -4   1 246.402 117.582   3-0.43700-0.01982-0.18364-0.15096-0.94808 0.96613
   6  -4  -1 82.5758 89.2209   8 0.47398-0.01669-0.12877-0.20567 0.94601-0.96334
   5   4  -1 41.5145 50.6970   5 0.46468-0.08695 0.15379 0.18076 0.94508-0.97817
  -5   4   1 -7.5895 57.3028   7-0.52388 0.14715 0.07765 0.25622-0.93319 0.96573
   5  -4  -1 58.7798 61.4728   8 0.48173-0.10400-0.13198-0.20246 0.94284-0.97550
   5   4  -1 31.0308 62.3697   2 0.41387-0.03657 0.21484 0.11983 0.94766-0.98067
  -5  -4   1 87.5023 49.7841   7-0.65681 0.27945 0.10405-0.43895-0.85925 0.89189
  -5  -4   1 83.5629 66.5216   3-0.43907 0.06208-0.18561-0.14889-0.94706 0.98047
  -5  -4   1 73.9400 73.6399   9 0.13387-0.51069-0.23972-0.09439 0.96944-0.93682
   5  -4  -1 5.00744 85.8252   4-0.12550 0.50260-0.22799-0.10578-0.97157 0.93870
  -5   4   1 -22.675 54.1223   6-0.31373-0.06316 0.32927 0.00462-0.93440 0.96721
   5   4  -1 -91.121 86.4185   6-0.37010 0.74667 0.58096-0.24697-0.78272 0.74976
   4  -4  -1 1077.74 189.988   4-0.15883 0.45627-0.14384-0.19013-0.98903 0.94087
  -4   4   1 934.939 153.210   7-0.55815 0.26099 0.08439 0.24957-0.91740 0.96523
  -4  -4   1 1161.99 158.132   7-0.73204 0.43438 0.11940-0.45421-0.79901 0.84696
  -4  -4   1 889.094 160.178   3-0.45081 0.15359-0.19671-0.13766-0.94108 0.98982
   4   4  -1 896.468 114.720   6-0.30489 0.60204 0.29670 0.03749-0.94683 0.89849
   4   4  -1 979.052 174.375   2 0.42112-0.12345 0.22470 0.11005 0.94327-0.99160
  -4  -4   1 890.628 160.627   9 0.16899-0.46623-0.15507-0.17906 0.98772-0.93981
  -4   4   1 808.635 150.548   6-0.31265 0.01545 0.32527 0.00861-0.93601 0.98414
   4  -4  -1 -93.649 69.5367   9-0.04940 0.34689-0.61319 0.27873 0.76441-0.81222
   4   4  -1 940.025 161.528   5 0.48217-0.18413 0.16471 0.16984 0.93709-0.98551
   4  -4  -1 934.999 156.959   8 0.50441-0.20627-0.14144-0.19304 0.93295-0.98096
  -3  -4   1 2.30516 41.3828   3-0.47561 0.25814-0.22044-0.11378-0.92712 0.99116
  -3  -4   1 -2.1207 31.3504   4 0.01410-0.23252-0.53625 0.20191-0.82526 0.88882
   3   4  -1 143.883 90.0716   2 0.43803-0.21997 0.24792 0.08692 0.93216-0.99582
  -3   4   1 45.8145 48.2374   7-0.62365 0.40605 0.09739 0.23665-0.88111 0.94424
  -3  -4   1 34.9892 18.8631   8 0.02344-0.24131 0.04965-0.38368 0.98434-0.92103
   3   4  -1 55.5605 40.6276   6-0.24787 0.46552 0.10707 0.22732-0.99259 0.92886
   3  -4  -1 15.7324 38.4061   4-0.18907 0.40682-0.06336-0.27079-0.99797 0.93449
  -3   4   1 -55.656 47.3533   6-0.31530 0.09778 0.33522-0.00137-0.93198 0.99543
  -3  -4   1 58.8194 58.9789   9 0.20107-0.41871-0.07331-0.26083 0.99729-0.93408
   3  -4  -1 114.433 70.3556   9-0.00325 0.22114-0.52921 0.19480 0.83222-0.89529
  -3   4   1 33.8065 23.1951   2 0.47343-0.69117 0.29782 0.03675 0.90447-0.84124
   3  -4  -1 29.1732 48.1002   8 0.54958-0.33107-0.16044-0.17408 0.91033-0.97372
  -2  -4   1 3302.56 267.229   4-0.00904-0.12973-0.48973 0.15549-0.85710 0.93598
   2   4  -1 2808.02 153.573   7-0.30978 0.44817 0.03646 0.29781-0.99196 0.91328
  -2   4   1 4018.53 272.503   7-0.73790 0.59982 0.12061 0.21352-0.79359 0.87206
   2  -4  -1 3542.83 262.348   8 0.62897-0.49014-0.19448-0.14009 0.85967-0.93849
   2   4  -1 3134.84 249.082   5 0.57818-0.43962 0.22613 0.10844 0.88048-0.95955
   2   4  -1 3121.96 237.696   6-0.20584 0.34390-0.01666 0.35123-0.99976 0.92063
  -2   4   1 3014.44 271.771   6-0.32205 0.18417 0.36111-0.02732-0.92086 0.99960
   2  -4  -1 3453.16 260.608   9 0.01979 0.11851-0.48479 0.15041 0.86207-0.94043
  -2  -4   1 3069.59 277.435   9 0.22974-0.36781 0.00390-0.33805 0.99926-0.92076
  -2  -4   1 2365.16 100.645   8 0.46901-0.60742-0.12671-0.20761 0.94798-0.86926
  -2  -4   1 3080.17 262.173   3-0.51795 0.38018-0.26186-0.07218-0.89871 0.97802
  -1  -4   1 7456.42 418.236   9 0.25469-0.31317 0.07471-0.40887 0.99510-0.90129
   1  -4  -1 7023.89 383.309   9 0.02858 0.03016-0.46743 0.13309 0.87274-0.96639
  -1  -4   1 8746.07 435.789   4-0.01856-0.04055-0.47005 0.13593-0.86936 0.96355
   1   4  -1 6585.41 378.285   6-0.17757 0.23597-0.09437 0.42907-0.99540 0.90088
  -1  -4   1 7402.91 389.673   3-0.58263 0.52446-0.32778-0.00610-0.84183 0.93640
   1   4  -1 8012.44 434.681   2 0.51061-0.45178 0.35245-0.01732 0.86775-0.96220
  -1   4   1 6966.24 409.506   6-0.33300 0.27475 0.40492-0.07120-0.89983 0.99384
   1   4  -1 9037.58 450.321   5 0.67334-0.61460 0.29022 0.04432 0.79677-0.89112
  -1   4  -1 448.015 85.3654   7 0.19468-0.29491-0.05605 0.39013-0.92351 0.79906
   1   4   1 484.644 108.122   1 0.23695-0.13626-0.17919 0.51341 0.98266-0.85782
  -1   4  -1 562.455 129.780   6-0.15259 0.05159-0.15987 0.49477-0.98636 0.86103
   1   4   1 438.154 113.250   6-0.36464 0.46549 0.55079-0.21718-0.80704 0.93156
   1  -4   1 372.220 87.7532   9 0.29206-0.19140 0.18870-0.52286 0.97621-0.85179
  -1  -4  -1 303.588 94.0154   4-0.27279 0.17165 0.18601-0.52068-0.97882 0.85389
   1  -4   1 340.778 78.2343   8-0.08897 0.18935 0.09193-0.42573 0.95611-0.83169
  -1  -4  -1 288.283 88.5757   9 0.01956-0.12000-0.48525 0.15096 0.86178-0.98604
  -2   4  -1 11.0879 46.9942   7 0.09074-0.27061-0.03747 0.37144-0.95912 0.81934
   2  -4   1 -16.343 30.8706   9 0.30389-0.12365 0.22721-0.56138 0.96633-0.82658
  -2   4  -1 21.3056 50.3433   6-0.15172-0.02902-0.16212 0.49709-0.98596 0.84524
  -2  -4  -1 -6.4880 38.7872   4-0.28289 0.10202 0.21957-0.55432-0.97073 0.83042
  -2  -4  -1 29.3530 41.4777   9 0.00613-0.18614-0.51132 0.17705 0.84469-0.98426
   2  -4   1 -19.935 37.8750   8-0.03103 0.21094 0.07024-0.40406 0.97243-0.83270
   2   4   1 37.4435 42.1826   1 0.23980-0.05946-0.20201 0.53629 0.97803-0.83784
  -3   4  -1 956.102 156.909   7 0.01506-0.27456-0.02378 0.35767-0.97803 0.82293
  -3  -4  -1 824.768 152.069   4-0.28785 0.02725 0.23642-0.57124-0.96615 0.81047
   3  -4   1 832.546 170.878   4 0.01702 0.24250-0.54197 0.20834-0.82105 0.97640
   3   4   1 1116.21 179.039   1 0.24038 0.01965-0.20676 0.54111 0.97700-0.82145
  -3  -4  -1 1364.00 177.716   7 0.09111-0.35154-0.03753-0.29726-0.95901 0.80367
  -3   4  -1 917.946 184.838   6-0.15650-0.10397-0.14983 0.48485-0.98807 0.83198
   3  -4   1 794.974 127.206   9 0.31063-0.05085 0.24983-0.58400 0.95966-0.80460
   3  -4   1 988.029 168.605   8 0.02031 0.23913 0.05084-0.38468 0.98374-0.82872
  -3  -4  -1 873.749 181.062   9-0.01152-0.24808-0.54475 0.21050 0.82086-0.97572
  -4  -4  -1 80.5243 66.0602   7-0.01883-0.32123-0.01761-0.31729-0.98461 0.81396
  -4   4  -1 20.7850 59.9298   7-0.04767-0.29146-0.01234 0.34615-0.98930 0.81888
   4  -4   1 24.1404 43.5042   4 0.03693 0.30223-0.58040 0.24689-0.79097 0.96158
  -4   4  -1 115.598 99.8949   6-0.16578-0.17442-0.12563 0.46070-0.99171 0.82025
  -4  -4  -1 20.3900 50.2689   4-0.28677-0.05352 0.23273-0.56760-0.96718 0.79615
  -4  -4  -1 214.357 128.312   9-0.03256-0.30663-0.58333 0.24908 0.79039-0.96056
   4   4   1 91.5938 69.3386   1 0.23854 0.10124-0.19187 0.52629 0.98016-0.80923
   4  -4   1 -8.8293 33.4536   9 0.31158 0.02776 0.25304-0.58721 0.95866-0.78828
   4   4   1 -1.5352 45.5511   8-0.03439 0.37318 0.07150 0.26240 0.97159-0.80160
   4  -4   1 -21.241 58.8717   8 0.06824 0.27074 0.03256-0.36643 0.99163-0.82131
  -5  -4  -1 2269.27 269.165   7-0.10056-0.31913-0.00262-0.33238-0.99569 0.80971
  -5   4  -1 2001.65 288.965   7-0.10348-0.31528-0.00208 0.33581-0.99596 0.81022
  -5  -4  -1 1696.37 199.474   4-0.27773-0.14223 0.20230-0.53724-0.97507 0.78869
   5   4   1 2135.90 232.925   1 0.23377 0.18584-0.15481 0.48925 0.98698-0.80067
  -5   4  -1 1720.45 284.787   6-0.17869-0.24123-0.09135 0.42642-0.99570 0.80889
   5  -4   1 2061.70 288.269   8 0.11420 0.30433 0.01490-0.34880 0.99676-0.81115
   5   4   1 1980.05 214.452   8 0.07843 0.33998 0.02865 0.30524 0.99297-0.80765
  -6   4  -1 853.708 219.613   7-0.15522-0.34317 0.00749 0.32615-0.99926 0.79821
  -6   4  -1 590.420 197.323   6-0.19456-0.30509-0.04818 0.38324-0.99882 0.79666
   6   4   1 777.243 169.396   8 0.16326 0.33478-0.00412 0.33799 0.99956-0.79893
  -6  -4  -1 668.058 185.212   7-0.16822-0.33110 0.00990-0.34501-0.99965 0.79833
   6  -4   1 974.476 223.693   8 0.15892 0.33917-0.00243-0.33151 0.99942-0.79854
  -7  -4  -1 129.160 101.228   7-0.22798-0.35097 0.02105-0.35625-0.99912 0.78246
 -10  -5   1 23.6833 157.609   3-0.49501-0.28114-0.23926-0.17922-0.91486 0.87118
 -10   5   1 -97.979 152.468   7-0.57283-0.20187 0.08728 0.32972-0.91000 0.86605
  10   5  -1 198.293 169.592   2 0.46772 0.30784 0.28965 0.12845 0.90937-0.86597
  10  -5  -1 -15.209 130.620   8 0.53877 0.23680-0.15586-0.26211 0.91612-0.87240
   9   5  -1 579.728 230.496   2 0.45241 0.24347 0.26797 0.15014 0.92167-0.89356
  -9   5   1 508.283 201.574   7-0.55771-0.13736 0.08430 0.33278-0.91762 0.88896
  -9  -5   1 929.905 275.827   3-0.47896-0.21736-0.22367-0.19478-0.92509 0.89687
   9  -5  -1 609.015 249.189   8 0.52218 0.17385-0.14888-0.26907 0.92454-0.89605
   9   5  -1 514.333 209.021   5 0.50510 0.19125 0.17914 0.23906 0.92562-0.89752
  -8  -5   1 142.520 125.825   3-0.46620-0.15028-0.21139-0.20700-0.93263 0.91986
   8   5  -1 69.5970 111.199   2 0.43992 0.17628 0.25053 0.16760 0.93084-0.91802
   8  -5  -1 97.4462 163.640   4-0.01654 0.63246-0.47425 0.05744-0.86680 0.87968
  -8   5   1 -132.68 129.463   7-0.54764-0.06780 0.08232 0.33484-0.92246 0.90910
  -8   5   1 -77.265 103.080   6-0.33291-0.28308 0.40454 0.01289-0.90002 0.88664
  -8  -5   1 123.576 121.347   9 0.02091-0.63647-0.48260 0.06494 0.86344-0.87665
   8  -5  -1 121.694 117.317   8 0.50980 0.10668-0.14370-0.27426 0.93046-0.91724
   8   5  -1 -15.033 85.4003   5 0.49248 0.12425 0.17118 0.24701 0.93208-0.91927
   7   5  -1 658.002 184.957   5 0.48478 0.05231 0.16634 0.25186 0.93585-0.93834
  -7  -5   1 733.327 207.393   3-0.45760-0.07904-0.20317-0.21516-0.93744 0.94008
   7   5  -1 998.182 234.067   2 0.43092 0.10562 0.23809 0.18005 0.93699-0.93946
  -7   5   1 834.179 200.357   7-0.54442 0.00857 0.08168 0.33556-0.92397 0.92591
   7  -5  -1 166.520 267.763   4-0.05227 0.58857-0.39804-0.01894-0.90868 0.90635
  -7  -5   1 735.399 195.537   9 0.05804-0.59400-0.40739-0.01027 0.90570-0.90363
  -7   5   1 824.751 202.436   6-0.32504-0.21125 0.37284 0.04463-0.91550 0.91752
   7  -5  -1 946.061 226.104   8 0.50298 0.03396-0.14084-0.27712 0.93361-0.93566
   6   5  -1 348.249 126.486   5 0.48351-0.02608 0.16556 0.25265 0.93645-0.95426
  -6  -5   1 425.501 156.564   3-0.45427-0.00255-0.20000-0.21822-0.93924 0.95726
   6   5  -1 368.772 140.270   2 0.42624 0.03066 0.23168 0.18651 0.94004-0.95781
  -6  -5   1 388.468 117.546   7-0.70118 0.24410 0.11306-0.53171-0.82570 0.84296
  -6   5   1 743.186 221.852   6-0.31911-0.13749 0.34975 0.06775-0.92586 0.94325
  -6  -5   1 429.393 150.789   9 0.09282-0.54919-0.33290-0.08475 0.93883-0.92148
  -5  -5   1 1170.43 207.208   3-0.45774 0.08073-0.20331-0.21478-0.93736 0.97075
  -5   5   1 1446.37 211.403   7-0.57072 0.19404 0.08687 0.33052-0.91109 0.94360
  -5  -5   1 1517.94 204.020   7-0.75619 0.37880 0.12441-0.54298-0.77589 0.80846
   5  -5  -1 273.638 232.325   4-0.11634 0.49335-0.25034-0.16702-0.96548 0.93264
   5   5  -1 1277.13 235.592   2 0.42694-0.04966 0.23264 0.18561 0.93959-0.97266
  -5   5   1 1174.23 213.752   6-0.31553-0.06136 0.33609 0.08141-0.93162 0.96438
  -5  -5   1 1644.65 256.164   9 0.12511-0.50190-0.26012-0.15756 0.96371-0.93108
   5   5  -1 1340.33 213.800   5 0.49088-0.11311 0.17017 0.24806 0.93287-0.96600
   5  -5  -1 1594.90 243.055   8 0.51463-0.13682-0.14572-0.27228 0.92818-0.96088
  -4  -5   1 1662.03 220.504   4 0.02676-0.32494-0.56093 0.14295-0.80662 0.85484
   4  -5  -1 1639.34 245.115   4-0.14438 0.44172-0.18090-0.23665-0.98239 0.93425
  -4   5   1 1696.47 213.517   7-0.61105 0.31393 0.09488 0.32260-0.88877 0.93658
   4   5  -1 2124.37 216.360   6-0.31110 0.60831 0.31951 0.09819-0.93828 0.88989
  -4   5   1 1469.37 230.837   6-0.31470 0.01750 0.33296 0.08451-0.93291 0.98100
   4   5  -1 1459.52 237.240   2 0.43433-0.13665 0.24280 0.17553 0.93470-0.98308
   4   5  -1 1549.15 219.571   5 0.50995-0.21189 0.18221 0.23604 0.92304-0.97149
  -4  -5   1 1412.18 223.361   3-0.47002 0.17280-0.21507-0.20287-0.93042 0.97915
  -4  -5   1 1607.93 245.557   9 0.15471-0.45191-0.19006-0.22762 0.98122-0.93330
   4  -5  -1 1668.75 218.341   8 0.54028-0.24206-0.15650-0.26154 0.91532-0.96338
  -4   5   1 1526.66 231.258   1 0.17211-0.46930 0.20323 0.21475 0.97892-0.93086
  -3  -5   1 604.260 144.273   3-0.49379 0.27631-0.23808-0.17969-0.91566 0.97969
   3   5  -1 688.452 159.061   2 0.45000-0.23192 0.26459 0.15385 0.92350-0.98721
  -3  -5   1 761.030 153.912   4-0.00374-0.21480-0.50052 0.08264-0.85008 0.91363
  -3   5   1 722.643 127.622   7-0.68208 0.46449 0.10917 0.30839-0.84080 0.90392
  -3   5   1 531.986 82.5637   2 0.49811-0.71576 0.33380 0.08443 0.88108-0.81796
  -3   5   1 612.770 148.261   6-0.31699 0.09946 0.34163 0.07580-0.92932 0.99273
   3  -5  -1 813.871 177.841   4-0.16950 0.38714-0.11593-0.30178-0.99298 0.92952
   3   5  -1 863.133 153.798   5 0.54516-0.32684 0.20469 0.21356 0.90260-0.96637
   3   5  -1 782.309 141.181   6-0.26980 0.48748 0.17645 0.24146-0.98089 0.91713
  -3  -5   1 730.593 157.807   9 0.18142-0.39903-0.12392-0.29377 0.99229-0.92906
   3  -5  -1 882.551 159.991   9 0.01487 0.20304-0.49443 0.07646 0.85591-0.91893
  -3   5   1 608.675 134.750   1 0.18764-0.40532 0.12672 0.29112 0.99189-0.92844
   3  -5  -1 827.009 149.086   8 0.58713-0.36854-0.17642-0.24169 0.88825-0.95170
   2  -5  -1 63.0854 49.5794   8 0.66448-0.52561-0.21002-0.20816 0.83165-0.91052
  -2  -5   1 -4.1898 57.9622   9 0.20499-0.34302-0.06298-0.35472 0.99795-0.91942
   2   5  -1 33.5437 15.8463   7 0.07378 0.06488-0.03441 0.45220-0.96386 0.88526
   2  -5  -1 38.5620 30.4572   3-0.38824 0.52583-0.13833-0.27929-0.96874 0.88963
  -2   5   1 81.8551 66.3976   1 0.20013-0.33828 0.06008 0.35769 0.99814-0.91934
   2   5  -1 27.0320 34.9366   6-0.23726 0.37534 0.07479 0.34330-0.99614 0.91699
   2  -5  -1 108.905 71.2984   4-0.19148 0.32941-0.05674-0.36114-0.99837 0.91957
  -2   5   1 58.0027 50.6514   2 0.34070-0.47878 0.11866 0.29902 0.98074-0.90219
  -2   5   1 63.0501 65.7214   6-0.32266 0.18479 0.36349 0.05388-0.91979 0.99850
   2  -5  -1 92.1364 55.6004   9 0.03114 0.10720-0.46232 0.04439 0.87578-0.95410
   2   5  -1 56.7885 47.7901   2 0.47573-0.33724 0.30113 0.11745 0.90244-0.98152
  -2  -5   1 65.6265 69.0057   3-0.53233 0.39454-0.27621-0.14137-0.88760 0.96691
  -1   5   1 361.376 110.809   6-0.33179 0.27355 0.39994 0.01734-0.90236 0.99636
  -1  -5   1 463.331 116.760   9 0.22517-0.28362-0.00868-0.40903 0.99940-0.90556
   1   5  -1 464.483 117.570   6-0.21362 0.27205 0.00545 0.41280-0.99975 0.90522
   1  -5  -1 375.887 108.103   4-0.21010 0.26831-0.00474-0.41327-0.99982 0.90567
  -1  -5   1 378.755 47.2787   8 0.12727-0.18589 0.00985-0.42743 0.99778-0.90383
   1  -5  -1 327.219 94.3146   9 0.03719 0.02157-0.45016 0.03226 0.88283-0.97645
   1   5  -1 451.418 118.094   5 0.68793-0.62923 0.30044 0.11780 0.78062-0.87495
  -1  -5   1 363.254 105.982   3-0.58893 0.53074-0.33441-0.08298-0.83524 0.92982
  -1   5   1 516.451 135.277   1 0.20979-0.26839 0.00453 0.41321 0.99983-0.90569
   0  -5  -1 1728.63 223.245   9 0.03570-0.05651-0.45318 0.03531 0.88111-0.99003
   0  -5   1 2032.06 246.769   4-0.02642 0.04684-0.45361 0.03606-0.87908 0.98861
   0   5  -1 1652.19 109.420   7 0.05123-0.07176-0.03034 0.44799-0.96972 0.86053
   0  -5  -1 1658.39 102.434   7-0.30761 0.28621 0.03604-0.45426-0.99225 0.88308
   0  -5  -1 1860.88 242.086   4-0.22508 0.20357 0.03849-0.45664-0.99871 0.88918
   0   5   1 1984.70 244.078   1 0.21686-0.19589-0.03884 0.45659 0.99894-0.88947
   0   5  -1 1875.54 246.273   6-0.19800 0.17673-0.03863 0.45701-0.99922 0.88929
   0   5   1 1649.14 217.097   6-0.34410 0.36547 0.45213-0.03495-0.87385 0.98311
   0  -5   1 2073.50 240.390   9 0.24171-0.22058 0.03740-0.45512 0.99800-0.88885
   0  -5   1 1920.57 146.294   8 0.05976-0.03881 0.03581-0.45326 0.99042-0.88120
   1  -5   1 2001.12 244.808   9 0.25428-0.15357 0.07352-0.49123 0.99521-0.87075
  -1   5  -1 1839.00 155.894   7 0.00182-0.10197-0.02137 0.43894-0.98074 0.85624
   1   5   1 1901.76 247.333   1 0.22155-0.12095-0.06903 0.48683 0.99718-0.87236
  -1   5  -1 1983.92 264.118   6-0.18926 0.08829-0.06271 0.48119-0.99801 0.87269
   1   5   1 1761.86 234.154   6-0.35875 0.45966 0.52048-0.10338-0.82953 0.95403
  -1  -5  -1 1475.25 220.308   9 0.02836-0.12875-0.46788 0.05002 0.87247-0.99670
   1  -5   1 1790.80 173.277   8 0.06007 0.04044 0.03569-0.45310 0.99047-0.86595
   1  -5   1 1789.85 232.576   4-0.02009 0.12019-0.46688 0.04945-0.87127 0.99610
   2  -5   1 1182.23 209.994   4-0.00914 0.18891-0.48952 0.07220-0.85723 0.99736
  -2  -5  -1 1317.81 109.881   7 0.06025-0.24114-0.03197-0.38637-0.96744 0.82743
  -2   5  -1 1344.12 169.174   7-0.04252-0.13725-0.01328 0.43078-0.98853 0.84872
  -2   5  -1 1036.77 202.115   6-0.18634 0.00565-0.07068 0.48924-0.99746 0.85675
   2   5   1 1168.05 195.991   1 0.22395-0.04370-0.08507 0.50292 0.99586-0.85570
   2   5   1 98.2198 69.9611   6-0.37395 0.55436 0.60393-0.18687-0.76281 0.90256
   2  -5   1 1182.51 179.639   9 0.26247-0.08221 0.09762-0.51533 0.99252-0.85274
  -2  -5  -1 1056.81 197.276   9 0.01633-0.19632-0.49156 0.07373 0.85776-0.99729
   2  -5   1 1042.96 159.977   8 0.07921 0.10084 0.02836-0.44575 0.99307-0.85327
  -3  -5  -1 1021.00 120.120   7-0.06116-0.19934-0.00986-0.40858-0.99120 0.83589
  -3   5  -1 1163.65 179.828   7-0.08526-0.17413-0.00544 0.42285-0.99414 0.83903
   3  -5   1 1058.94 205.008   4 0.00564 0.25379-0.51943 0.10224-0.83725 0.99266
   3   5   1 986.497 192.285   1 0.22407 0.03590-0.08585 0.50377 0.99578-0.84027
  -3   5  -1 1049.51 220.801   6-0.18829-0.07213-0.06537 0.48398-0.99783 0.84174
   3  -5   1 1065.38 166.736   9 0.26569-0.00587 0.10721-0.52494 0.99126-0.83616
  -3  -5  -1 1054.68 208.798   9 0.00048-0.26004-0.52213 0.10432 0.83723-0.99207
   3   5   1 972.014 90.6070   8-0.04464 0.30392 0.07536 0.34214 0.96894-0.81424
   3  -5   1 979.038 168.072   8 0.10645 0.15314 0.01789-0.43527 0.99606-0.84097
  -4  -5  -1 190.686 78.1679   7-0.13672-0.20341 0.00406-0.42260-0.99840 0.82776
  -4   5  -1 298.022 114.305   7-0.12731-0.21171 0.00232 0.41502-0.99783 0.82741
   4  -5   1 136.059 89.9464   4 0.02363 0.31546-0.55487 0.13782-0.81131 0.98198
   4   5   1 -59.767 69.9657   1 0.22169 0.11805-0.06994 0.48790 0.99711-0.82622
  -4   5  -1 252.720 105.831   6-0.19430-0.14586-0.04888 0.46754-0.99879 0.82732
  -4  -5  -1 41.7404 59.5460   4-0.23989-0.10046 0.08255-0.50100-0.99539 0.82442
  -4  -5  -1 130.667 93.8401   9-0.01858-0.32057-0.55785 0.14005 0.81088-0.98102
   4  -5   1 285.301 94.4574   9 0.26290 0.07647 0.09892-0.51665 0.99236-0.82193
   4  -5   1 37.1724 58.0324   8 0.13795 0.20118 0.00571-0.42310 0.99846-0.82808
   5   5   1 875.845 175.384   1 0.21629 0.20328-0.03523 0.45319 0.99909-0.81282
  -5   5  -1 693.458 188.848   7-0.16900-0.24964 0.01005 0.40722-0.99967 0.81394
  -5  -5  -1 797.845 159.677   7-0.19663-0.22314 0.01519-0.43384-0.99988 0.81389
  -5   5  -1 1064.25 260.017   6-0.20370-0.21620-0.02272 0.44140-0.99967 0.81283
  -5  -5  -1 627.068 207.176   9-0.04038-0.37836-0.59730 0.17951 0.77851-0.96396
   5  -5   1 986.511 221.613   8 0.17198 0.24669-0.00752-0.40989 0.99976-0.81411
  -6   5  -1 504.187 196.245   7-0.21049-0.28778 0.01778 0.39940-0.99968 0.79864
  -6   5  -1 236.909 128.834   6-0.21592-0.28370 0.01202 0.40664-0.99964 0.79745
   6  -5   1 693.629 188.880   8 0.20764 0.29058-0.02146-0.39597 0.99965-0.79873
 -10   6   1 325.303 169.596   7-0.60532-0.16928 0.09373 0.40681-0.89214 0.84819
   9   6  -1 -48.676 117.682   2 0.46304 0.23276 0.28299 0.21871 0.91326-0.88525
  -9  -6   1 168.286 152.667   3-0.49442-0.20190-0.23869-0.26342-0.91525 0.88698
  -9   6   1 12.1278 137.141   7-0.59357-0.10139 0.09140 0.40921-0.89884 0.87018
   9   6  -1 180.047 173.307   5 0.52655 0.16988 0.19277 0.30908 0.91378-0.88572
   9  -6  -1 -63.931 174.835   8 0.54862 0.14751-0.16003-0.34143 0.91085-0.88241
  -8  -6   1 506.188 215.299   3-0.48367-0.13281-0.22822-0.27381-0.92217 0.90935
   8   6  -1 1.17307 110.083   2 0.45230 0.16385 0.26780 0.23391 0.92176-0.90904
   8  -6  -1 135.140 215.626   4-0.01739 0.63327-0.47248-0.02791-0.86788 0.88080
  -8   6   1 375.101 185.337   7-0.58742-0.02794 0.09018 0.41051-0.90223 0.88887
  -8   6   1 277.826 165.948   6-0.33446-0.28157 0.41095 0.09011-0.89671 0.88326
  -8  -6   1 116.911 113.669   9 0.02221-0.63773-0.48004-0.02117 0.86504-0.87826
   8  -6  -1 41.7715 147.414   8 0.53914 0.07745-0.15602-0.34544 0.91592-0.90274
   8   6  -1 418.622 167.289   5 0.51637 0.10043 0.18628 0.31557 0.91953-0.90676
  -7  -6   1 -48.991 97.6633   3-0.47701-0.05961-0.22180-0.28014-0.92627 0.92886
   7   6  -1 65.9306 111.471   2 0.44491 0.09159 0.25747 0.24426 0.92726-0.92983
  -7  -6   1 -39.961 85.4949   9 0.05511-0.59104-0.41349-0.08774 0.90262-0.90055
  -7   6   1 127.709 132.409   7-0.58874 0.05297 0.09044 0.41032-0.90151 0.90344
   7  -6  -1 -201.08 134.203   4-0.04897 0.58522-0.40526-0.09531-0.90511 0.90281
   7   6  -1 80.8797 116.581   5 0.51120 0.02595 0.18300 0.31887 0.92236-0.92488
  -7   6   1 64.7589 135.924   6-0.32766-0.20867 0.38324 0.11786-0.91059 0.91254
   7  -6  -1 -22.426 86.0691   8 0.53550 0.00154-0.15449-0.34700 0.91782-0.91992
  -6  -6   1 243.473 124.238   3-0.47550 0.01869-0.22033-0.28149-0.92718 0.94517
   6   6  -1 200.487 137.797   2 0.44161 0.01527 0.25288 0.24889 0.92964-0.94748
  -6   6   1 322.094 128.408   7-0.60031 0.14413 0.09274 0.40809-0.89503 0.91224
   6  -6  -1 -0.9190 98.4964   4-0.07816 0.53475-0.34009-0.16066-0.93455 0.91700
  -6   6   1 257.683 147.034   6-0.32262-0.13400 0.36332 0.13779-0.91987 0.93720
  -6  -6   1 101.733 77.2290   9 0.08567-0.54201-0.34856-0.15268 0.93254-0.91518
   6   6  -1 124.706 111.716   5 0.51250-0.05501 0.18382 0.31807 0.92166-0.93949
   6  -6  -1 -8.0172 79.8578   8 0.53959-0.08211-0.15621-0.34530 0.91569-0.93310
  -5  -6   1 634.580 184.831   3-0.48040 0.10340-0.22507-0.27660-0.92420 0.95755
   5   6  -1 515.114 180.145   2 0.44328-0.06601 0.25521 0.24663 0.92844-0.96159
  -5   6   1 744.149 169.478   7-0.62630 0.24968 0.09792 0.40297-0.87945 0.91195
   5  -6  -1 80.5047 196.718   4-0.10489 0.48181-0.27783-0.22312-0.95713 0.92430
  -5   6   1 675.126 182.396   6-0.31966-0.05726 0.35185 0.14925-0.92494 0.95763
  -5  -6   1 668.801 180.532   9 0.11377-0.49052-0.28610-0.21513 0.95564-0.92299
   5   6  -1 769.807 177.175   5 0.52222-0.14442 0.19000 0.31192 0.91626-0.94942
   5  -6  -1 457.869 174.500   8 0.55411-0.17620-0.16236-0.33922 0.90783-0.94058
  -4  -6   1 396.486 125.030   3-0.49341 0.19619-0.23771-0.26379-0.91591 0.96460
   4   6  -1 379.759 141.400   2 0.45096-0.15327 0.26593 0.23600 0.92277-0.97123
  -4   6   1 448.338 134.577   6-0.31909 0.02187 0.34966 0.15140-0.92590 0.97393
  -4   6   1 441.342 123.644   7-0.67299 0.37590 0.10733 0.39365-0.84762 0.89542
   4  -6  -1 603.162 171.517   4-0.12900 0.42623-0.21937-0.28176-0.97375 0.92562
   4   6  -1 592.571 138.342   6-0.31942 0.61667 0.35091 0.15030-0.92535 0.87690
  -4  -6   1 654.695 165.584   9 0.13927-0.43644-0.22701-0.27424 0.97275-0.92480
   4  -6  -1 840.319 197.179   9-0.00605 0.30354-0.53451 0.03294 0.82840-0.87609
   4   6  -1 616.178 149.800   5 0.54304-0.24498 0.20333 0.29861 0.90391-0.95239
   4  -6  -1 376.592 149.205   8 0.58300-0.28470-0.17465-0.32699 0.89084-0.93896
  -3  -6   1 570.534 157.987   9 0.16201-0.37959-0.17226-0.32899 0.98471-0.92146
  -3  -6   1 500.365 140.164   4-0.00742-0.21125-0.49303-0.00840-0.85498 0.91851
   3  -6  -1 382.541 130.425   9 0.01817 0.19974-0.48798-0.01355 0.86005-0.92303
  -3   6   1 429.891 120.098   7-0.74919 0.53162 0.12295 0.37811-0.78281 0.84593
   3  -6  -1 245.212 96.8572   4-0.15035 0.36788-0.16569-0.33560-0.98531 0.92186
   3   6  -1 475.983 129.776   6-0.28741 0.50511 0.23513 0.26629-0.96652 0.90271
  -3   6   1 329.047 137.238   1 0.17717-0.39496 0.17905 0.32235 0.98370-0.92028
  -3   6   1 349.667 120.407   6-0.32117 0.10364 0.35768 0.14332-0.92238 0.98574
   3  -6  -1 491.434 140.354   8 0.63184-0.41319-0.19572-0.30601 0.85755-0.92107
   3   6  -1 487.489 127.699   5 0.57863-0.36033 0.22642 0.27555 0.88016-0.94394
  -3  -6   1 337.448 117.201   3-0.51662 0.29913-0.26053-0.24078-0.89970 0.96370
   3   6  -1 459.421 138.880   2 0.46585-0.24774 0.28697 0.21506 0.91095-0.97474
  -2   6   1 1096.76 210.395   1 0.18814-0.32641 0.12419 0.37715 0.99221-0.91344
  -2  -6   1 1419.80 226.465   4-0.02084-0.11817-0.46530-0.03603-0.87222 0.95109
   2  -6  -1 1133.91 220.535   4-0.16877 0.30659-0.11785-0.38359-0.99273 0.91394
   2   6  -1 1275.48 196.121   6-0.26116 0.39926 0.14865 0.35296-0.98625 0.90708
   2   6  -1 1362.76 223.813   2 0.48922-0.35068 0.32071 0.18148 0.88994-0.96909
  -2   6   1 1336.40 232.959   6-0.32608 0.18822 0.37696 0.12397-0.91358 0.99224
  -2   6   1 1143.68 160.598   2 0.40418-0.54216 0.20177 0.29963 0.95318-0.87473
  -2  -6   1 1237.50 197.672   3-0.55246 0.41465-0.29658-0.20452-0.87065 0.94995
   2  -6  -1 1178.49 203.658   9 0.03137 0.10699-0.46186-0.03962 0.87605-0.95432
  -2  -6   1 1157.24 210.459   9 0.18181-0.31980-0.12293-0.37833 0.99241-0.91386
   2  -6  -1 1964.01 313.396   8 0.70776-0.56886-0.22928-0.27251 0.79190-0.87085
  -1   6   1 3699.90 362.598   1 0.19669-0.25540 0.07897 0.42236 0.99684-0.90272
  -1  -6   1 4262.65 381.372   4-0.02648-0.03288-0.45347-0.04776-0.87916 0.97337
  -1  -6   1 4073.51 379.466   9 0.19845-0.25686-0.08015-0.42110 0.99679-0.90292
   1  -6  -1 3710.49 380.353   4-0.18405 0.24215-0.07701-0.42457-0.99697 0.90283
  -1  -6   1 4106.38 345.205   3-0.60310 0.54491-0.34949-0.15141-0.81958 0.91416
   1   6  -1 3764.39 350.032   2 0.52210-0.46316 0.36987 0.13249 0.85451-0.94908
   1   6  -1 3784.83 351.973   6-0.24116 0.29960 0.08654 0.41524-0.99498 0.90043
  -1   6   1 3832.33 373.557   6-0.33387 0.27566 0.40849 0.09234-0.89798 0.99194
   1  -6  -1 3683.47 261.771   3-0.35335 0.41129-0.10660-0.39480-0.97998 0.88544
   1  -6  -1 3468.41 347.388   9 0.03644 0.02235-0.45168-0.04978 0.88197-0.97555
   0  -6   1 3.34088 76.4333   4-0.02602 0.04633-0.45446-0.04666-0.87859 0.98813
   0   6  -1 206.102 98.4756   6-0.22711 0.20588 0.04458 0.45733-0.99838 0.88844
   0   6   1 164.562 98.2697   1 0.20294-0.18207 0.04424 0.45711 0.99895-0.88949
   0  -6  -1 130.075 88.3200   4-0.19594 0.17432-0.04446-0.45724-0.99899 0.88949
   0   6  -1 171.898 90.3069   2 0.56447-0.58516 0.43703 0.06554 0.79569-0.90574
   0  -6   1 38.3248 69.4030   9 0.21166-0.19050-0.04525-0.45601 0.99879-0.88961
   0   6   1 173.741 91.3835   6-0.34433 0.36572 0.45314 0.04759-0.87326 0.98248
   0  -6  -1 119.889 50.2836   9 0.03522-0.05601-0.45414-0.04729 0.88055-0.98944
   0  -6   1 78.5554 40.5297   8 0.26898-0.24791-0.04568-0.45555 0.99585-0.88658
   1  -6   1 6274.04 498.133   4-0.02059 0.12059-0.46583-0.03518-0.87190 0.99676
  -1   6  -1 6463.14 285.996   7-0.21976 0.11962 0.01951 0.48153-0.99942 0.87486
  -1  -6  -1 6513.49 496.049   4-0.20412 0.10277-0.02165-0.48014-0.99969 0.87482
   1   6   1 6055.83 481.882   1 0.20702-0.10652 0.02083 0.48056 0.99966-0.87487
  -1  -6  -1 5973.72 474.160   9 0.02893-0.12929-0.46674-0.03467 0.87315-0.99735
  -1   6  -1 6094.23 496.728   6-0.21846 0.11753 0.01939 0.48265-0.99946 0.87412
   1   6   1 6294.27 485.332   6-0.35690 0.45784 0.51134-0.01071-0.83596 0.96044
   1  -6   1 6405.25 460.110   9 0.22114-0.12042-0.01969-0.48157 0.99938-0.87488
   1  -6   1 6015.24 326.598   8 0.20768-0.10704-0.02148-0.47960 0.99965-0.87509
  -2   6  -1 23.5567 44.7024   7-0.19442 0.01470 0.01478 0.48621-0.99989 0.86005
   2  -6   1 -4.2505 89.5978   4-0.01104 0.19071-0.48560-0.01527-0.85973 0.99989
  -2   6  -1 20.8124 92.6700   6-0.21460 0.03394 0.00824 0.49389-0.99971 0.85898
  -2  -6  -1 61.2046 87.6477   4-0.20812 0.02706-0.01037-0.49151-0.99981 0.85959
   2  -6   1 234.058 119.678   9 0.22644-0.04615-0.00521-0.49606 0.99938-0.85956
   2   6   1 30.1229 44.8612   6-0.37039 0.55086 0.58267-0.08212-0.78129 0.92102
   2   6   1 -57.146 64.9392   1 0.20893-0.02876 0.00959 0.49184 0.99981-0.85967
  -2  -6  -1 65.1481 90.3558   9 0.01843-0.19837-0.48748-0.01392 0.86037-0.99988
   2  -6   1 41.6236 72.4051   8 0.19254-0.01233-0.01555-0.48547 0.99988-0.86003
  -3   6  -1 -48.924 59.4750   7-0.20045-0.05887 0.01590 0.48502-0.99984 0.84471
   3  -6   1 55.0867 69.1878   4 0.00202 0.25733-0.51217 0.01142-0.84226 0.99771
  -3   6  -1 -1.0986 90.1623   6-0.21488-0.04551 0.00905 0.49314-0.99970 0.84359
  -3  -6  -1 24.2697 75.2306   4-0.20725-0.05350-0.01281-0.48913-0.99980 0.84421
  -3  -6  -1 124.825 100.575   9 0.00438-0.26391-0.51469 0.01331 0.84239-0.99721
   3  -6   1 0.54579 73.1982   9 0.22688 0.03296-0.00399-0.49729 0.99937-0.84423
   3   6   1 60.7906 80.0798   1 0.20861 0.05129 0.01152 0.48998 0.99979-0.84430
   3  -6   1 142.571 88.1173   8 0.19758 0.06217-0.01752-0.48345 0.99984-0.84470
   4  -6   1 2176.79 345.973   4 0.01812 0.32089-0.54415 0.04353-0.81943 0.99016
  -4   6  -1 2870.13 320.191   7-0.21962-0.11930 0.01949 0.48136-0.99943 0.82900
   4   6   1 2554.65 320.419   1 0.20581 0.13387 0.02783 0.47371 0.99951-0.82864
  -4  -6  -1 2530.11 304.633   4-0.20039-0.14004-0.03207-0.46993-0.99944 0.82851
  -4   6  -1 2826.43 380.986   6-0.21874-0.12137 0.02019 0.48204-0.99944 0.82795
   4  -6   1 2762.21 299.265   9 0.22139 0.11801-0.01902-0.48227 0.99938-0.82893
  -4  -6  -1 2436.36 392.749   9-0.01272-0.32639-0.54699 0.04563 0.81917-0.98930
  -5   6  -1 2232.76 326.322   7-0.24564-0.17290 0.02436 0.47642-0.99822 0.81249
  -5   6  -1 1727.96 325.879   6-0.22569-0.19416 0.04042 0.46183-0.99861 0.81174
   5  -6   1 1032.89 294.253   8 0.23581 0.18302-0.03254-0.46840 0.99849-0.81280
  -6   6  -1 -94.698 125.972   7-0.27570-0.22246 0.03002 0.47069-0.99587 0.79485
  -6   6  -1 -4.1743 99.2008   6-0.23527-0.26430 0.06881 0.43344-0.99666 0.79443
   6  -6   1 240.974 149.300   8 0.26243 0.23595-0.04308-0.45788 0.99648-0.79553
   6   6   1 -40.881 141.902   2 0.27227 0.22620 0.03323 0.46734 0.99605-0.79539
   7   6   1 72.6524 117.344   2 0.29062 0.28749 0.05577 0.44482 0.99326-0.77729
  -9   7   1 36.7289 117.368   7-0.63551-0.05938 0.09977 0.48436-0.87358 0.84494
  -9  -7   1 -37.809 167.021   9-0.01273-0.68236-0.54701-0.03776 0.81916-0.84766
   9  -7  -1 106.272 213.691   8 0.57982 0.11642-0.17329-0.41168 0.89280-0.86442
  -8  -7   1 46.9966 127.517   3-0.50418-0.11226-0.24825-0.33740-0.90863 0.89573
  -8   7   1 12.2863 106.251   6-0.33777-0.27831 0.42477 0.15990-0.88934 0.87580
   8  -7  -1 -12.968 163.486   4-0.01398 0.62981-0.47954-0.10445-0.86353 0.87648
  -8   7   1 -80.278 142.554   7-0.63362 0.01833 0.09939 0.48480-0.87480 0.86145
  -8  -7   1 203.198 177.929   9 0.01902-0.63452-0.48631-0.09848 0.86111-0.87433
   8   7  -1 301.000 187.374   5 0.54416 0.07270 0.20405 0.38149 0.90322-0.89047
   8  -7  -1 -128.24 185.779   8 0.57340 0.04330-0.17056-0.41444 0.89669-0.88358
   8   7  -1 -75.068 102.133   2 0.46716 0.14894 0.28885 0.29643 0.90984-0.89723
  -7  -7   1 -70.358 110.821   3-0.49941-0.03719-0.24358-0.34196-0.91190 0.91442
   7   7  -1 206.704 135.374   2 0.46128 0.07520 0.28048 0.30483 0.91470-0.91736
   7  -7  -1 6.86889 190.309   4-0.04226 0.57844-0.41983-0.16434-0.89766 0.89538
  -7   7   1 196.440 183.128   7-0.63983 0.10412 0.10064 0.48362-0.87076 0.87269
  -7   7   1 225.117 139.443   6-0.33189-0.20445 0.40037 0.18433-0.90214 0.90400
  -7  -7   1 271.198 170.187   9 0.04854-0.58444-0.42705-0.15774 0.89555-0.89348
   7   7  -1 425.455 167.764   5 0.54155-0.00434 0.20237 0.38320 0.90484-0.90739
   7  -7  -1 21.6019 120.681   8 0.57308-0.03593-0.17042-0.41462 0.89688-0.89906
  -6  -7   1 206.367 104.833   3-0.49961 0.04282-0.24377-0.34163-0.91177 0.92969
   6   7  -1 0.57188 78.5001   2 0.45925-0.00238 0.27761 0.30774 0.91633-0.93427
   6  -7  -1 -21.158 94.7546   4-0.06821 0.52472-0.36264-0.22173-0.92506 0.90752
  -6   7   1 214.731 156.666   6-0.32762-0.12901 0.38310 0.20161-0.91066 0.92790
  -6  -7   1 261.251 146.072   9 0.07575-0.53206-0.36996-0.21483 0.92337-0.90600
   6   7  -1 120.735 102.114   5 0.54537-0.08784 0.20482 0.38077 0.90247-0.92033
   6  -7  -1 134.985 149.318   8 0.58069-0.12310-0.17366-0.41143 0.89227-0.90976
  -5  -7   1 263.420 161.615   3-0.50588 0.12889-0.24993-0.33531-0.90743 0.94073
   5   7  -1 90.2833 100.815   2 0.46181-0.08452 0.28124 0.30418 0.91426-0.94751
   5  -7  -1 38.5972 159.556   4-0.09178 0.46861-0.30868-0.27585-0.94659 0.91377
  -5   7   1 85.6478 83.8844   6-0.32520-0.05172 0.37348 0.21120-0.91520 0.94781
  -5  -7   1 192.129 134.464   9 0.10057-0.47729-0.31576-0.26904 0.94533-0.91267
   5   7  -1 24.9751 101.378   5 0.55739-0.17958 0.21259 0.37305 0.89476-0.92794
   5  -7  -1 91.3349 117.731   8 0.59877-0.22077-0.18141-0.40375 0.88075-0.91359
   4  -7  -1 171.501 121.858   8 0.63083-0.33246-0.19528-0.38997 0.85830-0.90652
  -4  -7   1 524.884 178.397   4 0.01665-0.31509-0.54126-0.04381-0.82158 0.86975
   4  -7  -1 27.3544 113.952   4-0.11285 0.40998-0.25875-0.32595-0.96303 0.91490
  -4   7   1 150.321 68.7417   6-0.32487 0.02766 0.37218 0.21247-0.91581 0.96378
   4   7  -1 336.970 130.073   6-0.32841 0.62570 0.38625 0.19846-0.90913 0.86063
  -4  -7   1 265.132 120.829   9 0.12289-0.42003-0.26522-0.31958 0.96220-0.91423
   4   7  -1 131.253 99.9103   5 0.57993-0.28187 0.22727 0.35840 0.87922-0.92771
   4   7  -1 277.678 106.515   2 0.46979-0.17208 0.29260 0.29290 0.90762-0.95616
  -4  -7   1 256.863 110.785   3-0.51962 0.22240-0.26351-0.32154-0.89746 0.94610
   3  -7  -1 23.0300 105.010   8 0.68151-0.46283-0.21755-0.36779 0.81680-0.88043
  -3  -7   1 262.799 131.469   4-0.00361-0.21520-0.50081-0.08417-0.84989 0.91341
  -3   7   1 35.3234 74.1449   1 0.16662-0.38453 0.22879 0.35617 0.97317-0.90979
   3  -7  -1 44.8593 93.9318   4-0.13130 0.34871-0.21367-0.37119-0.97515 0.91170
  -3  -7   1 22.8428 96.2684   9 0.14258-0.36012-0.21918-0.36563 0.97469-0.91141
   3   7  -1 127.045 80.6921   6-0.30261 0.52035 0.28843 0.29651-0.94976 0.88590
  -3   7   1 174.325 73.7132   6-0.32682 0.10929 0.37987 0.20471-0.91220 0.97549
   3  -7  -1 48.4255 97.7563   9 0.01372 0.20422-0.49665-0.08842 0.85446-0.91740
   3   7  -1 15.9303 72.3921   5 0.61595-0.39766 0.25110 0.33460 0.85119-0.91497
   3   7  -1 88.8427 74.7175   2 0.48411-0.26597 0.31326 0.27237 0.89480-0.95868
  -3  -7   1 183.909 111.750   3-0.54246 0.32497-0.28642-0.29841-0.87928 0.94325
  -2  -7   1 1659.06 290.179   4-0.01540-0.12374-0.47661-0.10828-0.86535 0.94421
   2   7  -1 1861.86 291.690   5 0.66870-0.53024 0.28699 0.29870 0.80169-0.88073
   2   7  -1 1415.63 256.299   2 0.50568-0.36709 0.34505 0.24073 0.87314-0.95239
   2  -7  -1 1566.83 282.686   4-0.14697 0.28467-0.17431-0.41069-0.98369 0.90490
   2   7  -1 1252.84 231.834   6-0.28085 0.41898 0.21291 0.37221-0.97245 0.89323
  -2   7   1 1192.00 235.116   1 0.17643-0.31481 0.18261 0.40230 0.98304-0.90430
  -2   7   1 1606.69 280.009   6-0.33115 0.19331 0.39737 0.18713-0.90366 0.98226
  -2  -7   1 1555.90 276.635   9 0.15945-0.29742-0.17853-0.40628 0.98353-0.90494
   2  -7  -1 1526.24 258.850   9 0.02537 0.11301-0.47379-0.11124 0.86889-0.94713
  -2  -7   1 1315.88 228.165   3-0.57619 0.43837-0.32105-0.26357-0.84836 0.92762
  -1  -7   1 -156.80 101.810   4-0.02065-0.03883-0.46571-0.11908-0.87197 0.96618
  -1   7   1 -40.474 60.3152   2 0.38633-0.44468 0.17796 0.40678 0.96239-0.86872
   1  -7  -1 7.92624 68.3345   4-0.15966 0.21764-0.14168-0.44346-0.98937 0.89524
   1   7  -1 -51.711 84.7579   6-0.26369 0.32217 0.15672 0.42858-0.98479 0.89020
  -1   7   1 -182.42 126.624   6-0.33791 0.27972 0.42540 0.15900-0.88900 0.98290
  -1  -7   1 -79.363 70.5228   9 0.17333-0.23172-0.14426-0.44056 0.98944-0.89554
   1   7  -1 180.420 110.948   2 0.53512-0.47612 0.38999 0.19597 0.83823-0.93289
   1  -7  -1 -1.9099 76.1481   9 0.03018 0.02864-0.46424-0.12076 0.87464-0.96818
  -1   7   1 -7.9620 107.395   1 0.18406-0.24288 0.14499 0.43993 0.98936-0.89528
  -1  -7   1 22.5587 74.4906   3-0.62216 0.56395-0.37014-0.21427-0.79660 0.89116
   0   7   1 204.590 120.124   6-0.34690 0.36832 0.46460 0.11968-0.86638 0.97556
   0   7   1 112.320 100.173   1 0.18960-0.16883 0.11661 0.46832 0.99314-0.88371
   0  -7   1 -24.548 103.346   9 0.18397-0.16278-0.11745-0.46736 0.99309-0.88388
   0  -7   1 166.486 81.5788   4-0.02059 0.04079-0.46584-0.11885-0.87190 0.98144
   0  -7  -1 109.791 66.2157   3-0.36718 0.34543-0.11911-0.46602-0.97586 0.86592
   0  -7  -1 150.367 102.138   4-0.16916 0.14741-0.11683-0.46842-0.99286 0.88337
   0   7  -1 -14.949 109.711   6-0.25112 0.22993 0.11712 0.46833-0.99124 0.88126
   0   7  -1 92.6821 83.4374   2 0.57225-0.59287 0.44999 0.13620 0.78279-0.89294
   0   7   1 92.9444 62.7809   2 0.34122-0.32009 0.11932 0.46518 0.98057-0.87161
   0  -7  -1 71.8304 93.6977   9 0.02949-0.05025-0.46561-0.11937 0.87383-0.98268
   1  -7   1 1784.29 272.851   9 0.19103-0.09027-0.09937-0.48544 0.99508-0.87055
   1   7   1 1769.97 286.495   1 0.19311-0.09271 0.09818 0.48679 0.99513-0.87037
   1  -7   1 1712.80 293.874   4-0.01611 0.11600-0.47514-0.10943-0.86625 0.99112
   1   7   1 2090.57 319.381   6-0.35771 0.45870 0.51535 0.06881-0.83315 0.95759
  -1   7  -1 1662.19 306.626   6-0.24289 0.14199 0.09181 0.49377-0.99442 0.86905
  -1  -7  -1 1522.21 270.249   4-0.17511 0.07365-0.10104-0.48430-0.99471 0.86986
  -1  -7  -1 1693.25 291.751   9 0.02426-0.12459-0.47598-0.10897 0.86755-0.99172
  -1  -7  -1 1518.30 219.412   3-0.32496 0.22346-0.08118-0.50422-0.98712 0.86172
   1   7   1 1586.01 245.285   2 0.31287-0.21223 0.08344 0.50091 0.98861-0.86439
   2  -7   1 3191.93 402.084   4-0.00787 0.18744-0.49211-0.09234-0.85557 0.99575
   2   7   1 3003.33 387.094   1 0.19456-0.01447 0.09045 0.49458 0.99587-0.85575
  -2  -7  -1 3220.75 388.829   4-0.17707-0.00410-0.09580-0.48961-0.99526 0.85505
  -2   7  -1 3390.58 419.034   6-0.23861 0.05799 0.07884 0.50683-0.99576 0.85500
   2   7   1 3243.68 387.364   6-0.36949 0.55001 0.57747 0.00660-0.78564 0.92533
   2   7   1 3324.20 392.946   2 0.29695-0.11679 0.06360 0.52066 0.99208-0.85259
   2  -7   1 3010.26 341.920   9 0.19407-0.01375-0.09154-0.49328 0.99583-0.85598
  -2  -7  -1 3088.08 406.874   9 0.01519-0.19510-0.49380-0.09115 0.85632-0.99580
   3  -7   1 -11.526 82.5458   4 0.00364 0.25561-0.51543-0.06890-0.84003 0.99550
   3   7   1 159.882 108.091   1 0.19384 0.06598 0.09427 0.49082 0.99551-0.84004
  -3   7  -1 35.6160 92.0801   6-0.23788-0.02247 0.07663 0.50911-0.99597 0.83982
  -3  -7  -1 45.8572 95.1141   4-0.17436-0.08650-0.10304-0.48244-0.99449 0.83893
   3  -7   1 62.6233 94.8595   9 0.19240 0.06747-0.09583-0.48900 0.99543-0.84026
  -3  -7  -1 -106.91 82.9401   9 0.00280-0.26229-0.51772-0.06721 0.84031-0.99510
   3   7   1 270.448 137.490   2 0.29043-0.03072 0.05553 0.52866 0.99329-0.83855
   3  -7   1 14.2740 66.3425   8 0.29270-0.03278-0.05511-0.52950 0.99311-0.83796
   4   7   1 393.360 152.188   1 0.19074 0.14887 0.11068 0.47444 0.99382-0.82297
   4  -7   1 -20.883 139.236   4 0.01803 0.32089-0.54397-0.04023-0.81957 0.99033
  -4  -7  -1 463.706 142.439   4-0.16593-0.17460-0.12533-0.46020-0.99175 0.82084
  -4   7  -1 642.809 222.117   6-0.24029-0.09979 0.08393 0.50187-0.99525 0.82372
   4  -7   1 520.312 148.981   9 0.18499 0.15443-0.11484-0.47000 0.99340-0.82291
  -4  -7  -1 593.297 211.961   9-0.01251-0.32656-0.54661-0.03831 0.81946-0.98957
   4   7   1 418.751 188.442   2 0.29114 0.04813 0.05641 0.52775 0.99317-0.82315
   4  -7   1 109.555 101.500   8 0.29374 0.04573-0.05552-0.52902 0.99297-0.82254
   5  -7   1 69.1383 149.603   4 0.03500 0.38361-0.57673-0.00733-0.79398 0.98001
  -5   7  -1 208.134 151.773   6-0.24548-0.17434 0.09970 0.48612-0.99350 0.80659
   5   7   1 106.182 122.019   1 0.18483 0.23464 0.14112 0.44401 0.98993-0.80367
  -5  -7  -1 255.450 184.304   9-0.03043-0.38824-0.57946-0.00544 0.79359-0.97901
   5   7   1 29.7617 106.227   2 0.29751 0.12136 0.06429 0.51985 0.99197-0.80667
   5  -7   1 155.001 141.669   8 0.30481 0.11420-0.05995-0.52457 0.99142-0.80573
  -6  -7  -1 238.223 142.123   3-0.31515-0.18544-0.07248-0.51377-0.98920 0.78656
   6   7   1 320.130 179.327   2 0.30837 0.19009 0.07783 0.50631 0.98966-0.78909
  -6   7  -1 -309.30 164.051   6-0.25307-0.24647 0.12318 0.46264-0.99037 0.78807
  -6  -7  -1 148.322 126.873   9-0.05066-0.44760-0.61538 0.03048 0.76241-0.96313
  -7  -7  -1 -81.866 170.236   3-0.33215-0.24828-0.08758-0.49875-0.98548 0.76738
   7   7   1 239.568 193.585   2 0.32288 0.25522 0.09604 0.48811 0.98605-0.77018
   8  -8  -1 -44.090 188.860   4-0.00746 0.62321-0.49296-0.17462-0.85502 0.86798
  -8   8   1 702.579 284.178   6-0.34223-0.27386 0.44390 0.22438-0.87864 0.86498
  -8  -8   1 509.736 255.543   9 0.01252-0.62800-0.49898-0.16936 0.85294-0.86615
   8  -8  -1 115.365 220.830   8 0.61182 0.00500-0.18704-0.48151 0.87193-0.85891
   7  -8  -1 1.69143 195.736   4-0.03303 0.56913-0.43961-0.22816-0.88701 0.88473
  -7   8   1 244.978 168.234   6-0.33717-0.19918 0.42229 0.24602-0.89068 0.89244
  -7  -8   1 110.581 151.484   9 0.03927-0.57514-0.44596-0.22239 0.88521-0.88313
   7   8  -1 -172.37 120.660   5 0.57499-0.03773 0.22404 0.44525 0.88275-0.88533
   7   8  -1 98.4228 179.919   2 0.47933 0.05714 0.30632 0.36256 0.89921-0.90199
  -7  -8   1 -68.807 146.151   3-0.52404-0.01253-0.26791-0.40120-0.89410 0.89655
   7  -8  -1 71.6221 120.539   8 0.61484-0.07757-0.18834-0.48027 0.86983-0.87211
   6  -8  -1 445.180 234.873   8 0.62590-0.16822-0.19314-0.47554 0.86193-0.87953
   6  -8  -1 36.7867 225.361   4-0.05637 0.51278-0.38903-0.27892-0.91303 0.89548
  -6   8   1 236.779 176.246   6-0.33357-0.12307 0.40724 0.26106-0.89863 0.91578
  -6  -8   1 635.863 220.824   9 0.06377-0.52004-0.39540-0.27295 0.91159-0.89421
   6   8  -1 543.186 204.374   5 0.58120-0.12366 0.22810 0.44122 0.87830-0.89618
   6   8  -1 576.372 213.535   2 0.47844-0.02155 0.30503 0.36390 0.90002-0.91808
  -6  -8   1 619.919 215.026   3-0.52581 0.06905-0.26968-0.39927-0.89274 0.91058
  -5  -8   1 -9.9697 104.321   9 0.08594-0.46263-0.34796-0.32040 0.93279-0.90011
   5   8  -1 -70.526 109.853   5 0.59536-0.21754 0.23741 0.43195 0.86772-0.90090
   5   8  -1 210.150 115.476   2 0.48178-0.10447 0.30987 0.35913 0.89697-0.93033
  -5  -8   1 79.7748 90.3273   3-0.53331 0.15634-0.27720-0.39159-0.88682 0.92003
   4  -8  -1 7.71234 199.298   4-0.09602 0.39304-0.29877-0.36953-0.95011 0.90198
  -4   8   1 616.141 220.902   6-0.33147 0.03426 0.39865 0.26957-0.90301 0.95089
  -4  -8   1 624.826 197.205   9 0.10570-0.40281-0.30430-0.36407 0.94946-0.90147
   4   8  -1 728.888 200.833   5 0.61941-0.32136 0.25342 0.41598 0.84826-0.89674
   4   8  -1 507.872 185.198   2 0.49002-0.19228 0.32188 0.34720 0.88916-0.93783
  -4  -8   1 344.680 159.067   3-0.54768 0.25047-0.29172-0.37686-0.87483 0.92341
  -3  -8   1 179.452 82.9191   4 0.00476-0.22368-0.51766-0.15088-0.83848 0.90197
   3  -8  -1 3.27283 86.9622   4-0.11215 0.32944-0.26046-0.40798-0.96252 0.89907
   3   8  -1 39.5889 83.8384   6-0.31621 0.53398 0.33866 0.32978-0.93056 0.86663
   3  -8  -1 177.315 129.786   9 0.00460 0.21336-0.51427-0.15434 0.84268-0.90558
  -3   8   1 207.109 117.255   6-0.33331 0.11579 0.40617 0.26197-0.89918 0.96239
  -3  -8   1 132.605 104.785   9 0.12293-0.34044-0.26514-0.40323 0.96222-0.89892
   3   8  -1 288.689 152.151   5 0.65567-0.43743 0.27801 0.39141 0.81497-0.87872
   3   8  -1 74.1357 136.057   2 0.50386-0.28568 0.34233 0.32688 0.87508-0.93908
  -3  -8   1 98.4874 107.757   3-0.57020 0.35271-0.31482-0.35353-0.85424 0.91815
  -2  -8   1 150.412 111.292   4-0.00617-0.13310-0.49559-0.17286-0.85332 0.93216
   2  -8  -1 85.7926 131.147   4-0.12562 0.26319-0.22770-0.44087-0.97165 0.89285
   2   8  -1 249.265 111.076   6-0.29783 0.43600 0.27141 0.39723-0.95550 0.87622
  -2   8   1 274.719 138.444   6-0.33719 0.19936 0.42236 0.24570-0.89064 0.96918
  -2  -8   1 162.599 133.858   9 0.13747-0.27541-0.23125-0.43711 0.97167-0.89306
   2   8  -1 207.718 86.5897   2 0.52393-0.38530 0.37268 0.29669 0.85230-0.93167
   2  -8  -1 160.467 139.239   9 0.01545 0.12294-0.49330-0.17529 0.85664-0.93485
  -2  -8   1 348.626 120.344   3-0.60211 0.46429-0.34842-0.31970-0.82072 0.89993
  -1  -8   1 837.276 216.890   4-0.01135-0.04825-0.48497-0.18338-0.86013 0.95431
  -1   8   1 745.495 201.145   1 0.17162-0.23055 0.20553 0.46296 0.97843-0.88438
   1  -8  -1 679.818 209.658   4-0.13625 0.19410-0.20134-0.46735-0.97802 0.88388
   1   8  -1 611.702 187.368   6-0.28296 0.34149 0.22004 0.44878-0.97061 0.87596
   1   8  -1 712.740 203.112   2 0.55058-0.49152 0.41445 0.25512 0.81693-0.91172
  -1  -8   1 882.615 216.650   9 0.14914-0.20750-0.20350-0.46487 0.97834-0.88441
  -1   8   1 800.227 206.971   6-0.34311 0.28493 0.44777 0.22018-0.87640 0.97024
   1  -8  -1 835.836 203.098   9 0.02030 0.03853-0.48379-0.18475 0.86270-0.95621
   0  -8   1 346.397 138.959   4-0.01179 0.03187-0.48406-0.18418-0.86070 0.97023
   0   8   1 289.001 130.221   2 0.39264-0.37140 0.18634 0.48182 0.95927-0.85042
   0  -8  -1 326.284 154.051   4-0.14382 0.12195-0.18231-0.48648-0.98210 0.87261
   0   8   1 276.943 100.756   6-0.35091 0.37236 0.48288 0.18494-0.85495 0.96406
   0   8  -1 535.799 179.798   6-0.27172 0.25056 0.18270 0.48628-0.97955 0.86952
   0   8   1 320.175 153.768   1 0.17655-0.15588 0.18202 0.48650 0.98315-0.87376
   0  -8   1 278.799 114.976   9 0.15770-0.13648-0.18281-0.48556 0.98269-0.87345
   0  -8  -1 174.640 116.696   9 0.02023-0.04097-0.48393-0.18460 0.86261-0.97143
   1  -8   1 610.399 173.717   4-0.00821 0.10797-0.49141-0.17673-0.85602 0.98088
  -1  -8  -1 510.908 138.126   3-0.39481 0.29337-0.14437-0.52446-0.96631 0.84095
  -1  -8  -1 619.505 188.575   4-0.14800 0.04642-0.17170-0.49718-0.98419 0.85934
   1   8   1 517.538 172.796   2 0.36351-0.26278 0.14806 0.51993 0.97245-0.84831
  -1   8  -1 818.684 234.898   6-0.26401 0.16315 0.15773 0.51138-0.98460 0.85918
   1   8   1 584.454 195.368   1 0.17955-0.07924 0.16741 0.50117 0.98578-0.86104
   1  -8   1 505.683 176.826   9 0.16282-0.06204-0.17029-0.49808 0.98508-0.86051
   1   8   1 671.213 189.904   6-0.36024 0.46128 0.52799 0.13972-0.82413 0.94852
  -1  -8  -1 802.376 231.791   9 0.01601-0.11632-0.49219-0.17632 0.85736-0.98149
   3  -8   1 31.5033 181.120   4 0.00900 0.25016-0.52612-0.14179-0.83255 0.98804
  -3  -8  -1 141.250 97.2315   3-0.35296 0.09194-0.10624-0.56307-0.98009 0.82383
   3   8   1 309.393 180.729   2 0.33591-0.07615 0.11256 0.55522 0.98226-0.82759
  -3  -8  -1 262.123 154.429   4-0.14423-0.11674-0.18127-0.48773-0.98231 0.82674
  -3   8  -1 124.595 98.3949   6-0.25825-0.00206 0.13942 0.52987-0.98783 0.83164
   3   8   1 290.738 127.789   1 0.17953 0.08022 0.16753 0.50117 0.98576-0.83030
   3  -8   1 334.104 156.191   9 0.16075 0.09914-0.17536-0.49302 0.98413-0.82893
  -3  -8  -1 445.291 162.363   9-0.00270-0.25676-0.52818-0.14030 0.83295-0.98772
   4  -8   1 75.6820 261.562   4 0.02187 0.31697-0.55146-0.11632-0.81392 0.98470
  -4  -8  -1 969.992 272.598   3-0.34831 0.00748-0.10206-0.56743-0.98138 0.80966
   4   8   1 939.604 246.930   1 0.17616 0.16339 0.18392 0.48482 0.98279-0.81195
  -4   8  -1 1149.24 302.267   6-0.25965-0.08039 0.14386 0.52549-0.98709 0.81550
   4   8   1 1462.57 377.958   2 0.33336 0.00596 0.10931 0.55843 0.98305-0.81311
  -4  -8  -1 1019.17 302.541   9-0.01642-0.32263-0.55387-0.11461 0.81395-0.98404
   5  -8   1 24.9747 114.204   4 0.03723 0.38129-0.58097-0.08668-0.79050 0.97656
  -5  -8  -1 -9.1334 128.128   3-0.35097-0.06969-0.10445-0.56520-0.98065 0.79347
   5   8   1 160.166 161.134   2 0.33637 0.08253 0.11313 0.55458 0.98212-0.79691
  -5   8  -1 87.8984 119.121   6-0.26353-0.15625 0.15620 0.51318-0.98488 0.79790
  -5  -8  -1 -47.811 111.075   9-0.03266-0.38598-0.58350-0.08497 0.79025-0.97565
   5  -8   1 1.16753 97.5027   8 0.37827 0.04094-0.08952-0.57861 0.97694-0.79126
  -6  -8  -1 355.674 220.777   3-0.35927-0.14123-0.11194-0.55785-0.97827 0.77563
   6   8   1 612.150 272.363   2 0.34390 0.15460 0.12275 0.54495 0.97968-0.77920
  -6  -8  -1 -15.338 130.313   9-0.05118-0.44704-0.61629-0.05217 0.76158-0.96229
   7   9  -1 55.2780 169.816   5 0.61080-0.07351 0.24766 0.50535 0.85546-0.85804
   6  -9  -1 64.4070 194.795   4-0.04299 0.49931-0.41824-0.33330-0.89849 0.88094
  -6   9   1 3.02932 126.871   6-0.34006-0.11658 0.43455 0.31735-0.88394 0.90098
  -6  -9   1 -167.29 149.158   9 0.05012-0.50637-0.42380-0.32812 0.89728-0.87989
   6   9  -1 16.0515 107.983   5 0.61922-0.16165 0.25330 0.49977 0.84843-0.86631
   6   9  -1 38.9364 126.244   2 0.49863-0.04174 0.33456 0.41793 0.88055-0.89875
  -6  -9   1 -15.587 118.569   3-0.55346 0.09673-0.29760-0.45490-0.86976 0.88751
  -5   9   1 -83.320 177.720   6-0.33848-0.03843 0.42782 0.32405-0.88767 0.92009
   5  -9  -1 1.64622 231.413   4-0.06193 0.43853-0.37671-0.37501-0.91877 0.88593
  -5  -9   1 150.605 172.933   9 0.07011-0.44677-0.38199-0.36993 0.91792-0.88522
   5   9  -1 455.483 210.935   5 0.63525-0.25744 0.26408 0.48902 0.83435-0.86752
   5   9  -1 -276.67 203.074   2 0.50263-0.12530 0.34050 0.41207 0.87639-0.90989
  -5  -9   1 -109.73 165.719   3-0.56203 0.18507-0.30638-0.44594-0.86198 0.89511
   4  -9  -1 1.47574 238.631   4-0.07855 0.37544-0.33922-0.41264-0.93490 0.88675
  -4   9   1 740.642 265.140   6-0.33851 0.04131 0.42795 0.32386-0.88760 0.93538
  -4  -9   1 576.932 205.798   9 0.08776-0.38483-0.34399-0.40793 0.93441-0.88640
   4   9  -1 608.161 237.163   2 0.51106-0.21327 0.35312 0.39955 0.86725-0.91606
  -4  -9   1 166.805 96.3060   3-0.57689 0.27968-0.32177-0.43032-0.84766 0.89616
  -3  -9   1 -187.75 176.091   4 0.01617-0.23523-0.54032-0.21175-0.82227 0.88572
   3  -9  -1 2.54355 86.8536   4-0.09276 0.30992-0.30642-0.44560-0.94741 0.88393
  -3  -9   1 83.3161 121.884   9 0.10296-0.32045-0.31043-0.44149 0.94727-0.88395
   3   9  -1 -31.338 104.089   6-0.32859 0.54641 0.38699 0.36497-0.90877 0.84477
  -3   9   1 -82.773 154.065   6-0.34025 0.12276 0.43537 0.31635-0.88348 0.94660
   3   9  -1 -333.06 209.489   2 0.52444-0.30620 0.37346 0.37933 0.85168-0.91583
  -3  -9   1 -50.590 84.1829   3-0.59901 0.38152-0.34511-0.40675-0.82422 0.88805
  -2  -9   1 1036.07 277.849   4 0.00572-0.14511-0.51958-0.23242-0.83715 0.91595
   2  -9  -1 69.5763 219.060   4-0.10442 0.24187-0.27894-0.47319-0.95677 0.87796
   2   9  -1 809.297 209.764   6-0.31290 0.45109 0.32619 0.42597-0.93564 0.85628
   2   9  -1 940.932 241.807   2 0.54319-0.40450 0.40267 0.35028 0.82739-0.90692
  -2   9   1 810.215 244.126   6-0.34374 0.20593 0.45054 0.30108-0.87478 0.95322
  -2  -9   1 1069.86 275.571   9 0.11558-0.25348-0.28198-0.46994 0.95698-0.87834
  -2  -9   1 1128.60 297.192   3-0.62923 0.49139-0.37791-0.37371-0.78745 0.86660
   2  -9  -1 999.558 251.280   9 0.00279 0.13562-0.51773-0.23439 0.84030-0.91847
  -1  -9   1 656.572 233.627   4 0.00042-0.06014-0.50894-0.24297-0.84445 0.93861
  -1   9   1 726.157 230.364   6-0.34896 0.29081 0.47392 0.27760-0.86063 0.95438
   1  -9  -1 761.774 237.196   4-0.11335 0.17108-0.25755-0.49469-0.96338 0.86923
   1   9  -1 517.968 174.142   2 0.56743-0.50831 0.44194 0.31121 0.79087-0.88582
   1   9  -1 576.134 180.442   6-0.29991 0.35846 0.27881 0.47354-0.95305 0.85833
  -1  -9   1 472.580 218.889   9 0.12542-0.18375-0.25939-0.49253 0.96393-0.86998
   1  -9  -1 375.008 177.905   9 0.00786 0.05100-0.50801-0.24409 0.84693-0.94042
   0  -9   1 207.920 113.985   4-0.00055 0.02051-0.50698-0.24484-0.84577 0.95528
   0  -9  -1 295.355 152.025   4-0.11934 0.09734-0.24307-0.50927-0.96753 0.85802
   0   9  -1 432.707 183.599   6-0.28984 0.26872 0.24351 0.50899-0.96412 0.85402
   0   9   1 333.506 154.968   6-0.35576 0.37723 0.50583 0.24556-0.83975 0.94879
   0  -9   1 281.045 131.812   9 0.13226-0.11102-0.24349-0.50842 0.96842-0.85915
   0  -9  -1 441.616 212.490   9 0.00842-0.02913-0.50693-0.24515 0.84766-0.95646
   1  -9   1 370.717 207.070   4 0.00220 0.09745-0.51254-0.23919-0.84201 0.96686
   1   9   1 344.079 140.123   2 0.40956-0.30873 0.20901 0.54261 0.95016-0.82614
  -1  -9  -1 228.563 179.155   4-0.12206 0.02035-0.23644-0.51598-0.96934 0.84448
  -1   9  -1 103.197 134.393   6-0.28268 0.18186 0.21909 0.53354-0.97086 0.84538
   1  -9   1 199.797 159.098   9 0.13577-0.03497-0.23526-0.51666 0.97063-0.84604
   1   9   1 456.114 187.630   6-0.36382 0.46490 0.54650 0.20475-0.81034 0.93465
  -1  -9  -1 273.780 171.586   9 0.00513-0.10541-0.51326-0.23881 0.84338-0.96749
  -2  -9  -1 814.904 206.670   3-0.42814 0.24699-0.17533-0.57720-0.95229 0.81150
   2  -9   1 144.560 290.957   4 0.00822 0.17113-0.52457-0.22704-0.83365 0.97382
   2   9   1 1017.94 277.098   1 0.16678 0.01314 0.22807 0.52418 0.97334-0.83328
   2   9   1 1118.07 272.543   2 0.39016-0.20983 0.18306 0.56843 0.96051-0.82121
  -2  -9  -1 970.334 294.371   4-0.12109-0.06031-0.23879-0.51368-0.96871 0.82848
  -2   9  -1 1225.09 313.746   6-0.27832 0.09778 0.20448 0.54827-0.97454 0.83367
   2  -9   1 1037.28 248.684   9 0.13552 0.04484-0.23585-0.51609 0.97047-0.83056
   2   9   1 343.459 152.350   6-0.37262 0.55326 0.59586 0.15528-0.76995 0.90951
  -2  -9  -1 924.295 281.397   9-0.00152-0.17833-0.52594-0.22612 0.83455-0.97398
   3  -9   1 13.1804 86.5053   4 0.01714 0.24190-0.54221-0.20928-0.82087 0.97637
  -3  -9  -1 283.445 188.499   3-0.40968 0.14875-0.15811-0.59466-0.96041 0.80416
  -3  -9  -1 118.826 143.042   4-0.11582-0.14526-0.25159-0.50094-0.96513 0.80954
   3   9   1 94.9800 113.285   2 0.37866-0.11882 0.16786 0.58353 0.96598-0.81141
  -3   9  -1 220.501 162.284   6-0.27659 0.01632 0.19871 0.55412-0.97593 0.81966
   3  -9   1 87.8238 118.821   9 0.13088 0.12902-0.24670-0.50525 0.96754-0.81231
  -3  -9  -1 286.463 176.136   9-0.01115-0.24828-0.54406-0.20799 0.82137-0.97612
   4  -9   1 116.893 168.893   4 0.02869 0.31006-0.56464-0.18673-0.80370 0.97449
  -4  -9  -1 348.598 201.668   3-0.40077 0.06002-0.14986-0.60312-0.96401 0.79230
   4   9   1 450.004 235.076   2 0.37364-0.03425 0.16128 0.59005 0.96821-0.79838
  -4   9  -1 728.589 277.795   6-0.27728-0.06273 0.20098 0.55191-0.97539 0.80373
  -4  -9  -1 586.504 257.721   9-0.02346-0.31556-0.56681-0.18522 0.80385-0.97392
  -5  -9  -1 327.788 241.337   3-0.39925-0.02132-0.14845-0.60470-0.96461 0.77743
   5   9   1 -107.04 205.672   2 0.37397 0.04497 0.16171 0.58960 0.96807-0.78297
  -5  -9  -1 164.562 212.490   9-0.03821-0.38040-0.59343-0.15860 0.78185-0.96723
  -6  -9  -1 44.3444 147.000   3-0.40355-0.09684-0.15243-0.60087-0.96291 0.76026
  -5 -10   1 15.2518 140.922   3-0.59148 0.21454-0.33710-0.49873-0.83251 0.86553
   4  10  -1 177.357 183.335   2 0.53247-0.23464 0.38586 0.45038 0.84166-0.89064
  -4 -10   1 71.1649 134.751   3-0.60664 0.30945-0.35329-0.48231-0.81549 0.86388
   3 -10  -1 -2.0205 146.973   4-0.07303 0.29008-0.35177-0.48381-0.92973 0.86622
   3  10  -1 83.8101 181.121   2 0.54536-0.32707 0.40613 0.43025 0.82437-0.88870
  -3  10   1 133.880 133.316   6-0.34737 0.12988 0.46667 0.36863-0.86512 0.92812
  -3 -10   1 -41.495 139.453   9 0.08259-0.30004-0.35524-0.48024 0.92975-0.86641
  -2 -10   1 370.190 201.364   4 0.01960-0.15913-0.54703-0.28853-0.81727 0.89604
   2 -10  -1 30.9812 190.773   4-0.08316 0.22048-0.32865-0.50705-0.93909 0.86025
   2  10  -1 728.170 258.416   2 0.56287-0.42414 0.43441 0.40213 0.79824-0.87795
   2  10  -1 489.567 224.716   6-0.32646 0.46468 0.37845 0.45721-0.91287 0.83342
  -2  10   1 579.153 240.113   6-0.35051 0.21271 0.48103 0.35416-0.85613 0.93447
  -2 -10   1 329.771 212.218   9 0.09357-0.23145-0.33126-0.50421 0.93947-0.86081
   2 -10  -1 475.562 222.425   9-0.01195 0.15039-0.54556-0.29013 0.82025-0.89840
  -1 -10   1 874.062 293.899   4 0.01407-0.07393-0.53619-0.29928-0.82530 0.91943
   1 -10  -1 380.095 208.812   4-0.09066 0.14825-0.31130-0.52449-0.94564 0.85145
   1  10  -1 918.799 289.158   6-0.31508 0.37366 0.33440 0.50145-0.93232 0.83751
   1 -10  -1 378.491 236.234   9-0.00657 0.06545-0.53547-0.30018 0.82770-0.92115
  -1  10   1 593.815 216.579   6-0.35512 0.29699 0.50274 0.33232-0.84185 0.93550
  -1 -10   1 1050.60 312.157   9 0.10186-0.16016-0.31289-0.52258 0.94638-0.85240
   0 -10   1 132.302 149.133   4 0.01257 0.00726-0.53322-0.30217-0.82746 0.93694
   0 -10  -1 177.800 195.855   4-0.09530 0.07317-0.30048-0.53540-0.94952 0.83997
   0  10  -1 181.477 192.738   6-0.30606 0.28497 0.30095 0.53506-0.94529 0.83511
   0 -10   1 44.9861 134.171   9 0.10723-0.08597-0.30086-0.53461 0.95066-0.84136
   0  10   1 46.5117 163.046   6-0.36105 0.38255 0.53208 0.30287-0.82114 0.93009
   0 -10  -1 -8.4625 113.769   9-0.00538-0.01530-0.53324-0.30239 0.82932-0.93809
   1 -10   1 -50.722 198.227   4 0.01456 0.08496-0.53715-0.29814-0.82460 0.94943
  -1 -10  -1 486.576 198.387   4-0.09678-0.00505-0.29700-0.53895-0.95073 0.82583
   1 -10   1 458.716 161.861   9 0.10937-0.00855-0.29603-0.53944 0.95232-0.82770
  -1  10  -1 943.736 295.677   6-0.29946 0.19867 0.27717 0.55898-0.95360 0.82803
   1  10   1 620.259 228.420   6-0.36801 0.46912 0.56918 0.26563-0.79246 0.91668
  -1 -10  -1 784.342 280.209   9-0.00782-0.09244-0.53783-0.29780 0.82598-0.95007
   2 -10   1 33.9033 247.819   4 0.01964 0.15959-0.54711-0.28809-0.81722 0.95737
   2  10   1 627.479 231.558   2 0.43192-0.25149 0.23947 0.59565 0.93632-0.79717
  -2 -10  -1 893.550 321.729   4-0.09469-0.08684-0.30190-0.53411-0.94902 0.80876
  -2  10  -1 483.114 219.381   6-0.29523 0.11473 0.26224 0.57403-0.95844 0.81749
   2 -10   1 790.771 234.756   9 0.10786 0.07252-0.29946-0.53603 0.95114-0.81121
   2  10   1 -173.29 177.592   6-0.37555 0.55622 0.61397 0.22071-0.75369 0.89317
  -2 -10  -1 364.469 197.913   9-0.01344-0.16638-0.54833-0.28728 0.81817-0.95758
   3 -10   1 23.5725 199.603   4 0.02749 0.23145-0.56233-0.27276-0.80552 0.96100
   3  10   1 122.060 157.559   2 0.41903-0.15911 0.22184 0.61316 0.94455-0.79013
  -3  10  -1 -73.664 106.466   6-0.29327 0.03304 0.25541 0.58096-0.96057 0.80421
  -3 -10  -1 145.050 149.253   9-0.02191-0.23749-0.56397-0.27162 0.80609-0.96082
  -4 -10  -1 94.0872 106.999   3-0.45189 0.11124-0.19774-0.63869-0.94051 0.76878
   4  10   1 8.19776 163.799   2 0.41216-0.07271 0.21252 0.62242 0.94866-0.77896
  -1 -11   1 77.8402 103.453   4 0.02930-0.08927-0.56581-0.35323-0.80277 0.89685
   1  11  -1 212.994 201.090   6-0.32877 0.38739 0.38772 0.53164-0.90842 0.81350
   1 -11  -1 -108.52 195.497   9-0.02263 0.08152-0.56529-0.35392 0.80505-0.89849
   0 -11  -1 595.309 303.288   9-0.02082 0.00016-0.56198-0.35721 0.80766-0.91642
  -1 -11  -1 -235.53 180.658   4-0.07180-0.03016-0.35454-0.56494-0.92855 0.80360
   1 -11   1 97.5142 155.111   9 0.08326 0.01758-0.35377-0.56526 0.93036-0.80572
   1  11   1 21.6081 133.435   6-0.37246 0.47360 0.59488 0.32348-0.77080 0.89491
  11   0  -2 125.222 177.873   8 0.63677 0.19773-0.19786 0.19713 0.85384-0.90435
 -11   0   2 -89.716 111.247   7-0.64022-0.19362 0.10072-0.10157-0.87050 0.92038
  11   0  -2 276.531 185.954   5 0.63309 0.20151 0.26262-0.26212 0.83630-0.88726
  10   0  -2 20.8027 137.032   8 0.62362 0.13131-0.19215 0.19147 0.86359-0.92933
 -10   0   2 291.764 154.467   7-0.62715-0.12705 0.09809-0.09886-0.87892 0.94413
  10   0  -2 302.520 176.020   5 0.62003 0.13500 0.25383-0.25341 0.84774-0.91393
  -9   0   2 -36.061 88.3211   7-0.61900-0.05555 0.09646-0.09713-0.88397 0.96452
  -9   0   2 142.620 120.724   3-0.60130-0.07256-0.34754 0.34783-0.82165 0.90320
   9   0  -2 80.6350 104.828   5 0.61159 0.06386 0.24819-0.24784 0.85480-0.93626
   9   0  -2 9.27267 116.452   8 0.61526 0.06010-0.18852 0.18792 0.86954-0.95055
  -8   0   2 431.470 147.031   7-0.61738 0.02246 0.09614-0.09672-0.88496 0.98083
   8   0  -2 98.2071 89.5111   2 0.57921 0.01668 0.46173-0.46147 0.77059-0.86705
  -8   0   2 286.838 112.560   3-0.59836 0.00429-0.34442 0.34466-0.82495 0.92188
   8   0  -2 256.582 125.791   5 0.60924-0.01337 0.24662-0.24635 0.85673-0.95347
   8   0  -2 388.716 150.273   8 0.61320-0.01743-0.18764 0.18708 0.87097-0.96727
   7   0  -2 18.1797 91.9075   8 0.61962-0.10344-0.19042 0.18993 0.86646-0.97807
  -7   0   2 19.8230 73.2056   7-0.62455 0.10927 0.09757-0.09804-0.88055 0.99175
  -7   0   2 8.51520 59.3277   3-0.60271 0.08841-0.34907 0.34930-0.82003 0.93229
   7   0  -2 150.124 103.461   5 0.61499-0.09872 0.25045-0.25026 0.85199-0.96405
   6   0  -2 806.684 168.272   8 0.63750-0.20094-0.19818 0.19776 0.85328-0.98024
  -6   0   2 785.346 166.041   7-0.64373 0.20809 0.10142-0.10180-0.86818 0.99469
  -6   0   2 284.127 50.0709   1 0.21227-0.64641-0.01039 0.01087 0.99974-0.87301
   6   0  -2 575.127 97.5721   4-0.21105 0.64724-0.00202 0.00253-0.99982 0.87255
  -6   0   2 599.744 85.3685   9 0.20953-0.64511-0.05093 0.05110 0.99856-0.87224
   6   0  -2 836.181 171.908   5 0.63154-0.19491 0.26158-0.26145 0.83769-0.96508
   5   0  -2 -71.989 67.7935   8 0.67082-0.31393-0.21282 0.21246 0.82623-0.96854
  -5   0   2 8.37779 42.4241   7-0.67940 0.32338 0.10863-0.10891-0.84283 0.98466
  -5   0   2 31.5050 34.1795   9 0.30977-0.66580 0.24692-0.24681 0.96056-0.81901
   5   0  -2 -70.209 57.6406   4-0.30397 0.66063 0.29310-0.29277-0.94810 0.80548
   5   0  -2 15.4882 50.1534   5 0.66235-0.30537 0.28260-0.28254 0.80826-0.95102
  -4   0   2 11369.9 533.952   7-0.73700 0.46060 0.12043-0.12062-0.79444 0.95158
   4   0  -2 9648.49 605.610   8 0.72415-0.44696-0.23670 0.23641 0.77497-0.93267
  11  -1  -2 358.105 199.503   8 0.62466 0.20982-0.19261 0.10834 0.86283-0.91326
  11   1  -2 7.77982 134.505   8 0.65654 0.17798-0.20652 0.28931 0.83824-0.88887
 -11   1   2 -142.33 148.977   7-0.63540-0.19833 0.09975-0.01701-0.87365 0.92354
 -11  -1   2 210.258 149.371   7-0.65213-0.18182 0.10311-0.18758-0.86249 0.91235
  11   1  -2 64.7075 139.017   5 0.61665 0.21797 0.25157-0.16758 0.85060-0.90150
  10   1  -2 731.134 240.682   8 0.64475 0.11020-0.20135 0.28421 0.84768-0.91354
 -10   1   2 869.057 263.518   7-0.62213-0.13196 0.09709-0.01425-0.88205 0.94727
 -10  -1   2 1285.76 293.466   7-0.63993-0.11438 0.10066-0.18503-0.87070 0.93590
 -10  -1   2 942.006 249.022   3-0.58659-0.16722-0.33194 0.24859-0.83771 0.90398
  10  -1  -2 994.332 266.374   5 0.64640 0.10864 0.27166-0.35473 0.82398-0.89025
  10   1  -2 839.667 248.556   5 0.60286 0.15218 0.24239-0.15847 0.86186-0.92801
  10  -1  -2 1271.78 305.124   8 0.61092 0.14400-0.18665 0.10246 0.87255-0.93822
   9   1  -2 14.0337 114.690   8 0.63814 0.03723-0.19846 0.28140 0.85279-0.93391
  -9   1   2 47.2990 101.698   7-0.61366-0.06080 0.09540-0.01247-0.88721 0.96774
  -9  -1   2 139.481 129.162   7-0.63288-0.04178 0.09924-0.18352-0.87528 0.95582
   9   1  -2 17.3149 71.3860   2 0.55400 0.12151 0.41996-0.33596 0.81189-0.89305
   9  -1  -2 151.354 82.4665   5 0.64005 0.03541 0.26734-0.35050 0.82994-0.91147
  -9  -1   2 140.744 109.507   3-0.57677-0.09723-0.32165 0.23829-0.84778 0.92947
   9   1  -2 118.376 123.179   5 0.59335 0.08211 0.23609-0.15223 0.86926-0.95068
   9  -1  -2 -117.22 127.540   8 0.60169 0.07367-0.18268 0.09853 0.87881-0.95974
   8   1  -2 27.0672 93.1068   8 0.63840-0.04263-0.19857 0.28159 0.85260-0.94899
  -8  -1   2 -37.570 65.3343   7-0.63267 0.03766 0.09920-0.18338-0.87541 0.97129
   8   1  -2 263.454 133.674   2 0.54803 0.04774 0.41038-0.32634 0.82059-0.91711
  -8  -1   2 -35.617 57.0246   3-0.57193-0.02227-0.31662 0.23325-0.85255 0.94963
   8   1  -2 4.89904 74.5502   5 0.58942 0.00646 0.23349-0.14970 0.87224-0.96895
   7   1  -2 1356.12 234.549   8 0.64791-0.13175-0.20274 0.28583 0.84519-0.95690
  -7   1   2 917.121 201.901   7-0.61791 0.10271 0.09625-0.01313-0.88464 0.99581
  -7  -1   2 1205.04 217.930   7-0.64170 0.12634 0.10101-0.18509-0.86953 0.98073
   7   1  -2 1329.39 222.933   2 0.54741-0.03137 0.40938-0.32530 0.82148-0.93335
  -7  -1   2 1261.93 207.863   3-0.57357 0.05913-0.31831 0.23494-0.85096 0.96338
   7  -1  -2 989.844 156.772   4-0.12941 0.64506-0.21836 0.13547-0.97400 0.86204
  -7  -1   2 854.653 128.798   9 0.13035-0.64547-0.24795 0.16458 0.96720-0.85610
   7  -1  -2 1385.93 244.968   5 0.65001-0.13374 0.27413-0.35746 0.82051-0.93265
   7   1  -2 886.460 186.330   5 0.59283-0.07657 0.23575-0.15201 0.86965-0.98168
   7  -1  -2 1038.63 201.277   8 0.60296-0.08677-0.18323 0.09918 0.87796-0.98949
   6  -1  -2 178.705 94.0191   8 0.61815-0.18156-0.18978 0.10578 0.86750-0.99438
   6   1  -2 110.439 92.1982   8 0.66991-0.23338-0.21241 0.29558 0.82702-0.95406
  -6   1   2 120.582 92.0920   7-0.63587 0.20030 0.09984-0.01663-0.87335 0.99983
  -6  -1   2 30.9902 65.5704   7-0.66334 0.22763 0.10537-0.18936-0.85464 0.98117
   6   1  -2 43.6176 30.3944   4-0.19504 0.63124-0.04694 0.13102-0.99888 0.87157
  -6   1   2 -25.156 37.0844   1 0.20775-0.64198 0.01653 0.06744 0.99973-0.87298
   6  -1  -2 19.2043 62.6511   4-0.20646 0.64259-0.01506-0.06803-0.99978 0.87255
   6   1  -2 165.041 98.9588   2 0.55352-0.11720 0.41917-0.33503 0.81262-0.93986
  -6  -1   2 35.0838 44.8912   9 0.21068-0.64624-0.04785-0.03553 0.99869-0.87237
  -6   1   2 -16.577 18.4467   9 0.17189-0.60749-0.14786 0.23160 0.98888-0.86252
   6  -1  -2 155.386 113.235   5 0.67156-0.23490 0.28898-0.37239 0.79868-0.92616
  -6  -1   2 83.0417 57.1748   3-0.58356 0.14888-0.32876 0.24540-0.84087 0.96859
   6   1  -2 244.203 87.2913   5 0.60600-0.16938 0.24447-0.16078 0.85935-0.98672
   5  -1  -2 126.959 72.5708   8 0.64765-0.29070-0.20262 0.11867 0.84540-0.98765
   5   1  -2 140.846 97.9310   8 0.70851-0.35166-0.22962 0.31288 0.79115-0.93355
  -5   1   2 70.0978 51.1488   7-0.66968 0.31374 0.10666-0.02335-0.85006 0.99185
  -5  -1   2 34.8208 51.2702   7-0.70217 0.34609 0.11326-0.19716-0.82490 0.96675
  -5   1   2 140.408 55.1252   1 0.24742-0.60207-0.26852 0.35205 0.96125-0.81913
   5   1  -2 144.831 76.9919   2 0.56777-0.21119 0.44251-0.35832 0.79030-0.93292
   5  -1  -2 65.5077 49.8461   4-0.27299 0.62953 0.18665-0.26993-0.97868 0.83611
  -5  -1   2 9.51873 38.3278   9 0.28118-0.63717 0.15441-0.23784 0.98350-0.84194
   5   1  -2 82.5812 63.7508   5 0.63205-0.27509 0.26192-0.17829 0.83724-0.97996
   4  -1  -2 195.446 60.5640   8 0.69593-0.41867-0.22398 0.14007 0.80344-0.96108
  -4   1   2 293.829 81.4056   7-0.72468 0.44834 0.11788-0.03449-0.80566 0.96277
  -4  -1   2 299.640 90.0394   7-0.76334 0.48690 0.12590-0.20970-0.76862 0.92578
  -4  -1   2 281.588 89.2067   3-0.63763 0.36229-0.38727 0.30391-0.77608 0.93428
   4   1  -2 401.694 103.677   5 0.67451-0.39724 0.29103-0.20746 0.79552-0.95362
  11  -2  -2 265.783 191.000   8 0.61962 0.21487-0.19041 0.02267 0.86645-0.91683
 -11   2   2 51.3689 127.623   7-0.63737-0.19625 0.10014 0.06618-0.87237 0.92227
 -11  -2   2 -222.56 166.261   7-0.67135-0.16271 0.10699-0.27509-0.84883 0.89868
 -11  -2   2 -224.99 202.594   3-0.58600-0.24779-0.33132 0.16430-0.83833 0.88922
  11   2  -2 146.778 154.646   5 0.60763 0.22703 0.24555-0.07806 0.85804-0.90892
  10   2  -2 86.5435 128.229   8 0.67493 0.08004-0.21463 0.38107 0.82265-0.88863
 -10   2   2 111.119 148.768   7-0.62452-0.12947 0.09757 0.06885-0.88057 0.94579
 -10  -2   2 18.6714 95.8958   7-0.66071-0.09369 0.10484-0.27283-0.85651 0.92170
 -10  -2   2 50.2464 118.793   3-0.57218-0.18178-0.31687 0.14984-0.85231 0.91868
  10   2  -2 76.1419 146.337   5 0.59379 0.16129 0.23638-0.06895 0.86892-0.93506
  10  -2  -2 -56.386 116.785   8 0.60592 0.14901-0.18450 0.01680 0.87597-0.94158
   9   2  -2 134.205 154.913   8 0.67108 0.00430-0.21293 0.37945 0.82601-0.90724
  -9   2   2 169.216 120.787   7-0.61644-0.05791 0.09595 0.07055-0.88553 0.96606
  -9  -2   2 205.265 125.776   7-0.65559-0.01917 0.10381-0.27170-0.86010 0.94064
   9   2  -2 207.952 116.798   2 0.53488 0.14050 0.38962-0.22190 0.83854-0.91976
  -9  -2   2 240.696 130.535   3-0.56193-0.11222-0.30628 0.13924-0.86207 0.94386
   9   2  -2 39.8855 110.912   5 0.58401 0.09147 0.22995-0.06256 0.87625-0.95766
   9  -2  -2 -40.180 108.865   8 0.59660 0.07878-0.18048 0.01282 0.88217-0.96305
   8   2  -2 295.924 151.696   8 0.67483-0.07907-0.21459 0.38119 0.82274-0.91925
  -8   2   2 138.294 110.275   7-0.61464 0.01992 0.09559 0.07101-0.88662 0.98246
  -8  -2   2 38.1031 75.4166   7-0.65776 0.06266 0.10425-0.27205-0.85859 0.95446
   8   2  -2 -20.834 66.6624   2 0.52805 0.06761 0.37903-0.21126 0.84723-0.94379
   8  -2  -2 227.559 134.970   5 0.68458-0.08867 0.29808-0.46482 0.78443-0.88139
  -8  -2   2 43.1519 65.0839   3-0.55624-0.03809-0.30044 0.13341-0.86728 0.96445
   8   2  -2 151.239 100.243   5 0.57947 0.01642 0.22697-0.05963 0.87955-0.97627
   8  -2  -2 209.980 116.607   8 0.59294 0.00287-0.17891 0.01130 0.88455-0.98071
  -7   2   2 1193.47 223.826   7-0.62122 0.10611 0.09691 0.06979-0.88261 0.99377
  -7  -2   2 1173.18 209.269   7-0.66976 0.15432 0.10667-0.27438-0.85000 0.96121
   7   2  -2 1356.13 235.500   2 0.52602-0.01007 0.37589-0.20808 0.84975-0.96165
   7  -2  -2 1105.43 185.840   4-0.13864 0.65428-0.19536 0.02890-0.97935 0.86744
  -7  -2   2 1129.06 169.255   9 0.14291-0.65801-0.21838 0.05145 0.97488-0.86380
   7  -2  -2 103.597 139.418   5 0.69933-0.18302 0.30850-0.47536 0.76724-0.87952
   7   2  -2 1806.79 289.144   8 0.68876-0.17263-0.22078 0.38747 0.81017-0.92200
  -7  -2   2 1067.96 197.425   3-0.55639 0.04186-0.30060 0.13360-0.86714 0.97966
   7   2  -2 1236.13 217.466   5 0.58172-0.06546 0.22844-0.06115 0.87792-0.98995
   7  -2  -2 1103.93 228.273   8 0.59676-0.08052-0.18055 0.01297 0.88207-0.99355
   6   2  -2 677.759 257.693   8 0.71621-0.27974-0.23310 0.39989 0.78331-0.91046
  -6   2   2 499.407 98.6333   1 0.20119-0.63552 0.05411 0.11337 0.99847-0.87172
  -6   2   2 421.255 121.800   7-0.63909 0.20360 0.10049 0.06629-0.87125 0.99771
   6  -2  -2 422.979 114.571   4-0.19659 0.63266-0.04264-0.12404-0.99907 0.87187
  -6  -2   2 328.205 95.8421   9 0.20344-0.63895-0.06708-0.09987 0.99770-0.87138
   6   2  -2 447.635 135.550   2 0.52997-0.09372 0.38198-0.21411 0.84484-0.97210
   6   2  -2 381.706 156.969   5 0.59290-0.15627 0.23579-0.06853 0.86960-0.99697
   6  -2  -2 471.637 138.899   8 0.61053-0.17390-0.18649 0.01893 0.87282-0.99965
   5  -2  -2 -18.221 49.3762   8 0.63762-0.28061-0.19823 0.03071 0.85319-0.99540
  -5   2   2 -25.942 46.1148   7-0.67228 0.31640 0.10718 0.05969-0.84815 0.98991
  -5  -2   2 92.7356 68.1427   7-0.73813 0.38200 0.12066-0.28818-0.79338 0.93524
  -5  -2   2 31.3821 55.0950   9 0.25786-0.61380 0.08400-0.25098 0.99412-0.85255
   5  -2  -2 17.3823 53.1778   4-0.24823 0.60467 0.10799-0.27488-0.99247 0.84994
   5   2  -2 66.7204 59.5403   2 0.54122-0.18467 0.39956-0.23162 0.83010-0.97273
  -5   2   2 74.9278 48.2386   1 0.23226-0.58704-0.14356 0.31068 0.98876-0.84659
  -5  -2   2 20.9477 43.4331   3-0.58111 0.22606-0.32618 0.15927-0.84339 0.98649
   5   2  -2 -19.650 46.3746   5 0.61574-0.25879 0.25096-0.08373 0.85136-0.99408
   4  -2  -2 296.113 111.022   8 0.68214-0.40482-0.21783 0.05032 0.81623-0.97384
  -4   2   2 324.336 104.373   7-0.72579 0.44949 0.11811 0.04885-0.80467 0.96174
   4   2  -2 363.746 112.346   2 0.56095-0.28410 0.43125-0.26325 0.80128-0.95930
   4  -2  -2 453.397 164.757   4-0.29242 0.56919 0.25220-0.41927-0.96153 0.80363
  -4  -2   2 322.566 91.5262   9 0.30484-0.58121 0.23039-0.39741 0.96543-0.80858
   3  -2  -2 -94.698 102.040   8 0.74773-0.55017-0.24748 0.08002 0.74850-0.92153
 -11  -3   2 -46.342 129.441   7-0.69800-0.13616 0.11241-0.36414-0.82829 0.87810
  11   3  -2 -344.34 204.900   5 0.60514 0.22958 0.24390 0.00712 0.86004-0.91093
 -10   3   2 352.841 184.246   7-0.63390-0.11998 0.09945 0.15053-0.87462 0.93983
 -10  -3   2 321.659 160.733   7-0.68966-0.06484 0.11071-0.36234-0.83493 0.90010
  10   3  -2 466.151 207.045   2 0.53441 0.22057 0.38889-0.13752 0.83915-0.90511
 -10  -3   2 484.839 217.868   3-0.56508-0.18898-0.30953 0.05880-0.85912 0.92554
  10   3  -2 298.979 152.716   5 0.59178 0.16336 0.23505 0.01593 0.87045-0.93660
  10  -3  -2 404.767 206.306   8 0.60791 0.14705-0.18536-0.06584 0.87462-0.94019
   9   3  -2 34.0634 161.693   8 0.71455-0.03918-0.23235 0.48247 0.78503-0.86641
  -9   3   2 -116.96 134.098   7-0.62686-0.04740 0.09803 0.15204-0.87910 0.95962
  -9  -3   2 -69.424 106.018   7-0.68728 0.01244 0.11023-0.36176-0.83679 0.91731
   9   3  -2 -80.692 95.5603   2 0.52397 0.15130 0.37272-0.12132 0.85226-0.93354
   9   3  -2 -239.50 112.114   5 0.58234 0.09319 0.22885 0.02210 0.87747-0.95890
  -9  -3   2 49.7574 105.062   3-0.55502-0.11922-0.29919 0.04848-0.86837 0.95021
   9  -3  -2 -8.7674 100.408   8 0.59910 0.07631-0.18156-0.06961 0.88053-0.96137
   8   3  -2 1157.38 294.312   8 0.72292-0.12717-0.23614 0.48636 0.77628-0.87294
  -8   3   2 784.517 201.869   7-0.62612 0.03150 0.09789 0.15227-0.87957 0.97539
  -8  -3   2 836.564 195.916   7-0.69277 0.09759 0.11135-0.36279-0.83248 0.92834
   8   3  -2 646.914 198.508   2 0.51702 0.07854 0.36212-0.11067 0.86049-0.95709
   8   3  -2 647.216 180.710   5 0.57791 0.01801 0.22595 0.02497 0.88067-0.97741
  -8  -3   2 692.848 175.181   3-0.54923-0.04519-0.29328 0.04260-0.87349 0.97072
   8  -3  -2 551.276 168.794   8 0.59582 0.00003-0.18015-0.07099 0.88268-0.97882
   7   3  -2 19.7328 119.705   8 0.74235-0.22625-0.24500 0.49534 0.75478-0.86673
  -7   3   2 238.678 137.251   7-0.63373 0.11871 0.09941 0.15084-0.87473 0.98586
  -7  -3   2 347.772 126.165   7-0.70876 0.19323 0.11461-0.36596-0.81943 0.93064
   7  -3  -2 145.592 128.495   4-0.13763 0.65323-0.19789-0.05217-0.97879 0.86692
  -7  -3   2 162.933 87.7053   9 0.14370-0.65876-0.21652-0.03398 0.97533-0.86426
  -7   3   2 323.231 128.818   6-0.37218-0.14251 0.59320-0.34345-0.77227 0.88369
   7   3  -2 332.064 133.424   2 0.51442 0.00145 0.35819-0.10669 0.86347-0.97540
   7   3  -2 171.126 120.481   5 0.57988-0.06359 0.22724 0.02365 0.87925-0.99131
  -7  -3   2 147.985 66.7990   3-0.54881 0.03419-0.29285 0.04223-0.87386 0.98644
   7  -3  -2 218.753 130.236   8 0.59974-0.08347-0.18183-0.06928 0.88011-0.99157
   6  -3  -2 1664.17 251.026   4-0.18432 0.62032-0.07625-0.17402-0.99703 0.86987
  -6   3   2 1654.20 253.832   7-0.65247 0.21706 0.10318 0.14716-0.86226 0.98869
  -6  -3   2 1860.77 247.375   7-0.73867 0.30281 0.12077-0.37203-0.79287 0.91941
   6   3  -2 1598.12 244.705   2 0.51718-0.08099 0.36237-0.11081 0.86031-0.98758
  -6   3   2 1795.95 254.402   6-0.36948-0.06555 0.57746-0.32768-0.78565 0.91243
  -6  -3   2 1848.82 252.360   9 0.19254-0.62803-0.09549-0.15502 0.99546-0.86913
  -6  -3   2 1761.55 252.201   3-0.55516 0.12030-0.29933 0.04876-0.86825 0.99615
   6   3  -2 1873.53 263.677   5 0.59014-0.15350 0.23397 0.01690 0.87170-0.99909
   6  -3  -2 1822.01 269.295   8 0.61312-0.17645-0.18761-0.06350 0.87103-0.99784
   5  -3  -2 565.684 142.150   8 0.63899-0.28193-0.19883-0.05227 0.85214-0.99433
  -5   3   2 648.110 153.925   7-0.68610 0.33027 0.10999 0.14044-0.83771 0.97944
   5   3  -2 280.192 62.5011   6-0.16000 0.51569-0.14074 0.39181-0.98952 0.84682
   5  -3  -2 480.843 145.572   4-0.22643 0.58277 0.04243-0.29291-0.99850 0.85601
  -5  -3   2 596.622 143.293   9 0.23685-0.59276 0.02371-0.27425 0.99867-0.85708
   5   3  -2 509.324 144.203   2 0.52641-0.16990 0.37649-0.12486 0.84927-0.99190
  -5   3   2 444.615 126.078   6-0.36876 0.01337 0.57338-0.32357-0.78902 0.93113
  -5  -3   2 499.383 130.510   3-0.56995 0.21484-0.31456 0.06406-0.85448 0.99765
   5   3  -2 528.811 146.579   5 0.61104-0.25410 0.24783 0.00301 0.85525-0.99799
   4  -3  -2 197.277 96.8686   8 0.68100-0.40363-0.21732-0.03376 0.81726-0.97486
  -4   3   2 199.006 89.6740   7-0.73907 0.46282 0.12086 0.12967-0.79249 0.94954
  -4   3   2 261.293 97.2467   1 0.23787-0.51328-0.18641 0.43692 0.98125-0.82371
   4  -3  -2 338.279 129.556   4-0.26348 0.54013 0.15587-0.40653-0.98494 0.82709
   4   3  -2 284.016 110.720   2 0.54320-0.26638 0.40270-0.15100 0.82737-0.98538
  -4  -3   2 280.318 93.8665   9 0.27610-0.55242 0.13872-0.38928 0.98637-0.82950
  -4   3   2 228.579 89.9173   6-0.37028 0.09450 0.58204-0.33221-0.78182 0.93923
  -4  -3   2 213.061 89.1161   3-0.59502 0.31960-0.34086 0.09044-0.82865 0.98706
   4   3  -2 109.586 89.1243   5 0.64544-0.36821 0.27101-0.02019 0.82489-0.98299
   3  -3  -2 -13.652 64.7208   8 0.74249-0.54486-0.24506-0.00600 0.75462-0.92765
  -3   3   2 270.756 99.9868   1 0.25057-0.44651-0.29919 0.54961 0.95180-0.77891
   3  -3  -2 275.080 126.163   4-0.29512 0.49204 0.26159-0.51242-0.95864 0.78540
  -3  -3   2 176.612 85.4376   9 0.30977-0.50652 0.24692-0.49751 0.96056-0.78839
  -3   3   2 4.43448 20.2998   6-0.37400 0.17782 0.60425-0.35441-0.76252 0.93521
  11   4  -2 275.064 206.584   2 0.54194 0.29263 0.40071-0.06572 0.82910-0.87983
 -10   4   2 227.212 170.839   7-0.64985-0.10392 0.10265 0.23089-0.86405 0.92926
 -10  -4   2 393.473 164.646   7-0.72672-0.02787 0.11830-0.45358-0.80383 0.86896
  10   4  -2 112.630 131.497   2 0.52939 0.22547 0.38109-0.04607 0.84557-0.91160
 -10  -4   2 52.0921 109.323   3-0.56403-0.19012-0.30845-0.02598-0.86011 0.92653
  10   4  -2 -105.76 135.191   5 0.59585 0.15933 0.23774 0.09681 0.86734-0.93351
  10  -4  -2 201.827 162.472   8 0.61616 0.13885-0.18892-0.14576 0.86890-0.93447
  -9   4   2 1560.96 326.463   7-0.64436-0.02979 0.10155 0.23208-0.86776 0.94826
  -9  -4   2 1839.18 322.780   7-0.72785 0.05293 0.11854-0.45372-0.80282 0.88330
  -9  -4   2 2119.31 368.109   3-0.55458-0.11974-0.29874-0.03565-0.86877 0.95062
   9   4  -2 2093.70 381.564   5 0.58722 0.08837 0.23205 0.10248 0.87388-0.95534
   9   4  -2 1744.43 343.731   2 0.51949 0.15566 0.36589-0.03084 0.85760-0.93894
   9  -4  -2 1876.60 340.771   8 0.60836 0.06710-0.18555-0.14912 0.87431-0.95515
  -8   4   2 -89.007 108.964   7-0.64530 0.05076 0.10174 0.23197-0.86713 0.96294
   8  -4  -2 20.9087 101.906   4-0.08869 0.68382-0.31589-0.01755-0.94395 0.84736
  -8  -4   2 23.9294 85.1580   7-0.73746 0.14220 0.12052-0.45562-0.79400 0.88984
  -8  -4   2 -196.88 123.036   9 0.09400-0.68862-0.33031-0.00374 0.93984-0.84403
  -8   4   2 -25.941 74.6796   6-0.36927-0.22516 0.57626-0.24297-0.78665 0.88271
   8   4  -2 -99.622 84.3141   2 0.51288 0.08259 0.35586-0.02077 0.86522-0.96186
   8   4  -2 252.447 148.085   5 0.58341 0.01255 0.22955 0.10496 0.87669-0.97345
  -8  -4   2 -60.322 76.8681   3-0.54918-0.04532-0.29322-0.04111-0.87354 0.97079
   8  -4  -2 82.5570 122.431   8 0.60601-0.01010-0.18454-0.15012 0.87591-0.97204
   7  -4  -2 511.553 284.033   4-0.13143 0.64697-0.21336-0.12030-0.97522 0.86337
  -7   4   2 1639.98 275.708   7-0.65463 0.13968 0.10361 0.23018-0.86077 0.97187
  -7  -4   2 1540.42 242.965   7-0.75816 0.24257 0.12482-0.45983-0.77391 0.88508
  -7   4   2 2265.92 344.209   6-0.36489-0.14987 0.55215-0.21883-0.80599 0.91744
  -7  -4   2 2241.70 314.339   9 0.13851-0.65355-0.22880-0.10526 0.97230-0.86123
  -7  -4   2 1828.32 293.395   3-0.54877 0.03409-0.29282-0.04144-0.87388 0.98648
   7   4  -2 1570.78 285.541   5 0.58573-0.06941 0.23107 0.10343 0.87499-0.98707
   7   4  -2 1395.49 262.231   2 0.51027 0.00553 0.35193-0.01678 0.86813-0.98010
   7  -4  -2 1609.50 284.485   8 0.61068-0.09435-0.18655-0.14810 0.87272-0.98417
   6  -4  -2 -105.55 92.6136   8 0.62445-0.18771-0.19251-0.14214 0.86298-0.98979
  -6   4   2 -33.874 64.2809   7-0.67498 0.23963 0.10773 0.22614-0.84615 0.97255
   6  -4  -2 12.0075 87.3909   4-0.17062 0.60652-0.11298-0.22089-0.99334 0.86621
  -6  -4   2 52.8167 73.9003   9 0.17956-0.61501-0.12863-0.20544 0.99167-0.86533
  -6   4   2 -7.5259 55.8480   6-0.36208-0.07302 0.53737-0.20402-0.81723 0.94405
  -6   4   2 56.1823 73.7723   1 0.18586-0.62039 0.13587 0.19861 0.99067-0.86393
   6   4  -2 -39.256 75.2857   2 0.51250-0.07636 0.35528-0.02008 0.86565-0.99294
   6   4  -2 -216.13 109.098   5 0.59581-0.15915 0.23771 0.09678 0.86737-0.99480
  -6  -4   2 -55.528 60.7969   3-0.55458 0.11968-0.29875-0.03543-0.86876 0.99669
   5  -4  -2 568.708 165.503   8 0.64999-0.29288-0.20364-0.13103 0.84354-0.98574
  -5   4   2 583.964 156.808   7-0.70979 0.35401 0.11482 0.21914-0.81856 0.96026
   5   4  -2 455.330 89.8903   6-0.22531 0.58094 0.03932 0.29528-0.99867 0.85603
   5  -4  -2 92.1025 162.667   4-0.20609 0.56232-0.01610-0.31797-0.99977 0.85731
  -5  -4   2 529.861 158.582   9 0.21689-0.57277-0.03119-0.30290 0.99921-0.85759
  -5   4   2 618.849 146.950   1 0.20763-0.56265 0.01726 0.31699 0.99972-0.85754
  -5   4   2 519.021 156.679   6-0.36118 0.00575 0.53277-0.19941-0.82063 0.96278
   5   4  -2 471.042 140.443   2 0.52049-0.16402 0.36742-0.03214 0.85642-0.99906
   5   4  -2 721.075 165.598   5 0.61572-0.25876 0.25094 0.08354 0.85138-0.99415
  -5  -4   2 610.540 158.257   3-0.56800 0.21285-0.31254-0.02154-0.85635 0.99955
   4  -4  -2 341.280 148.447   8 0.69047-0.41304-0.22154-0.11314 0.80859-0.96620
  -4   4   2 317.104 109.785   7-0.76285 0.48663 0.12581 0.20825-0.76912 0.92614
   4   4  -2 75.6231 58.2961   6-0.15739 0.43349-0.14752 0.48227-0.98845 0.83030
  -4   4   2 193.471 96.6762   1 0.22449-0.50003-0.08871 0.42279 0.99552-0.83795
   4  -4  -2 259.317 127.587   4-0.23765 0.51419 0.07578-0.41005-0.99604 0.83823
  -4  -4   2 244.257 105.199   9 0.25030-0.52659 0.06199-0.39609 0.99627-0.83937
   4   4  -2 333.014 127.004   2 0.53518-0.25835 0.39009-0.05472 0.83814-0.99617
  -4   4   2 106.975 88.3521   6-0.36245 0.08664 0.53926-0.20589-0.81581 0.97327
  -4  -4   2 128.190 76.6854   3-0.59056 0.31510-0.33613 0.00217-0.83349 0.99194
   4   4  -2 60.5118 71.9367   5 0.64783-0.37062 0.27265 0.06184 0.82261-0.98073
   3   4  -2 62.3163 61.8767   6-0.11392 0.31039-0.25615 0.59103-0.96380 0.79018
  -3   4   2 114.245 86.6371   1 0.23715-0.43321-0.18084 0.51483 0.98234-0.80942
   3   4  -2 60.0798 91.2908   2 0.55720-0.36003 0.42512-0.08965 0.80708-0.98051
   3  -4  -2 -25.269 67.5659   4-0.26513 0.46195 0.16116-0.49558-0.98395 0.81076
  -3  -4   2 61.0443 64.9391   9 0.27954-0.47624 0.14931-0.48343 0.98447-0.81228
  -3   4   2 15.3587 41.4502   6-0.36591 0.16973 0.55763-0.22427-0.80171 0.97444
  -3  -4   2 17.4504 59.3058   3-0.62354 0.42770-0.37164 0.03777-0.79484 0.96853
   3   4  -2 60.1680 74.5660   5 0.69427-0.49684 0.30491 0.02954 0.77327-0.94672
  -2   4   2 23.5427 23.7302   1 0.24632-0.36287-0.25838 0.59235 0.96413-0.77585
   2  -4  -2 121.736 71.4560   4-0.28846 0.40553 0.23851-0.57307-0.96555 0.77698
  -2  -4   2 -52.034 58.0254   9 0.30447-0.42160 0.22915-0.56330 0.96578-0.77829
  -2   4   2 53.8744 62.7176   6-0.37137 0.25477 0.58835-0.25500-0.77645 0.96444
  10  -5  -2 -113.55 158.269   8 0.62999 0.12507-0.19492-0.22326 0.85892-0.92450
 -10   5   2 -343.04 228.838   7-0.67186-0.08180 0.10710 0.30999-0.84846 0.91367
  10   5  -2 286.996 210.287   2 0.52918 0.22556 0.38077 0.03788 0.84583-0.91194
 -10  -5   2 72.4485 125.589   3-0.56796-0.18624-0.31250-0.10561-0.85639 0.92279
   9  -5  -2 -210.59 155.846   8 0.62356 0.05196-0.19213-0.22604 0.86363-0.94448
  -9   5   2 -51.462 92.3880   7-0.66838-0.00568 0.10639 0.31077-0.85101 0.93151
   9   5  -2 47.4316 113.346   2 0.52006 0.15500 0.36676 0.05190 0.85693-0.93834
   9   5  -2 -265.54 170.094   5 0.59763 0.07801 0.23893 0.17923 0.86596-0.94746
  -9  -5   2 -12.191 96.2055   3-0.55938-0.11499-0.30366-0.11440-0.86442 0.94626
   8  -5  -2 -246.81 145.884   8 0.62257-0.02660-0.19170-0.22648 0.86434-0.96050
  -8   5   2 -187.27 144.749   7-0.67146 0.07701 0.10702 0.31023-0.84875 0.94454
   8  -5  -2 10.7841 131.451   4-0.08518 0.68027-0.32400-0.09303-0.94089 0.84432
  -8  -5   2 148.789 122.527   9 0.09122-0.68581-0.33643-0.08119 0.93745-0.84164
  -8   5   2 16.7339 131.253   6-0.36498-0.22954 0.55260-0.13570-0.80564 0.90170
   8   5  -2 32.5093 104.509   2 0.51404 0.08136 0.35762 0.06109 0.86390-0.96061
   8   5  -2 91.9383 100.950   5 0.59482 0.00119 0.23706 0.18109 0.86813-0.96494
  -8  -5   2 46.1135 75.8801   3-0.55466-0.03988-0.29883-0.11916-0.86869 0.96592
   7  -5  -2 289.846 150.751   8 0.62846-0.11206-0.19425-0.22393 0.86006-0.97154
  -7   5   2 -60.911 84.8928   7-0.68301 0.16814 0.10936 0.30796-0.84009 0.95117
   7  -5  -2 -41.369 86.2354   4-0.12209 0.63755-0.23635-0.18090-0.96937 0.85755
  -7  -5   2 -34.152 86.2062   9 0.12973-0.64474-0.24938-0.16824 0.96680-0.85572
  -7   5   2 307.224 163.465   6-0.36078-0.15404 0.53075-0.11382-0.82212 0.93358
   7   5  -2 57.4194 107.578   2 0.51173 0.00401 0.35413 0.06463 0.86650-0.97852
   7   5  -2 90.8831 106.267   5 0.59789-0.08154 0.23910 0.17906 0.86576-0.97789
  -7  -5   2 122.946 109.687   3-0.55467 0.03994-0.29883-0.11906-0.86869 0.98128
   6  -5  -2 107.365 120.575   8 0.64313-0.20632-0.20065-0.21756 0.84894-0.97579
  -6   5   2 67.6239 97.8679   7-0.70548 0.27018 0.11394 0.30346-0.82217 0.94855
   6  -5  -2 -39.560 93.4037   4-0.15587 0.59169-0.15149-0.26596-0.98779 0.86068
  -6   5   2 -108.85 74.7633   1 0.17740-0.61205 0.17789 0.24011 0.98392-0.85719
  -6  -5   2 74.2388 80.6653   9 0.16516-0.60058-0.16453-0.25310 0.98611-0.85976
  -6   5   2 41.4271 84.1343   6-0.35809-0.07705 0.51721-0.10027-0.83185 0.95867
   6   5  -2 76.8273 98.2281   2 0.51384-0.07774 0.35732 0.06151 0.86413-0.99147
   6   5  -2 -118.06 109.242   5 0.60830-0.17163 0.24600 0.17215 0.85749-0.98496
  -6  -5   2 161.799 102.425   3-0.56040 0.12546-0.30471-0.11308-0.86348 0.99140
   5  -5  -2 1387.08 270.051   8 0.66893-0.31177-0.21198-0.20627 0.82786-0.97009
  -5   5   2 1528.12 242.130   7-0.74189 0.38615 0.12144 0.29605-0.78984 0.93152
  -5   5   2 1263.98 245.832   1 0.19649-0.55163 0.08005 0.33774 0.99675-0.85459
   5  -5  -2 227.538 286.348   4-0.18646 0.54259-0.07047-0.34719-0.99747 0.85504
  -5  -5   2 1410.78 251.928   9 0.19738-0.55322-0.08292-0.33472 0.99657-0.85493
  -5   5   2 1242.64 239.417   6-0.35716 0.00169 0.51268-0.09573-0.83503 0.97718
   5   5  -2 1113.44 240.741   2 0.52112-0.16466 0.36837 0.05052 0.85568-0.99835
   5   5  -2 1504.64 258.573   5 0.62781-0.27087 0.25907 0.15909 0.84100-0.98380
  -5  -5   2 1158.92 227.914   3-0.57306 0.21787-0.31779-0.09987-0.85145 0.99467
   4  -5  -2 1686.52 321.689   8 0.70854-0.43107-0.22963-0.18863 0.79112-0.94877
   4   5  -2 998.784 158.918   6-0.20819 0.48426-0.01005 0.42835-0.99982 0.84170
   4  -5  -2 1147.53 264.853   4-0.21374 0.49017 0.00567-0.42352-0.99975 0.84197
  -4  -5   2 1016.47 203.133   9 0.22627-0.50252-0.00567-0.41200 0.99938-0.84246
   4   5  -2 1136.47 236.259   2 0.53432-0.25749 0.38875 0.03025 0.83927-0.99731
  -4   5   2 1038.04 216.870   6-0.35822 0.08240 0.51786-0.10093-0.83139 0.98885
  -4  -5   2 1202.73 227.867   3-0.59387 0.31838-0.33964-0.07789-0.82991 0.98838
   4   5  -2 1420.57 245.944   5 0.65840-0.38121 0.27989 0.13826 0.81225-0.97039
  -4   5   2 1136.57 235.309   1 0.21181-0.48746-0.00760 0.42525 0.99978-0.84221
   3  -5  -2 1868.03 329.559   4-0.23766 0.43436 0.07582-0.49384-0.99604 0.82290
  -3   5   2 1551.86 262.634   1 0.22382-0.41999-0.08417 0.50175 0.99594-0.82300
   3   5  -2 2066.53 315.249   2 0.55398-0.35679 0.41992-0.00081 0.81193-0.98537
   3   5  -2 1589.84 234.968   6-0.17067 0.36714-0.11275 0.53121-0.99337 0.81978
  -3   5   2 1670.56 273.538   6-0.36132 0.16513 0.53345-0.11655-0.82013 0.99288
  -3  -5   2 1612.52 257.077   9 0.25173-0.44839 0.06612-0.48380 0.99591-0.82369
  -3  -5   2 1955.56 290.374   3-0.62388 0.42802-0.37201-0.04538-0.79441 0.96812
   3   5  -2 -62.202 88.4218   5 0.70174-0.50434 0.31023 0.10792 0.76432-0.93777
   2   5  -2 -18.893 55.2475   6-0.14498 0.26178-0.17928 0.59787-0.98271 0.79367
   2  -5  -2 111.557 89.6944   4-0.25814 0.37511 0.13891-0.55705-0.98791 0.79940
  -2  -5   2 43.9141 90.2142   9 0.27366-0.39075 0.13128-0.54896 0.98763-0.80012
  -2   5   2 -107.92 100.400   6-0.36634 0.24976 0.55994-0.14307-0.79988 0.98788
  -2   5   2 6.20753 58.0119   1 0.23300-0.34966-0.14903 0.56658 0.98791-0.79961
  -1   5   2 327.088 118.351   1 0.23976-0.27688-0.20171 0.61930 0.97810-0.77443
   1  -5  -2 147.812 97.3418   4-0.27517 0.31239 0.19384-0.61210-0.97706 0.77315
  -1   5   2 324.967 122.054   6-0.37288 0.33588 0.59742-0.18058-0.76858 0.97183
 -10   6   2 129.108 165.441   7-0.69941-0.05416 0.11270 0.38791-0.82715 0.89235
   9  -6  -2 -11.342 140.600   8 0.64396 0.03164-0.20101-0.30068 0.84830-0.92920
  -9   6   2 310.330 170.075   7-0.69826 0.02429 0.11247 0.38822-0.82808 0.90857
   9   6  -2 329.279 173.030   2 0.52455 0.15043 0.37364 0.12863 0.85154-0.93303
  -9  -6   2 185.726 126.075   3-0.56841-0.10598-0.31297-0.18875-0.85596 0.93775
   9   6  -2 431.197 184.672   5 0.61272 0.06298 0.24895 0.25284 0.85387-0.93541
   8  -6  -2 -103.71 107.368   8 0.64459-0.04854-0.20129-0.30042 0.84780-0.94401
   8  -6  -2 24.4703 169.417   4-0.07810 0.67313-0.34024-0.16038-0.93449 0.83795
  -8   6   2 -118.50 102.559   7-0.70383 0.10945 0.11360 0.38716-0.82353 0.91932
  -8   6   2 208.306 145.684   6-0.36311-0.23147 0.54269-0.04218-0.81323 0.90927
  -8  -6   2 17.2310 103.756   9 0.08453-0.67910-0.35102-0.15016 0.93152-0.83571
   8   6  -2 204.874 130.097   2 0.51926 0.07608 0.36554 0.13677 0.85787-0.95465
   8   6  -2 -75.743 131.796   5 0.61112-0.01507 0.24788 0.25392 0.85519-0.95204
  -8  -6   2 246.500 163.934   3-0.56456-0.03000-0.30900-0.19263-0.85961 0.95680
   7  -6  -2 289.844 296.644   8 0.65200-0.13554-0.20453-0.29720 0.84192-0.95346
  -7   6   2 1689.62 301.530   7-0.71790 0.20309 0.11649 0.38435-0.81162 0.92270
   7  -6  -2 140.227 331.032   4-0.11062 0.62600-0.26413-0.23671-0.96141 0.84961
  -7   6   2 1499.90 325.738   6-0.35924-0.15563 0.52295-0.02241-0.82777 0.93919
  -7  -6   2 1503.63 316.547   9 0.11852-0.63350-0.27527-0.22591 0.95911-0.84803
   7   6  -2 1216.94 286.713   2 0.51742-0.00173 0.36275 0.13962 0.86002-0.97210
   7   6  -2 1314.21 288.530   5 0.61520-0.09882 0.25060 0.25121 0.85182-0.96399
  -7  -6   2 1129.26 261.439   3-0.56518 0.05043-0.30963-0.19188-0.85903 0.97159
   6  -6  -2 35.8448 148.019   8 0.66789-0.23104-0.21152-0.29025 0.82875-0.95565
  -6   6   2 -49.392 96.2040   7-0.74271 0.30746 0.12161 0.37930-0.78906 0.91543
  -6   6   2 0.81879 99.6812   1 0.16847-0.60323 0.22026 0.28126 0.97517-0.84848
   6  -6  -2 21.9352 182.563   4-0.14030 0.57602-0.19118-0.30987-0.98026 0.85316
  -6   6   2 53.3395 85.3024   6-0.35677-0.07841 0.51072-0.01017-0.83639 0.96317
  -6  -6   2 -16.398 93.2445   9 0.14968-0.58507-0.20220-0.29899 0.97863-0.85226
   6   6  -2 -116.37 95.4639   2 0.51964-0.08357 0.36611 0.13631 0.85743-0.98483
   6   6  -2 8.11474 78.5217   5 0.62622-0.18954 0.25800 0.24383 0.84239-0.96989
  -6  -6   2 179.376 118.160   3-0.57113 0.13616-0.31578-0.18560-0.85333 0.98123
   5  -6  -2 -173.95 110.568   8 0.69431-0.33709-0.22325-0.27857 0.80498-0.94728
  -5   6   2 -268.46 108.952   7-0.78076 0.42506 0.12957 0.37144-0.75002 0.89170
   5  -6  -2 -47.094 166.717   4-0.16713 0.52315-0.12219-0.37906-0.99217 0.84976
  -5  -6   2 -11.963 68.3280   9 0.17796-0.53376-0.13265-0.36857 0.99112-0.84947
  -5   6   2 11.0910 82.3043   6-0.35591 0.00041 0.50655-0.00601-0.83926 0.98139
   5   6  -2 81.6813 128.532   2 0.52652-0.17007 0.37666 0.12585 0.84914-0.99187
  -5   6   2 -126.84 103.967   1 0.18555-0.54081 0.13746 0.36388 0.99045-0.84830
  -5  -6   2 -10.352 91.4720   3-0.58339 0.22816-0.32857-0.17267-0.84105 0.98424
   5   6  -2 -40.621 73.9889   5 0.64572-0.28878 0.27119 0.23065 0.82463-0.96746
   4  -6  -2 302.267 214.586   8 0.73337-0.45586-0.24089-0.26097 0.76494-0.92266
  -4   6   2 -177.52 151.977   1 0.19954-0.47531 0.06334 0.43788 0.99794-0.84039
   4   6  -2 245.600 115.967   6-0.24324 0.51933 0.09290 0.40892-0.99429 0.83618
   4  -6  -2 -22.905 125.973   4-0.19103 0.46734-0.05800-0.44343-0.99830 0.84054
   4   6  -2 77.0484 99.1683   2 0.53865-0.26182 0.39553 0.10708 0.83356-0.99164
  -4  -6   2 89.9480 95.3256   9 0.20330-0.47950-0.06745-0.43377 0.99768-0.84073
  -4   6   2 -39.690 89.1104   6-0.35683 0.08099 0.51100-0.01050-0.83619 0.99363
  -4  -6   2 143.515 84.5711   3-0.60295 0.32743-0.34932-0.15177-0.81976 0.97822
   4   6  -2 143.783 143.139   5 0.67525-0.39808 0.29154 0.21030 0.79472-0.95288
   3   6  -2 553.246 146.973   6-0.21146 0.40793-0.00073 0.50273-0.99981 0.82625
   3  -6  -2 488.178 176.256   4-0.21195 0.40854 0.00053-0.50213-0.99980 0.82668
   3   6  -2 882.062 228.208   2 0.55646-0.35925 0.42395 0.07877 0.80819-0.98167
  -3  -6   2 737.583 192.390   9 0.22559-0.42223-0.00752-0.49370 0.99940-0.82715
  -3   6   2 767.638 194.143   6-0.35958 0.16340 0.52464-0.02418-0.82655 0.99928
  -3  -6   2 771.632 205.549   3-0.63062 0.43473-0.37945-0.12148-0.78561 0.95932
  -3   6   2 434.899 169.999   1 0.21078-0.40707-0.00141 0.50257 0.99982-0.82689
   2  -6  -2 1575.15 302.893   4-0.22985 0.34670 0.05253-0.55426-0.99789 0.80941
  -2   6   2 1704.15 289.286   1 0.21959-0.33636-0.05624 0.55739 0.99804-0.80974
   2   6  -2 1873.76 296.383   6-0.18818 0.30500-0.06566 0.56781-0.99781 0.80880
  -2   6   2 1474.92 269.486   6-0.36409 0.24754 0.54790-0.04748-0.80927 0.99727
  -2  -6   2 1804.31 296.050   9 0.24482-0.36186 0.04625-0.54748 0.99746-0.80991
   1   6  -2 214.194 146.811   6-0.17226 0.20937-0.10853 0.61081-0.99387 0.78942
   1  -6  -2 304.165 141.846   4-0.24467 0.28178 0.09710-0.59895-0.99381 0.78995
  -1  -6   2 385.295 145.635   9 0.26088-0.29836 0.09293-0.59415 0.99310-0.79024
  -1   6   2 356.894 139.343   1 0.22625-0.26349-0.10071 0.60188 0.99431-0.79065
  -1   6   2 471.499 171.720   6-0.37009 0.33312 0.58094-0.08058-0.78274 0.98599
   0  -6  -2 43.0709 88.7197   4-0.25637 0.21373 0.13333-0.63526-0.98882 0.76958
   0   6   2 355.733 136.039   1 0.23101-0.18867-0.13443 0.63567 0.99010-0.77107
   9  -7  -2 106.433 176.388   8 0.66883 0.00685-0.21194-0.37326 0.82794-0.90892
  -9   7   2 -78.493 133.286   7-0.73334 0.05944 0.11967 0.46453-0.79783 0.87832
  -9  -7   2 -61.881 168.814   9 0.04204-0.71616-0.44034-0.14440 0.88835-0.80782
   8  -7  -2 28.5440 129.017   8 0.67125-0.07513-0.21301-0.37223 0.82585-0.92214
   8  -7  -2 29.3551 138.486   4-0.06848 0.66344-0.36204-0.22219-0.92532 0.82879
  -8   7   2 15.0056 118.614   7-0.74155 0.14724 0.12137 0.46290-0.79016 0.88594
  -8   7   2 204.540 192.951   6-0.36310-0.23153 0.54265 0.04149-0.81327 0.90924
   8   7  -2 213.725 155.054   2 0.52757 0.06771 0.37828 0.20760 0.84784-0.94470
  -8  -7   2 334.145 247.386   9 0.07507-0.66961-0.37142-0.21332 0.92272-0.82691
   8   7  -2 -3.4666 156.632   5 0.63144-0.03535 0.26151 0.32397 0.83778-0.93467
  -8  -7   2 83.1095 91.3760   3-0.57796-0.01662-0.32289-0.26237-0.84659 0.94371
   7  -7  -2 225.463 197.180   8 0.68034-0.16380-0.21703-0.36826 0.81785-0.92947
   7  -7  -2 38.2104 215.331   4-0.09755 0.61285-0.29518-0.28925-0.95136 0.83956
  -7   7   2 -3.8619 95.1835   6-0.35962-0.15529 0.52485 0.05931-0.82640 0.93778
  -7  -7   2 176.240 142.971   9 0.10549-0.62043-0.30478-0.27998 0.94929-0.83820
   7   7  -2 686.260 229.558   2 0.52629-0.01062 0.37630 0.20964 0.84942-0.96159
  -7  -7   2 227.288 171.890   3-0.57929 0.06452-0.32428-0.26084-0.84524 0.95774
   7   7  -2 308.034 181.391   5 0.63664-0.12024 0.26503 0.32047 0.83308-0.94529
   6  -7  -2 275.719 249.454   8 0.69758-0.26066-0.22472-0.36062 0.80186-0.92885
   6  -7  -2 186.094 330.867   4-0.12401 0.55962-0.23165-0.35299-0.97062 0.84353
  -6   7   2 996.983 269.985   6-0.35741-0.07780 0.51388 0.07027-0.83418 0.96092
  -6  -7   2 630.544 225.283   9 0.13329-0.56865-0.24107-0.34368 0.96908-0.84270
   6   7  -2 734.257 230.976   2 0.52873-0.09267 0.38006 0.20594 0.84640-0.97387
  -6  -7   2 654.922 191.265   3-0.58559 0.15061-0.33089-0.25409-0.83876 0.96660
   6   7  -2 761.025 251.766   5 0.64844-0.21175 0.27306 0.31248 0.82203-0.94956
   5  -7  -2 427.786 228.447   8 0.72470-0.36744-0.23694-0.34846 0.77439-0.91678
  -5   7   2 694.823 236.193   1 0.17459-0.52998 0.19145 0.39344 0.98133-0.83921
   5  -7  -2 6.34322 244.748   4-0.14783 0.50375-0.17212-0.41271-0.98411 0.84170
  -5  -7   2 816.943 208.829   9 0.15844-0.51420-0.18100-0.40376 0.98305-0.84138
   5   7  -2 767.783 226.927   2 0.53538-0.17893 0.39040 0.19568 0.83788-0.98068
  -5   7   2 466.367 153.230   6-0.35666 0.00114 0.51020 0.07393-0.83675 0.97883
  -5  -7   2 584.092 200.898   3-0.59765 0.24242-0.34367-0.24115-0.82574 0.96888
   5   7  -2 691.513 215.385   5 0.66808-0.31114 0.28656 0.29898 0.80234-0.94520
   4  -7  -2 7.47883 184.981   4-0.16899 0.44518-0.11728-0.46772-0.99281 0.83506
   4   7  -2 539.189 178.757   2 0.54672-0.26987 0.40829 0.17790 0.82245-0.98061
  -4  -7   2 350.773 159.933   9 0.18088-0.45706-0.12528-0.45949 0.99211-0.83514
  -4   7   2 187.038 112.123   6-0.35749 0.08166 0.51425 0.06983-0.83392 0.99133
  -4  -7   2 345.089 151.617   3-0.61628 0.34074-0.36371-0.22093-0.80395 0.96237
   4   7  -2 255.791 139.346   5 0.69679-0.41964 0.30669 0.27886 0.77029-0.92845
  -4   7   2 299.360 146.534   1 0.18746-0.46337 0.12769 0.45709 0.99177-0.83424
   3  -7  -2 2320.53 374.145   4-0.18742 0.38388-0.06786-0.51730-0.99766 0.82457
   3   7  -2 2934.99 418.952   2 0.56305-0.36579 0.43470 0.15163 0.79796-0.97152
   3   7  -2 2718.04 345.201   6-0.24288 0.43938 0.09180 0.49371-0.99442 0.82085
  -3   7   2 2888.59 415.609   6-0.35995 0.16376 0.52650 0.05754-0.82521 0.99791
  -3  -7   2 2790.98 382.618   9 0.20056-0.39715-0.07463-0.51014 0.99720-0.82493
   2   7  -2 6.18731 78.9618   6-0.22216 0.33899 0.03009 0.55560-0.99909 0.81008
   2  -7  -2 79.3215 161.027   4-0.20307 0.31980-0.02459-0.56070-0.99963 0.81117
  -2   7   2 76.7794 92.5973   1 0.20626-0.32316 0.02521 0.55952 0.99957-0.81129
  -2  -7   2 -21.490 81.0709   9 0.21740-0.33441-0.02983-0.55495 0.99923-0.81166
  -2   7   2 62.8047 100.428   6-0.36398 0.24743 0.54729 0.03669-0.80973 0.99771
   1  -7  -2 3762.35 456.888   4-0.21588 0.25286 0.01176-0.59717-0.99965 0.79582
  -1   7   2 4666.05 483.915   1 0.21263-0.24997-0.01259 0.59735 0.99971-0.79606
   1   7  -2 5061.47 539.971   6-0.20718 0.24433-0.01289 0.59872-0.99980 0.79535
  -1   7   2 5165.12 530.275   6-0.36937 0.33242 0.57680 0.00711-0.78620 0.98943
  -1  -7   2 4658.63 499.271   9 0.23134-0.26878 0.00834-0.59312 0.99917-0.79628
   0   7   2 180.620 130.047   1 0.21719-0.17494-0.04091 0.62573 0.99885-0.77983
   0  -7  -2 58.1821 102.540   4-0.22572 0.18296 0.04035-0.62585-0.99861 0.77941
   0   7   2 -36.177 68.6589   6-0.37569 0.41832 0.61492-0.03108-0.75282 0.97129
   0  -7  -2 -58.743 79.3149   9-0.05158 0.00984-0.61698 0.03192 0.76094-0.97890
   8  -8  -2 275.858 303.562   8 0.70178-0.10557-0.22659-0.44219 0.79781-0.89420
   8  -8  -2 -152.29 212.362   4-0.05692 0.65179-0.38781-0.28002-0.91361 0.81706
  -8   8   2 312.863 240.382   6-0.36447-0.23019 0.54991 0.11785-0.80772 0.90361
  -8  -8   2 270.742 191.610   9 0.06348-0.65799-0.39600-0.27231 0.91130-0.81549
   7  -8  -2 -7.0635 222.765   8 0.71254-0.19594-0.23145-0.43741 0.78707-0.89881
   7  -8  -2 -17.189 184.984   4-0.08320 0.59841-0.32855-0.33948-0.93913 0.82733
   7   8  -2 14.8108 122.875   2 0.53752-0.02187 0.39374 0.27576 0.83507-0.94734
  -7   8   2 338.561 253.224   6-0.36139-0.15356 0.53383 0.13393-0.81985 0.93114
  -7  -8   2 -162.23 131.073   9 0.09102-0.60593-0.33686-0.33145 0.93727-0.82617
  -7  -8   2 12.2409 92.3011   3-0.59616 0.08138-0.34206-0.32666-0.82740 0.93982
   7   8  -2 63.0437 150.225   5 0.66136-0.14494 0.28192 0.38729 0.80926-0.92151
   6  -8  -2 69.6812 203.493   8 0.73111-0.29414-0.23986-0.42907 0.76743-0.89454
   6  -8  -2 -36.321 252.308   4-0.10705 0.54255-0.27268-0.39554-0.95877 0.83167
   6   8  -2 -191.07 181.247   2 0.54022-0.10417 0.39799 0.27159 0.83145-0.95903
  -6   8   2 108.128 145.267   6-0.35946-0.07577 0.52404 0.14372-0.82699 0.95365
  -6  -8   2 224.344 142.008   9 0.11609-0.55141-0.28081-0.38751 0.95735-0.83096
  -6  -8   2 -35.717 108.790   3-0.60285 0.16785-0.34922-0.31934-0.81987 0.94763
   6   8  -2 201.459 162.872   5 0.67394-0.23725 0.29063 0.37861 0.79613-0.92368
   5  -8  -2 -19.451 231.784   4-0.12842 0.48422-0.22080-0.44760-0.97340 0.83099
   5   8  -2 104.962 134.538   2 0.54675-0.19028 0.40832 0.26133 0.82242-0.96532
  -5  -8   2 -77.755 114.037   9 0.13867-0.49441-0.22842-0.43991 0.97239-0.83070
  -5   8   2 -190.93 149.632   6-0.35883 0.00329 0.52088 0.14684-0.82924 0.97126
  -5  -8   2 -43.899 93.1096   3-0.61483 0.25957-0.36213-0.30623-0.80572 0.94881
   5   8  -2 45.5816 122.698   5 0.69375-0.33683 0.30455 0.36473 0.77388-0.91674
   4   8  -2 2434.92 420.494   2 0.55745-0.28057 0.42554 0.24423 0.80669-0.96495
  -4   8   2 2078.05 381.358   6-0.35960 0.08376 0.52474 0.14294-0.82648 0.98382
  -4   8   2 1591.06 380.176   1 0.17540-0.45143 0.18755 0.48080 0.98210-0.82460
  -4  -8   2 2498.45 382.748   9 0.15872-0.43487-0.18031-0.48801 0.98318-0.82619
  -4  -8   2 2172.93 376.281   3-0.63268 0.35710-0.38174-0.28645-0.78285 0.94123
   3  -8  -2 -24.735 97.1169   4-0.16362 0.35996-0.13137-0.53736-0.99091 0.81782
   3   8  -2 24.4309 83.7750   6-0.26840 0.46492 0.17188 0.49715-0.98183 0.80823
   3   8  -2 -80.656 105.305   2 0.57251-0.37523 0.45043 0.21949 0.78234-0.95599
  -3  -8   2 13.9965 100.273   9 0.17618-0.37273-0.13712-0.53121 0.99049-0.81819
  -3   8   2 86.9966 138.256   6-0.36181 0.16563 0.53596 0.13166-0.81828 0.99092
  -3   8   2 200.038 169.072   1 0.18519-0.38171 0.13927 0.52904 0.99019-0.81731
  -2   8   2 972.402 239.217   1 0.19300-0.31001 0.09875 0.56957 0.99508-0.80681
   2   8  -2 1316.13 298.832   6-0.25002 0.36688 0.11370 0.55550-0.99171 0.80269
   2  -8  -2 1085.02 270.204   4-0.17734 0.29394-0.09509-0.57376-0.99533 0.80689
  -2  -8   2 1445.22 287.557   9 0.19098-0.30796-0.09950-0.56883 0.99507-0.80746
  -2   8   2 1138.08 271.339   6-0.36539 0.24886 0.55483 0.11271-0.80390 0.99183
  -1   8   2 362.979 184.909   1 0.19899-0.23643 0.06636 0.60199 0.99775-0.79411
   1   8  -2 274.125 145.534   6-0.23620 0.27339 0.07161 0.59775-0.99642 0.79197
   1  -8  -2 224.199 149.669   4-0.18835 0.22520-0.06534-0.60362-0.99783 0.79403
  -1  -8   2 508.947 216.556   9 0.20303-0.24041-0.06816-0.60016 0.99763-0.79471
  -1   8   2 616.400 221.565   6-0.37019 0.33327 0.58151 0.08595-0.78226 0.98545
   0  -8  -2 1109.65 290.161   4-0.19651 0.15364-0.04287-0.62618-0.99906 0.77988
   0   8   2 1386.02 322.657   1 0.20325-0.16110 0.04250 0.62593 0.99902-0.78001
   0   8   2 -48.183 74.4127   6-0.37586 0.41852 0.61594 0.05144-0.75187 0.97031
   0  -8  -2 -121.83 108.692   9-0.05212 0.01042-0.61793-0.05069 0.76007-0.97799
   0   8   2 1114.77 250.695   2 0.28117-0.23918 0.04414 0.62328 0.99481-0.77682
  -1  -8  -2 66.6972 123.545   4-0.20166 0.07906-0.02856-0.64056-0.99954 0.76500
   1   8   2 -197.64 141.153   1 0.20586-0.08407 0.02757 0.64094 0.99951-0.76512
  -1  -8  -2 -370.21 169.834   9-0.05360-0.06769-0.62048-0.04811 0.75771-0.99094
   7   9  -2 366.058 237.172   5 0.68857-0.17214 0.30089 0.45204 0.77989-0.89215
   6  -9  -2 13.3635 291.407   4-0.08943 0.52482-0.31415-0.43766-0.94459 0.81748
  -6   9   2 529.875 243.132   6-0.36247-0.07278 0.53941 0.21196-0.81571 0.94228
  -6  -9   2 740.638 250.228   9 0.09813-0.53342-0.32119-0.43070 0.94332-0.81691
  -6  -9   2 657.412 250.100   3-0.62218 0.18717-0.37015-0.38198-0.79658 0.92425
   6   9  -2 -28.955 103.912   5 0.70186-0.26518 0.31032 0.44266 0.76417-0.89173
   5  -9  -2 12.8351 241.805   4-0.10876 0.46443-0.26859-0.48341-0.96005 0.81763
   5   9  -2 63.2814 138.558   2 0.55986-0.20339 0.42948 0.32375 0.80297-0.94600
  -5  -9   2 66.5367 111.416   9 0.11857-0.47426-0.27516-0.47672 0.95915-0.81744
  -5   9   2 -128.66 144.448   6-0.36196 0.00642 0.53677 0.21456-0.81768 0.95960
  -5  -9   2 -295.85 165.272   3-0.63407 0.27879-0.38328-0.36864-0.78097 0.92396
   4  -9  -2 39.3843 378.217   4-0.12572 0.40166-0.22746-0.52469-0.97171 0.81395
   4   9  -2 1464.83 344.828   2 0.57001-0.29310 0.44623 0.30711 0.78659-0.94498
  -4  -9   2 1493.28 334.705   9 0.13659-0.41270-0.23332-0.51857 0.97113-0.81412
  -4   9   2 1235.94 342.558   6-0.36269 0.08684 0.54053 0.21074-0.81486 0.97212
   3  -9  -2 -14.169 108.249   4-0.14025 0.33646-0.19133-0.56096-0.98022 0.80713
  -3   9   2 261.280 162.963   1 0.17239-0.36903 0.20190 0.54999 0.97920-0.80635
   3   9  -2 168.134 175.586   6-0.28988 0.48644 0.24365 0.50886-0.96408 0.79043
  -3  -9   2 70.9859 94.0136   9 0.15216-0.34868-0.19624-0.55564 0.97993-0.80760
  -3   9   2 221.501 184.482   6-0.36467 0.16850 0.55097 0.20023-0.80690 0.97947
   2  -9  -2 -7.2859 145.459   4-0.15228 0.26876-0.16075-0.59165-0.98620 0.79775
   2   9  -2 411.703 240.516   6-0.27360 0.39051 0.18888 0.56382-0.97819 0.78913
  -2  -9   2 370.620 146.930   9 0.16517-0.28212-0.16450-0.58738 0.98612-0.79848
  -2   9   2 325.453 177.815   1 0.17972-0.29684 0.16659 0.58532 0.98592-0.79769
  -2   9   2 586.895 245.891   6-0.36786 0.25134 0.56832 0.18280-0.79316 0.98102
   1  -9  -2 320.632 193.440   4-0.16170 0.19844-0.13638-0.61612-0.99018 0.78637
   1   9  -2 234.039 148.547   6-0.26098 0.29820 0.14810 0.60477-0.98635 0.78186
  -1  -9   2 163.106 91.1592   9 0.17554-0.21291-0.13875-0.61313 0.99026-0.78730
  -1   9   2 107.607 118.693   6-0.37209 0.33520 0.59270 0.15833-0.77270 0.97584
  -1   9   2 297.490 207.219   1 0.18532-0.22287 0.13865 0.61330 0.99028-0.78667
   0   9   2 158.516 101.957   1 0.18924-0.14720 0.11849 0.63353 0.99291-0.77392
   0  -9  -2 69.3490 140.293   4-0.16838 0.12538-0.11889-0.63369-0.99260 0.77343
   1   9   2 165.884 163.992   1 0.19154-0.06985 0.10647 0.64564 0.99428-0.75991
  -1  -9  -2 15.3930 109.421   4-0.17208 0.04937-0.10910-0.64355-0.99380 0.75927
   1   9   2 -71.886 121.956   2 0.32223-0.20063 0.09522 0.65573 0.98623-0.75306
   3 -10  -2 -102.74 176.441   4-0.11705 0.31313-0.24862-0.58722-0.96597 0.79286
  -3 -10   2 273.388 234.659   9 0.12824-0.32474-0.25285-0.58259 0.96582-0.79347
  -3  10   2 -98.568 137.522   6-0.36818 0.17202 0.57014 0.26464-0.79168 0.96416
   2 -10  -2 134.939 284.406   4-0.12761 0.24395-0.22280-0.61315-0.97290 0.78443
  -2 -10   2 1039.56 290.543   9 0.13969-0.25661-0.22601-0.60943 0.97300-0.78534
  -2  10   2 671.955 246.781   6-0.37101 0.25450 0.58623 0.24846-0.77826 0.96603
  -1  10   2 -105.93 157.866   1 0.17152-0.20918 0.20602 0.62953 0.97833-0.77475
   1 -10  -2 -28.243 126.869   4-0.13564 0.17225-0.20288-0.63317-0.97767 0.77385
  -1  10   2 -122.45 135.734   6-0.37472 0.33784 0.60871 0.22588-0.75850 0.96155
   0 -10  -2 119.862 133.327   4-0.14097 0.09786-0.18951-0.64661-0.98061 0.76144
   0  10   2 22.2346 123.530   1 0.17511-0.13317 0.18895 0.64668 0.98182-0.76286
  11   0  -3 301.689 251.213   8 0.72619 0.08770-0.23762 0.23683 0.77278-0.93274
 -11   0   3 217.627 195.109   7-0.73428-0.07850 0.11986-0.12063-0.79696 0.95606
  10   0  -3 333.357 235.004   8 0.72286 0.01145-0.23611 0.23538 0.77635-0.95157
 -10   0   3 -15.604 126.359   7-0.73147-0.00166 0.11928-0.11995-0.79953 0.97396
   9   0  -3 316.034 174.027   8 0.72498-0.07027-0.23707 0.23641 0.77408-0.96461
  -9   0   3 111.477 85.0072   7-0.73446 0.08096 0.11990-0.12047-0.79679 0.98655
  -7   0   3 -136.38 90.5570   7-0.76361 0.26938 0.12596-0.12635-0.76834 0.98874
  11  -1  -3 143.937 192.688   8 0.71321 0.10069-0.23175 0.14741 0.78639-0.94625
 -11   1   3 164.192 155.347   7-0.72875-0.08392 0.11872-0.03589-0.80200 0.96110
 -11  -1   3 385.954 145.941   7-0.74590-0.06698 0.12227-0.20665-0.78600 0.94509
  11   1  -3 95.1043 114.400   5 0.69956 0.11441 0.30866-0.22475 0.76697-0.92751
  10  -1  -3 178.768 214.251   8 0.70904 0.02529-0.22987 0.14558 0.79061-0.96574
 -10   1   3 -37.238 86.2994   7-0.72559-0.00745 0.11807-0.03514-0.80485 0.97927
 -10  -1   3 72.6073 122.370   7-0.74393 0.01069 0.12186-0.20615-0.78789 0.96233
  10   1  -3 203.229 136.484   5 0.69478 0.03960 0.30528-0.22144 0.77266-0.94847
   9  -1  -3 399.777 246.820   8 0.71011-0.05536-0.23035 0.14613 0.78954-0.97997
   9   1  -3 -295.79 243.632   8 0.74721-0.09254-0.24725 0.33017 0.74911-0.93975
  -9   1   3 346.271 158.554   7-0.72809 0.07469 0.11859-0.03556-0.80260 0.99234
  -9  -1   3 365.830 182.676   7-0.74789 0.09431 0.12268-0.20688-0.78407 0.97384
   9   1  -3 299.552 206.912   5 0.69479-0.04000 0.30529-0.22151 0.77265-0.96375
   8  -1  -3 231.851 197.971   8 0.71762-0.14248-0.23374 0.14957 0.78185-0.98762
  -8   1   3 69.8499 119.489   7-0.73764 0.16386 0.12056-0.03744-0.79383 0.99890
  -8  -1   3 194.549 132.040   7-0.75920 0.18525 0.12504-0.20912-0.77286 0.97795
   8   1  -3 200.362 106.739   5 0.70064-0.12547 0.30944-0.22573 0.76566-0.97209
   7  -1  -3 10.3242 112.483   8 0.73296-0.23746-0.24070 0.15660 0.76540-0.98651
  -7   1   3 59.4237 100.964   7-0.75583 0.26167 0.12434-0.04112-0.77625 0.99662
  -7  -1   3 -131.68 85.6031   7-0.77942 0.28512 0.12929-0.21327-0.75150 0.97192
   7  -1  -3 -195.28 118.132   4-0.24915 0.74408 0.11083-0.19395-0.99210 0.77052
  -7  -1   3 -34.025 64.5044   9 0.25508-0.74927 0.07585-0.15921 0.99498-0.77495
  11  -2  -3 179.293 252.026   8 0.70631 0.10761-0.22863 0.06078 0.79334-0.95313
 -11  -2   3 352.321 218.210   7-0.76368-0.04930 0.12598-0.29398-0.76826 0.92735
  11   2  -3 106.260 118.706   5 0.68846 0.12553 0.30081-0.13338 0.78002-0.94052
  10  -2  -3 304.829 239.311   8 0.70177 0.03258-0.22660 0.05879 0.79780-0.97286
 -10   2   3 228.942 153.640   7-0.72608-0.00686 0.11817 0.04834-0.80441 0.97882
 -10  -2   3 382.328 175.441   7-0.76300 0.02967 0.12583-0.29374-0.76897 0.94340
  10   2  -3 503.131 237.382   5 0.68315 0.05126 0.29707-0.12970 0.78604-0.96182
   9  -2  -3 654.581 256.866   8 0.70230-0.04752-0.22683 0.05906 0.79730-0.98766
  -9   2   3 326.695 162.732   7-0.72859 0.07528 0.11869 0.04791-0.80215 0.99187
  -9  -2   3 293.938 127.763   7-0.76841 0.11473 0.12696-0.29478-0.76334 0.95311
   9   2  -3 403.245 202.682   5 0.68238-0.02757 0.29654-0.12922 0.78689-0.97798
   8  -2  -3 1947.38 415.092   8 0.70901-0.13383-0.22984 0.06213 0.79065-0.99635
  -8   2   3 1508.98 294.372   7-0.73801 0.16431 0.12064 0.04606-0.79349 0.99852
   8   2  -3 1268.79 329.339   5 0.68716-0.11198 0.29989-0.13263 0.78151-0.98792
   7  -2  -3 145.918 150.921   8 0.72325-0.22771-0.23629 0.06861 0.77593-0.99699
  -7   2   3 217.076 121.372   7-0.75589 0.26180 0.12435 0.04244-0.77619 0.99653
   7  -2  -3 -75.921 121.006   4-0.23228 0.72714 0.05975-0.22646-0.99738 0.77585
  -7  -2   3 311.027 153.261   9 0.23991-0.73408 0.03233-0.19926 0.99828-0.77823
   7   2  -3 -123.29 156.433   5 0.69857-0.20304 0.30796-0.14075 0.76816-0.98991
   6  -2  -3 -216.46 206.781   8 0.74641-0.33054-0.24688 0.07924 0.75005-0.98650
  10  -3  -3 139.673 184.566   8 0.70061 0.03377-0.22608-0.02525 0.79893-0.97395
 -10   3   3 101.868 122.677   7-0.73266-0.00018 0.11953 0.13055-0.79844 0.97284
 -10  -3   3 -43.630 135.055   3-0.63952-0.09267-0.38938 0.13893-0.77345 0.94966
  10   3  -3 227.929 200.706   5 0.67763 0.05682 0.29321-0.04229 0.79213-0.96792
   9  -3  -3 427.382 220.387   8 0.70103-0.04621-0.22626-0.02503 0.79853-0.98885
  -9   3   3 359.625 191.793   7-0.73561 0.08238 0.12014 0.13003-0.79572 0.98543
  -9  -3   3 183.676 152.781   3-0.63665-0.01574-0.38616 0.13573-0.77745 0.96904
   9   3  -3 346.791 212.639   5 0.67654-0.02171 0.29246-0.04158 0.79332-0.98441
   8  -3  -3 -89.010 145.178   8 0.70743-0.13221-0.22913-0.02214 0.79223-0.99789
  -8   3   3 214.541 119.381   7-0.74535 0.17174 0.12216 0.12810-0.78653 0.99153
  -8  -3   3 60.0115 75.6156   3-0.63804 0.06544-0.38771 0.13732-0.77552 0.98244
   8   3  -3 82.9290 141.966   5 0.68073-0.10553 0.29538-0.04454 0.78873-0.99515
   7  -3  -3 1109.54 325.452   8 0.72105-0.22545-0.23529-0.01596 0.77827-0.99929
  -7   3   3 792.939 213.232   7-0.76336 0.26934 0.12591 0.12444-0.76860 0.98891
   7  -3  -3 63.9258 273.053   4-0.21551 0.71028 0.01072-0.26104-0.99967 0.77817
  -7  -3   3 1143.94 281.092   9 0.22414-0.71828-0.01150-0.23898 0.99941-0.77936
   7   3  -3 869.298 275.585   5 0.69120-0.19567 0.30274-0.05194 0.77686-0.99863
   6  -3  -3 -119.20 85.3377   8 0.74320-0.32727-0.24540-0.00582 0.75379-0.99022
  -6   3   3 223.752 234.802   1 0.23556-0.64844-0.16835 0.41890 0.98466-0.74856
   6  -3  -3 354.453 1370.99   4-0.25604 0.67115 0.13228-0.38281-0.98898 0.75212
  10  -4  -3 163.635 197.495   8 0.70504 0.02938-0.22806-0.10677 0.79460-0.96960
 -10   4   3 361.171 198.325   7-0.74494 0.01220 0.12207 0.21156-0.78692 0.96131
 -10  -4   3 551.829 224.849   3-0.63455-0.09774-0.38382 0.04971-0.78031 0.95659
  10   4  -3 183.331 154.088   5 0.67760 0.05688 0.29319 0.04130 0.79217-0.96797
   9  -4  -3 -82.694 143.029   8 0.70574-0.05088-0.22837-0.10644 0.79391-0.98422
  -9   4   3 80.5030 142.402   7-0.74870 0.09556 0.12285 0.21087-0.78329 0.97297
  -9  -4   3 158.383 103.701   3-0.63156-0.02091-0.38049 0.04641-0.78436 0.97601
   9   4  -3 -43.772 107.339   5 0.67656-0.02170 0.29247 0.04200 0.79330-0.98442
   8  -4  -3 614.291 269.724   8 0.71221-0.13694-0.23129-0.10352 0.78741-0.99306
  -8   4   3 364.715 179.692   7-0.75914 0.18559 0.12504 0.20878-0.77291 0.97789
   8  -4  -3 116.428 211.746   4-0.15834 0.73266-0.14511-0.18859-0.98883 0.78268
  -8  -4   3 457.555 222.796   9 0.16558-0.73926-0.16349-0.17052 0.98629-0.78149
  -8  -4   3 392.872 181.675   3-0.63259 0.05991-0.38165 0.04762-0.78296 0.98995
   8   4  -3 434.910 188.528   5 0.68054-0.10533 0.29525 0.03919 0.78893-0.99538
   7  -4  -3 339.395 234.632   8 0.72561-0.22997-0.23736-0.09744 0.77340-0.99443
  -7   4   3 -63.401 66.8358   7-0.77761 0.28365 0.12891 0.20499-0.75348 0.97377
  -7   4   3 -124.77 115.917   1 0.20313-0.69565 0.04315 0.29121 0.99899-0.77829
   7  -4  -3 -95.884 187.948   4-0.19860 0.69329-0.03707-0.29686-0.99928 0.77781
  -7  -4   3 13.0797 94.8788   9 0.20782-0.70191-0.05551-0.27853 0.99835-0.77829
  -7  -4   3 26.0117 81.8253   3-0.63833 0.14542-0.38805 0.05409-0.77511 0.99740
   7   4  -3 186.867 151.333   5 0.69048-0.19494 0.30223 0.03219 0.77769-0.99949
   6  -4  -3 -276.09 247.276   8 0.74713-0.33115-0.24720-0.08759 0.74921-0.98563
  -6   4   3 -237.06 245.462   1 0.22344-0.63646-0.08164 0.41574 0.99616-0.76003
   6  -4  -3 44.9001 1106.36   4-0.23416 0.64918 0.06535-0.39948-0.99695 0.76013
 -10   5   3 420.979 224.353   7-0.76247 0.02980 0.12572 0.29145-0.76952 0.94389
   9  -5  -3 408.355 228.131   8 0.71577-0.06086-0.23290-0.18544 0.78377-0.97409
  -9   5   3 301.981 172.221   7-0.76731 0.11425 0.12674 0.29051-0.76449 0.95416
   9   5  -3 135.981 121.676   2 0.57842 0.07578 0.46039-0.04120 0.77201-0.96308
  -9  -5   3 409.600 209.308   3-0.63131-0.02122-0.38023-0.03750-0.78468 0.97635
   9   5  -3 352.092 237.802   5 0.68168-0.02679 0.29604 0.12203 0.78768-0.97883
   8  -5  -3 275.565 271.516   8 0.72263-0.14732-0.23601-0.18234 0.77659-0.98226
  -8   5   3 -171.69 92.9127   7-0.77872 0.20524 0.12914 0.28820-0.75227 0.95724
   8  -5  -3 -50.605 194.514   4-0.14602 0.72026-0.17674-0.24056-0.98321 0.77708
   8   5  -3 247.176 134.898   2 0.57693-0.00242 0.45787-0.03863 0.77466-0.98104
  -8  -5   3 283.919 220.641   9 0.15378-0.72743-0.19231-0.22527 0.98076-0.77595
  -8  -5   3 209.322 169.267   3-0.63229 0.05955-0.38130-0.03636-0.78338 0.99040
   8   5  -3 185.837 177.764   5 0.68576-0.11053 0.29891 0.11916 0.78310-0.98958
   7  -5  -3 1049.89 420.814   8 0.73613-0.24044-0.24215-0.17621 0.76186-0.98290
  -7   5   3 39.1258 178.900   1 0.19290-0.68552 0.09932 0.31857 0.99502-0.77433
   7  -5  -3 297.020 470.323   4-0.18143 0.67602-0.08409-0.33343-0.99638 0.77493
   7   5  -3 223.717 143.858   2 0.57875-0.08390 0.46097-0.04166 0.77141-0.99313
  -7  -5   3 400.928 195.499   9 0.19093-0.68499-0.09964-0.31797 0.99506-0.77498
  -7  -5   3 93.9181 105.166   3-0.63764 0.14467-0.38727-0.03030-0.77607 0.99839
   7   5  -3 239.212 166.593   5 0.69548-0.19993 0.30577 0.11229 0.77184-0.99367
   9  -6  -3 226.470 337.057   8 0.73048-0.07552-0.23957-0.26228 0.76813-0.95850
   9   6  -3 170.798 151.327   2 0.57844 0.07567 0.46043 0.04237 0.77197-0.96309
  -9  -6   3 245.323 170.232   3-0.63516-0.01742-0.38450-0.11687-0.77949 0.97114
   9   6  -3 274.184 167.055   5 0.69118-0.03625 0.30272 0.19899 0.77689-0.96809
   8  -6  -3 -78.903 122.771   8 0.73794-0.16258-0.24298-0.25890 0.75981-0.96553
   8  -6  -3 88.7208 366.540   4-0.13230 0.70646-0.21120-0.28969-0.97574 0.76962
   8   6  -3 451.052 219.983   2 0.57706-0.00260 0.45809 0.04477 0.77443-0.98086
  -8  -6   3 881.343 360.012   9 0.14031-0.71393-0.22455-0.27660 0.97337-0.76855
  -8  -6   3 816.234 271.893   3-0.63625 0.06345-0.38571-0.11557-0.77800 0.98501
   8   6  -3 434.676 219.208   5 0.69557-0.12032 0.30584 0.19588 0.77173-0.97826
   7  -6  -3 -42.652 597.456   4-0.16392 0.65842-0.13059-0.37053-0.99102 0.76959
   7   6  -3 218.419 125.927   2 0.57876-0.08395 0.46097 0.04195 0.77140-0.99316
  -7  -6   3 561.709 256.093   9 0.17349-0.66752-0.14386-0.35731 0.98950-0.76941
  -7   6   3 614.251 346.753   1 0.18257-0.67531 0.15246 0.34896 0.98823-0.76756
  -7  -6   3 280.259 83.3665   3-0.64145 0.14843-0.39154-0.10964-0.77074 0.99306
  -6   6   3 310.810 321.316   1 0.19990-0.61315 0.06135 0.43987 0.99806-0.76193
   6  -6  -3 641.438 1507.91   4-0.19228 0.60708-0.05456-0.44676-0.99849 0.76173
  -5   6   3 301.468 304.976   1 0.21381-0.54759-0.01985 0.52092 0.99957-0.74801
   5  -6  -3 216.976 651.959   4-0.21741 0.55249 0.01618-0.51769-0.99955 0.74742
   8  -7  -3 -301.24 559.913   4-0.11745 0.69152-0.24764-0.33685-0.96625 0.76013
  -7   7   3 -16.847 270.225   1 0.17203-0.66490 0.20360 0.38134 0.97884-0.75820
   7  -7  -3 488.572 811.938   4-0.14602 0.64041-0.17672-0.40798-0.98322 0.76180
   6  -7  -3 246.397 853.490   4-0.17169 0.58638-0.11015-0.47477-0.99368 0.75693
  -6   7   3 352.023 333.307   1 0.18818-0.60156 0.12397 0.46080 0.99224-0.75612
  -5   7   3 -72.971 178.777   1 0.20142-0.53533 0.05280 0.53184 0.99854-0.74699
   5  -7  -3 -178.18 531.544   4-0.19449 0.52945-0.04846-0.53664-0.99881 0.74671
   7  -8  -3 264.089 6980.42   4-0.12768 0.62196-0.22262-0.44568-0.97294 0.75152
   6  -8  -3 10.9287 880.786   4-0.15108 0.56565-0.16383-0.50466-0.98565 0.74890
  -6   8   3 -442.46 529.772   1 0.17635-0.58986 0.18300 0.48532 0.98297-0.74688
   0   0   0    0.00    0.00
   6  -5  -3 823057. 20400.8   4-0.21302 0.62793 0.00359-0.42132-0.99977 0.76299
  -1  -2  -1 -16.416 17.9537   9-0.05254-0.04796-0.61865 0.45149 0.75941-0.88374
   0   5   2 8.58037 44.7107   1 0.24449-0.20205-0.24192 0.65958 0.96856-0.74952
   0  -4  -1 527.038 154.034   4-0.25805 0.23664 0.13862-0.47319-0.98796 0.87840
   0  -4  -1 301.873 118.189   9 0.02762-0.04846-0.46935 0.13504 0.87159-0.98055
   0  -4  -1 613.566 242.777   7-0.63687 0.61568 0.10004-0.43464-0.87270 0.76350
   0   4   1 490.688 160.389   6-0.34769 0.36902 0.46814-0.13448-0.86422 0.97349
   0  -4   1 410.154 184.424   9 0.27556-0.25447 0.13706-0.47122 0.98666-0.87754
   0   4  -1 495.979 162.319   6-0.16059 0.13930-0.13921 0.47403-0.98975 0.87982
   0   4  -1 87.2914 62.3052   2 0.56860-0.58944 0.44388-0.10857 0.78894-0.89889
   0   4   1 420.076 147.831   1 0.23170-0.21062-0.13943 0.47360 0.98938-0.87988
  -4   2   1 55.2713 40.2263   1 0.19311-0.48999 0.09818 0.06924 0.99513-0.94702
  -4  -2   1 -34.964 36.6434   1 0.23894-0.53535-0.19503 0.02826 0.97951-0.93138
  -4  -2   1 38.1355 55.0345   7-0.55975 0.26217 0.08470-0.25221-0.91661 0.96459
   4  -2  -1 -131.71 81.4938   5 0.62627-0.32817 0.25803-0.42504 0.84235-0.89084
   4   2  -1 -241.45 98.7088   8 0.59828-0.30038-0.18120 0.34815 0.88107-0.92931
   4  -2  -1 -33.041 71.2001   4-0.18331 0.48093-0.07899-0.08779-0.99681 0.94859
  -4  -2   1 -101.91 85.3038   9 0.19164-0.48895-0.09779-0.06921 0.99524-0.94736
  -4   2   1 -280.38 119.426   7-0.48846 0.19118 0.07074 0.09613-0.94745 0.99534
   4   2  -1 -140.99 95.9181   2 0.41389-0.11617 0.21486-0.04737 0.94764-0.99590
  -4   2   1 18.0734 62.5765   6-0.32366 0.02653 0.36738-0.20068-0.91802 0.96619
   4  -2  -1 -231.67 118.684   8 0.46217-0.16416-0.12387-0.04349 0.95063-0.99863
   4  -2   0 -164.08 97.5887   8 0.19455 0.12383-0.01634-0.15079 0.99987-0.93858
  -4  -2   0 -145.19 42.6923   4-0.22780-0.09116 0.04647-0.21405-0.99827 0.93695
  -4   2   0 -47.396 80.4329   7-0.19510-0.12321 0.01491 0.15187-0.99989 0.93862
   4  -2   0 -54.653 28.9762   9 0.27643 0.04191 0.13973-0.30689 0.98619-0.92488
  -4  -2   0 -0.9880 68.5288   7-0.21288-0.10585 0.01823-0.18581-0.99962 0.93834
   4  -2   0 -81.579 85.7492   4-0.03051 0.34891-0.44498 0.27842-0.88401 0.94517
   4   2   0 74.1446 48.4738   8 0.21598 0.10233-0.02474 0.19164 0.99941-0.93828
   4   2   0 -95.940 52.9092   1 0.21401 0.10454-0.02112 0.18809 0.99954-0.93830
  -4  -2   0 -43.226 72.7755   9 0.03532-0.35360-0.45393 0.28687 0.88067-0.94179
  -4   2   0 -32.464 70.1396   6-0.20829-0.11044-0.00974 0.17710-0.99982 0.93840
   1   7   2 63.4240 127.105   1 0.22006-0.09819-0.05932 0.64424 0.99785-0.76344
  -1  -7  -2 123.398 112.176   4-0.23246 0.10997 0.06028-0.64584-0.99734 0.76278
  -1  -7  -2 -37.723 116.544   9-0.05323-0.06808-0.61985 0.03481 0.75830-0.99156
   2  -8   1 255.381 141.088   4-0.00115 0.18060-0.50579-0.16225-0.84658 0.98676
  -2  -8  -1 54.5703 100.281   3-0.36729 0.18607-0.11921-0.54988-0.97583 0.83502
  -2  -8  -1 173.451 112.729   4-0.14835-0.03293-0.17081-0.49815-0.98436 0.84415
   2   8   1 295.819 193.348   1 0.18058-0.00058 0.16233 0.50632 0.98664-0.84655
  -2   8  -1 109.266 93.2570   6-0.25961 0.07902 0.14371 0.52551-0.98711 0.84630
   2   8   1 96.6857 103.698   2 0.34538-0.16514 0.12465 0.54321 0.97918-0.83977
   2  -8   1 71.6798 81.9993   9 0.16405 0.01629-0.16726-0.50112 0.98563-0.84574
   2   8   1 203.477 135.587   6-0.37045 0.55102 0.58298 0.08462-0.78102 0.92066
  -2  -8  -1 221.835 150.020   9 0.00822-0.18811-0.50730-0.16120 0.84741-0.98687
   1   6   2 -84.099 77.0185   1 0.23407-0.11210-0.15704 0.65837 0.98661-0.75219
  -1  -6  -2 97.1315 73.6533   4-0.26484 0.14246 0.16023-0.66224-0.98412 0.74951
  -8   1   2 86.5851 67.3411   7-0.61153 0.01671 0.09497-0.01195-0.88848 0.98434
  -8   1   2 -22.122 91.5800   3-0.63763 0.04372-0.38727 0.47109-0.77608 0.87278
   8  -1  -2 176.509 134.768   5 0.64050-0.04462 0.26765-0.35089 0.82952-0.92634
   8  -1  -2 47.4284 78.3009   8 0.59839-0.00260-0.18125 0.09716 0.88100-0.97722
;
_shelx_hkl_checksum              60628
loop_
_space_group_symop_operation_xyz
'x, y, z'
'-x+1/2, y+1/2, -z'
'-x, -y, -z'
'x-1/2, -y-1/2, z'
loop_
_atom_site_label
_atom_site_type_symbol
_atom_site_fract_x
_atom_site_fract_y
_atom_site_fract_z
_atom_site_U_iso_or_equiv
_atom_site_adp_type
_atom_site_occupancy
_atom_site_site_symmetry_order
_atom_site_calc_flag
_atom_site_refinement_flags_posn
_atom_site_refinement_flags_adp
_atom_site_refinement_flags_occupancy
_atom_site_disorder_assembly
_atom_site_disorder_group
C1 C 0.6725(13) 0.2813(10) 0.798(5) 0.022(8) Uani 1 1 d . U . . .
H1D H 0.572946 0.234954 0.771747 0.027 Uiso 1 1 calc R U . . .
H1E H 0.699144 0.308972 0.942586 0.027 Uiso 1 1 calc R U . . .
C2 C 0.7865(14) 0.1673(10) 0.739(5) 0.020(7) Uani 1 1 d . U . . .
N1 N 0.6775(11) 0.4243(8) 0.664(4) 0.022(8) Uani 1 1 d . U . . .
H1A H 0.642651 0.399245 0.533198 0.026 Uiso 1 1 calc R U . . .
H1B H 0.771825 0.457958 0.678244 0.026 Uiso 1 1 calc R U . . .
H1C H 0.620924 0.500223 0.702699 0.026 Uiso 1 1 calc R U . . .
O1 O 0.5375(11) 0.8645(9) 0.988(4) 0.041(6) Uani 1 1 d . U . . .
H1 H 0.538018 0.961156 0.989071 0.050 Uiso 0.5 1 calc DR U P . .
O2 O 0.4615(9) 0.6452(7) 0.735(3) 0.037(6) Uani 1 1 d . U . . .
O3 O 0.4451(9) 0.9260(8) 0.628(3) 0.040(7) Uani 1 1 d . U . . .
H3 H 0.492167 0.947840 0.537822 0.048 Uiso 0.5 1 calc DR U P . .
O4 O 0.8511(9) 0.1792(8) 0.601(3) 0.024(8) Uani 1 1 d . U . . .
O5 O 0.8073(10) 0.0518(8) 0.888(3) 0.026(8) Uani 1 1 d . U . . .
H5 H 0.860891 -0.017937 0.855229 0.031 Uiso 1 1 calc R U . . .
P1 P 0.5311(4) 0.8068(3) 0.7717(16) 0.036(5) Uani 1 1 d . U . . .
H1P H 0.633777 0.801934 0.745627 0.043 Uiso 1 1 calc R U . . .
loop_
_atom_site_aniso_label
_atom_site_aniso_U_11
_atom_site_aniso_U_22
_atom_site_aniso_U_33
_atom_site_aniso_U_23
_atom_site_aniso_U_13
_atom_site_aniso_U_12
C1 0.028(4) 0.011(3) 0.02(2) 0.011(6) -0.005(7) 0.001(3)
C2 0.024(4) 0.009(3) 0.02(2) 0.010(5) -0.002(7) -0.001(3)
N1 0.031(5) 0.012(3) 0.02(2) 0.012(7) 0.002(9) 0.005(3)
O1 0.035(5) 0.013(4) 0.07(2) 0.007(7) 0.007(8) 0.010(3)
O2 0.025(4) 0.010(3) 0.072(19) -0.004(5) 0.004(7) -0.006(3)
O3 0.026(4) 0.018(3) 0.07(2) 0.002(6) 0.002(7) -0.002(3)
O4 0.029(5) 0.017(3) 0.02(2) 0.004(6) 0.003(8) 0.002(3)
O5 0.039(4) 0.014(3) 0.02(2) 0.005(6) 0.003(8) 0.005(3)
P1 0.0196(17) 0.0122(15) 0.075(17) 0.000(3) 0.008(4) 0.0004(12)
loop_
_atom_type_symbol
_atom_type_description
_atom_type_scat_dispersion_real
_atom_type_scat_dispersion_imag
_atom_type_scat_source
C C 0.0033 0.0016 'International Tables Vol C Tables 4.2.6.8 and 6.1.1.4'
H H 0.0000 0.0000 'International Tables Vol C Tables 4.2.6.8 and 6.1.1.4'
N N 0.0061 0.0033 'International Tables Vol C Tables 4.2.6.8 and 6.1.1.4'
O O 0.0106 0.0060 'International Tables Vol C Tables 4.2.6.8 and 6.1.1.4'
P P 0.1023 0.0942 'International Tables Vol C Tables 4.2.6.8 and 6.1.1.4'
loop_
_geom_angle_atom_site_label_1
_geom_angle_atom_site_label_2
_geom_angle_atom_site_label_3
_geom_angle
_geom_angle_site_symmetry_1
_geom_angle_site_symmetry_3
_geom_angle_publ_flag
N1 C1 C2 105.4(17) . . ?
N1 C1 H1D 110.7 . . ?
C2 C1 H1D 110.7 . . ?
N1 C1 H1E 110.7 . . ?
C2 C1 H1E 110.7 . . ?
H1D C1 H1E 108.8 . . ?
O4 C2 O5 126.4(11) . . ?
O4 C2 C1 127.3(18) . . ?
O5 C2 C1 106(2) . . ?
C1 N1 H1A 109.5 . . ?
C1 N1 H1B 109.5 . . ?
H1A N1 H1B 109.5 . . ?
C1 N1 H1C 109.5 . . ?
H1A N1 H1C 109.5 . . ?
H1B N1 H1C 109.5 . . ?
P1 O1 H1 109.5 . . ?
P1 O3 H3 109.5 . . ?
C2 O5 H5 109.5 . . ?
O3 P1 O2 111.1(9) . . ?
O3 P1 O1 107.6(8) . . ?
O2 P1 O1 112.9(11) . . ?
O3 P1 H1P 108.4 . . ?
O2 P1 H1P 108.4 . . ?
O1 P1 H1P 108.4 . . ?
loop_
_geom_bond_atom_site_label_1
_geom_bond_atom_site_label_2
_geom_bond_distance
_geom_bond_site_symmetry_2
_geom_bond_publ_flag
C1 N1 1.51(2) . ?
C1 C2 1.52(2) . ?
C1 H1D 0.9700 . ?
C1 H1E 0.9700 . ?
C2 O4 1.18(3) . ?
C2 O5 1.38(3) . ?
N1 H1A 0.8900 . ?
N1 H1B 0.8900 . ?
N1 H1C 0.8900 . ?
O1 P1 1.50(3) . ?
O1 H1 0.8200 . ?
O2 P1 1.510(7) . ?
O3 P1 1.499(14) . ?
O3 H3 0.8200 . ?
O5 H5 0.8200 . ?
P1 H1P 0.9800 . ?
loop_
_geom_hbond_atom_site_label_D
_geom_hbond_atom_site_label_H
_geom_hbond_atom_site_label_A
_geom_hbond_distance_DH
_geom_hbond_distance_HA
_geom_hbond_distance_DA
_geom_hbond_angle_DHA
_geom_hbond_site_symmetry_A
_geom_hbond_publ_flag
N1 H1A O2 0.89 1.88 2.76(3) 170.8 3_666 yes
N1 H1B O3 0.89 1.94 2.789(11) 160.3 4_675 yes
N1 H1C O2 0.89 1.94 2.814(11) 166.4 . yes
O1 H1 O1 0.82 1.65 2.411(16) 153.6 3_677 yes
O3 H3 O3 0.82 1.71 2.47(2) 153.5 3_676 yes
O5 H5 O2 0.82 1.71 2.512(14) 167.4 4_665 yes
loop_
_geom_torsion_atom_site_label_1
_geom_torsion_atom_site_label_2
_geom_torsion_atom_site_label_3
_geom_torsion_atom_site_label_4
_geom_torsion
_geom_torsion_site_symmetry_1
_geom_torsion_site_symmetry_2
_geom_torsion_site_symmetry_3
_geom_torsion_site_symmetry_4
_geom_torsion_publ_flag
N1 C1 C2 O4 -9(3) . . . . ?
N1 C1 C2 O5 167.4(14) . . . . ?

_cod_database_fobs_code 2109043
