#------------------------------------------------------------------------------
#$Date: 2022-09-02 04:49:51 +0300 (Fri, 02 Sep 2022) $
#$Revision: 277573 $
#$URL: file:///home/coder/svn-repositories/cod/cif/2/10/90/2109032.cif $
#------------------------------------------------------------------------------
#
# This file is available in the Crystallography Open Database (COD),
# http://www.crystallography.net/. The original data for this entry
# were provided by IUCr Journals, http://journals.iucr.org/.
#
# The file may be used within the scientific community so long as
# proper attribution is given to the journal article from which the
# data were obtained.
#
data_2109032
loop_
_publ_author_name
'Bogdanov, Nikita E.'
'Korabel'nikov, Dmitry V.'
'Fedorov, Igor A.'
'Zakharov, Boris A.'
'Boldyreva, Elena V.'
_publ_section_title
;
 The effect of hydrostatic compression on the crystal structure of
 glycinium phosphite
;
_journal_issue                   5
_journal_name_full               'Acta Crystallographica Section B'
_journal_page_first
;
;
_journal_paper_doi               10.1107/S2052520622008289
_journal_volume                  78
_journal_year                    2022
_chemical_formula_moiety         'C2 H6 N O2, H2 O3 P'
_chemical_formula_sum            'C2 H8 N O5 P'
_chemical_formula_weight         157.06
_space_group_crystal_system      monoclinic
_space_group_IT_number           14
_space_group_name_Hall           '-P 2yab'
_space_group_name_H-M_alt        'P 1 21/a 1'
_atom_sites_solution_hydrogens   geom
_atom_sites_solution_primary     direct
_atom_sites_solution_secondary   difmap
_audit_creation_method           SHELXL-2018/3
_cell_angle_alpha                90
_cell_angle_beta                 100.35(3)
_cell_angle_gamma                90
_cell_formula_units_Z            4
_cell_length_a                   9.5551(9)
_cell_length_b                   8.5010(5)
_cell_length_c                   7.182(6)
_cell_measurement_pressure       1210000
_cell_measurement_reflns_used    844
_cell_measurement_temperature    293(2)
_cell_measurement_theta_max      26.5810
_cell_measurement_theta_min      3.2170
_cell_volume                     573.9(5)
_computing_cell_refinement       'CrysAlisPro 1.171.40.53 (Rigaku OD, 2019)'
_computing_data_collection       'CrysAlisPro 1.171.40.53 (Rigaku OD, 2019)'
_computing_data_reduction        'CrysAlisPro 1.171.40.53 (Rigaku OD, 2019)'
_computing_structure_refinement  'SHELXL-2018/3 (Sheldrick, 2018)'
_diffrn_ambient_pressure         1210000
_diffrn_ambient_temperature      293(2)
_diffrn_detector                 'CCD plate'
_diffrn_detector_area_resol_mean 10.3457
_diffrn_detector_type            Ruby
_diffrn_measured_fraction_theta_full 0.361
_diffrn_measured_fraction_theta_max 0.322
_diffrn_measurement_device       'four-circle diffractometer'
_diffrn_measurement_device_type  'Xcalibur, Ruby, Gemini ultra'
_diffrn_radiation_monochromator  graphite
_diffrn_radiation_probe          x-ray
_diffrn_radiation_type           'Mo K\a'
_diffrn_radiation_wavelength     0.71073
_diffrn_reflns_av_R_equivalents  0.0909
_diffrn_reflns_av_unetI/netI     0.0696
_diffrn_reflns_Laue_measured_fraction_full 0.361
_diffrn_reflns_Laue_measured_fraction_max 0.322
_diffrn_reflns_limit_h_max       12
_diffrn_reflns_limit_h_min       -12
_diffrn_reflns_limit_k_max       11
_diffrn_reflns_limit_k_min       -11
_diffrn_reflns_limit_l_max       3
_diffrn_reflns_limit_l_min       -3
_diffrn_reflns_number            3002
_diffrn_reflns_point_group_measured_fraction_full 0.361
_diffrn_reflns_point_group_measured_fraction_max 0.322
_diffrn_reflns_theta_full        25.242
_diffrn_reflns_theta_max         28.079
_diffrn_reflns_theta_min         3.231
_diffrn_source                   'fine-focus sealed X-ray tube'
_diffrn_source_type              'Enhance (Mo) X-ray Source'
_exptl_absorpt_coefficient_mu    0.432
_exptl_absorpt_correction_T_max  1.00000
_exptl_absorpt_correction_T_min  0.26485
_exptl_absorpt_correction_type   multi-scan
_exptl_absorpt_process_details
;
CrysAlisPro 1.171.40.53 (Rigaku Oxford Diffraction, 2019)
Empirical absorption correction using spherical harmonics,
 implemented in SCALE3 ABSPACK scaling algorithm.
;
_exptl_crystal_colour            white
_exptl_crystal_density_diffrn    1.818
_exptl_crystal_description       plates
_exptl_crystal_F_000             328
_exptl_crystal_size_max          0.21
_exptl_crystal_size_mid          0.10
_exptl_crystal_size_min          0.05
_refine_diff_density_max         0.293
_refine_diff_density_min         -0.276
_refine_diff_density_rms         0.078
_refine_ls_extinction_method     none
_refine_ls_goodness_of_fit_ref   1.051
_refine_ls_hydrogen_treatment    constr
_refine_ls_matrix_type           full
_refine_ls_number_parameters     83
_refine_ls_number_reflns         452
_refine_ls_number_restraints     8
_refine_ls_restrained_S_all      1.042
_refine_ls_R_factor_all          0.0972
_refine_ls_R_factor_gt           0.0576
_refine_ls_shift/su_max          0.000
_refine_ls_shift/su_mean         0.000
_refine_ls_structure_factor_coef Fsqd
_refine_ls_weighting_details
'w=1/[\s^2^(Fo^2^)+(0.0711P)^2^+1.2735P] where P=(Fo^2^+2Fc^2^)/3'
_refine_ls_weighting_scheme      calc
_refine_ls_wR_factor_gt          0.1291
_refine_ls_wR_factor_ref         0.1568
_reflns_Friedel_coverage         0.000
_reflns_number_gt                317
_reflns_number_total             452
_reflns_threshold_expression     'I > 2\s(I)'
_cod_data_source_file            xk5096sup1.cif
_cod_data_source_block           1.21
_cod_original_sg_symbol_H-M      'P 21/a'
_cod_database_code               2109032
_shelx_shelxl_version_number     2018/3
_shelx_space_group_comment
;
The symmetry employed for this shelxl refinement is uniquely defined
by the following loop, which should always be used as a source of
symmetry information in preference to the above space-group names.
They are only intended as comments.
;
_oxdiff_exptl_absorpt_empirical_full_min 0.620
_oxdiff_exptl_absorpt_empirical_full_max 2.376
_oxdiff_exptl_absorpt_empirical_details
;
Empirical correction (ABSPACK) includes:
- Absorption correction using spherical harmonics
- Frame scaling
;
_shelx_res_file
;
TITL GPI_1 in P2(1)/c
    1.21.res
    created by SHELXL-2018/3 at 15:46:21 on 15-Aug-2022
REM  transformed to space group : P21/a:b3
REM P2(1)/c (#14 in standard setting)
CELL   0.71073  9.5551  8.5010  7.1822   90.000  100.351   90.000
ZERR   4        0.0009  0.0005  0.0062    0.000    0.030    0.000
LATT    1
SYMM   1/2-X,1/2+Y,-Z
SFAC C H N O P
UNIT 8 32 4 20 4
LIST 4 ! automatically inserted. Change 6 to 4 for CHECKCIF!!
PLAN 30
FMAP 2
L.S. 20
BOND
BOND $H
CONF
ACTA
EQIV $1 1-X, 1-Y,1-Z
EQIV $2 1/2+X, 3/2-Y,Z
EQIV $3 1-X, 2-Y, 2-Z
EQIV $4 1-X, 2-Y, 1-Z
EQIV $5 1/2+X, 1/2-Y, Z
HTAB N1 O2_$1
HTAB N1 O3_$2
HTAB N1 O2
HTAB O1 O1_$3
HTAB O3 O3_$4
HTAB O5 O2_$5
DFIX 1.66  H1 O1_$3
DFIX 1.70  H3 O3_$4
SIMU C1 C2
WGHT    0.071100    1.273500
FVAR       1.71199
C1    1    0.694907    0.299756    0.788094    11.00000    0.02682    0.02720 =
         0.03786    0.00618    0.00408    0.00479
AFIX  23
H1D   2    0.604228    0.248044    0.786671    11.00000   -1.20000
H1E   2    0.726733    0.342554    0.913766    11.00000   -1.20000
AFIX   0
C2    1    0.802061    0.181209    0.744314    11.00000    0.02089    0.01464 =
         0.07900    0.00300    0.00998   -0.00313
N1    3    0.676830    0.427316    0.649877    11.00000    0.01966    0.01824 =
         0.04152    0.00084   -0.00035    0.00359
AFIX 137
H1A   2    0.636967    0.389951    0.537014    11.00000   -1.20000
H1B   2    0.761346    0.468546    0.642884    11.00000   -1.20000
H1C   2    0.621152    0.501248    0.685437    11.00000   -1.20000
AFIX   0
O1    4    0.495069    0.862393    0.961557    11.00000    0.07547    0.02326 =
         0.08534   -0.00945    0.04222   -0.00050
AFIX  81
H1    2    0.527801    0.951027    0.983309    10.50000   -1.20000
AFIX   0
O2    4    0.465132    0.644626    0.724930    11.00000    0.02895    0.01921 =
         0.05605   -0.00926    0.00838   -0.00667
O3    4    0.439390    0.924235    0.610951    11.00000    0.03020    0.03081 =
         0.07511    0.01441    0.01561    0.00975
AFIX  81
H3    2    0.498702    0.967298    0.558708    10.50000   -1.20000
AFIX   0
O4    4    0.862414    0.196352    0.609166    11.00000    0.03337    0.02489 =
         0.04219    0.00188    0.01682    0.00350
O5    4    0.816170    0.062693    0.860132    11.00000    0.03872    0.02245 =
         0.04900    0.00829    0.01394    0.00893
AFIX  81
H5    2    0.875847    0.001758    0.832764    11.00000   -1.20000
AFIX   0
P1    5    0.513082    0.810975    0.758965    11.00000    0.02174    0.01489 =
         0.01301   -0.00090    0.00014   -0.00215
AFIX  13
H1P   2    0.614958    0.814264    0.754568    11.00000   -1.20000
AFIX   0
HKLF 4




REM  GPI_1 in P2(1)/c
REM wR2 = 0.1568, GooF = S = 1.051, Restrained GooF = 1.042 for all data
REM R1 = 0.0576 for 317 Fo > 4sig(Fo) and 0.0972 for all 452 data
REM 83 parameters refined using 8 restraints

END

WGHT      0.0713      1.2826

REM Highest difference peak  0.293,  deepest hole -0.276,  1-sigma level  0.078
Q1    1   0.9187  0.2520  0.7466  11.00000  0.05    0.29
Q2    1   0.6561  0.7561  0.7896  11.00000  0.05    0.29
Q3    1   0.5742  0.6308  0.9009  11.00000  0.05    0.24
Q4    1   0.8791  0.1765  0.5004  11.00000  0.05    0.23
Q5    1   0.4288  0.6257  0.8289  11.00000  0.05    0.23
Q6    1   0.9775  0.1486  0.6684  11.00000  0.05    0.22
Q7    1   0.8329  0.3166  1.0096  11.00000  0.05    0.22
Q8    1   0.8841  0.3258  0.4777  11.00000  0.05    0.21
Q9    1   0.8952  0.3212  0.5219  11.00000  0.05    0.21
Q10   1   0.5948  0.5815  0.7267  11.00000  0.05    0.21
Q11   1   0.7472  0.2492  0.6945  11.00000  0.05    0.21
Q12   1   0.6021  0.5922  0.6782  11.00000  0.05    0.21
Q13   1   0.3745  0.8059  0.4563  11.00000  0.05    0.21
Q14   1   0.4597  1.0283  0.6758  11.00000  0.05    0.20
Q15   1   0.5367  0.3256  0.5254  11.00000  0.05    0.20
Q16   1   0.7046  0.0780  0.7128  11.00000  0.05    0.20
Q17   1   0.6825  0.8184  0.7090  11.00000  0.05    0.20
Q18   1   0.3568  0.9317  0.4179  11.00000  0.05    0.19
Q19   1   0.6563  0.0743  0.6286  11.00000  0.05    0.19
Q20   1   1.0000  0.0000  1.0000  10.50000  0.05    0.19
Q21   1   0.4652  0.7254  0.6681  11.00000  0.05    0.19
Q22   1   0.6166  0.1281  0.9167  11.00000  0.05    0.19
Q23   1   0.7386  0.1935  1.0967  11.00000  0.05    0.19
Q24   1   0.6846  0.4965  0.4703  11.00000  0.05    0.18
Q25   1   0.4814  0.6118  0.6636  11.00000  0.05    0.18
Q26   1   0.8613  0.3225  0.7829  11.00000  0.05    0.18
Q27   1   0.3659  0.7231  0.7745  11.00000  0.05    0.18
Q28   1   0.9805  0.2490  0.5922  11.00000  0.05    0.18
Q29   1   0.9634  0.2449  0.5387  11.00000  0.05    0.18
Q30   1   0.5658  0.4442  0.8626  11.00000  0.05    0.18
;
_shelx_res_checksum              91228
_shelx_hkl_file
;
   1   0   0 2.28571 4.93374   8 0.03772 0.03772 0.04167-0.04167 0.98896-0.97541
  -1   0   0 1.19025 4.51763   7-0.03775-0.03775-0.01472 0.01473-0.98971 0.97616
  -2   0   0 7065.97 238.069   7-0.07549-0.07551-0.00766 0.00767-0.99446 0.96735
   2   0   0 7775.34 243.081   8 0.07545 0.07544 0.02710-0.02709 0.99412-0.96703
  -2   0   0 8122.44 166.180   4-0.07548-0.07546-0.30619 0.30608-0.94704 0.91997
   2   0   0 8011.46 160.881   9 0.07542 0.07542-0.31927 0.31941 0.94292-0.91579
  -2   0   0 7848.58 162.930   6-0.07553-0.07553-0.30591 0.30588-0.94713 0.92001
  -3   0   0 1.78861 2.12186   6-0.11329-0.11329-0.21307 0.21303-0.97497 0.93429
   3   0   0 4.77445 7.12909   9 0.11313 0.11314-0.23277 0.23300 0.97059-0.92991
  -3   0   0 2.05111 4.16851   4-0.11324-0.11320-0.21335 0.21321-0.97491 0.93428
   3   0   0 12.6122 18.5419   8 0.11318 0.11316 0.01242-0.01243 0.99767-0.95703
  -3   0   0 -2.1076 3.63071   7-0.11323-0.11327-0.00057 0.00058-0.99775 0.95708
  -4   0   0 4995.29 178.912   6-0.15103-0.15102-0.11483 0.11478-0.99297 0.93874
  -4   0   0 5324.88 294.272   7-0.15097-0.15104 0.00655-0.00654-0.99956 0.94532
   4   0   0 5342.40 284.467   8 0.15092 0.15087-0.00234 0.00234 0.99958-0.94539
   4   0   0 5332.43 139.998   1 0.15099 0.15107 0.21826-0.21864 0.97553-0.92119
  -4   0   0 5221.11 184.421   4-0.15101-0.15094-0.11502 0.11487-0.99295 0.93876
  -5   0   0 -13.561 34.6493   7-0.18870-0.18881 0.01370-0.01370-0.99987 0.93206
   5   0   0 -37.176 38.4863   8 0.18865 0.18859-0.01720 0.01719 0.99981-0.93209
  -5   0   0 11.4159 5.20175   6-0.18876-0.18875-0.01048 0.01043-0.99990 0.93212
   5   0   0 -8.5182 12.0905   1 0.18866 0.18881 0.01706-0.01739 0.99981-0.93200
  -6   0   0 9337.64 486.825   7-0.22641-0.22657 0.02090-0.02089-0.99864 0.91727
   6   0   0 9065.40 467.775   8 0.22640 0.22630-0.03216 0.03214 0.99834-0.91708
  -6   0   0 9673.07 286.292   6-0.22648-0.22646 0.10110-0.10115-0.99370 0.91237
   7   0   0 22.4476 35.2563   8 0.26414 0.26401-0.04723 0.04719 0.99511-0.90031
  -7   0   0 39.3339 41.5995   7-0.26413-0.26434 0.02812-0.02813-0.99584 0.90089
   7   0   0 33.4942 22.5689   2 0.26397 0.26390 0.05430-0.05427 0.99474-0.89997
  -8   0   0 51.8784 81.1999   7-0.30184-0.30212 0.03538-0.03539-0.99142 0.88289
  -8   0   0 45.1661 56.6050   3-0.30225-0.30234-0.08589 0.08578-0.98818 0.87960
   8   0   0 -62.937 34.0585   2 0.30169 0.30160 0.10054-0.10048 0.98683-0.87853
   8   0   0 -17.625 45.6965   8 0.30189 0.30171-0.06239 0.06235 0.99006-0.88174
   9   0   0 -28.455 52.6538   8 0.33963 0.33942-0.07766 0.07760 0.98311-0.86126
  -9   0   0 5.18714 43.4750   7-0.33955-0.33990 0.04268-0.04270-0.98533 0.86320
  -9   0   0 -67.144 76.3840   3-0.33999-0.34011-0.11912 0.11900-0.97872 0.85656
  10   0   0 325.331 160.887   8 0.37738 0.37713-0.09304 0.09297 0.97418-0.83881
 -10   0   0 664.074 186.782   7-0.37726-0.37768 0.05001-0.05005-0.97748 0.84175
 -10   0   0 546.726 154.804   3-0.37773-0.37789-0.15287 0.15276-0.96616 0.83043
  11   0   0 47.5141 94.3818   8 0.41514 0.41484-0.10855 0.10846 0.96314-0.81426
 -11   0   0 32.7360 56.9900   7-0.41496-0.41546 0.05740-0.05744-0.96779 0.81846
  11   0   0 20.3911 50.3408   5 0.41492 0.41531 0.13959-0.13990 0.95895-0.80964
  12   0   0 116.331 136.980   8 0.45289 0.45255-0.12418 0.12408 0.94987-0.78748
  12   0   0 5.64615 60.6951   5 0.45262 0.45307 0.16239-0.16275 0.94378-0.78086
   0  -1   0 4.62995 5.26275   9 0.18977-0.18985-0.04171-0.04171 0.99908-0.99906
   0   1   0 -1.2598 2.28661   6-0.20675 0.20678 0.04173 0.04173-0.99875 0.99873
   0   1   0 3.43980 3.17152   4-0.20681 0.20682 0.04176 0.04176-0.99875 0.99873
   0  -1   0 0.75056 2.49783   1 0.19815-0.19811-0.04175-0.04175 0.99896-0.99894
   1   1   0 400.465 35.4883   7 0.13567-0.06015-0.04673 0.13027-0.94919 0.96274
  -1   1   0 363.595 45.1103   8-0.01529-0.06016 0.06201 0.02143 0.97898-0.99255
  -1  -1   0 321.183 42.1366   9 0.12974-0.20525-0.19321 0.10974 0.98007-0.99361
  -1   1   0 394.116 49.4130   4-0.16604 0.09053-0.07427 0.15772-0.99713 0.98356
  -1   1   0 359.776 47.3279   6-0.16598 0.09049-0.07427 0.15774-0.99713 0.98356
  -1  -1   0 377.217 33.4119   6-0.23913 0.16361 0.14043-0.22387-0.98813 0.97460
  -1   1   0 415.918 37.9706   9 0.32485-0.40018 0.36951-0.28616 0.91470-0.92826
  -1  -1   0 405.723 40.8578   1 0.22986-0.30521-0.28349 0.20012 0.95722-0.97073
  -1   1   0 358.920 41.4098   7-0.08951 0.01402-0.00503 0.08857-0.99586 0.98228
   1  -1   0 371.498 33.6950   9 0.26153-0.18619 0.16076-0.24412 0.98317-0.96961
   1   1   0 380.183 34.8908   6-0.29955 0.37508 0.34684-0.26343-0.92822 0.94173
  -1  -1   0 374.231 33.8415   7-0.07545-0.00003-0.00767-0.07585-0.99446 0.98092
   1  -1   0 349.226 43.0506   8 0.10229-0.02683 0.01667-0.10009 0.99681-0.98325
   1   1   0 400.037 36.6331   4-0.29959 0.37520 0.34689-0.26331-0.92819 0.94174
  -1   1   0 372.928 44.2768   1 0.15201-0.22752 0.21335-0.12971 0.97664-0.99024
   1   1   0 348.143 35.6993   1 0.20872-0.13335-0.11289 0.19628 0.99315-0.97964
   1  -1   0 362.021 44.9298   1 0.17702-0.10150 0.08407-0.16769 0.99644-0.98285
   1  -1   0 379.995 42.5681   7 0.04972 0.02579-0.03095-0.05258-0.97312 0.98670
  -1  -1   0 349.364 32.9655   4-0.23912 0.16355 0.14029-0.22384-0.98815 0.97461
  -2  -1   0 274.050 45.1166   9 0.07656-0.22749-0.31673 0.23318 0.94387-0.97098
   2  -1   0 228.286 45.0537   8 0.10677 0.04413 0.01492-0.09834 0.99718-0.97007
   2   1   0 250.093 37.9835   8 0.08575 0.06515 0.02310 0.06033 0.99525-0.96818
  -2   1   0 240.077 42.0933   6-0.15546 0.00444-0.10291 0.18639-0.99439 0.96725
   2   1   0 247.469 29.7092   1 0.22341-0.07265-0.22593 0.30930 0.97293-0.94589
   2  -1   0 287.760 43.0298   1 0.16905-0.01801 0.12724-0.21098 0.99180-0.96463
  -2   1   0 248.595 45.9472   7-0.10025-0.05073-0.00301 0.08656-0.99679 0.96965
   2  -1   0 277.719 46.9665   4-0.07345 0.22447-0.31105 0.22769-0.94527 0.97236
  -2  -1   0 241.565 41.1576   7-0.09653-0.05446-0.00372-0.07980-0.99648 0.96938
  -3  -1   0 18485.9 459.675   7-0.12954-0.09693 0.00250-0.08603-0.99872 0.95806
  -3  -1   0 18826.4 435.432   9 0.02736-0.25370-0.42304 0.33944 0.89598-0.93667
  -3   1   0 18516.8 416.439   6-0.16101-0.06552-0.08785 0.17131-0.99595 0.95525
   3  -1   0 18516.4 491.703   8 0.13063 0.09571 0.00561-0.08903 0.99876-0.95810
   3   1   0 19557.0 251.402   1 0.22859-0.00242-0.27156 0.35492 0.96079-0.92021
  -3   1   0 18842.8 498.083   7-0.12783-0.09867 0.00218 0.08137-0.99863 0.95793
   3  -1   0 19629.2 444.021   4-0.02620 0.25270-0.41986 0.33661-0.89708 0.93766
   3   1   0 18141.6 420.320   8 0.12579 0.10055 0.00750 0.07593 0.99849-0.95787
  -4  -1   0 817.608 111.696   7-0.16505-0.13692 0.00922-0.09275-0.99985 0.94564
  -4  -1   0 739.244 100.357   9-0.01942-0.28235-0.51737 0.43371 0.83827-0.89256
   4  -1   0 868.747 109.587   4 0.01934 0.28265-0.51765 0.43450-0.83788 0.89193
  -4   1   0 763.259 91.1370   6-0.17566-0.12638-0.04746 0.13091-0.99886 0.94460
   4  -1   0 813.675 113.466   8 0.16074 0.14105-0.00620-0.07722 0.99980-0.94560
   4   1   0 812.659 103.805   8 0.16458 0.13722-0.00772 0.09114 0.99986-0.94569
  -4   1   0 884.949 122.502   7-0.16021-0.14178 0.00830 0.07525-0.99977 0.94552
  -5  -1   0 21.5872 28.5306   9-0.06463-0.31256-0.60233 0.51863 0.77123-0.83912
  -5   1   0 408.413 70.2496   6-0.19581-0.18170 0.00978 0.07364-0.99982 0.93201
   5   1   0 490.526 95.0711   8 0.20294 0.17432-0.02285 0.10627 0.99946-0.93175
   5  -1   0 361.630 88.9232   8 0.19365 0.18359-0.01918-0.06426 0.99972-0.93198
   5  -1   0 445.505 38.8764   9 0.18671 0.19039-0.04979-0.03327 0.99874-0.93100
  -5   1   0 449.841 97.5917   7-0.19464-0.18285 0.01484 0.06872-0.99977 0.93195
  -5  -1   0 520.952 98.8502   7-0.20149-0.17597 0.01614-0.09968-0.99962 0.93184
   6  -1   0 308.668 89.8046   8 0.22804 0.22464-0.03282-0.05062 0.99824-0.91696
   6   1   0 271.569 74.3767   8 0.24109 0.21162-0.03801 0.12142 0.99729-0.91605
  -6   1   0 242.906 56.8980   6-0.21948-0.23350 0.07974 0.00366-0.99598 0.91462
  -6   1   0 274.980 89.4995   7-0.23013-0.22287 0.02161 0.06195-0.99843 0.91703
   6  -1   0 286.358 32.9313   9 0.26608 0.18648 0.17461-0.25767 0.98034-0.89912
  -6  -1   0 220.739 70.6295   7-0.23838-0.21457 0.02318-0.10673-0.99792 0.91658
  -7  -1   0 39.8509 43.0621   7-0.27551-0.25292 0.03030-0.11386-0.99468 0.89976
  -7   1   0 258.834 96.1604   7-0.26623-0.26227 0.02853 0.05504-0.99564 0.90066
   7  -1   0 85.7261 28.7951   2 0.28277 0.24513 0.07723-0.16061 0.99129-0.89650
   7   1   0 65.7947 42.4545   2 0.26230 0.26556 0.05229 0.03116 0.99499-0.90025
   7   1   0 35.8948 21.8127   8 0.27915 0.24903-0.05324 0.13663 0.99332-0.89854
  -7   1   0 81.4425 39.1582   6-0.24544-0.28296 0.16050-0.07711-0.98460 0.88970
   7  -1   0 37.0626 40.4828   8 0.26332 0.26481-0.04690-0.03654 0.99520-0.90039
  -8   1   0 297.861 102.503   7-0.30270-0.30129 0.03554 0.04801-0.99130 0.88273
  -8   1   0 268.657 98.2288   3-0.32226-0.28221-0.10345 0.18684-0.98353 0.87497
  -8  -1   0 234.200 94.9692   7-0.31279-0.29112 0.03749-0.12106-0.98983 0.88133
  -8  -1   0 200.485 69.4455   3-0.29682-0.30784-0.08116-0.00248-0.98929 0.88069
   8  -1   0 203.444 101.558   8 0.29918 0.30440-0.06130-0.02216 0.99048-0.88214
   8   1   0 188.828 62.3990   2 0.29475 0.30853 0.09196-0.00848 0.98859-0.88032
   8   1   0 147.521 79.7254   8 0.31713 0.28650-0.06854 0.15192 0.98749-0.87918
   9  -1   0 140.404 92.8439   8 0.33543 0.34361-0.07595-0.00752 0.98398-0.86212
   9   1   0 391.739 115.200   2 0.32813 0.35057 0.13357-0.05008 0.97883-0.85703
  -9  -1   0 393.860 128.198   7-0.35017-0.32923 0.04474-0.12832-0.98330 0.86120
  -9   1   0 165.972 77.2095   7-0.33944-0.34004 0.04266 0.04089-0.98535 0.86318
   9   1   0 253.672 123.042   8 0.35508 0.32402-0.08394 0.16730 0.97970-0.85786
  -9   1   0 244.809 91.2527   3-0.36213-0.31787-0.13885 0.22222-0.97174 0.84962
  -9  -1   0 228.193 95.5672   3-0.33145-0.34876-0.11155 0.02792-0.98112 0.85894
  10   1   0 474.221 183.889   8 0.39300 0.36155-0.09945 0.18279 0.96987-0.83452
 -10  -1   0 301.233 100.787   7-0.38763-0.36726 0.05204-0.13563-0.97500 0.83931
  10  -1   0 466.877 156.505   8 0.37196 0.38254-0.09082 0.00734 0.97559-0.84021
 -10   1   0 614.007 174.896   7-0.37637-0.37861 0.04984 0.03370-0.97768 0.84192
 -10  -1   0 539.587 163.436   3-0.36659-0.38914-0.14284 0.05922-0.97020 0.83444
 -11  -1   0 96.3568 58.0812   3-0.40212-0.42913-0.17498 0.09136-0.95627 0.80693
  11  -1   0 35.2684 69.4786   5 0.43432 0.39587 0.15129-0.23509 0.95148-0.80214
 -11  -1   0 132.521 118.841   7-0.42512-0.40524 0.05939-0.14299-0.96485 0.81555
 -11   1   0 61.3238 51.3399   7-0.41342-0.41704 0.05709 0.02644-0.96822 0.81885
  11  -1   0 18.9958 50.7082   8 0.40869 0.42126-0.10589 0.02239 0.96518-0.81629
  11   1   0 56.4262 34.5943   8 0.43091 0.39912-0.11506 0.19839 0.95788-0.80901
  12   1   0 235.830 157.776   5 0.44208 0.46363 0.15598-0.07286 0.94830-0.78541
  12  -1   0 186.254 167.323   8 0.44558 0.45984-0.12114 0.03762 0.95263-0.79023
  12   1   0 151.149 149.564   8 0.46881 0.43670-0.13081 0.21412 0.94357-0.78119
 -12  -1   0 306.587 186.365   7-0.46266-0.44318 0.06679-0.15041-0.95274 0.78982
   0   2   0 4677.48 170.952   2 0.28783-0.28779 0.08344 0.08343 0.99020-0.99024
   0  -2   0 4675.59 159.761   3-0.29950 0.29956-0.08350-0.08353-0.98875 0.98877
   0   2   0 4602.77 195.005   6-0.22070 0.22077 0.08346 0.08348-0.99562 0.99558
   0   2   0 4852.68 124.741   8-0.07166 0.07167 0.08343 0.08343 0.96489-0.96493
   0  -2   0 4527.66 194.825   9 0.17379-0.17396-0.08341-0.08341 0.99652-0.99648
   0  -2   0 4801.93 121.916   8 0.35392-0.35387-0.08347-0.08346 0.97997-0.97995
  -1   2   0 369.054 40.2342   2 0.46062-0.53600 0.30867-0.14175 0.90132-0.91492
   1  -2   0 337.563 47.6838   8 0.18630-0.11082-0.01628-0.15059 0.99985-0.98626
  -1  -2   0 278.614 51.4129   9 0.14153-0.21712-0.16452-0.00236 0.98575-0.99926
  -1   2   0 282.370 38.9548   7-0.19114 0.11570 0.01417 0.15288-0.99983 0.98624
   1  -2   0 295.134 44.9801   9 0.20199-0.12673-0.00906-0.15770 0.99970-0.98612
   1  -2   0 322.715 43.5719   7 0.12397-0.04843-0.04459-0.12247-0.95290 0.96651
   1   2   0 312.252 47.3542   6-0.26355 0.33914 0.21973-0.05285-0.97139 0.98489
  -1   2   0 278.692 53.5652   6-0.19647 0.12100 0.01167 0.15528-0.99979 0.98619
  -1  -2   0 289.921 46.4310   4-0.18683 0.11127-0.01614-0.15093-0.99984 0.98631
   1   2   0 296.765 49.4050   1 0.18899-0.11365 0.01507 0.15183 0.99984-0.98633
  -2   2   0 1833.26 148.307   6-0.18650 0.03551-0.01695 0.18390-0.99983 0.97267
   2  -2   0 1845.25 149.460   4-0.10129 0.25234-0.24330 0.07641-0.96710 0.99423
   2   2   0 1928.69 86.8516   8 0.18530-0.03439-0.01588 0.18278 0.99986-0.97280
  -2  -2   0 2116.60 112.036   4-0.20357 0.05246 0.03221-0.19929-0.99919 0.97210
  -2   2   0 1959.80 137.690   7-0.15895 0.00799 0.00806 0.15902-0.99975 0.97260
   2  -2   0 1958.33 142.951   8 0.16084-0.00992-0.00624-0.16062 0.99980-0.97267
   2  -2   0 1999.43 106.658   9 0.22379-0.07310 0.05090-0.21760 0.99766-0.97056
   2   2   0 2109.92 118.054   6-0.32443 0.47550 0.44519-0.27839-0.87938 0.90638
  -2  -2   0 1870.34 106.493   7-0.18151 0.03056 0.01234-0.17935-0.99992 0.97286
  -2  -2   0 2048.12 110.755   6-0.20357 0.05253 0.03237-0.19926-0.99918 0.97211
   2   2   0 1921.03 120.162   1 0.19555-0.04478-0.02519 0.19202 0.99955-0.97252
  -2  -2   0 1894.11 147.420   9 0.10658-0.25760-0.24814 0.08119 0.96639-0.99346
   3  -2   0 -5.8353 15.8801   8 0.16803 0.05833-0.00907-0.15778 0.99989-0.95922
  -3  -2   0 17.7182 9.13407   6-0.20778-0.01873 0.04479-0.21168-0.99859 0.95796
  -3  -2   0 21.7745 12.5377   4-0.20775-0.01889 0.04452-0.21160-0.99860 0.95795
   3  -2   0 19.4741 7.46333   9 0.23462-0.00849 0.08158-0.24822 0.99502-0.95439
   3   2   0 23.6249 14.1036   8 0.18687 0.03950-0.01650 0.18339 0.99984-0.95923
   3   2   0 32.8146 13.0923   1 0.19619 0.03004-0.02925 0.19604 0.99943-0.95885
  -3  -2   0 3.01816 11.6414   7-0.18429-0.04215 0.01287-0.17990-0.99991 0.95928
  -3   2   0 36.6402 20.2633   6-0.18674-0.03977-0.01626 0.18320-0.99984 0.95912
  -3   2   0 24.7069 23.6110   7-0.16765-0.05882 0.00971 0.15739-0.99988 0.95916
  -3  -2   0 6.18689 17.0008   9 0.06980-0.29624-0.33177 0.16475 0.93809-0.97874
   3  -2   0 5.32741 19.8909   4-0.06660 0.29316-0.32732 0.16052-0.93913 0.97978
   4  -2   0 1154.33 154.840   8 0.18775 0.11405-0.01685-0.14999 0.99983-0.94561
   4   2   0 1211.33 125.111   8 0.21160 0.09023-0.02629 0.19316 0.99912-0.94497
   4   2   0 1195.40 91.4341   1 0.18914 0.11260 0.01415 0.15263 0.99985-0.94571
  -4  -2   0 1198.46 144.690   9 0.03174-0.33358-0.41389 0.24682 0.90078-0.95500
  -4   2   0 1169.87 140.695   6-0.19423-0.10778 0.00522 0.16170-0.99988 0.94560
  -4  -2   0 1266.97 138.075   7-0.20660-0.09533 0.01711-0.18416-0.99948 0.94529
  -4  -2   0 1096.25 60.7034   4-0.18418-0.11792-0.02368-0.14339-0.99970 0.94551
  -4   2   0 1236.07 162.173   7-0.18949-0.11250 0.01386 0.15325-0.99986 0.94557
   4  -2   0 1339.24 160.069   4-0.03019 0.33225-0.41097 0.24429-0.90167 0.95581
  -4  -2   0 1166.17 63.7772   6-0.18419-0.11782-0.02348-0.14345-0.99971 0.94553
   4  -2   0 1140.76 62.2214   9 0.22165 0.07993 0.04491-0.21150 0.99805-0.94387
  -5  -2   0 600.064 110.833   9-0.00729-0.36998-0.49353 0.32641 0.85436-0.92218
   5  -2   0 581.131 113.546   4 0.00750 0.37004-0.49291 0.32633-0.85445 0.92205
   5  -2   0 530.410 105.764   8 0.21359 0.16364-0.02708-0.13976 0.99903-0.93128
  -5  -2   0 601.170 104.718   7-0.23564-0.14176 0.02266-0.18972-0.99810 0.93035
  -5   2   0 526.142 92.8110   6-0.20694-0.17057 0.04229 0.12461-0.99872 0.93089
  -5   2   0 456.773 100.483   7-0.21717-0.16032 0.01913 0.14799-0.99908 0.93123
   5   2   0 510.723 54.3212   1 0.16892 0.20844 0.12791 0.03882 0.99171-0.92396
   5   2   0 482.584 89.2010   8 0.24267 0.13462-0.03864 0.20550 0.99717-0.92947
  -6   2   0 1176.03 181.897   7-0.24798-0.20502 0.02502 0.14210-0.99723 0.91580
   6  -2   0 1293.74 186.511   4 0.04620 0.40683-0.57213 0.40567-0.79712 0.87815
  -6   2   0 1027.22 139.708   6-0.22341-0.22956 0.09173 0.07514-0.99476 0.91338
   6  -2   0 921.028 161.620   8 0.24288 0.20980-0.03873-0.12811 0.99715-0.91586
  -6  -2   0 936.931 148.431   7-0.26781-0.18508 0.02883-0.19590-0.99548 0.91416
   6   2   0 1204.45 161.416   2 0.24530 0.20714 0.03180 0.13505 0.99722-0.91603
   6   2   0 1007.88 142.658   8 0.27638 0.17637-0.05214 0.21897 0.99367-0.91244
  -6   2   0 955.352 119.181   3-0.28282-0.17050-0.06900 0.23587-0.99191 0.91049
  -6  -2   0 1560.59 212.107   9-0.04703-0.40565-0.57002 0.40284 0.79864-0.88005
   6  -2   0 1141.36 98.4395   2 0.28777 0.16473 0.08337-0.25020 0.99021-0.90893
  -7  -2   0 581.418 132.221   7-0.30167-0.22670 0.03534-0.20244-0.99145 0.89655
   7   2   0 583.121 114.989   8 0.31145 0.21677-0.06625 0.23307 0.98848-0.89372
  -7   2   0 615.216 118.593   6-0.24266-0.28578 0.15162 0.01521-0.98622 0.89128
  -7   2   0 630.715 158.890   7-0.28063-0.24786 0.03129 0.13583-0.99411 0.89910
  -7   2   0 599.359 108.668   3-0.32388-0.20496-0.10488 0.27174-0.98312 0.88814
   7   2   0 599.441 123.480   2 0.27064 0.25723 0.06241 0.10447 0.99363-0.89891
   7  -2   0 453.082 116.246   8 0.27430 0.25383-0.05130-0.11555 0.99393-0.89911
  -8   2   0 1190.62 216.703   7-0.31447-0.28952 0.03782 0.12931-0.98957 0.88097
  -8  -2   0 1088.28 199.008   7-0.33656-0.26730 0.04210-0.20920-0.98587 0.87740
   8   2   0 1136.63 182.350   2 0.29818 0.30509 0.09619 0.07070 0.98774-0.87949
  -8  -2   0 1217.03 205.944   3-0.30173-0.30299-0.08546-0.08173-0.98828 0.87967
   8  -2   0 1125.47 215.149   8 0.30713 0.29644-0.06450-0.10236 0.98921-0.88086
   8   2   0 1173.91 191.842   8 0.34730 0.25638-0.08078 0.24758 0.98146-0.87316
  -9   2   0 649.412 179.071   7-0.34912-0.33036 0.04454 0.12258-0.98350 0.86130
  -9  -2   0 394.609 146.055   7-0.37210-0.30723 0.04900-0.21612-0.97866 0.85659
   9  -2   0 374.342 158.544   8 0.34093 0.33810-0.07819-0.08869 0.98284-0.86097
   9   2   0 229.473 112.983   8 0.38366 0.29550-0.09561 0.26241 0.97249-0.85067
  -9  -2   0 376.697 124.250   3-0.33284-0.34743-0.11278-0.05439-0.98074 0.85854
   9   2   0 538.019 137.653   2 0.32734 0.35134 0.13258 0.03433 0.97910-0.85733
  10  -2   0 316.841 136.062   8 0.37544 0.37904-0.09225-0.07464 0.97469-0.83930
  10   2   0 215.945 71.6231   2 0.35773 0.39638 0.17123-0.00429 0.96727-0.83198
 -10   2   0 186.128 116.986   7-0.38436-0.37062 0.05140 0.11571-0.97580 0.83999
  10   2   0 59.9609 76.6529   8 0.42034 0.33427-0.11070 0.27748 0.96145-0.82611
 -10  -2   0 363.843 138.942   7-0.40811-0.34670 0.05605-0.22318-0.96969 0.83403
 -10  -2   0 266.309 100.006   3-0.36499-0.39083-0.14140-0.02576-0.97076 0.83497
 -11  -2   0 269.291 134.004   7-0.44444-0.38585 0.06319-0.23034-0.95887 0.80960
 -11  -2   0 179.421 93.4574   3-0.39791-0.43344-0.17114 0.00399-0.95808 0.80870
  11  -2   0 268.205 138.237   8 0.41049 0.41945-0.10663-0.06028 0.96462-0.81572
  11   2   0 88.4133 87.0308   8 0.45728 0.37282-0.12600 0.29276 0.94818-0.79932
 -11   2   0 289.170 173.625   7-0.42001-0.41046 0.05839 0.10873-0.96635 0.81693
 -12  -2   0 52.9512 192.545   7-0.48101-0.42475 0.07042-0.23759-0.94606 0.78317
 -12  -2   0 -126.89 103.696   3-0.43146-0.47542-0.20190 0.03478-0.94239 0.77941
   0  -3   0 3.76768 10.6022   3-0.34688 0.34700-0.12524-0.12530-0.97666 0.97668
   0   3   0 5.15716 6.21722   2 0.32144-0.32137 0.12517 0.12515 0.98106-0.98112
   0  -3   0 -14.932 22.7403   9 0.15740-0.15766-0.12512-0.12513 0.99195-0.99190
   0  -3   0 -7.0643 7.10516   8 0.45537-0.45530-0.12521-0.12519 0.94892-0.94889
   0  -3   0 15.9349 15.2982   4-0.14719 0.14716-0.12526-0.12528-0.99160 0.99165
   0   3   0 -23.226 24.4827   6-0.23426 0.23437 0.12518 0.12522-0.99050 0.99044
  -1  -3   0 889.614 102.124   4-0.16097 0.08539-0.08814-0.16242-0.99592 0.98241
   1  -3   0 993.389 75.9502   3-0.53129 0.60701-0.29682 0.04648-0.87593 0.88942
   1  -3   0 928.455 89.9342   8 0.27799-0.20246-0.05278-0.19756 0.99347-0.97988
  -1   3   0 954.394 77.8646   7-0.32260 0.24723 0.03939 0.21113-0.98828 0.97465
   1  -3   0 982.370 105.122   9 0.17352-0.09834-0.08411-0.16607 0.99646-0.98287
  -1   3   0 1008.96 87.3807   2 0.42957-0.50493 0.26598-0.01560 0.92603-0.93965
  -1   3   0 869.403 111.181   6-0.21665 0.14123 0.07123 0.17919-0.99674 0.98312
   1   3   0 1006.02 109.123   2 0.26574-0.19027 0.05646 0.19382 0.99445-0.98097
   1   3   0 791.047 102.952   1 0.17717-0.10188 0.08318 0.16721 0.99651-0.98304
  -1  -3   0 993.139 119.955   9 0.13618-0.21185-0.17760-0.07269 0.98329-0.99678
   1   3   0 910.631 103.053   6-0.26233 0.33797 0.21566 0.03469-0.97243 0.98591
  -2  -3   0 2237.62 110.111   7-0.36097 0.21007 0.04684-0.29726-0.98109 0.95405
  -2  -3   0 2394.79 193.309   9 0.11105-0.26215-0.23767-0.01268 0.96929-0.99633
   2  -3   0 2292.49 167.650   8 0.22843-0.07747-0.03297-0.21733 0.99821-0.97107
  -2   3   0 2213.06 153.051   7-0.24329 0.09238 0.02412 0.22647-0.99758 0.97041
  -2   3   0 2253.17 189.968   6-0.20796 0.05700 0.04530 0.20513-0.99856 0.97138
  -2  -3   0 2383.27 158.969   4-0.16768 0.01658-0.06974-0.18083-0.99748 0.97041
   2   3   0 2392.95 171.419   1 0.18103-0.03030 0.06152 0.18883 0.99809-0.97107
   2   3   0 2450.73 163.652   6-0.30098 0.45211 0.35219-0.10191-0.92593 0.95292
   2  -3   0 2310.18 152.435   9 0.18270-0.03208-0.06030-0.18982 0.99819-0.97106
   2  -3   0 2259.12 192.326   4-0.10502 0.25607-0.23401-0.01641-0.96964 0.99679
   3  -3   0 5868.41 324.747   4-0.07863 0.30522-0.29865 0.04832-0.94971 0.99039
   3   3   0 5685.72 258.462   1 0.18056 0.04564 0.06418 0.18613 0.99792-0.95736
   3   3   0 6841.41 267.942   6-0.34551 0.57211 0.54011-0.28990-0.81708 0.85755
   3  -3   0 6135.59 227.025   9 0.18170 0.04436-0.06290-0.18715 0.99803-0.95737
  -3  -3   0 6043.71 237.371   7-0.28790 0.06152 0.03269-0.28318-0.99325 0.95265
  -3  -3   0 5748.74 232.381   4-0.16422-0.06239-0.07926-0.17131-0.99672 0.95610
  -3   3   0 6286.92 304.040   7-0.22827 0.00185 0.02125 0.22938-0.99854 0.95780
   3   3   0 5971.82 188.648   8 0.33583-0.10941-0.07611 0.32649 0.98390-0.94331
  -3  -3   0 6310.88 335.507   9 0.08286-0.30938-0.30256 0.05215 0.94903-0.98964
   3  -3   0 6099.78 315.043   8 0.21921 0.00718-0.02931-0.22097 0.99875-0.95806
  -3   3   0 5880.67 325.050   6-0.20645-0.02002 0.04085 0.20956-0.99879 0.95806
   4  -3   0 1922.85 116.316   9 0.16361 0.13790-0.10945-0.14052 0.99390-0.93970
  -4   3   0 2068.61 79.2298   3-0.39282 0.09068-0.16651 0.41676-0.96021 0.90597
  -4  -3   0 1822.28 155.718   7-0.28083-0.02103 0.03132-0.28185-0.99409 0.93992
  -4   3   0 2058.92 200.257   6-0.21063-0.09136 0.05323 0.19717-0.99808 0.94379
   4  -3   0 1958.22 198.225   8 0.22767 0.07416-0.03267-0.21760 0.99826-0.94403
  -4   3   0 2100.85 201.240   7-0.23601-0.06593 0.02273 0.22792-0.99808 0.94377
   4   3   0 1885.55 136.143   8 0.30885-0.00696-0.06520 0.31554 0.98892-0.93479
  -4  -3   0 2054.14 207.036   9 0.05222-0.35416-0.37024 0.11975 0.92185-0.97603
   4  -3   0 2009.95 201.084   4-0.04960 0.35170-0.36693 0.11670-0.92265 0.97684
   4   3   0 2056.77 154.276   1 0.17481 0.12691 0.09626 0.15402 0.99533-0.94120
  -4  -3   0 2187.36 132.201   4-0.14396-0.15811-0.13384-0.11672-0.99037 0.93620
   5  -3   0 942.138 149.811   8 0.24537 0.13189-0.03972-0.21054 0.99694-0.92917
  -5  -3   0 1194.30 168.408   9 0.01959-0.39694-0.43916 0.18861 0.88721-0.95497
   5  -3   0 1187.01 75.6998   9 0.10638 0.27056-0.24860-0.00125 0.96626-0.89847
  -5  -3   0 1234.42 150.641   7-0.29430-0.08304 0.03392-0.28447-0.99244 0.92471
   5   3   0 1156.78 123.954   8 0.31726 0.06009-0.06859 0.31892 0.98746-0.91978
   5   3   0 1194.32 113.519   1 0.16161 0.21569 0.16581 0.08445 0.98600-0.91828
  -5   3   0 1171.88 87.6321   3-0.36652-0.01117-0.14277 0.39303-0.97023 0.90242
   5  -3   0 1231.75 173.671   4-0.01838 0.39599-0.43714 0.18703-0.88779 0.95546
  -5   3   0 1117.46 154.380   6-0.21927-0.15823 0.07912 0.17126-0.99603 0.92818
  -5   3   0 912.879 150.195   7-0.25438-0.12306 0.02625 0.22442-0.99672 0.92883
   5   3   0 1145.10 155.316   2 0.24821 0.12884 0.03529 0.21496 0.99689-0.92927
  -5  -3   0 1208.36 82.0305   4-0.08677-0.29064-0.27897 0.02842-0.95635 0.88867
  -6   3   0 286.779 56.6932   3-0.38272-0.07048-0.15737 0.40762-0.96425 0.88288
  -6  -3   0 128.054 36.8827   9-0.01470-0.43808-0.50815 0.25755 0.84462-0.92597
  -6   3   0 310.338 91.7377   6-0.23139-0.22159 0.11624 0.13410-0.99177 0.91036
   6  -3   0 314.630 101.787   4 0.01467 0.43844-0.50796 0.25796-0.84451 0.92562
   6  -3   0 204.171 87.9218   8 0.26854 0.18416-0.04899-0.20128 0.99462-0.91331
  -6   3   0 220.838 79.9278   7-0.27859-0.17437 0.03089 0.21978-0.99434 0.91288
  -6  -3   0 240.926 77.3071   7-0.31681-0.13600 0.03827-0.28884-0.98921 0.90791
   6   3   0 247.757 77.0752   2 0.26486 0.18759 0.05539 0.19487 0.99459-0.91344
   6   3   0 194.068 53.1250   8 0.33828 0.11453-0.07711 0.32741 0.98340-0.90218
  -7   3   0 1528.90 198.263   6-0.24624-0.28222 0.16304 0.08726-0.98412 0.88915
  -7  -3   0 1997.58 276.870   9-0.05038-0.47781-0.57623 0.32559 0.79356-0.88850
   7   3   0 1426.52 203.619   2 0.28527 0.24259 0.08029 0.16999 0.99076-0.89608
  -7  -3   0 1500.48 222.060   3-0.28874-0.24045-0.07412-0.17663-0.99085 0.89581
   7   3   0 1521.23 182.707   8 0.36524 0.16303-0.08809 0.33837 0.97727-0.88252
  -7   3   0 1683.96 247.270   7-0.30631-0.22215 0.03624 0.21445-0.99079 0.89574
   7  -3   0 1588.66 246.073   8 0.29519 0.23295-0.05969-0.19057 0.99109-0.89626
  -7  -3   0 1405.89 187.687   7-0.34412-0.18417 0.04357-0.29415-0.98447 0.88960
   7  -3   0 2002.43 273.865   4 0.04930 0.47930-0.57827 0.32838-0.79214 0.88667
  -8  -3   0 551.202 144.534   3-0.31424-0.29052-0.09640-0.15436-0.98549 0.87686
   8  -3   0 568.124 154.300   8 0.32420 0.27938-0.07140-0.17887 0.98619-0.87783
   8   3   0 524.219 122.547   8 0.39549 0.20825-0.10047 0.35074 0.96915-0.86088
  -8   3   0 401.380 106.372   6-0.26320-0.34071 0.21854 0.03173-0.97170 0.86318
  -8   3   0 520.428 149.618   7-0.33634-0.26763 0.04206 0.20865-0.98591 0.87727
  -8  -3   0 586.165 142.419   7-0.37425-0.22951 0.04943-0.30004-0.97817 0.86972
   8   3   0 441.526 114.124   2 0.30844 0.29482 0.10894 0.14137 0.98499-0.87677
  -9   3   0 588.729 187.420   7-0.36795-0.31152 0.04819 0.20250-0.97958 0.85734
  -9  -3   0 652.202 165.498   7-0.40622-0.27302 0.05568-0.30631-0.97021 0.84817
   9   3   0 488.474 135.026   2 0.33373 0.34495 0.14064 0.10968 0.97686-0.85513
  -9  -3   0 360.815 127.890   3-0.34173-0.33860-0.12066-0.13008-0.97821 0.85598
   9   3   0 488.968 128.031   8 0.42775 0.25147-0.11375 0.36400 0.95897-0.83716
   9  -3   0 471.348 187.961   8 0.35488 0.32415-0.08386-0.16642 0.97975-0.85787
 -10  -3   0 87.5971 69.1010   7-0.43941-0.31529 0.06220-0.31285-0.96048 0.82484
  10   3   0 0.30161 7.02725   2 0.36063 0.39347 0.17496 0.07539 0.96598-0.83072
 -10  -3   0 107.304 71.2927   3-0.37073-0.38516-0.14656-0.10416-0.96874 0.83292
  10  -3   0 135.610 129.270   8 0.38679 0.36769-0.09689-0.15340 0.97163-0.83624
 -10   3   0 144.962 85.1333   7-0.40068-0.35428 0.05460 0.19610-0.97168 0.83583
  11   3   0 317.277 106.607   5 0.41118 0.41903 0.13734 0.11281 0.96031-0.81108
  11   3   0 588.935 172.586   2 0.38882 0.44071 0.21159 0.03879 0.95189-0.80311
  11  -3   0 596.761 223.852   8 0.41961 0.41032-0.11039-0.13991 0.96169-0.81279
 -11   3   0 344.184 140.848   7-0.43427-0.39619 0.06118 0.18950-0.96209 0.81261
 -11  -3   0 552.025 228.702   7-0.47349-0.35670 0.06894-0.31961-0.94886 0.79961
 -11  -3   0 522.590 213.698   3-0.40089-0.43054-0.17385-0.07684-0.95681 0.80739
 -12  -3   0 -204.31 100.018   7-0.50821-0.39744 0.07584-0.32652-0.93521 0.77235
   0   4   0 3120.39 204.487   2 0.35436-0.35426 0.16690 0.16687 0.96873-0.96883
   0   4   0 3065.94 236.212   1 0.16136-0.16154 0.16704 0.16693 0.98578-0.98588
   0   4   0 2991.10 154.542   5 0.45987-0.45996 0.16680 0.16680 0.94054-0.94058
   0  -4   0 2783.12 217.152   9 0.14059-0.14093-0.16681-0.16683 0.98533-0.98527
   0   4   0 2786.27 218.174   6-0.24744 0.24759 0.16690 0.16697-0.98338 0.98328
   0  -4   0 3109.19 190.733   3-0.39331 0.39351-0.16696-0.16708-0.96001 0.96001
   0  -4   0 3184.75 140.750   8 0.55451-0.55441-0.16697-0.16694 0.90161-0.90160
   0  -4   0 3099.53 234.201   4-0.13132 0.13128-0.16699-0.16705-0.98484 0.98490
  -1  -4   0 92.6720 49.3447   3-0.32154 0.24608-0.10281-0.23135-0.98371 0.97017
  -2  -4   0 2708.60 204.111   4-0.14293-0.00818-0.13656-0.19751-0.98997 0.96291
  -2   4   0 2911.07 196.034   2 0.55842-0.70920 0.45339-0.11952 0.78359-0.81083
   2   4   0 2617.52 210.170   1 0.16959-0.01890 0.12437 0.20949 0.99217-0.96518
  -2  -4   0 2734.47 235.679   9 0.10618-0.25737-0.24907-0.08470 0.96612-0.99314
   2  -4   0 2628.12 191.874   8 0.30442-0.15342-0.06341-0.27034 0.98965-0.96250
   2  -4   0 2636.96 195.837   9 0.15521-0.00468-0.13060-0.20293 0.99119-0.96406
  -2   4   0 2618.67 232.649   6-0.22577 0.07485 0.09892 0.23498-0.99395 0.96675
  -2   4   0 2396.07 167.165   7-0.34718 0.19636 0.04416 0.28991-0.98388 0.95666
  -2  -4   0 2993.42 112.820   7-0.69793 0.54706 0.11446-0.44819-0.82082 0.79383
   2   4   0 2706.69 205.012   6-0.29639 0.44759 0.33508-0.00133-0.93311 0.96007
  -2  -4   0 2712.65 219.621   3-0.28606 0.13496-0.07179-0.26245-0.99134 0.96422
   3   4   0 829.109 114.347   6-0.32961 0.55630 0.46731-0.13364-0.86630 0.90675
   3   4   0 683.115 109.325   1 0.16867 0.05749 0.12926 0.20457 0.99154-0.95100
  -3   4   0 778.540 110.987   7-0.30610 0.07976 0.03620 0.29793-0.99082 0.95004
  -3   4   0 774.465 129.155   6-0.22352-0.00292 0.09206 0.24183-0.99473 0.95396
   3  -4   0 715.629 94.9628   9 0.15111 0.07486-0.14084-0.19262 0.98969-0.94903
  -3  -4   0 722.877 128.021   9 0.08375-0.31036-0.30055-0.03327 0.94974-0.99032
  -3  -4   0 797.180 83.4300   7-0.45596 0.22966 0.06547-0.39934-0.95505 0.91447
   3  -4   0 720.757 131.840   4-0.07916 0.30575-0.29737-0.03650-0.95016 0.99086
  -3  -4   0 758.721 103.478   4-0.13763-0.08898-0.15053-0.18352-0.98775 0.94713
   3  -4   0 672.856 111.440   8 0.28020-0.05376-0.05367-0.28006 0.99319-0.95249
   4  -4   0 927.104 103.549   9 0.13474 0.16669-0.18109-0.15229 0.98259-0.92838
   4   4   0 927.109 143.928   2 0.26884 0.03284 0.06024 0.27344 0.99394-0.93987
  -4  -4   0 945.978 111.378   4-0.12065-0.18141-0.19451-0.13952-0.97925 0.92509
   4   4   0 944.500 123.536   1 0.16366 0.13800 0.15531 0.17850 0.98773-0.93364
  -4   4   0 786.369 140.615   6-0.22585-0.07612 0.09916 0.23472-0.99393 0.93960
  -4   4   0 777.740 124.229   7-0.29745-0.00440 0.03453 0.29965-0.99202 0.93767
   4   4   0 995.919 90.9148   8 0.49011-0.18817-0.13972 0.47360 0.93444-0.88031
   4  -4   0 786.446 131.932   8 0.27741 0.02445-0.05255-0.28115 0.99354-0.93931
  -4  -4   0 928.051 153.552   9 0.05856-0.36058-0.35646 0.02257 0.92791-0.98205
   4  -4   0 860.755 144.943   4-0.05542 0.35754-0.35347 0.01970-0.92850 0.98271
  -4  -4   0 939.488 113.749   7-0.39469 0.09291 0.05342-0.38736-0.97323 0.91910
  -5   4   0 3310.73 299.155   6-0.23196-0.14552 0.11798 0.21586-0.99153 0.92365
   5  -4   0 3446.92 161.129   5 0.51220-0.13501 0.19900-0.53287 0.91384-0.84590
  -5  -4   0 3093.20 296.594   9 0.03103-0.40846-0.41537 0.08141 0.90001-0.96772
  -5  -4   0 3113.83 183.538   4-0.08421-0.29324-0.28520-0.04881-0.95430 0.88663
  -5  -4   0 3153.28 293.920   3-0.27876-0.09923-0.06547-0.26887-0.99259 0.92472
   5  -4   0 2966.66 279.127   8 0.28660 0.09070-0.05624-0.27745 0.99233-0.92455
  -5   4   0 3154.62 284.366   7-0.30465-0.07273 0.03592 0.29829-0.99103 0.92310
   5  -4   0 3259.21 177.305   9 0.09734 0.27954-0.26957-0.06371 0.96002-0.89224
   5   4   0 3262.40 231.597   1 0.15339 0.22383 0.20667 0.12713 0.97810-0.91043
   5  -4   0 2955.72 294.010   4-0.02922 0.40687-0.41313 0.07945-0.90057 0.96827
   5   4   0 2936.82 279.296   2 0.27564 0.10144 0.06851 0.26516 0.99271-0.92512
   5   4   0 3190.14 201.585   8 0.44241-0.06499-0.11983 0.45366 0.95379-0.88613
  -5  -4   0 3274.07 241.444   7-0.38135 0.00411 0.05081-0.38480-0.97652 0.90881
   6   4   0 61.5928 38.8138   2 0.28783 0.16464 0.08344 0.25024 0.99020-0.90907
  -6  -4   0 211.574 90.3634   9 0.00145-0.45430-0.47610 0.14209 0.86547-0.94676
  -6  -4   0 152.933 67.7949   3-0.29266-0.16093-0.07754-0.25680-0.99011 0.90865
   6  -4   0 102.341 33.5817   4-0.00088 0.45406-0.47508 0.14152-0.86569 0.94687
  -6   4   0 83.1939 46.8424   6-0.24118-0.21180 0.14689 0.18691-0.98705 0.90561
  -6   4   0 137.098 50.0049   7-0.32075-0.13215 0.03903 0.29520-0.98858 0.90708
   6   4   0 121.367 35.0854   8 0.43586 0.01702-0.11712 0.45091 0.95615-0.87495
  -6  -4   0 167.293 61.6868   7-0.38790-0.06482 0.05209-0.38611-0.97493 0.89366
   6  -4   0 157.236 77.0954   8 0.30312 0.14962-0.06289-0.27079 0.98986-0.90856
  -7  -4   0 1135.30 176.818   7-0.40460-0.12359 0.05536-0.38941-0.97064 0.87580
   7   4   0 1245.68 203.160   2 0.30407 0.22380 0.10350 0.23020 0.98619-0.89154
   7  -4   0 1075.67 200.437   8 0.32446 0.20372-0.07150-0.26218 0.98614-0.89130
  -7   4   0 1198.00 210.962   7-0.34234-0.18607 0.04322 0.29103-0.98481 0.88972
  -7  -4   0 1311.78 225.375   9-0.02991-0.49835-0.53766 0.20360 0.82369-0.91856
   7  -4   0 1008.51 200.398   4 0.02936 0.49933-0.53826 0.20483-0.82318 0.91779
  -7  -4   0 1253.13 215.329   3-0.31094-0.21826-0.09351-0.24084-0.98626 0.89120
  -7   4   0 1222.91 199.457   6-0.25293-0.27552 0.18467 0.14910-0.97972 0.88472
   8   4   0 95.0509 79.0589   2 0.32342 0.27985 0.12766 0.20605 0.98041-0.87223
  -8   4   0 102.317 87.8148   6-0.26674-0.33718 0.23046 0.10326-0.96854 0.85998
   8  -4   0 -75.410 71.2849   8 0.34913 0.25448-0.08152-0.25216 0.98106-0.87270
  -8  -4   0 85.9359 99.0497   9-0.06289-0.54080-0.59919 0.26508 0.77400-0.88247
  -8  -4   0 37.9905 41.8099   3-0.33243-0.27234-0.11243-0.22190-0.98085 0.87220
  -8  -4   0 2.28228 10.8094   7-0.42720-0.17647 0.05979-0.39388-0.96424 0.85581
  -8   4   0 -12.578 38.7593   7-0.36756-0.23636 0.04812 0.28614-0.97967 0.87098
   9  -4   0 67.6092 46.6829   8 0.37621 0.30285-0.09256-0.24112 0.97449-0.85261
  -9   4   0 237.256 99.7787   7-0.39530-0.28412 0.05354 0.28073-0.97308 0.85078
  -9  -4   0 232.938 121.571   3-0.35639-0.32397-0.13372-0.20060-0.97366 0.85140
   9   4   0 90.0498 49.1910   2 0.34520 0.33349 0.15519 0.17854 0.97252-0.85081
  -9  -4   0 149.416 76.8698   7-0.45352-0.22562 0.06498-0.39910-0.95588 0.83385
 -10  -4   0 -83.934 73.1798   7-0.48234-0.27226 0.07069-0.40483-0.94556 0.80994
 -10   4   0 24.9518 24.7655   7-0.42486-0.33006 0.05933 0.27494-0.96493 0.82902
  10   4   0 -42.254 78.5347   2 0.36889 0.38521 0.18561 0.14815 0.96215-0.82692
  10  -4   0 -45.331 76.6404   8 0.40507 0.34943-0.10440-0.22929 0.96630-0.83091
 -10  -4   0 17.2247 18.8645   3-0.38225-0.37369-0.15693-0.17736-0.96444 0.82859
 -11  -4   0 200.458 178.270   3-0.40959-0.42190-0.18180-0.15247-0.95295 0.80349
 -11   4   0 186.806 136.204   7-0.45578-0.37465 0.06543 0.26884-0.95511 0.80558
  11   4   0 423.779 176.661   2 0.39412 0.43540 0.21856 0.11523 0.94891-0.80017
   0   5   0 -15.700 14.9134   5 0.52744-0.52753 0.20850 0.20850 0.90489-0.90494
   0  -5   0 8.18519 15.2409   9 0.12336-0.12378-0.20852-0.20855 0.97664-0.97656
   0   5   0 35.9390 36.7063   6-0.26021 0.26041 0.20862 0.20872-0.97419 0.97406
   0   5   0 0.22183 14.7156   2 0.38656-0.38644 0.20863 0.20857 0.95312-0.95325
   0  -5   0 -9.8157 7.56030   8 0.65088-0.65074-0.20872-0.20868 0.83498-0.83500
   0   5   0 53.9851 38.6250   1 0.15295-0.15319 0.20883 0.20866 0.97764-0.97777
   0  -5   0 -5.8611 21.6669   3-0.43877 0.43904-0.20869-0.20886-0.93857 0.93853
  -1   5   0 316.406 68.2684   2 0.45239-0.52770 0.29724 0.12002 0.90833-0.92202
   1  -5   0 318.229 61.2778   8 0.46868-0.39306-0.13075-0.28654 0.94362-0.93004
  -1   5   0 -27.806 25.8836   1 0.14598-0.22163 0.24212 0.17545 0.96977-0.98346
  -1  -5   0 203.146 62.1725   3-0.37250 0.29711-0.14815-0.26953-0.96810 0.95453
   1  -5   0 355.480 67.8065   3-0.54964 0.62551-0.31494-0.10241-0.85982 0.87323
   1   5   0 294.076 83.0476   1 0.15736-0.08218 0.18713 0.23028 0.98210-0.96870
   1   5   0 337.988 69.4540   5 0.41578-0.34048 0.14011 0.27694 0.95863-0.94513
  -1   5   0 277.977 89.1785   6-0.24855 0.17321 0.17047 0.24689-0.98267 0.96899
   1   5   0 295.489 78.9615   6-0.27699 0.35272 0.26555 0.15174-0.95824 0.97164
   1  -5   0 241.863 80.8361   4-0.10484 0.18032-0.23448-0.18304-0.96952 0.98314
  -1   5   0 315.648 50.0577   7-0.63292 0.55771 0.10102 0.31635-0.86879 0.85499
  -1  -5   0 293.894 82.4017   9 0.11192-0.18776-0.23564-0.18147 0.96983-0.98329
   1  -5   0 305.369 87.1009   9 0.13037-0.05535-0.19169-0.22531 0.98040-0.96679
   2  -5   0 51.3846 25.1103   9 0.13192 0.01853-0.18794-0.22900 0.98119-0.95405
  -2   5   0 68.1846 30.8426   7-0.46601 0.31530 0.06746 0.35007-0.95156 0.92427
   2   5   0 67.2916 44.3870   6-0.29880 0.45005 0.34403 0.07319-0.92941 0.95633
  -2   5   0 61.8439 27.1225   2 0.54555-0.69629 0.43317-0.01585 0.80366-0.83094
   2   5   0 57.0554 33.1614   2 0.31804-0.16711 0.12091 0.29623 0.98213-0.95517
  -2   5   0 22.9243 21.1825   6-0.24166 0.09079 0.14847 0.26890-0.98677 0.95954
  -2  -5   0 69.0313 34.9783   9 0.09674-0.24801-0.27093-0.14624 0.95959-0.98659
   2  -5   0 87.3875 54.0088   4-0.09093 0.24196-0.26885-0.14861-0.95956 0.98673
   2  -5   0 30.4094 2.74660   8 0.38572-0.23467-0.09645-0.32077 0.97193-0.94478
   2   5   0 80.7399 41.9827   1 0.15910-0.00847 0.17845 0.23892 0.98375-0.95680
  -2  -5   0 40.7017 21.9043   3-0.33512 0.18409-0.11481-0.30298-0.98010 0.95297
  -3   5   0 2837.46 280.295   6-0.23908 0.01267 0.14030 0.27708-0.98815 0.94736
   3   5   0 2685.63 246.356   1 0.15791 0.06819 0.18439 0.23297 0.98263-0.94213
   3  -5   0 2827.18 223.896   9 0.12647 0.09943-0.20106-0.21581 0.97835-0.93767
   3  -5   0 2753.27 278.974   4-0.07384 0.30042-0.31012-0.10729-0.94561 0.98632
  -3  -5   0 2760.09 231.197   4-0.11553-0.11109-0.20755-0.20998-0.97629 0.93569
  -3  -5   0 2977.40 287.589   9 0.07838-0.30507-0.31264-0.10460 0.94539-0.98594
   3   5   0 2955.07 242.259   6-0.32468 0.55142 0.44626-0.02912-0.87877 0.91919
   3   5   0 2786.94 257.263   2 0.30496-0.07863 0.10459 0.31252 0.98595-0.94545
   3  -5   0 2621.08 231.580   8 0.34823-0.12175-0.08116-0.33602 0.98126-0.94056
  -3   5   0 2919.67 222.385   7-0.39821 0.17196 0.05411 0.36352-0.97233 0.93150
  -3  -5   0 2802.68 263.445   3-0.31657 0.08989-0.09844-0.31940-0.98494 0.94423
   4  -5   0 11.9861 19.1029   4-0.05397 0.35610-0.35684-0.06048-0.92706 0.98129
  -4   5   0 14.5263 7.86532   6-0.24025-0.06169 0.14398 0.27337-0.98754 0.93319
   4  -5   0 1.06392 22.7141   8 0.33476-0.03285-0.07568-0.34145 0.98412-0.92988
   4   5   0 -17.155 41.1383   2 0.30119 0.00053 0.09991 0.31718 0.98696-0.93293
   4   5   0 36.5851 31.9707   1 0.15335 0.14825 0.20685 0.21049 0.97806-0.92401
   4   5   0 14.0399 36.7224   6-0.35192 0.65414 0.57249-0.15543-0.79182 0.84569
  -4  -5   0 85.5253 64.1129   3-0.31070 0.00838-0.09328-0.32459-0.98632 0.93202
  -4   5   0 24.9334 18.4019   7-0.37182 0.07005 0.04895 0.36874-0.97872 0.92432
  -4  -5   0 -16.096 7.68808   4-0.10047-0.20161-0.24534-0.17216-0.96653 0.91239
  -4  -5   0 -3.3502 3.76628   7-0.55806 0.25636 0.08583-0.50312-0.91216 0.85805
  -4  -5   0 31.3162 47.0317   9 0.05725-0.35935-0.35933-0.05796 0.92667-0.98078
   4  -5   0 40.1402 27.3319   9 0.11146 0.18991-0.23672-0.18007 0.96954-0.91532
  -5   5   0 1163.84 196.625   6-0.24465-0.13280 0.15798 0.25935-0.98507 0.91716
  -5  -5   0 1218.14 205.711   9 0.03368-0.41119-0.40982-0.00754 0.90287-0.97054
  -5  -5   0 1183.28 202.654   3-0.31368-0.06427-0.09590-0.32200-0.98562 0.91774
   5   5   0 1177.26 192.641   2 0.30441 0.07270 0.10391 0.31317 0.98610-0.91854
  -5  -5   0 1298.32 147.484   4-0.07211-0.30537-0.31423-0.10323-0.94410 0.87643
  -5   5   0 1366.62 186.791   7-0.36652-0.01078 0.04791 0.36982-0.97990 0.91192
   5  -5   0 1321.64 212.309   4-0.03162 0.40929-0.40776-0.00945-0.90330 0.97102
  -5  -5   0 1457.88 156.447   7-0.50193 0.12477 0.07458-0.49195-0.93782 0.87014
   5  -5   0 1156.70 189.115   8 0.33544 0.04190-0.07595-0.34116 0.98398-0.91621
   6   5   0 27.0750 57.6524   2 0.31299 0.13951 0.11459 0.30251 0.98367-0.90258
  -6   5   0 -12.619 9.47691   6-0.25181-0.20115 0.18104 0.23625-0.98050 0.89902
  -6  -5   0 46.9465 23.4377   7-0.48418 0.03156 0.07105-0.48849-0.94486 0.86360
  -6  -5   0 20.0589 52.1516   3-0.32306-0.13051-0.10416-0.31376-0.98333 0.90184
   6  -5   0 -66.388 54.2956   8 0.34511 0.10767-0.07989-0.33722 0.98194-0.90064
   6  -5   0 -7.7756 47.3936   4-0.00705 0.46025-0.46184 0.04473-0.87368 0.95488
  -6  -5   0 -55.883 18.2263   9 0.00792-0.46085-0.46304 0.04563 0.87342-0.95466
  -6   5   0 7.30999 26.2697   7-0.37336-0.07944 0.04925 0.36852-0.97837 0.89681
  -7  -5   0 964.372 195.214   3-0.33721-0.19198-0.11665-0.30126-0.97952 0.88443
   7   5   0 1172.57 207.992   2 0.32571 0.20217 0.13053 0.28657 0.97965-0.88503
   7  -5   0 1107.02 216.055   8 0.36084 0.16737-0.08629-0.33081 0.97835-0.88351
  -7   5   0 1309.47 236.044   7-0.38785-0.14048 0.05208 0.36572-0.97495 0.87980
   7  -5   0 1223.28 228.550   4 0.01956 0.50919-0.51811 0.10111-0.83757 0.93221
  -7  -5   0 1079.33 212.069   9-0.01980-0.50855-0.51811 0.10064 0.83775-0.93257
  -7   5   0 1026.54 205.099   6-0.26130-0.26716 0.21221 0.20504-0.97330 0.87826
   8   5   0 -3.6566 24.5740   2 0.34172 0.26157 0.15078 0.26634 0.97388-0.86573
   8  -5   0 48.2753 17.9487   8 0.38086 0.22280-0.09446-0.32263 0.97325-0.86490
  -8  -5   0 -50.932 73.3981   9-0.04929-0.55447-0.57421 0.15668 0.79522-0.90363
  -8   5   0 132.287 67.0719   6-0.27272-0.33121 0.25079 0.16641-0.96276 0.85416
   8  -5   0 32.0615 54.0484   4 0.04801 0.55624-0.57571 0.15884-0.79423 0.90229
  -8   5   0 -29.812 80.8983   7-0.40744-0.19640 0.05592 0.36190-0.96988 0.86113
  -8  -5   0 37.6128 28.3716   3-0.35498-0.24981-0.13245-0.28545-0.97411 0.86543
   9  -5   0 161.107 101.909   8 0.40400 0.27509-0.10396-0.31314 0.96663-0.84475
   9   5   0 156.216 65.4263   2 0.36037 0.31833 0.17461 0.24253 0.96610-0.84443
  -9  -5   0 233.629 131.540   3-0.37555-0.30483-0.15090-0.26699-0.96697 0.84469
  -9   5   0 134.262 85.4053   7-0.43060-0.24874 0.06046 0.35737-0.96321 0.84085
  10   5   0 96.6622 49.6349   5 0.41514 0.33949 0.13972 0.27741 0.95887-0.82327
 -10  -5   0 35.7655 112.643   3-0.39835-0.35761-0.17154-0.24633-0.95790 0.82200
  10  -5   0 -35.869 40.8116   8 0.42950 0.32502-0.11448-0.30262 0.95837-0.82299
  10   5   0 77.9053 89.1970   2 0.38112 0.37298 0.20151 0.21565 0.95602-0.82084
 -10   5   0 -24.474 6.78721   7-0.45640-0.29847 0.06555 0.35229-0.95490 0.81893
   0  -6   0 1146.90 178.563   9 0.10569-0.10619-0.25021-0.25026 0.96580-0.96571
   0   6   0 1125.24 112.705   5 0.59324-0.59335 0.25018 0.25018 0.85920-0.85924
   0  -6   0 1193.50 154.127   3-0.48318 0.48353-0.25040-0.25064-0.91202 0.91192
   0   6   0 1164.01 183.909   6-0.27259 0.27283 0.25032 0.25049-0.96290 0.96272
   0  -6   0 1135.30 180.101   4-0.09841 0.09831-0.25045-0.25059-0.96508 0.96514
   1  -6   0 267.163 67.3792   8 0.56420-0.48855-0.17110-0.32968 0.89593-0.88238
  -1  -6   0 200.984 80.1329   4-0.10232 0.02669-0.24075-0.26030-0.96781 0.95432
  -1   6   0 280.362 76.2984   2 0.47400-0.54926 0.32747 0.17325 0.88913-0.90287
   1   6   0 285.149 84.9519   2 0.37914-0.30357 0.19893 0.30168 0.95705-0.94367
   1  -6   0 244.707 80.9435   9 0.11041-0.03547-0.23918-0.26124 0.96888-0.95526
   1   6   0 195.901 60.6543   5 0.48574-0.41046 0.18264 0.31777 0.92810-0.91460
   1  -6   0 289.143 75.9306   3-0.57776 0.65370-0.34319-0.15766-0.83219 0.84552
   1   6   0 225.729 77.6341   1 0.14771-0.07258 0.23397 0.26695 0.97181-0.95845
  -1  -6   0 295.154 77.1933   3-0.42136 0.34606-0.19259-0.30860-0.94742 0.93381
  -1  -6   0 267.526 96.7633   9 0.09690-0.17282-0.27057-0.22996 0.95970-0.97315
   1  -6   0 284.967 89.5387   4-0.09056 0.16601-0.26975-0.23127-0.95928 0.97290
  -1   6   0 217.157 77.2088   6-0.26256 0.18726 0.21642 0.28441-0.97224 0.95852
   1   6   0 226.511 48.8094   6-0.28654 0.36232 0.29920 0.20155-0.94687 0.96023
  -2  -6   0 1494.84 222.799   9 0.08462-0.23597-0.29859-0.20199 0.95043-0.97741
   2   6   0 1595.02 202.958   2 0.35399-0.20303 0.16643 0.33414 0.96889-0.94197
  -2   6   0 1795.20 158.698   7-0.59604 0.44542 0.09350 0.40744-0.89158 0.86418
   2  -6   0 1706.65 182.782   8 0.47029-0.31918-0.13142-0.36927 0.94296-0.91584
   2   6   0 1640.31 205.645   6-0.30431 0.45561 0.36483 0.13586-0.92036 0.94723
   2  -6   0 1699.74 235.585   4-0.07930 0.23032-0.29705-0.20394-0.95027 0.97744
   2  -6   0 1370.01 180.348   9 0.11024 0.04014-0.23957-0.26079 0.96877-0.94162
  -2  -6   0 1601.16 204.951   3-0.38311 0.23214-0.15771-0.34359-0.96411 0.93694
  -2   6   0 1992.76 212.805   2 0.54898-0.69969 0.43852 0.06225 0.79849-0.82581
  -2  -6   0 1372.90 189.386   4-0.10156-0.04958-0.24263-0.25838-0.96729 0.94024
  -2   6   0 1619.51 227.428   6-0.25633 0.10549 0.19578 0.30506-0.97724 0.94996
   2   6   0 1500.59 205.795   1 0.14888 0.00168 0.22835 0.27253 0.97317-0.94627
  -3  -6   0 2.24278 42.9757   9 0.06929-0.29606-0.33291-0.16774 0.93764-0.97817
  -3  -6   0 11.1170 6.47595   4-0.09505-0.13159-0.25873-0.24227-0.96265 0.92205
   3  -6   0 23.1848 48.8723   4-0.06505 0.29161-0.33096-0.16997-0.93771 0.97841
   3   6   0 60.7909 57.6956   2 0.33956-0.11320 0.14803 0.35252 0.97471-0.93424
  -3   6   0 18.2066 23.8867   6-0.25359 0.02721 0.18683 0.31403-0.97925 0.93842
  -3   6   0 52.3984 48.6161   7-0.50208 0.27595 0.07461 0.42646-0.93776 0.89684
   3   6   0 31.1185 34.3586   6-0.32524 0.55205 0.44861 0.05200-0.87741 0.91778
   3  -6   0 33.9820 39.5822   9 0.10401 0.12182-0.25412-0.24617 0.96467-0.92398
   3  -6   0 51.5879 30.8048   8 0.42134-0.19479-0.11111-0.38953 0.96112-0.92044
   3   6   0 50.9153 40.8145   1 0.14751 0.07852 0.23493 0.26596 0.97157-0.93113
  -3  -6   0 32.7570 31.5697   3-0.36145 0.13484-0.13825-0.36314-0.97197 0.93123
   4  -6   0 1581.10 184.583   9 0.08986 0.21143-0.28669-0.21352 0.95450-0.90027
  -4   6   0 1663.28 242.609   6-0.25400-0.04791 0.18817 0.31267-0.97895 0.92456
   4   6   0 2035.13 236.373   6-0.34772 0.65001 0.55102-0.05048-0.80882 0.86265
  -4   6   0 1639.76 193.540   7-0.45734 0.15569 0.06574 0.43544-0.95458 0.90010
  -4  -6   0 1508.45 229.720   3-0.35169 0.04943-0.12952-0.37191-0.97517 0.92084
   4  -6   0 1539.53 205.691   8 0.39799-0.09601-0.10150-0.39911 0.96842-0.91420
   4  -6   0 1598.94 243.267   4-0.04812 0.35024-0.37033-0.13053-0.92113 0.97536
   4   6   0 1420.27 217.262   2 0.33347-0.03172 0.14032 0.36021 0.97696-0.92296
  -4  -6   0 1379.27 228.938   9 0.05125-0.35343-0.37233-0.12837 0.92091-0.97498
  -5   6   0 186.365 101.420   6-0.25721-0.12023 0.19866 0.30215-0.97657 0.90862
  -5  -6   0 172.512 94.5480   9 0.03080-0.40839-0.41585-0.08490 0.89976-0.96739
   5  -6   0 147.482 69.4889   8 0.39044-0.01302-0.09839-0.40217 0.97061-0.90284
   5   6   0 85.0395 57.0555   2 0.33392 0.04322 0.14089 0.35964 0.97679-0.90926
  -5   6   0 143.927 68.9101   7-0.43867 0.06150 0.06205 0.43919-0.96071 0.89267
   5  -6   0 -77.211 74.8600   4-0.02877 0.40645-0.41414-0.08662-0.90004 0.96778
  -5  -6   0 95.2891 51.4561   3-0.35063-0.02727-0.12857-0.37289-0.97550 0.90759
   6   6   0 402.609 109.546   2 0.33954 0.11299 0.14800 0.35252 0.97471-0.89365
  -6   6   0 414.967 121.027   6-0.26284-0.19011 0.21735 0.28342-0.97200 0.89049
  -6  -6   0 569.278 158.805   9 0.00814-0.46115-0.46259-0.03823 0.87369-0.95489
   6  -6   0 637.859 163.188   8 0.39327 0.05956-0.09956-0.40099 0.96980-0.88850
   6  -6   0 440.870 150.226   4-0.00720 0.46044-0.46150-0.03917-0.87388 0.95510
  -6   6   0 649.983 152.328   7-0.43544-0.01727 0.06141 0.43988-0.96172 0.88010
  -6  -6   0 527.755 142.083   3-0.35609-0.09745-0.13344-0.36805-0.97375 0.89224
   7   6   0 -55.245 36.4888   2 0.34930 0.17862 0.16042 0.34009 0.97086-0.87627
  -7  -6   0 109.927 94.7998   9-0.01653-0.51189-0.51174 0.01086 0.84217-0.93694
   7  -6   0 101.466 52.2573   8 0.40328 0.12499-0.10367-0.39686 0.96684-0.87202
  -7   6   0 55.6271 29.5955   7-0.44205-0.08618 0.06272 0.43862-0.95964 0.86442
  -7   6   0 1.10025 73.2954   6-0.27059-0.25786 0.24350 0.25723-0.96489 0.86981
  -7  -6   0 87.2642 79.5082   3-0.36653-0.16264-0.14278-0.35870-0.97023 0.87511
   7  -6   0 6.26025 52.5881   4 0.01640 0.51237-0.51156 0.01101-0.84207 0.93674
   8   6   0 688.105 193.666   2 0.36241 0.24090 0.17724 0.32330 0.96518-0.85707
  -8  -6   0 1095.62 297.371   9-0.04305-0.56078-0.56257 0.06164 0.80461-0.91295
  -8  -6   0 839.526 212.519   3-0.38085-0.22393-0.15567-0.34581-0.96498 0.85626
   8  -6   0 786.058 203.593   8 0.41846 0.18524-0.10992-0.39060 0.96207-0.85372
  -8   6   0 967.774 224.814   7-0.45534-0.14841 0.06534 0.43602-0.95526 0.84644
  -8   6   0 664.397 196.385   6-0.28014-0.32380 0.27651 0.22416-0.95469 0.84605
   8  -6   0 808.478 226.436   4 0.04191 0.56239-0.56359 0.06314-0.80393 0.91203
   9   6   0 7.76720 114.608   2 0.37825 0.30045 0.19778 0.30278 0.95751-0.83588
  -9   6   0 -5.6441 76.8016   6-0.29118-0.38823 0.31596 0.18466-0.94066 0.81844
  -9  -6   0 -15.839 174.442   9-0.07132-0.60793-0.61439 0.11342 0.76033-0.88226
  -9  -6   0 -120.40 130.776   3-0.39826-0.28213-0.17145-0.33002-0.95794 0.83561
   9   6   0 -103.21 52.8129   5 0.41907 0.26000 0.14208 0.35851 0.95741-0.83541
   9  -6   0 106.133 117.272   8 0.43747 0.24166-0.11778-0.38273 0.95558-0.83372
  -9   6   0 -4.2703 23.7567   7-0.47336-0.20591 0.06891 0.43248-0.94891 0.82647
 -10   6   0 249.509 152.892   7-0.49484-0.25994 0.07317 0.42823-0.94069 0.80463
   0  -7   0 20.8028 54.3145   4-0.08132 0.08120-0.29217-0.29236-0.95195 0.95201
   0  -7   0 -18.993 26.1788   3-0.52648 0.52690-0.29211-0.29243-0.87993 0.87974
   0   7   0 -13.529 53.6068   6-0.28453 0.28481 0.29203 0.29225-0.94942 0.94919
   0   7   0 6.85590 20.4044   2 0.44868-0.44849 0.29211 0.29201 0.91138-0.91160
   0  -7   0 61.7103 44.0942   9 0.08757-0.08814-0.29191-0.29198 0.95274-0.95264
   1  -7   0 210.096 92.4337   4-0.07525 0.15068-0.30674-0.27779-0.94684 0.96045
  -1   7   0 145.567 63.0679   2 0.49756-0.57280 0.36124 0.22293 0.86508-0.87887
  -1   7   0 140.728 27.4459   6-0.27576 0.20051 0.26127 0.32304-0.95958 0.94580
  -1  -7   0 131.371 61.2144   4-0.08377 0.00812-0.28625-0.29827-0.95395 0.94046
  -1  -7   0 109.396 52.7980   9 0.08077-0.15678-0.30728-0.27666 0.94735-0.96077
   1  -7   0 164.066 77.2545   9 0.09060-0.01573-0.28501-0.29883 0.95506-0.94143
   1   7   0 99.1349 15.8220   6-0.29643 0.37225 0.33521 0.24902-0.93306 0.94636
  -1  -7   0 183.692 67.3196   3-0.46849 0.39328-0.23648-0.34822-0.92147 0.90779
   1   7   0 133.505 59.3959   2 0.41300-0.33739 0.24364 0.34041 0.93738-0.92405
   2  -7   0 709.124 173.284   4-0.06602 0.21701-0.32867-0.25582-0.93860 0.96576
   2   7   0 751.479 131.502   5 0.48939-0.33871 0.18489 0.39895 0.92623-0.89918
  -2   7   0 555.274 151.138   6-0.27007 0.11927 0.24173 0.34259-0.96540 0.93808
   2  -7   0 759.028 148.018   9 0.08919 0.06111-0.28821-0.29557 0.95399-0.92683
   2   7   0 700.730 155.627   6-0.31132 0.46267 0.39199 0.19218-0.90761 0.93442
  -2  -7   0 768.582 167.270   9 0.07069-0.22212-0.32980-0.25419 0.93887-0.96583
   2  -7   0 830.144 134.608   8 0.55665-0.40548-0.16788-0.41632 0.90037-0.87329
   2   7   0 703.652 151.231   2 0.38855-0.23754 0.21123 0.37278 0.95204-0.92515
  -2  -7   0 667.711 147.686   4-0.08200-0.06916-0.29053-0.29396-0.95251 0.92546
  -2  -7   0 763.018 153.363   3-0.42999 0.27912-0.20055-0.38428-0.94314 0.91591
   3   7   0 3177.34 299.326   5 0.45050-0.22438 0.16110 0.42280 0.94471-0.90411
   3   7   0 3086.01 332.235   2 0.37329-0.14690 0.19132 0.39266 0.96000-0.91958
  -3   7   0 3095.38 351.179   6-0.26728 0.04095 0.23229 0.35204-0.96804 0.92717
   3   7   0 3384.67 323.360   6-0.32870 0.55557 0.46333 0.12076-0.86872 0.90902
   3  -7   0 3033.67 296.752   9 0.08240 0.14337-0.30360-0.28010 0.94866-0.90797
  -3  -7   0 3162.43 362.163   9 0.05771-0.28456-0.35833-0.22572 0.92711-0.96761
   3  -7   0 2597.44 331.030   4-0.05396 0.28050-0.35687-0.22759-0.92705 0.96774
  -3  -7   0 3163.10 335.528   3-0.40616 0.17962-0.17865-0.40626-0.95450 0.91371
   3  -7   0 3261.62 289.644   8 0.49803-0.27143-0.14305-0.44107 0.93083-0.89018
  -3  -7   0 3005.23 301.745   4-0.07515-0.15151-0.30699-0.27748-0.94675 0.90615
   4  -7   0 -7.2802 12.8129   4-0.03934 0.34145-0.39037-0.19402-0.91184 0.96606
   4   7   0 -40.149 21.2991   6-0.34744 0.64980 0.54962 0.03438-0.80989 0.86366
  -4  -7   0 -27.871 14.8907   3-0.39334 0.09115-0.16698-0.41800-0.96000 0.90563
  -4  -7   0 22.8181 32.0842   4-0.06195-0.24017-0.33824-0.24618-0.93481 0.88066
   4   7   0 33.7692 44.9447   2 0.36550-0.06372 0.18123 0.40273 0.96375-0.90979
  -4   7   0 -56.016 72.0125   6-0.26718-0.03470 0.23193 0.35237-0.96814 0.91371
   4  -7   0 -55.664 55.4096   8 0.46572-0.16369-0.12952-0.45454 0.94482-0.89062
   4   7   0 -85.129 68.4465   5 0.42903-0.12746 0.14808 0.43586 0.95359-0.89945
  -4  -7   0 -10.364 13.5110   9 0.04212-0.34439-0.39190-0.19220 0.91176-0.96580
   4  -7   0 -15.837 49.5405   9 0.06878 0.23245-0.33403-0.24961 0.93720-0.88296
  -5  -7   0 146.453 81.5551   3-0.38891 0.01106-0.16297-0.42206-0.96181 0.89385
  -5  -7   0 61.0874 40.8527   9 0.02418-0.40186-0.42966-0.15450 0.89243-0.96003
   5  -7   0 112.642 92.5423   8 0.45039-0.07292-0.12314-0.46088 0.95082-0.88308
  -5   7   0 97.3922 87.8594   6-0.26950-0.10791 0.23979 0.34449-0.96595 0.89795
   5   7   0 117.703 71.8839   5 0.41975-0.04271 0.14250 0.44148 0.95715-0.88946
   5   7   0 141.582 78.5667   2 0.36377 0.01341 0.17899 0.40495 0.96455-0.89706
   5  -7   0 116.865 95.8339   4-0.02238 0.40005-0.42834-0.15598-0.89258 0.96031
   6   7   0 216.408 104.367   2 0.36696 0.08560 0.18312 0.40082 0.96306-0.88204
   6   7   0 209.548 67.2666   5 0.41929 0.03324 0.14222 0.44179 0.95733-0.87606
   6  -7   0 162.870 67.4409   4-0.00326 0.45650-0.46999-0.11424-0.86880 0.95001
  -6   7   0 260.340 117.900   6-0.27397-0.17895 0.25512 0.32912-0.96146 0.87990
  -6  -7   0 288.650 126.034   3-0.39096-0.06253-0.16483-0.42023-0.96098 0.87942
  -6  -7   0 271.373 143.270   9 0.00406-0.45715-0.47085-0.11338 0.86870-0.94986
   6  -7   0 151.917 25.3731   8 0.44657 0.00633-0.12155-0.46243 0.95226-0.87098
   7   7   0 -128.76 108.112   2 0.37420 0.15374 0.19250 0.39144 0.95955-0.86501
  -7  -7   0 2.89357 106.929   9-0.01807-0.51043-0.51475-0.06952 0.84009-0.93481
  -7   7   0 110.444 100.133   7-0.50421-0.02391 0.07504 0.50981-0.93688 0.84157
  -7  -7   0 36.6464 48.8736   3-0.39810-0.13102-0.17131-0.41375-0.95800 0.86284
   7   7   0 -115.74 88.0693   5 0.42537 0.10264 0.14588 0.43815 0.95502-0.86018
   7  -7   0 -82.388 76.9183   8 0.45088 0.07744-0.12335-0.46062 0.95064-0.85583
  -7   7   0 111.570 97.6665   6-0.28037-0.24807 0.27732 0.30688-0.95443 0.85930
   7  -7   0 -66.031 20.5417   4 0.01787 0.51091-0.51462-0.06950-0.83997 0.93465
   8   7   0 172.420 104.721   2 0.38479 0.21855 0.20631 0.37764 0.95408-0.84602
   8   7   0 165.652 60.6172   5 0.43643 0.16708 0.15256 0.43147 0.95063-0.84221
   8  -7   0 51.5427 69.1142   8 0.46116 0.14259-0.12762-0.45632 0.94665-0.83833
  -8   7   0 420.840 174.521   7-0.51065-0.09298 0.07632 0.50856-0.93418 0.82526
  -8   7   0 238.081 93.7862   6-0.28840-0.31554 0.30591 0.27825-0.94443 0.83573
  -8  -7   0 315.173 116.034   9-0.04207-0.56184-0.56073-0.02360 0.80606-0.91435
   8  -7   0 200.879 137.797   4 0.04090 0.56342-0.56158-0.02243-0.80551 0.91361
  -8  -7   0 320.659 156.657   3-0.40929-0.19546-0.18152-0.40354-0.95309 0.84431
   9  -7   0 120.820 112.028   8 0.47592 0.20326-0.13379-0.45015 0.94061-0.81878
  -9  -7   0 -63.322 176.033   9-0.06786-0.61146-0.60818 0.02380 0.76599-0.88786
   9   7   0 91.4905 60.2300   5 0.45137 0.22763 0.16163 0.42241 0.94433-0.82232
  -9   7   0 38.7074 69.8287   7-0.52302-0.15613 0.07880 0.50613-0.92880 0.80627
  -9   7   0 -97.399 74.6236   6-0.29786-0.38156 0.34051 0.24358-0.93088 0.80861
   0  -8   0 5139.26 464.969   4-0.06381 0.06365-0.33389-0.33413-0.93655 0.93660
   0   8   0 5613.79 419.462   2 0.47849-0.47827 0.33384 0.33371 0.88480-0.88508
   0   8   0 5337.04 480.098   6-0.29603 0.29636 0.33373 0.33401-0.93366 0.93337
   0  -8   0 5093.61 452.711   9 0.06897-0.06962-0.33361-0.33370 0.93736-0.93725
   1   8   0 33.2721 24.8154   2 0.44553-0.36989 0.28777 0.37975 0.91392-0.90064
   1  -8   0 -21.421 24.3761   4-0.05914 0.13454-0.34481-0.32321-0.93212 0.94572
   1  -8   0 -4.1588 32.2179   9 0.07068 0.00411-0.32981-0.33744 0.93886-0.92522
  -1  -8   0 -50.989 62.5663   4-0.06511-0.01058-0.33082-0.33718-0.93776 0.92426
  -1   8   0 22.3138 39.7391   6-0.28827 0.21305 0.30540 0.36237-0.94462 0.93079
  -1  -8   0 -58.495 24.9498   9 0.06374-0.13983-0.34515-0.32221 0.93269-0.94610
  -1   8   0 -9.9338 30.1986   2 0.52187-0.59708 0.39708 0.27054 0.83633-0.85018
   1   8   0 -15.196 77.7104   6-0.30635 0.38222 0.37264 0.29506-0.91680 0.93003
  -1  -8   0 36.8389 66.5594   3-0.51402 0.43889-0.27999-0.38821-0.88986 0.87606
   2   8   0 52.2159 52.4477   2 0.42187-0.27083 0.25555 0.41191 0.93145-0.90462
  -2  -8   0 -22.446 16.3365   4-0.06254-0.08866-0.33686-0.33111-0.93536 0.90830
   2  -8   0 49.2411 49.7995   9 0.06831 0.08193-0.33507-0.33212 0.93678-0.90961
  -2  -8   0 51.6750 82.1199   9 0.05541-0.20692-0.36333-0.30408 0.92493-0.95188
  -2   8   0 134.097 59.7179   6-0.28305 0.13229 0.28679 0.38101-0.95123 0.92386
  -2  -8   0 131.730 78.4734   3-0.47577 0.32498-0.24336-0.42499-0.91688 0.88956
   2   8   0 -48.520 31.6327   6-0.31905 0.47045 0.42295 0.24468-0.89172 0.91847
   2  -8   0 31.0655 8.23909   4-0.05150 0.20246-0.36254-0.30546-0.92459 0.95173
   3   8   0 159.547 96.1508   2 0.40616-0.17973 0.23452 0.43290 0.94172-0.90135
   3  -8   0 211.474 92.7578   4-0.04120 0.26772-0.38616-0.28181-0.91385 0.95452
   3   8   0 194.921 88.5575   6-0.33373 0.56065 0.48533 0.18223-0.85503 0.89526
  -3  -8   0 314.928 126.065   9 0.04432-0.27126-0.38721-0.28025 0.91400-0.95449
  -3  -8   0 272.920 101.209   4-0.05538-0.17131-0.35356-0.31436-0.92846 0.88785
   3   8   0 348.322 104.209   5 0.51135-0.28529 0.19848 0.46879 0.91432-0.87371
  -3   8   0 199.660 90.6799   6-0.28029 0.05398 0.27705 0.39075-0.95452 0.91358
   3  -8   0 324.775 117.403   9 0.06104 0.16466-0.35105-0.31607 0.93022-0.88951
  -3  -8   0 283.400 114.437   3-0.45043 0.22398-0.21953-0.44891-0.93217 0.89131
   4  -8   0 261.162 122.028   4-0.02844 0.33053-0.41487-0.25305-0.89967 0.95387
  -4  -8   0 131.504 67.8426   9 0.03074-0.33308-0.41598-0.25153 0.89969-0.95372
  -4   8   0 229.154 83.3886   6-0.27983-0.02202 0.27543 0.39236-0.95505 0.90056
   4   8   0 289.621 129.275   2 0.39713-0.09531 0.22254 0.44486 0.94716-0.89325
   4   8   0 124.272 63.3377   5 0.48522-0.18370 0.18232 0.48500 0.92836-0.87420
  -4  -8   0 302.163 122.587   3-0.43522 0.13312-0.20540-0.46313-0.94044 0.88600
   5   8   0 10.8224 61.3476   2 0.39367-0.01646 0.21798 0.44940 0.94916-0.88172
   5   8   0 114.461 88.5681   5 0.47123-0.09425 0.17374 0.49362 0.93525-0.86753
   5  -8   0 67.9230 74.5091   8 0.51431-0.13678-0.14991-0.51758 0.92306-0.85535
  -5   8   0 129.195 81.6547   6-0.28148-0.09590 0.28124 0.38652-0.95312 0.88506
  -5  -8   0 78.7878 61.0283   9 0.01485-0.39261-0.44890-0.21866 0.88170-0.94927
  -5  -8   0 64.9440 46.0464   3-0.42802 0.05024-0.19873-0.46986-0.94414 0.87611
   5  -8   0 99.4335 62.1325   4-0.01344 0.39110-0.44796-0.21989-0.88173 0.94944
  -6  -8   0 1354.68 303.415   3-0.42714-0.02630-0.19792-0.47070-0.94458 0.86295
  -6   8   0 1411.09 296.755   6-0.28506-0.16785 0.29392 0.37381-0.94875 0.86714
  -6  -8   0 1060.18 264.220   9-0.00316-0.45001-0.48533-0.18229 0.85966-0.94078
   6   8   0 1220.38 256.457   5 0.46628-0.01382 0.17072 0.49669 0.93759-0.85631
   6  -8   0 1345.96 267.857   8 0.50413-0.05115-0.14561-0.52183 0.92798-0.84674
   6   8   0 1277.93 273.054   2 0.39487 0.05772 0.21957 0.44780 0.94847-0.86750
   6  -8   0 1241.27 280.712   4 0.00366 0.44957-0.48476-0.18301-0.85966 0.94085
  -7   8   0 170.919 77.9099   6-0.29035-0.23807 0.31294 0.35474-0.94181 0.84662
  -7  -8   0 26.9791 71.1284   9-0.02315-0.50543-0.52463-0.14304 0.83315-0.92782
   7  -8   0 12.6823 102.359   8 0.50286 0.02553-0.14508-0.52232 0.92858-0.83381
  -7  -8   0 92.6254 101.348   3-0.43135-0.09772-0.20181-0.46683-0.94244 0.84721
   7   8   0 158.322 108.927   5 0.46820 0.05973 0.17189 0.49554 0.93669-0.84183
   7  -8   0 163.252 130.039   4 0.02272 0.50606-0.52466-0.14302-0.83298 0.92763
   7   8   0 -6.6181 38.7863   2 0.39998 0.12800 0.22632 0.44105 0.94548-0.85099
  -8   8   0 59.0559 73.8755   6-0.29716-0.30677 0.33794 0.32969-0.93194 0.82319
   8   8   0 73.9411 66.5673   5 0.47547 0.12796 0.17634 0.49111 0.93321-0.82478
   8  -8   0 -63.499 58.0832   8 0.50827 0.09555-0.14735-0.52003 0.92600-0.81772
  -8  -8   0 -24.342 55.7447   9-0.04501-0.55898-0.56624-0.10149 0.80168-0.90992
   8  -8   0 53.0413 79.7481   4 0.04367 0.56067-0.56710-0.10048-0.80115 0.90925
   0  -9   0 32.7279 11.0030   9 0.04987-0.05060-0.37530-0.37542 0.91956-0.91943
   0   9   0 -47.273 35.3245   6-0.30708 0.30745 0.37544 0.37578-0.91551 0.91514
   0  -9   0 40.7430 62.1848   4-0.04581 0.04563-0.37561-0.37590-0.91874 0.91877
   1  -9   0 14.5174 40.1892   4-0.04230 0.11767-0.38362-0.36790-0.91504 0.92861
   1   9   0 48.2489 20.7140   6-0.31610 0.39203 0.41100 0.34017-0.89803 0.91118
   1   9   0 82.0799 60.7405   2 0.47683-0.40116 0.33148 0.41948 0.88642-0.87320
  -1  -9   0 27.8205 33.3196   9 0.04593-0.12210-0.38377-0.36700 0.91563-0.92903
  -1   9   0 -38.633 57.8956   6-0.30015 0.22498 0.34906 0.40219-0.92727 0.91337
  -1  -9   0 -13.417 12.7336   4-0.04618-0.02954-0.37478-0.37669-0.91912 0.90560
   1  -9   0 39.3300 23.0323   9 0.05050 0.02422-0.37395-0.37672 0.92017-0.90653
   2   9   0 94.8437 59.4892   2 0.45405-0.30298 0.29953 0.45137 0.90695-0.88018
   2   9   0 134.137 94.0769   6-0.32707 0.47852 0.45634 0.29476-0.87289 0.89955
   2  -9   0 186.845 107.505   9 0.04731 0.10286-0.38080-0.36981 0.91702-0.88983
  -2  -9   0 80.3371 65.3356   9 0.03905-0.19064-0.39845-0.35237 0.90857-0.93550
  -2   9   0 273.247 145.220   6-0.29535 0.14464 0.33123 0.42003-0.93467 0.90723
   2  -9   0 142.031 80.3955   4-0.03599 0.18691-0.39794-0.35356-0.90818 0.93529
  -2  -9   0 173.649 96.0408   4-0.04293-0.10829-0.38218-0.36925-0.91571 0.88864
   3   9   0 556.527 169.321   6-0.33959 0.56657 0.51196 0.23907-0.83730 0.87744
   3   9   0 457.552 163.993   2 0.43815-0.21168 0.27765 0.47321 0.91967-0.87935
  -3  -9   0 450.479 136.712   4-0.03548-0.19125-0.39909-0.35230-0.90761 0.86699
  -3   9   0 603.087 170.579   6-0.29266 0.06639 0.32132 0.42996-0.93859 0.89760
   3  -9   0 579.269 165.661   9 0.03962 0.18602-0.39725-0.35330 0.90916-0.86844
  -3  -9   0 623.155 180.992   9 0.02953-0.25654-0.41851-0.33236 0.89837-0.93884
  -3  -9   0 458.443 152.112   3-0.49408 0.26772-0.26078-0.49119-0.90457 0.86360
   3  -9   0 455.543 174.335   4-0.02712 0.25361-0.41782-0.33367-0.89814 0.93879
  -4  -9   0 141.687 58.1787   3-0.47704 0.17501-0.24457-0.50749-0.91605 0.86152
   4  -9   0 300.583 132.808   4-0.01592 0.31799-0.44254-0.30890-0.88479 0.93896
  -4   9   0 187.901 89.8550   6-0.29195-0.00988 0.31873 0.43253-0.93960 0.88504
  -4  -9   0 252.599 125.036   9 0.01760-0.32003-0.44327-0.30764 0.88491-0.93890
   4   9   0 223.788 108.622   2 0.42823-0.12638 0.26416 0.48668 0.92699-0.87314
   5  -9   0 -2.1541 43.5880   4-0.00255 0.38019-0.47151-0.27987-0.86787 0.93555
  -5  -9   0 100.781 67.9014   9 0.00344-0.38128-0.47210-0.27887 0.86794-0.93547
  -5   9   0 43.7674 86.2406   6-0.29310-0.08426 0.32294 0.42831-0.93796 0.86984
   5   9   0 -8.1789 95.6654   2 0.42342-0.04618 0.25765 0.49316 0.93038-0.86300
  -5  -9   0 90.7914 113.463   3-0.46754 0.08984-0.23558-0.51655-0.92206 0.85394
  -6  -9   0 284.442 201.881   9-0.01279-0.44046-0.50440-0.24661 0.84716-0.92824
  -6   9   0 -104.34 131.715   6-0.29595-0.15693 0.33346 0.41775-0.93377 0.85209
   6   9   0 93.6230 91.7044   5 0.51530-0.06290 0.20093 0.54986 0.91207-0.83077
  -6  -9   0 25.6774 97.9328   3-0.46416 0.01080-0.23240-0.51978-0.92412 0.84241
   6   9   0 4.81168 29.0826   2 0.42299 0.02964 0.25706 0.49373 0.93068-0.84977
   6  -9   0 176.704 90.3625   4 0.01285 0.44036-0.50416-0.24716-0.84706 0.92823
   7   9   0 227.744 107.993   5 0.51339 0.01448 0.19974 0.55108 0.91316-0.81829
   0  10   0 336.403 147.450   6-0.31762 0.31805 0.41714 0.41755-0.89482 0.89436
   0 -10   0 255.402 131.956   9 0.03025-0.03105-0.41699-0.41714 0.89917-0.89903
   0 -10   0 251.879 114.091   4-0.02734 0.02713-0.41731-0.41768-0.89840 0.89839
   1  10   0 -11.922 70.5938   6-0.32557 0.40154 0.45000 0.38464-0.87661 0.88967
  -1 -10   0 14.7948 51.6458   9 0.02740-0.10364-0.42295-0.41123 0.89603-0.90942
  -1  10   0 0.18522 72.5828   6-0.31142 0.23629 0.39238 0.44235-0.90742 0.89343
   1 -10   0 76.9533 52.3514   4-0.02481 0.10013-0.42294-0.41206-0.89545 0.90899
   1 -10   0 178.540 120.827   9 0.02995 0.04470-0.41762-0.41646 0.89884-0.88517
  -1 -10   0 96.6826 66.0612   4-0.02689-0.04886-0.41832-0.41663-0.89788 0.88433
  -2 -10   0 -17.794 85.7512   9 0.02175-0.17342-0.43471-0.39952 0.88968-0.91659
   2 -10   0 54.2085 55.6931   4-0.01961 0.17048-0.43446-0.40055-0.88927 0.91634
  -2  10   0 158.585 69.8020   6-0.30702 0.15634 0.37524 0.45950-0.91560 0.88807
  -2 -10   0 63.9576 67.7035   4-0.02305-0.12821-0.42684-0.40807-0.89338 0.86628
   2  10   0 -108.27 107.061   2 0.48510-0.33399 0.34326 0.49109 0.87823-0.85154
   2 -10   0 84.0445 63.7456   9 0.02605 0.12406-0.42578-0.40826 0.89452-0.86733
   2  10   0 128.429 84.5172   6-0.33509 0.48659 0.49141 0.34316-0.85109 0.87766
  -3  10   0 27.5952 130.126   6-0.30441 0.07819 0.36524 0.46951-0.92018 0.87910
   3 -10   0 77.1548 70.6643   4-0.01196 0.23842-0.45119-0.38381-0.87989 0.92050
   3  10   0 25.1259 70.6953   2 0.46924-0.24273 0.32076 0.51355 0.89357-0.85333
  -3 -10   0 79.5461 63.2471   9 0.01355-0.24065-0.45157-0.38270 0.88017-0.92061
  -4  10   0 167.226 157.375   6-0.30354 0.00176 0.36190 0.47284-0.92167 0.86703
  -4 -10   0 -3.2912 97.1015   9 0.00303-0.30553-0.47293-0.36139 0.86743-0.92140
   4  10   0 22.8347 67.2149   2 0.45872-0.15682 0.30602 0.52826 0.90297-0.84919
  -4 -10   0 36.7126 83.8963   3-0.51852 0.21659-0.28436-0.55122-0.88634 0.83167
  -5 -10   0 27.3049 16.5438   3-0.50717 0.12955-0.27336-0.56230-0.89507 0.82684
   0 -11   0 -44.664 23.8379   9 0.01006-0.01093-0.45869-0.45887 0.87601-0.87585
   0 -11   0 -58.421 36.3708   4-0.00834 0.00808-0.45902-0.45944-0.87534 0.87529
   0  11   0 -58.771 127.625   6-0.32765 0.32812 0.45883 0.45932-0.87141 0.87085
  -1 -11   0 520.669 194.271   4-0.00717-0.06862-0.46156-0.45687-0.87385 0.86025
   1  11   0 596.468 213.744   6-0.33466 0.41067 0.48946 0.42865-0.85236 0.86532
   1 -11   0 272.389 118.368   9 0.00893 0.06565-0.46098-0.45653 0.87465-0.86097
 -12   0   1 160.374 86.9784   7-0.54190-0.34559 0.08257-0.08277-0.92010 0.85750
  12   0  -1 285.960 153.285   8 0.54134 0.34633-0.16135 0.16117 0.90900-0.84700
  12   0  -1 82.2773 107.781   5 0.53943 0.34795 0.21600-0.21641 0.89744-0.83484
  11   0  -1 31.6984 24.0146   5 0.51318 0.29872 0.19961-0.19997 0.91328-0.86431
 -11   0   1 -22.652 15.4632   7-0.51541-0.29658 0.07728-0.07746-0.93214 0.88315
  11   0  -1 32.1482 66.0882   8 0.51491 0.29729-0.15016 0.15000 0.92276-0.87426
  10   0  -1 30.5529 36.6985   8 0.49046 0.24630-0.13987 0.13973 0.93428-0.89929
  10   0  -1 -88.227 85.2844   5 0.48887 0.24755 0.18457-0.18489 0.92649-0.89112
 -10   0   1 94.6492 69.5765   3-0.48713-0.25018-0.25415 0.25426-0.90937 0.87405
 -10   0   1 22.2715 38.3918   7-0.49092-0.24558 0.07239-0.07257-0.94224 0.90687
   9   0  -1 24.8853 49.7328   5 0.46716 0.19377 0.17125-0.17152 0.93718-0.91540
  -9   0   1 -42.612 49.9255   3-0.46560-0.19618-0.23376 0.23388-0.92325 0.90151
   9   0  -1 21.0414 13.3777   8 0.46865 0.19265-0.13074 0.13062 0.94363-0.92217
  -9   0   1 21.0935 15.6503   7-0.46908-0.19192 0.06806-0.06823-0.95046 0.92868
  -8   0   1 11.3300 53.4286   3-0.44757-0.13867-0.21687 0.21698-0.93377 0.92562
  -8   0   1 -28.156 28.2872   7-0.45088-0.13462 0.06446-0.06462-0.95676 0.94856
   8   0  -1 -87.335 49.0847   5 0.44903 0.13642 0.16021-0.16044 0.94534-0.93715
   8   0  -1 49.5436 34.8481   8 0.45046 0.13539-0.12317 0.12305 0.95080-0.94286
   8   0  -1 -21.407 35.3036   2 0.44406 0.14146 0.28575-0.28555 0.91508-0.90699
   7   0  -1 1.28738 17.0805   5 0.43599 0.07399 0.15229-0.15249 0.95081-0.95619
  -7   0   1 7.38373 32.2862   7-0.43787-0.07214 0.06189-0.06204-0.96097 0.96634
   7   0  -1 -30.641 27.1686   2 0.43110 0.07900 0.26804-0.26786 0.92492-0.93036
   7   0  -1 -2.0642 18.9200   8 0.43740 0.07300-0.11776 0.11764 0.95560-0.96119
  -7   0   1 2.70428 37.4662   3-0.43450-0.07620-0.20472 0.20485-0.94082 0.94623
   6   0  -1 542.898 112.139   8 0.43195 0.00300-0.11549 0.11540 0.95752-0.97666
  -6   0   1 926.043 107.653   9-0.03996-0.39453-0.55676 0.55634 0.80918-0.79039
   6   0  -1 556.067 93.7629   2 0.42515 0.00951 0.25999-0.25982 0.92917-0.94815
   6   0  -1 842.876 105.617   4 0.04156 0.39364-0.56288 0.56327-0.80448 0.78524
   6   0  -1 701.798 122.557   5 0.43045 0.00405 0.14894-0.14911 0.95303-0.97198
   5   0  -1 -5.2442 8.54584   4-0.06489 0.42471-0.33134 0.33156-0.93755 0.90493
   5   0  -1 -20.356 2.47206   2 0.42991-0.07065 0.26642-0.26626 0.92579-0.95831
   5   0  -1 -3.0678 9.92837   6-0.06514 0.42481-0.33058 0.33079-0.93785 0.90519
  -5   0   1 -13.136 9.25245   9 0.06437-0.42344-0.34374 0.34333 0.93326-0.90082
   5   0  -1 -22.192 38.0893   8 0.43831-0.07881-0.11813 0.11804 0.95527-0.98797
   5   0  -1 0.52750 9.38290   5 0.43653-0.07751 0.15262-0.15276 0.95059-0.98309
  -5   0   1 -2.7615 4.86007   3-0.43428 0.07468-0.20451 0.20465-0.94093 0.97348
  -5   0   1 -0.5657 20.0188   7-0.43910 0.08009 0.06214-0.06228-0.96058 0.99307
   4   0  -1 5869.22 259.666   2 0.45146-0.16763 0.29594-0.29580 0.90911-0.95518
  -4   0   1 5372.05 176.353   9 0.18237-0.46599-0.06117 0.06081 0.99814-0.95204
   4   0  -1 5358.42 173.729   4-0.18207 0.46654-0.02961 0.02962-0.99955 0.95340
   4   0  -1 5520.27 286.703   8 0.46418-0.18014-0.12888 0.12880 0.94544-0.99170
  -4   0   1 5438.34 295.166   7-0.46558 0.18206 0.06737-0.06751-0.95171 0.99773
  -4   0   1 5083.20 270.875   3-0.45801 0.17398-0.22663 0.22678-0.92780 0.97390
   4   0  -1 5488.77 275.725   5 0.46171-0.17816 0.16792-0.16804 0.93970-0.98574
   4   0  -1 5567.65 176.451   6-0.18247 0.46653-0.02834 0.02854-0.99959 0.95344
   3   0  -1 4.76642 10.9017   8 0.52460-0.31603-0.15426 0.15418 0.91788-0.97770
   3   0  -1 6.82333 13.7029   2 0.49949-0.29110 0.36404-0.36391 0.86296-0.92259
   3   0  -1 3.94211 6.63345   6-0.29614 0.50462 0.33417-0.33401-0.93348 0.87385
   3   0  -1 -3.1866 4.31595   4-0.29584 0.50482 0.33289-0.33301-0.93400 0.87418
  -3   0   1 8.64451 13.1819   3-0.51234 0.30386-0.27836 0.27851-0.89115 0.95079
  -3   0   1 17.4060 9.24242   7-0.52773 0.31968 0.07973-0.07987-0.92669 0.98623
   3   0  -1 7.03134 8.86822   5 0.52014-0.31204 0.20394-0.20402 0.90925-0.96881
  -3   0   1 -4.4535 7.85450   9 0.30249-0.51067 0.29127-0.29150 0.94706-0.88734
  -2   0   1 3670.11 197.757   3-0.61518 0.48221-0.38187 0.38202-0.78891 0.86207
   2   0  -1 3373.25 182.900   8 0.64796-0.51489-0.20743 0.20737 0.83736-0.91077
   2   0  -1 3399.09 183.519   5 0.63675-0.50406 0.27846-0.27851 0.82163-0.89470
  -2   0   1 3051.15 169.341   7-0.65694 0.52430 0.10596-0.10608-0.85231 0.92533
  -4   0  -1 1067.70 154.625   7 0.13008-0.45050-0.04570 0.04585-0.95098 0.79620
   4   0   1 1013.93 143.108   8-0.12940 0.44895 0.10515-0.10509 0.94672-0.79230
  -5   0  -1 -7.3563 30.0178   7 0.03903-0.43496-0.02898 0.02913-0.97557 0.80724
   5   0   1 0.61964 23.2314   8-0.03914 0.43413 0.07109-0.07103 0.97346-0.80548
   6   0   1 350.874 106.868   8 0.03616 0.43427 0.04227-0.04222 0.98871-0.80718
  -6   0  -1 196.381 66.6214   7-0.03659-0.43484-0.01494 0.01508-0.98954 0.80766
   7   0   1 8.57909 47.0673   8 0.10210 0.44379 0.01674-0.01669 0.99680-0.80172
  -7   0  -1 6.56854 47.0189   7-0.10261-0.44430-0.00257 0.00270-0.99698 0.80154
  -8   0  -1 129.289 86.8686   7-0.16232-0.46007 0.00870-0.00857-0.99981 0.79080
   8   0   1 193.491 97.1913   8 0.16184 0.45952-0.00664 0.00667 0.99982-0.79120
  -9   0  -1 -5.2401 19.0317   7-0.21767-0.48021 0.01923-0.01911-0.99906 0.77647
   9   0   1 86.7755 128.421   8 0.21728 0.47954-0.02854 0.02856 0.99885-0.77670
 -12  -1   1 390.224 180.888   7-0.55297-0.33447 0.08480-0.16854-0.91471 0.85213
  12  -1  -1 257.191 117.532   8 0.53131 0.35633-0.15709 0.07350 0.91439-0.85236
  12   1  -1 162.799 91.6311   5 0.52516 0.36224 0.20707-0.12400 0.90627-0.84371
  12   1  -1 151.946 89.5577   8 0.55962 0.32809-0.16915 0.25240 0.89864-0.83665
 -11  -1   1 257.944 120.331   7-0.52701-0.28494 0.07959-0.16332-0.92702 0.87805
  11   1  -1 217.627 120.228   5 0.49911 0.31280 0.19090-0.10777 0.92109-0.87216
 -11   1   1 186.703 121.604   7-0.51208-0.29995 0.07661 0.00676-0.93358 0.88457
 -11  -1   1 194.603 110.734   3-0.49123-0.32172-0.25805 0.17470-0.90656 0.85764
  11  -1  -1 145.751 100.935   8 0.50501 0.30716-0.14598 0.06241 0.92756-0.87904
  11  -1  -1 119.803 84.9426   5 0.53720 0.27467 0.21461-0.29844 0.89885-0.84981
  11   1  -1 141.976 120.442   8 0.53384 0.27841-0.15817 0.24144 0.91305-0.86458
 -10   1   1 177.522 127.772   7-0.48776-0.24878 0.07176 0.01162-0.94348 0.90808
 -10  -1   1 91.9653 50.0976   7-0.50317-0.23328 0.07483-0.15855-0.93731 0.90195
  10  -1  -1 27.5074 50.7081   8 0.48065 0.25609-0.13576 0.05219 0.93859-0.90359
  10   1  -1 61.5375 44.1094   5 0.47493 0.26150 0.17601-0.09285 0.93347-0.89814
  10  -1  -1 41.5582 30.8386   5 0.51380 0.22259 0.19999-0.28378 0.91293-0.87750
 -10  -1   1 -15.923 27.7106   3-0.46743-0.26998-0.23548 0.15211-0.92213 0.88681
  10   1  -1 22.1636 28.1329   8 0.51024 0.22655-0.14818 0.23147 0.92505-0.89009
  -9  -1   1 -13.802 50.3803   7-0.48218-0.17877 0.07065-0.15436-0.94562 0.92385
   9   1  -1 -47.214 46.9924   5 0.45322 0.20773 0.16274-0.07955 0.94352-0.92178
   9  -1  -1 103.008 65.1560   5 0.49338 0.16753 0.18736-0.27110 0.92414-0.90231
  -9   1   1 49.4020 54.6486   3-0.50005-0.16164-0.26650 0.35006-0.90031 0.87857
  -9  -1   1 18.1133 14.8877   3-0.44597-0.21590-0.21538 0.13201-0.93466 0.91293
   9   1  -1 130.043 79.1610   8 0.48959 0.17174-0.13951 0.22281 0.93467-0.91323
   9  -1  -1 -168.06 81.5647   8 0.45881 0.20247-0.12664 0.04309 0.94758-0.92609
   9   1  -1 145.389 73.1310   2 0.43621 0.22470 0.27499-0.19134 0.92114-0.89954
  -9   1   1 20.3651 46.3656   7-0.46606-0.19496 0.06747 0.01592-0.95154 0.92973
  -8   1   1 1612.38 212.275   3-0.48432-0.10184-0.25147 0.33503-0.91127 0.90310
   8   1  -1 1570.32 198.774   2 0.41829 0.16720 0.25074-0.16710 0.93389-0.92580
   8  -1  -1 1794.55 246.347   8 0.44040 0.14543-0.11900 0.03545 0.95452-0.94656
  -8  -1   1 1117.09 200.591   7-0.46515-0.12031 0.06729-0.15097-0.95186 0.94367
  -8  -1   1 1520.72 223.198   3-0.42768-0.15864-0.19842 0.11505-0.94431 0.93616
   8   1  -1 1397.65 212.374   8 0.47306 0.11283-0.13259 0.21590 0.94181-0.93390
   8  -1  -1 1474.91 198.612   5 0.47717 0.10827 0.17738-0.26108 0.93238-0.92413
  -8   1   1 1638.49 244.484   7-0.44796-0.13756 0.06389 0.01950-0.95772 0.94950
   8   1  -1 1480.18 211.145   5 0.43482 0.15064 0.15159-0.06836 0.95128-0.94313
   7   1  -1 185.865 71.0024   5 0.42104 0.08893 0.14328-0.06001 0.95667-0.96209
   7  -1  -1 -1.8569 18.1358   8 0.42680 0.08359-0.11336 0.02982 0.95929-0.96486
   7  -1  -1 101.942 41.7433   2 0.48301 0.02712 0.34028-0.42356 0.88034-0.88578
  -7  -1   1 78.5483 36.5486   9-0.02105-0.48895-0.52055 0.43665 0.83604-0.83077
  -7   1   1 128.729 64.1857   6-0.33991-0.17031 0.51345-0.43022-0.83626 0.84162
   7   1  -1 105.922 54.6496   8 0.46245 0.04798-0.12816 0.21150 0.94614-0.95177
   7  -1  -1 58.3905 33.3026   5 0.46705 0.04292 0.17118-0.25484 0.93723-0.94257
  -7  -1   1 117.817 50.4667   3-0.41373-0.09703-0.18559 0.10223-0.95105 0.95648
   7   1  -1 83.7489 34.7028   2 0.40441 0.10567 0.23218-0.14856 0.94281-0.94825
   7  -1  -1 163.884 62.9123   4 0.02150 0.48929-0.52215 0.43910-0.83475 0.82904
  -7   1   1 64.9517 27.2682   7-0.43493-0.07509 0.06131 0.02207-0.96188 0.96724
  -7  -1   1 107.267 65.5096   7-0.45377-0.05621 0.06503-0.14871-0.95579 0.96118
   6   1  -1 1194.79 160.601   8 0.46076-0.02579-0.12745 0.21081 0.94681-0.96598
   6  -1  -1 1699.73 152.783   2 0.48485-0.05015 0.34291-0.42621 0.87848-0.89746
  -6   1   1 1597.24 168.999   3-0.47529 0.04020-0.24290 0.32646-0.91719 0.93615
   6   1  -1 1548.73 171.628   2 0.39617 0.03848 0.22128-0.13767 0.94772-0.96670
  -6   1   1 1630.42 153.897   6-0.33102-0.10376 0.47341-0.39018-0.86255 0.88146
  -6  -1   1 1615.20 147.450   9 0.04647-0.48105-0.38261 0.29873 0.91617-0.89727
  -6  -1   1 1513.56 191.865   7-0.45080 0.01631 0.06445-0.14810-0.95678 0.97573
   6  -1  -1 1521.27 169.452   5 0.46618-0.03169 0.17065-0.25427 0.93764-0.95654
   6   1  -1 1611.15 188.559   5 0.41390 0.02060 0.13897-0.05568 0.95932-0.97830
   6  -1  -1 1633.20 201.163   8 0.42015 0.01479-0.11061 0.02708 0.96151-0.98063
   6  -1  -1 1560.08 148.299   4-0.04533 0.48071-0.37671 0.29351-0.91824 0.89912
  -6  -1   1 1725.44 202.572   3-0.40597-0.02924-0.17847 0.09512-0.95458 0.97359
  -6   1   1 1554.36 207.515   7-0.42930-0.00522 0.06020 0.02318-0.96361 0.98253
  -5   1   1 85.2520 28.5215   6-0.32602-0.03331 0.45189-0.36866-0.87551 0.90797
   5  -1  -1 109.758 34.2706   4-0.11288 0.47282-0.21428 0.13089-0.97468 0.94209
  -5  -1   1 106.796 36.2114   9 0.11559-0.47472-0.22700 0.14318 0.97210-0.93957
   5  -1  -1 123.536 48.9665   5 0.48016-0.12114 0.17922-0.26279 0.93090-0.96335
  -5   1   1 94.3639 37.2666   3-0.49140 0.13185-0.25822 0.34179-0.90644 0.93896
   5  -1  -1 89.8308 40.2363   8 0.42404-0.06454-0.11222 0.02869 0.96022-0.99289
   5   1  -1 124.408 53.3212   5 0.41669-0.05767 0.14065-0.05734 0.95830-0.99083
   5   1  -1 79.6607 36.0700   8 0.47327-0.11376-0.13268 0.21604 0.94172-0.97445
  -5  -1   1 63.5602 17.1491   3-0.40725 0.04762-0.17966 0.09633-0.95400 0.98658
   5  -1  -1 106.182 32.4580   2 0.50307-0.14380 0.36926-0.45258 0.85894-0.89147
  -5   1   1 91.6231 49.8663   7-0.43508 0.07605 0.06134 0.02203-0.96184 0.99431
   5   1  -1 91.4037 39.9948   2 0.39606-0.03683 0.22114-0.13753 0.94778-0.98031
  -5  -1   1 92.7719 31.4975   7-0.46112 0.10212 0.06649-0.15013-0.95327 0.98577
   4  -1  -1 11445.9 338.856   2 0.54763-0.26381 0.43643-0.51977 0.80053-0.84661
   4   1  -1 9854.82 372.181   8 0.50991-0.22587-0.14806 0.23144 0.92521-0.97149
   4  -1  -1 9678.81 398.693   8 0.44481-0.16077-0.12083 0.03729 0.95291-0.99913
  -4   1   1 10040.6 342.923   6-0.32639 0.04252 0.45346-0.37022-0.87459 0.92061
  -4  -1   1 9482.76 312.263   9 0.18552-0.46922-0.05291-0.03085 0.99859-0.95244
   4   1  -1 10106.7 382.961   2 0.40796-0.12413 0.23691-0.15331 0.94060-0.98667
  -4   1   1 10634.0 351.283   3-0.53429 0.25027-0.29977 0.38332-0.87340 0.91947
   4  -1  -1 9653.83 314.571   4-0.18015 0.46463-0.03502-0.04853-0.99938 0.95324
   4   1  -1 9669.73 388.731   5 0.43509-0.15154 0.15175-0.06842 0.95118-0.99725
  -4  -1   1 9799.90 406.709   3-0.42240 0.13835-0.19355 0.11024-0.94692 0.99305
   4  -1  -1 10324.7 354.532   5 0.51951-0.23595 0.20355-0.28708 0.90962-0.95561
  -4   1   1 9780.05 272.087   1 0.18389-0.46727 0.04514 0.03837 0.99896-0.95284
  -4   1   1 9827.05 407.641   7-0.45951 0.17598 0.06617 0.01720-0.95383 0.99984
  -4  -1   1 9596.30 385.396   7-0.49381 0.21029 0.07297-0.15659-0.94110 0.98713
   3  -1  -1 109.169 36.2990   8 0.49434-0.28576-0.14150 0.05796 0.93253-0.99232
   3   1  -1 177.738 46.3706   2 0.43786-0.22947 0.27726-0.19367 0.91989-0.97951
   3  -1  -1 193.770 41.8499   5 0.60422-0.39611 0.25726-0.34075 0.85033-0.90983
  -3  -1   1 175.311 41.3715   9 0.25397-0.46225 0.13807-0.22173 0.98732-0.92758
  -3   1   1 156.790 27.2543   2 0.35904-0.56740 0.17292-0.08958 0.96669-0.90711
  -3   1   1 159.935 41.5307   6-0.33347 0.12507 0.48418-0.40095-0.85576 0.91532
   3  -1  -1 161.484 39.9887   4-0.24475 0.45370 0.15816-0.24183-0.98503 0.92529
  -3   1   1 171.023 41.6467   3-0.62187 0.41336-0.38897 0.47249-0.78023 0.83986
  -3   1   1 116.386 36.7543   7-0.51666 0.30863 0.07753 0.00583-0.93160 0.99112
   3   1  -1 158.567 40.8792   8 0.59021-0.38164-0.18228 0.26569 0.87963-0.93950
  -3   1   1 135.116 32.4075   1 0.22187-0.42975-0.21296 0.29622 0.97596-0.91634
  -3  -1   1 148.138 42.4525   3-0.45952 0.25104-0.22804 0.14475-0.92691 0.98658
  -3  -1   1 151.801 43.2329   7-0.56699 0.35892 0.08763-0.17122-0.90756 0.96710
   2   1  -1 30442.2 596.499   2 0.49402-0.36105 0.35610-0.27251 0.86892-0.94212
  -2   1   1 33143.9 578.941   6-0.34756 0.21463 0.55024-0.46699-0.80942 0.88252
  -2  -1   1 31942.3 554.247   9 0.31624-0.44909 0.33865-0.42222 0.92848-0.85518
   2  -1  -1 34349.8 568.621   4-0.30221 0.43558 0.35675-0.44047-0.92394 0.85057
  -2   1   1 36431.3 515.735   5 0.59535-0.72805 0.25154-0.16811 0.85752-0.78449
   2  -1  -1 30979.1 582.409   8 0.59509-0.46199-0.18438 0.10084 0.87640-0.94979
  -2  -1   1 34555.9 577.772   7-0.71486 0.58218 0.11799-0.20156-0.80642 0.87945
  -2   1   1 31241.1 557.127   7-0.63428 0.50169 0.10130-0.01797-0.86789 0.94089
  -3   1  -1 54.9826 34.6448   7 0.21577-0.46069-0.06127 0.14500-0.91992 0.77865
   4  -1   1 5151.12 347.544   8-0.09593 0.41548 0.09259-0.17591 0.95772-0.80328
  -4   1  -1 5273.93 359.259   7 0.10905-0.42950-0.04186 0.12559-0.95742 0.80261
  -4  -1  -1 5074.13 344.525   7 0.13114-0.45153-0.04590-0.03753-0.95065 0.79591
   5  -1   1 171.376 69.2492   8-0.01738 0.41236 0.06280-0.14613 0.97852-0.81053
  -5   1  -1 175.207 60.3388   7 0.02476-0.42070-0.02634 0.11006-0.97865 0.81029
   5   1   1 223.036 76.1498   8-0.04575 0.44075 0.07360 0.00986 0.97181-0.80385
  -5  -1  -1 206.944 70.1685   7 0.03628-0.43217-0.02847-0.05496-0.97618 0.80790
  -6   1  -1 -25.110 26.2340   6-0.09675-0.37441-0.25437 0.33797-0.96393 0.78213
   6  -1   1 -3.8197 29.7822   8 0.05017 0.42026 0.03686-0.12021 0.99084-0.80930
   6   1   1 14.2375 32.0858   8 0.03607 0.43440 0.04230 0.04115 0.98869-0.80717
  -6  -1  -1 42.4514 48.0799   7-0.04152-0.42987-0.01401-0.06942-0.99025 0.80842
  -6   1  -1 49.8689 62.1888   7-0.04642-0.42502-0.01310 0.09683-0.99093 0.80902
   7   1   1 1138.98 198.415   8 0.10625 0.43967 0.01512 0.06833 0.99714-0.80207
   7  -1   1 1289.38 224.031   8 0.11068 0.43521 0.01340-0.09675 0.99748-0.80240
  -7   1  -1 1006.50 157.176   6-0.13564-0.41099-0.15559 0.23917-0.98688 0.79155
  -7  -1  -1 1340.79 243.982   7-0.10888-0.43799-0.00139-0.08204-0.99745 0.80205
  -7   1  -1 1277.16 229.447   7-0.10934-0.43759-0.00131 0.08502-0.99748 0.80200
   8  -1   1 951.063 217.172   8 0.16643 0.45491-0.00844-0.07493 0.99988-0.79126
   8   1   1 1341.22 246.659   8 0.16891 0.45248-0.00942 0.09286 0.99990-0.79129
  -8   1  -1 1138.88 234.519   7-0.16678-0.45564 0.00955 0.07416-0.99987 0.79082
  -8  -1  -1 1161.83 242.743   7-0.16945-0.45290 0.01005-0.09349-0.99990 0.79094
 -12  -2   1 10.8988 74.8045   7-0.57195-0.31541 0.08862-0.25590-0.90495 0.84237
  12   2  -1 -11.741 82.3782   5 0.51874 0.36865 0.20307-0.03650 0.91007-0.84755
 -11   2   1 482.453 181.033   7-0.51654-0.29550 0.07750 0.08945-0.93165 0.88260
 -11  -2   1 291.440 129.745   7-0.54727-0.26460 0.08365-0.25091-0.91752 0.86856
  11   2  -1 342.738 118.506   5 0.49353 0.31838 0.18745-0.02084 0.92406-0.87516
  11  -2  -1 275.714 157.081   8 0.50319 0.30897-0.14522-0.02178 0.92842-0.87989
  11   2  -1 327.888 149.300   8 0.56284 0.24946-0.17052 0.33724 0.89674-0.84830
 -11  -2   1 323.819 141.346   3-0.48075-0.33230-0.24807 0.08121-0.91364 0.86471
  10   2  -1 67.5049 71.7392   8 0.54125 0.19559-0.16131 0.32805 0.90905-0.87412
  10   2  -1 -68.789 84.6761   2 0.44310 0.29320 0.28444-0.11733 0.91584-0.88073
 -10   2   1 99.0128 77.2491   7-0.49313-0.24340 0.07283 0.09411-0.94137 0.90593
 -10  -2   1 129.516 84.8901   7-0.52501-0.21138 0.07920-0.24643-0.92792 0.89256
  10   2  -1 109.903 72.9291   5 0.47022 0.26620 0.17313-0.00649 0.93573-0.90043
 -10  -2   1 19.3264 41.7804   3-0.45797-0.27953-0.22659 0.05971-0.92782 0.89250
  10  -2  -1 108.034 86.2897   8 0.47964 0.25708-0.13534-0.03165 0.93903-0.90400
  -9  -2   1 169.648 67.5606   7-0.50603-0.15487 0.07540-0.24262-0.93613 0.91436
   9   2  -1 190.816 73.4211   8 0.52323 0.13816-0.15368 0.32043 0.91858-0.89718
  -9  -2   1 160.503 75.1443   3-0.43751-0.22443-0.20752 0.04064-0.93924 0.91751
   9  -2  -1 202.888 90.9690   5 0.53457 0.12631 0.21296-0.38016 0.90050-0.87860
   9  -2  -1 46.6131 45.1943   8 0.45866 0.20261-0.12658-0.04039 0.94764-0.92613
   9   2  -1 277.598 111.477   5 0.44939 0.21155 0.16043 0.00624 0.94519-0.92348
   9   2  -1 294.966 105.146   2 0.42343 0.23746 0.25765-0.09058 0.93038-0.90879
  -9   2   1 275.210 115.155   7-0.47250-0.18854 0.06874 0.09821-0.94922 0.92739
  -8  -2   1 406.418 108.170   7-0.49158-0.09383 0.07252-0.23972-0.94199 0.93380
   8   2  -1 366.848 107.422   5 0.43184 0.15361 0.14978 0.01691 0.95248-0.94435
   8   2  -1 357.051 106.979   8 0.51023 0.07570-0.14819 0.31496 0.92505-0.91718
   8  -2  -1 337.904 102.014   8 0.44114 0.14469-0.11930-0.04767 0.95425-0.94627
  -8   2   1 352.947 100.839   7-0.45560-0.12994 0.06539 0.10155-0.95517 0.94692
  -8  -2   1 299.715 91.3911   9-0.02968-0.55581-0.53722 0.36985 0.82401-0.83228
   8  -2  -1 290.295 76.4844   5 0.52266 0.06274 0.20552-0.37266 0.90776-0.89945
  -8  -2   1 299.594 99.5076   3-0.42011-0.16627-0.19144 0.02456-0.94803 0.93989
   8   2  -1 356.502 91.1287   2 0.40655 0.17893 0.23503-0.06796 0.94148-0.93342
   7   2  -1 177.085 65.3353   2 0.39337 0.11669 0.21757-0.05052 0.94933-0.95480
  -7  -2   1 -33.147 53.6211   7-0.48366-0.02626 0.07095-0.23812-0.94506 0.95044
   7   2  -1 -64.195 44.8310   5 0.41876 0.09120 0.14190 0.02483 0.95753-0.96297
   7  -2  -1 6.56001 10.8850   5 0.51876-0.00883 0.20308-0.37018 0.91006-0.91532
  -7   2   1 24.7346 26.6987   6-0.31855-0.19173 0.42089-0.25427-0.89282 0.89816
  -7   2   1 -35.202 80.9918   3-0.54409 0.03355-0.30943 0.47637-0.86484 0.87024
  -7  -2   1 54.9334 77.9280   3-0.40679-0.10401-0.17924 0.01236-0.95421 0.95966
  -7  -2   1 15.0872 20.4285   9 0.02359-0.53366-0.43090 0.26356 0.89176-0.88640
   7  -2  -1 -19.439 48.8166   8 0.42838 0.08202-0.11401-0.05295 0.95875-0.96431
   7   2  -1 14.6023 39.4252   8 0.50457 0.00590-0.14579 0.31259 0.92777-0.93344
  -7   2   1 -54.800 56.6586   7-0.44391-0.06611 0.06308 0.10384-0.95904 0.96437
   6  -2  -1 1289.37 153.933   4-0.07345 0.50892-0.31105 0.14426-0.94527 0.92620
   6  -2  -1 1263.27 145.672   5 0.52736-0.09290 0.20845-0.37550 0.90494-0.92377
   6   2  -1 1305.64 170.537   2 0.38517 0.04948 0.20681-0.03977 0.95387-0.97287
  -6   2   1 1401.41 159.607   6-0.30974-0.12507 0.38582-0.21920-0.91060 0.92950
   6   2  -1 1371.55 163.905   8 0.51014-0.07514-0.14815 0.31498 0.92510-0.94431
  -6   2   1 1459.83 150.673   3-0.55826 0.12324-0.32353 0.49046-0.85174 0.87071
  -6  -2   1 1314.00 156.339   9 0.07603-0.51068-0.31791 0.15061 0.94343-0.92445
   6   2  -1 1296.73 177.861   5 0.41193 0.02256 0.13779 0.02895 0.96004-0.97904
   6  -2  -1 1415.48 195.285   8 0.42235 0.01259-0.11152-0.05544 0.96079-0.97988
  -6  -2   1 1373.04 190.862   3-0.39910-0.03612-0.17223 0.00536-0.95757 0.97660
  -6   2   1 1265.66 190.125   7-0.43978 0.00527 0.06227 0.10465-0.96036 0.97925
  -6  -2   1 1378.31 179.257   7-0.48556 0.05111 0.07132-0.23847-0.94433 0.96327
  -5  -2   1 5129.90 314.179   7-0.50300 0.14402 0.07480-0.24191-0.93738 0.96987
   5   2  -1 5331.06 325.265   2 0.38380-0.02457 0.20502-0.03799 0.95461-0.98714
  -5   2   1 5122.85 293.598   6-0.30426-0.05509 0.36465-0.19802-0.92044 0.95289
  -5  -2   1 4809.66 281.552   9 0.12738-0.48660-0.19888 0.03166 0.97883-0.94624
  -5   2   1 5359.40 257.430   3-0.59703 0.23750-0.36293 0.52984-0.81093 0.84346
   5   2  -1 5251.45 331.063   5 0.41416-0.05516 0.13913 0.02762 0.95923-0.99178
   5  -2  -1 5211.59 267.438   5 0.55660-0.19761 0.22682-0.39382 0.88613-0.91850
   5   2  -1 5031.93 285.756   8 0.53396-0.17443-0.15822 0.32507 0.91299-0.94575
   5  -2  -1 5473.16 350.399   8 0.42630-0.06680-0.11316-0.05381 0.95946-0.99210
   5  -2  -1 4636.96 280.019   4-0.12286 0.48285-0.18886 0.02191-0.98047 0.94790
  -5   2   1 5106.92 343.873   7-0.44711 0.08811 0.06372 0.10319-0.95800 0.99045
   4   2  -1 125.775 66.6942   2 0.39197-0.10814 0.21573-0.04870 0.95013-0.99621
  -4  -2   1 130.900 55.3041   7-0.54674 0.26322 0.08355-0.25062-0.91777 0.96379
   4  -2  -1 176.292 56.9332   5 0.62163-0.33810 0.26857-0.43551 0.83544-0.88134
  -4   2   1 111.643 45.8801   1 0.17839-0.46179 0.07644 0.09052 0.99706-0.95096
  -4   2   1 84.0749 49.8715   6-0.30308 0.01920 0.36016-0.19351-0.92244 0.96846
  -4  -2   1 98.4010 34.7464   1 0.21295-0.49623-0.14350-0.02338 0.98903-0.94287
   4  -2  -1 93.9832 53.7389   4-0.17017 0.45464-0.06290-0.10419-0.99796 0.95184
  -4  -2   1 251.609 74.5936   9 0.17711-0.46091-0.07482-0.09234 0.99721-0.95103
   4  -2  -1 101.318 73.4440   8 0.44572-0.16166-0.12120-0.04578 0.95257-0.99878
   4   2  -1 120.658 60.0208   8 0.58921-0.30515-0.18185 0.34872 0.88029-0.92662
  -4  -2   1 34.1104 16.5899   3-0.41104 0.12699-0.18312 0.01630-0.95229 0.99845
  -4   2   1 315.544 88.5673   7-0.47278 0.18928 0.06880 0.09808-0.94912 0.99510
  -3   2   1 341.739 65.8310   1 0.20401-0.41196-0.08036 0.24711 0.99646-0.93682
  -3  -2   1 265.339 59.4815   9 0.22440-0.43277 0.05261-0.21968 0.99754-0.93778
   3   2  -1 357.666 45.4855   6-0.12876 0.33742-0.17348 0.34071-0.98360 0.92378
   3   2  -1 377.634 74.9234   2 0.41359-0.20518 0.24445-0.07741 0.93699-0.99663
  -3   2   1 375.481 73.2239   6-0.30722 0.09882 0.37598-0.20933-0.91525 0.97482
  -3  -2   1 353.900 65.0840   7-0.63755 0.42946 0.10197-0.26900-0.86572 0.92525
  -3   2   1 308.794 67.7974   7-0.52971 0.32169 0.08013 0.08671-0.92579 0.98529
   3   2  -1 344.325 63.8851   8 0.69973-0.49118-0.23046 0.39738 0.79091-0.85081
   3  -2  -1 309.117 35.7354   3-0.34492 0.55358-0.12350-0.04364-0.97726 0.91754
  -3   2   1 333.277 40.6719   9 0.14596-0.35402-0.15360 0.32013 0.98765-0.92809
   3  -2  -1 353.531 72.9436   8 0.49037-0.28178-0.13984-0.02716 0.93432-0.99410
   3   2  -1 357.861 46.0860   4-0.12914 0.33793-0.17265 0.33968-0.98376 0.92408
   3  -2  -1 323.940 68.8239   4-0.21455 0.42348 0.06477-0.23197-0.99726 0.93756
  -2   2   1 185.222 44.8580   7-0.64214 0.50957 0.10291 0.06388-0.86263 0.93559
  -2   2   1 232.104 55.2615   1 0.22266-0.35523-0.21958 0.38617 0.97444-0.90131
   2   2  -1 191.610 39.5302   6-0.06095 0.19407-0.34043 0.50770-0.93391 0.86049
  -2  -2   1 253.856 44.8857   8 0.60388-0.73690-0.18818 0.02127 0.87042-0.79701
   2  -2  -1 195.545 55.1912   4-0.25494 0.38829 0.19111-0.35838-0.97830 0.90499
  -2   2   1 201.520 51.7556   6-0.31744 0.18455 0.41642-0.24978-0.89520 0.96830
  -2  -2   1 262.149 59.6905   9 0.26804-0.40099 0.18064-0.34764 0.97903-0.90571
   2  -2  -1 205.855 48.0753   8 0.57796-0.44483-0.17701 0.00998 0.88751-0.96088
   2   2  -1 190.911 46.4615   5 0.53994-0.40729 0.21632-0.04956 0.89712-0.97025
   1   2  -1 8043.84 312.200   6-0.03227 0.08984-0.40615 0.57341-0.90410 0.81709
  -1   2   1 6983.62 302.654   6-0.33374 0.27632 0.48539-0.31876-0.85499 0.94161
  -1  -2   1 7566.73 306.581   3-0.58641 0.52907-0.35201 0.18532-0.82290 0.90960
  -1  -2   1 7479.16 305.790   9 0.30659-0.36412 0.30517-0.47210 0.94193-0.85506
   1   2  -1 8223.44 311.731   5 0.66580-0.60853 0.29774-0.13097 0.79253-0.87917
   0   2  -1 17.6117 3.11455   6-0.02421 0.00622-0.42411 0.59137-0.89483 0.79425
   0   2   1 41.3485 21.2918   6-0.35406 0.37212 0.58381-0.41718-0.78245 0.88258
   0  -2  -1 28.2577 21.4468   9-0.05559 0.03738-0.58584 0.41914 0.78553-0.88579
   0  -2   1 29.5996 18.8055   4 0.05302-0.03524-0.58557 0.41879-0.78609 0.88623
  -1   2  -1 7966.81 397.057   6-0.02843-0.06510-0.41471 0.58195-0.89974 0.78561
  -1  -2  -1 8236.48 417.911   9-0.05563-0.03798-0.58593 0.41915 0.78546-0.89929
  -2   2  -1 688.833 120.422   6-0.04060-0.12848-0.38733 0.55456-0.91328 0.78561
  -2  -2  -1 -17.108 32.1390   9-0.06493-0.10411-0.60289 0.43605 0.77073-0.89814
  -3   2  -1 3997.46 296.551   6-0.05820-0.18642-0.34684 0.51405-0.93127 0.79005
   3  -2   1 3685.75 276.437   8-0.12808 0.37221 0.10466-0.27138 0.94717-0.80626
  -3   2  -1 3747.82 280.294   7 0.16290-0.40781-0.05169 0.21901-0.94001 0.79873
   4  -2   1 1556.70 198.566   8-0.04975 0.36930 0.07512-0.24185 0.97080-0.81633
  -4   2  -1 1487.50 185.062   6-0.07967-0.24047-0.29597 0.46315-0.95064 0.79588
  -4   2  -1 1273.61 178.991   7 0.07028-0.39072-0.03475 0.20205-0.96809 0.81326
  -4  -2  -1 1460.00 185.879   7 0.10923-0.42958-0.04189-0.12510-0.95737 0.80268
  -5  -2  -1 2397.12 259.892   7 0.01431-0.41015-0.02441-0.14258-0.98078 0.81255
  -5   2  -1 2193.16 231.291   6-0.10403-0.29162-0.23632 0.40346-0.96901 0.80072
   5  -2   1 2357.23 270.480   8 0.01662 0.37837 0.04978-0.21652 0.98536-0.81736
  -5   2  -1 2336.75 270.212   7-0.00485-0.39108-0.02085 0.18816-0.98439 0.81601
   5   2   1 2385.31 232.869   8-0.03302 0.42807 0.06876 0.09811 0.97494-0.80696
   6  -2   1 429.190 123.697   8 0.07567 0.39476 0.02701-0.19375 0.99415-0.81259
  -6   2  -1 455.559 114.724   6-0.13058-0.34057-0.16877 0.33588-0.98450 0.80267
  -6  -2  -1 533.143 140.011   7-0.06285-0.40847-0.01003-0.15696-0.99304 0.81125
   6   2   1 356.206 99.7213   8 0.05321 0.41728 0.03569 0.13117 0.99127-0.80975
  -6   2  -1 481.657 143.167   7-0.06970-0.40174-0.00875 0.17606-0.99383 0.81188
  -7   2  -1 424.472 123.551   7-0.12803-0.41891 0.00221 0.16509-0.99864 0.80312
  -7   2  -1 793.609 149.636   6-0.15884-0.38778-0.09377 0.26085-0.99537 0.80001
   7  -2   1 691.761 168.392   8 0.12995 0.41593 0.00587-0.17263 0.99872-0.80362
   7   2   1 799.609 166.896   8 0.12580 0.42016 0.00749 0.15938 0.99849-0.80342
  -7  -2  -1 651.615 168.300   7-0.12941-0.41740 0.00248-0.16947-0.99871 0.80336
  -8   2  -1 102.964 56.4917   7-0.18199-0.44044 0.01243 0.15486-0.99992 0.79083
   8  -2   1 -14.127 12.4407   8 0.18098 0.44036-0.01417-0.15260 0.99990-0.79127
   8   2   1 128.782 69.6738   8 0.18982 0.43161-0.01767 0.18453 0.99979-0.79118
  -8  -2  -1 94.3617 115.604   7-0.18917-0.43311 0.01380-0.18079-0.99986 0.79095
   9   2   1 -35.219 46.2336   8 0.24817 0.44874-0.04084 0.20769 0.99669-0.77454
  -9  -2  -1 35.4673 27.2761   7-0.24436-0.45340 0.02433-0.19133-0.99751 0.77501
 -12  -3   1 192.572 109.007   7-0.59919-0.28808 0.09414-0.34493-0.88974 0.82716
 -12  -3   1 188.580 125.185   3-0.50102-0.38766-0.26744 0.01705-0.89961 0.83705
 -11   3   1 666.437 224.656   7-0.52837-0.28367 0.07986 0.17065-0.92640 0.87730
 -11  -3   1 579.401 184.998   7-0.57663-0.23517 0.08956-0.34033-0.90244 0.85348
  11  -3  -1 376.749 169.227   8 0.50859 0.30357-0.14749-0.10291 0.92585-0.87731
 -11  -3   1 537.195 143.412   3-0.47784-0.33527-0.24533-0.00507-0.91553 0.86659
  11   3  -1 692.703 193.345   2 0.45794 0.35375 0.30494-0.05440 0.90364-0.85505
  11   3  -1 446.816 151.951   5 0.49521 0.31668 0.18849 0.06160 0.92317-0.87430
 -10   3   1 324.724 118.554   7-0.50654-0.22999 0.07550 0.17502-0.93592 0.90043
 -10  -3   1 472.313 142.545   7-0.55696-0.17935 0.08560-0.33633-0.91271 0.87735
  10   3  -1 140.067 34.4891   5 0.47330 0.26311 0.17501 0.07510 0.93426-0.89898
  10   3  -1 508.234 134.977   2 0.43773 0.29856 0.27707-0.02655 0.91999-0.88490
  10  -3  -1 144.080 110.915   8 0.48642 0.25029-0.13818-0.11222 0.93608-0.90105
 -10  -3   1 370.714 125.365   3-0.45654-0.28103-0.22525-0.02517-0.92866 0.89332
  -9   3   1 682.699 179.399   7-0.48772-0.17329 0.07175 0.17875-0.94350 0.92161
   9   3  -1 732.472 161.934   8 0.57133 0.09010-0.17415 0.42439 0.89162-0.87026
   9  -3  -1 744.368 191.332   8 0.46698 0.19429-0.13005-0.12034 0.94431-0.92280
  -9  -3   1 871.460 181.312   7-0.54121-0.11961 0.08244-0.33315-0.92043 0.89866
   9   3  -1 649.917 159.451   5 0.45396 0.20695 0.16320 0.08694 0.94319-0.92150
  -9  -3   1 733.032 179.780   3-0.43761-0.22439-0.20761-0.04281-0.93918 0.91745
   9   3  -1 701.169 157.439   2 0.41967 0.24120 0.25259-0.00209 0.93296-0.91139
  -8  -3   1 9.95760 36.0247   7-0.53094-0.05441 0.08037-0.33105-0.92523 0.91704
  -8  -3   1 -6.1577 18.3317   9-0.00117-0.58441-0.48135 0.23055 0.86218-0.87036
  -8   3   1 -30.515 47.3690   6-0.31832-0.26744 0.41997-0.16994-0.89332 0.88507
   8   3  -1 -59.041 50.7187   8 0.56423 0.02174-0.17112 0.42137 0.89591-0.88808
   8  -3  -1 -87.967 77.7642   8 0.45116 0.13467-0.12346-0.12692 0.95053-0.94255
   8   3  -1 -94.321 89.2185   5 0.43799 0.14744 0.15350 0.09666 0.95000-0.94189
  -8  -3   1 -83.254 80.8054   3-0.42173-0.16469-0.19294-0.05749-0.94724 0.93911
   8   3  -1 -15.292 34.4736   2 0.40435 0.18110 0.23211 0.01838 0.94284-0.93480
   8  -3  -1 -56.697 75.9881   4 0.00174 0.58474-0.48068 0.23065-0.86222 0.87005
  -8   3   1 -15.829 17.9753   7-0.47295-0.11256 0.06883 0.18167-0.94906 0.94077
   7  -3  -1 180.491 62.8566   4-0.04124 0.55224-0.38607 0.13587-0.91389 0.90830
   7  -3  -1 190.660 59.6309   5 0.59700-0.08712 0.25260-0.50312 0.85621-0.86137
  -7  -3   1 131.419 26.4518   9 0.04312-0.55327-0.38977 0.13902 0.91278-0.90734
  -7   3   1 95.3127 54.5710   6-0.30826-0.20205 0.38001-0.12998-0.91336 0.91869
   7  -3  -1 105.229 63.4306   8 0.44023 0.07018-0.11892-0.13147 0.95458-0.96013
  -7   3   1 185.748 87.2992   7-0.46376-0.04622 0.06701 0.18347-0.95235 0.95764
   6   3  -1 401.436 94.7487   2 0.38536 0.04928 0.20706 0.04340 0.95377-0.97278
   6   3  -1 304.974 73.0660   8 0.58414-0.14911-0.17966 0.42998 0.88358-0.90284
   6  -3  -1 394.491 97.6951   4-0.08227 0.51779-0.28990 0.03954-0.95273 0.93367
  -6   3   1 441.116 100.576   6-0.30042-0.13442 0.35008-0.10002-0.92684 0.94573
  -6  -3   1 489.785 119.878   3-0.40329-0.03196-0.17605-0.07436-0.95576 0.97480
  -6  -3   1 390.570 96.0387   7-0.53802 0.10361 0.08179-0.33239-0.92194 0.94087
   6  -3  -1 439.687 114.814   8 0.43608-0.00113-0.11721-0.13319 0.95607-0.97516
   6  -3  -1 532.234 91.0476   5 0.62210-0.18767 0.26887-0.51933 0.83502-0.85375
   6   3  -1 635.194 149.306   5 0.42113 0.01332 0.14332 0.10687 0.95664-0.97566
  -6  -3   1 355.089 87.8811   9 0.08575-0.52047-0.29602 0.04534 0.95133-0.93228
  -6   3   1 468.560 111.604   7-0.46258 0.02810 0.06677 0.18369-0.95277 0.97162
  -5  -3   1 180.953 61.5878   7-0.56631 0.20738 0.08749-0.33804-0.90792 0.94039
   5   3  -1 190.428 62.2681   2 0.38421-0.02497 0.20556 0.04491 0.95439-0.98694
  -5   3   1 124.100 45.7060   6-0.29544-0.06393 0.33154-0.08147-0.93455 0.96700
   5  -3  -1 185.193 58.8018   4-0.12114 0.48115-0.19326-0.05724-0.97953 0.94696
  -5   3   1 121.920 47.3595   1 0.14749-0.50637 0.23502 0.01567 0.97155-0.93909
  -5  -3   1 198.233 75.1790   3-0.40397 0.04432-0.17667-0.07372-0.95546 0.98808
   5  -3  -1 152.834 55.4863   5 0.67673-0.31775 0.30509-0.55549 0.78061-0.81287
   5   3  -1 199.725 66.6255   8 0.62580-0.26625-0.19772 0.44808 0.85465-0.88746
   5  -3  -1 228.132 79.4524   8 0.44176-0.08224-0.11956-0.13085 0.95403-0.98667
   5   3  -1 99.1648 45.3085   5 0.42438-0.06541 0.14529 0.10491 0.95540-0.98797
  -5  -3   1 138.611 52.1225   9 0.12647-0.48577-0.20106-0.04956 0.97835-0.94571
  -5   3   1 243.987 78.2377   7-0.47330 0.11433 0.06890 0.18153-0.94893 0.98133
  -4   3   1 543.168 105.814   7-0.50265 0.21919 0.07473 0.17566-0.93753 0.98346
   4  -3  -1 619.259 113.870   8 0.46215-0.17808-0.12803-0.12239 0.94626-0.99246
   4   3  -1 507.478 61.2701   6-0.27169 0.55585 0.24724 0.00328-0.96380 0.91757
  -4   3   1 621.698 116.417   6-0.29400 0.01012 0.32623-0.07615-0.93667 0.98267
  -4  -3   1 619.193 109.065   9 0.16497-0.44883-0.10601-0.14455 0.99429-0.94808
  -4   3   1 691.966 113.126   1 0.17156-0.45499 0.11381 0.13662 0.99345-0.94738
   4   3  -1 528.046 99.7716   8 0.70811-0.42406-0.23424 0.48464 0.78248-0.82886
   4   3  -1 568.680 109.395   2 0.39112-0.10728 0.21461 0.03585 0.95061-0.99670
   4  -3  -1 514.741 105.138   4-0.15753 0.44200-0.09748-0.15316-0.99498 0.94888
  -4  -3   1 557.076 92.7734   7-0.62610 0.34260 0.09962-0.35012-0.87322 0.91923
  -3   3   1 800.930 116.177   6-0.29677 0.08840 0.33649-0.08641-0.93254 0.99209
  -3  -3   1 842.751 124.600   9 0.20079-0.40924-0.01231-0.23817 0.99969-0.93991
   3   3  -1 730.516 110.905   5 0.47473-0.26668 0.17589 0.07429 0.93357-0.99320
  -3  -3   1 846.078 132.904   3-0.43974 0.23130-0.20958-0.04072-0.93805 0.99777
   3  -3  -1 98.1034 52.7661   9-0.06216 0.27015-0.59786 0.34799 0.77517-0.83471
   3  -3  -1 738.276 111.444   8 0.50560-0.29697-0.14623-0.10422 0.92728-0.98706
   3   3  -1 845.090 90.2707   6-0.19495 0.40363 0.00728 0.24338-0.99985 0.94005
  -3   3   1 921.364 116.990   7-0.56265 0.35468 0.08675 0.16358-0.90982 0.96926
   3  -3  -1 809.515 120.216   4-0.19104 0.39996-0.00409-0.24664-0.99992 0.94025
  -3  -3   1 900.247 106.414   7-0.73934 0.53123 0.12315-0.37358-0.78400 0.84352
  -3   3   1 765.134 112.710   1 0.19101-0.39901 0.00288 0.24734 0.99993-0.94030
  -2  -3   1 8145.66 374.126   3-0.48518 0.35234-0.25230 0.00206-0.91068 0.98393
   2   3  -1 7867.71 306.057   6-0.14566 0.27881-0.12916 0.37991-0.99105 0.91765
   2  -3  -1 7525.89 321.457   8 0.58617-0.45301-0.18054-0.06994 0.88227-0.95564
  -2   3   1 8034.96 369.928   6-0.30436 0.17148 0.36503-0.11494-0.92027 0.99337
  -2  -3   1 8366.57 386.138   9 0.23346-0.36649 0.07826-0.32868 0.99536-0.92202
  -2  -3   1 8365.61 206.913   8 0.58837-0.72136-0.18149-0.06892 0.88084-0.80743
   2   3  -1 7221.73 314.658   5 0.53817-0.40556 0.21522 0.03495 0.89824-0.97139
   2  -3  -1 8210.00 332.868   9-0.02469 0.15726-0.52760 0.27765 0.83102-0.90415
  -2  -3   1 8236.98 360.347   4 0.02395-0.15712-0.52719 0.27686-0.83119 0.90429
  -2   3   1 7603.99 357.679   1 0.20616-0.33879-0.09506 0.34512 0.99510-0.92196
  -2   3   1 8125.38 313.062   7-0.67424 0.54170 0.10953 0.14073-0.83956 0.91248
   2  -3  -1 7592.98 365.985   4-0.22125 0.35457 0.08498-0.33579-0.99546 0.92221
   1   3  -1 879.029 115.282   2 0.49130-0.43372 0.35218-0.10168 0.87181-0.95860
   1   3  -1 830.674 106.404   6-0.11650 0.17410-0.20493 0.45570-0.97690 0.88992
  -1   3   1 895.889 118.138   6-0.31700 0.25962 0.41461-0.16455-0.89615 0.98278
   1  -3  -1 76.1164 37.3953   8 0.72295-0.66533-0.24097-0.00952 0.76684-0.85382
   1  -3  -1 900.477 111.654   9-0.00826 0.06541-0.49548 0.24544 0.85309-0.93979
  -1  -3   1 852.518 120.493   9 0.26244-0.32006 0.16352-0.41388 0.98262-0.89574
  -1  -3   1 799.753 109.447   3-0.55867 0.50140-0.32394 0.07378-0.85135 0.93807
   1   3  -1 905.292 104.678   5 0.64415-0.58691 0.28334-0.03317 0.81455-0.90120
  -1  -3   1 804.948 112.756   4 0.00863-0.06635-0.49529 0.24501-0.85291 0.93956
   0  -3  -1 20.6123 21.5253   4-0.26992 0.25205 0.24109-0.49195-0.96558 0.86516
   0   3  -1 19.5813 26.5170   6-0.10166 0.08371-0.24221 0.49298-0.96740 0.86685
   0   3  -1 20.3719 32.1436   2 0.56088-0.57876 0.45732-0.20680 0.77953-0.87990
   0  -3  -1 2.18110 14.5605   9-0.00493-0.01336-0.48885 0.23875 0.85740-0.95766
   0  -3   1 7.36837 13.9999   9 0.28722-0.26942 0.24097-0.49128 0.96351-0.86310
   0   3   1 2.50090 6.88041   6-0.33416 0.35227 0.48727-0.23722-0.85378 0.95393
   0  -3   1 16.1533 13.4790   4 0.00539 0.01237-0.48843 0.23820-0.85733 0.95752
  -1   3  -1 8250.69 405.976   6-0.09714 0.00364-0.25341 0.50418-0.96421 0.85010
   1   3   1 8164.37 375.638   1 0.23060-0.13716-0.29057 0.54047 0.95503-0.84136
   1  -3   1 8150.80 351.027   9 0.30736-0.21414 0.30783-0.55809 0.94092-0.82697
  -1  -3  -1 7939.51 375.915   9-0.01042-0.08328-0.49973 0.24955 0.85028-0.96410
   1   3   1 7919.07 359.371   6-0.35383 0.44742 0.58258-0.33255-0.78347 0.89711
  -1  -3  -1 7703.81 342.886   4-0.28762 0.19415 0.30295-0.55379-0.94551 0.83153
  -2   3  -1 1293.95 172.660   6-0.10020-0.06885-0.24584 0.49659-0.96639 0.83871
  -2  -3  -1 1700.00 189.318   9-0.02220-0.14694-0.52277 0.27252 0.83447-0.96185
   2  -3   1 1702.09 170.709   8-0.12491 0.29363 0.10347-0.35360 0.94827-0.82087
  -2   3  -1 1664.40 166.525   7 0.18927-0.35863-0.05648 0.30737-0.93037 0.80263
   2  -3   1 1729.44 198.524   4 0.02165 0.14710-0.52244 0.27234-0.83454 0.96179
   2  -3   1 1596.44 153.926   9 0.32256-0.15391 0.36120-0.61143 0.91854-0.79107
  -2  -3  -1 1698.16 158.026   4-0.30051 0.13144 0.35032-0.60112-0.92673 0.79920
  -3   3  -1 3098.05 286.399   6-0.10896-0.13562-0.22399 0.47471-0.97226 0.83103
  -3  -3  -1 3536.69 313.961   9-0.03862-0.20593-0.55421 0.30391 0.81115-0.95210
   3  -3   1 3295.10 269.159   8-0.05367 0.29781 0.07661-0.32673 0.96978-0.82884
   3  -3   1 3106.67 289.198   4 0.03737 0.20688-0.55449 0.30446-0.81100 0.95176
  -3  -3  -1 3220.15 263.974   7 0.18217-0.42694-0.05519-0.19536-0.93304 0.79196
  -3   3  -1 3266.09 263.756   7 0.09124-0.33613-0.03860 0.28949-0.96251 0.82123
  -4  -3  -1 18.4503 33.0878   9-0.05861-0.26136-0.59138 0.34101 0.78080-0.93532
  -4   3  -1 -50.470 56.7555   6-0.12208-0.19803-0.19069 0.44138-0.98008 0.82531
   4   3   1 -22.235 20.8734   8-0.10866 0.42828 0.09738 0.15292 0.95368-0.79927
   4  -3   1 -16.064 15.9835   8 0.00663 0.31295 0.05362-0.30375 0.98349-0.82900
  -4  -3  -1 20.2826 34.4001   7 0.06003-0.38031-0.03285-0.21768-0.97066 0.81603
  -4   3  -1 -13.680 19.8433   7 0.01545-0.33585-0.02462 0.27550-0.98055 0.82571
   5   3   1 1541.51 177.387   1 0.22879 0.16636-0.27348 0.52348 0.96023-0.79231
  -5   3  -1 1461.96 213.034   6-0.13861-0.25702-0.14780 0.39845-0.98820 0.81989
   5  -3   1 1559.32 225.828   8 0.06067 0.33435 0.03282-0.28295 0.99229-0.82426
   5   3   1 1650.33 186.655   8 0.00545 0.38963 0.05407 0.19623 0.98326-0.81528
  -5  -3  -1 1547.44 202.483   7-0.02983-0.36595-0.01620-0.23432-0.98853 0.82036
  -5   3  -1 1571.29 224.755   7-0.04847-0.34744-0.01272 0.26361-0.99121 0.82281
   6   3   1 1884.98 177.735   1 0.22084 0.24986-0.20461 0.45462 0.97781-0.79627
  -6   3  -1 1913.32 250.343   6-0.15783-0.31329-0.09650 0.34713-0.99509 0.81324
   6   3   1 1722.14 216.615   8 0.09249 0.37806 0.02048 0.22983 0.99593-0.81440
   6  -3   1 1791.60 258.628   8 0.11081 0.35965 0.01335-0.26349 0.99749-0.81592
  -6  -3  -1 2292.09 273.971   7-0.10272-0.36852-0.00255-0.24797-0.99698 0.81526
  -6   3  -1 2089.02 288.491   7-0.10537-0.36604-0.00205 0.25294-0.99719 0.81522
  -7   3  -1 1971.42 266.232   6-0.17921-0.36740-0.03754 0.28811-0.99929 0.80390
   7  -3   1 2070.73 296.437   8 0.15837 0.38753-0.00527-0.24488 0.99976-0.80465
   7   3   1 2238.26 273.183   8 0.16454 0.38148-0.00770 0.25800 0.99986-0.80478
  -7   3  -1 2094.23 312.651   7-0.15780-0.38911 0.00784 0.24304-0.99973 0.80418
  -7  -3  -1 2410.30 323.043   7-0.16580-0.38092 0.00936-0.25988-0.99986 0.80458
  -8   3  -1 253.196 96.3053   6-0.20232-0.41974 0.02873 0.22179-0.99932 0.79040
   8   3   1 164.529 53.7356   8 0.22758 0.39391-0.03264 0.28293 0.99827-0.78965
   8  -3   1 129.213 74.8316   8 0.20415 0.41721-0.02333-0.22683 0.99942-0.79078
  -8   3  -1 119.675 99.2790   7-0.20723-0.41518 0.01723 0.23364-0.99946 0.79033
  -8  -3  -1 182.172 112.286   7-0.22273-0.39946 0.02019-0.27072-0.99883 0.78997
 -11   4   1 250.011 126.346   7-0.54712-0.26489 0.08362 0.25047-0.91759 0.86842
 -11  -4   1 215.562 115.598   3-0.48107-0.33213-0.24838-0.08558-0.91343 0.86446
  11   4  -1 299.420 117.345   2 0.45717 0.35450 0.30387 0.03009 0.90430-0.85573
  11   4  -1 43.1281 53.0578   5 0.50311 0.30876 0.19337 0.14020 0.91892-0.87005
  11  -4  -1 216.495 156.221   8 0.52043 0.29173-0.15249-0.18132 0.92000-0.87146
   9   4  -1 1372.79 239.405   5 0.46551 0.19537 0.17025 0.16336 0.93795-0.91627
  -9  -4   1 1560.11 278.973   3-0.44436-0.21768-0.21388-0.12010-0.93555 0.91380
   9  -4  -1 1475.83 274.186   8 0.48272 0.17858-0.13663-0.19718 0.93770-0.91619
   9   4  -1 1450.92 244.040   2 0.42243 0.23843 0.25631 0.07760 0.93107-0.90953
  -9   4   1 1520.11 269.592   7-0.51109-0.14989 0.07641 0.25766-0.93400 0.91205
  -9  -4   1 1552.00 252.507   7-0.58831-0.07244 0.09193-0.42610-0.89599 0.87421
  -8   4   1 412.263 139.674   7-0.49922-0.08624 0.07404 0.26000-0.93893 0.93058
   8  -4  -1 419.846 120.831   4-0.01145 0.59800-0.45229 0.11867-0.87926 0.88713
  -8  -4   1 355.623 107.179   7-0.58389-0.00139 0.09104-0.42516-0.89846 0.89025
  -8  -4   1 524.319 144.248   9 0.01247-0.59810-0.45378 0.11957 0.87889-0.88699
  -8   4   1 431.724 113.422   6-0.31335-0.27244 0.40002-0.06656-0.90363 0.89536
   8  -4  -1 356.654 134.137   8 0.46917 0.11668-0.13096-0.20285 0.94342-0.93543
   8   4  -1 285.078 110.662   5 0.45158 0.13381 0.16175 0.17187 0.94424-0.93614
  -8  -4   1 332.753 122.329   3-0.43033-0.15612-0.20086-0.13311-0.94296 0.93482
   8   4  -1 412.714 125.564   2 0.40887 0.17659 0.23812 0.09578 0.94003-0.93201
   7   4  -1 1663.82 234.012   2 0.39871 0.11133 0.22464 0.10924 0.94623-0.95174
  -7   4   1 2119.22 264.441   6-0.30456-0.20577 0.36578-0.03231-0.91993 0.92523
  -7  -4   1 1617.51 224.337   9 0.05022-0.56044-0.37455 0.04039 0.91990-0.91440
  -7  -4   1 1850.17 267.071   3-0.42026-0.09059-0.19158-0.14238-0.94795 0.95340
   7   4  -1 1836.56 241.451   5 0.44222 0.06768 0.15607 0.17756 0.94824-0.95371
   7  -4  -1 1388.87 224.807   8 0.46074 0.04967-0.12745-0.20637 0.94682-0.95236
   7  -4  -1 1634.60 219.753   4-0.04785 0.55890-0.37095 0.03718-0.92085 0.91529
  -7   4   1 1843.59 258.003   7-0.49347-0.01647 0.07290 0.26112-0.94124 0.94646
  -7  -4   1 1963.52 230.401   7-0.58920 0.07938 0.09211-0.42619-0.89549 0.90085
  -6   4   1 894.043 163.255   7-0.49634 0.06192 0.07347 0.26051-0.94009 0.95888
   6   4  -1 1107.17 181.981   2 0.39287 0.04178 0.21692 0.11696 0.94962-0.96865
  -6   4   1 995.907 173.224   6-0.29780-0.13705 0.34029-0.00679-0.93097 0.94983
  -6  -4   1 820.655 151.711   9 0.08602-0.52082-0.29542-0.03868 0.95153-0.93244
   6   4  -1 1274.62 173.185   8 0.68647-0.25143-0.22451 0.55835 0.80370-0.82300
   6  -4  -1 844.978 166.721   8 0.45931-0.02432-0.12685-0.20697 0.94738-0.96647
   6   4  -1 862.780 153.194   5 0.43898-0.00456 0.15410 0.17953 0.94959-0.96861
   6  -4  -1 1013.31 171.628   4-0.08211 0.51765-0.29028-0.04365-0.95260 0.93355
  -6  -4   1 914.003 172.173   3-0.41533-0.01992-0.18706-0.14690-0.95030 0.96933
  -6  -4   1 898.597 140.373   7-0.60910 0.17474 0.09616-0.43017-0.88384 0.90275
   5   4  -1 11.3150 42.5680   2 0.39252-0.03326 0.21646 0.11742 0.94982-0.98239
  -5   4   1 45.2892 13.7808   7-0.51182 0.15291 0.07656 0.25738-0.93369 0.96603
  -5  -4   1 -12.249 20.3581   7-0.65189 0.29297 0.10492-0.43887-0.85589 0.88834
   5  -4  -1 29.1273 18.4395   4-0.11408 0.47408-0.21124-0.12282-0.97541 0.94285
  -5  -4   1 -7.5119 2.90775   9 0.11967-0.47904-0.21733-0.11670 0.97453-0.94185
  -5   4   1 38.3804 43.3112   6-0.29355-0.06582 0.32458 0.00895-0.93732 0.96975
   5   4  -1 3.61402 9.46139   6-0.33780 0.69749 0.50371-0.16989-0.84293 0.81012
   5  -4  -1 11.7350 22.1048   8 0.46772-0.10818-0.13036-0.20348 0.94401-0.97665
   5   4  -1 -9.8424 20.2397   5 0.44411-0.08517 0.15722 0.17641 0.94745-0.98002
  -5  -4   1 -11.767 37.7286   3-0.41718 0.05753-0.18874-0.14517-0.94943 0.98204
   4   4  -1 1274.18 178.182   2 0.39921-0.11536 0.22530 0.10860 0.94594-0.99206
   4   4  -1 1231.50 120.873   6-0.27673 0.56096 0.26464 0.06934-0.95852 0.91224
  -4   4   1 1275.28 177.357   6-0.29227 0.00841 0.31993 0.01361-0.93914 0.98513
   4  -4  -1 1066.29 165.464   9-0.05716 0.34051-0.58873 0.25554 0.78308-0.82906
  -4  -4   1 1107.96 168.798   3-0.42810 0.14408-0.19881-0.13508-0.94409 0.99027
   4   4  -1 1104.94 155.178   5 0.46099-0.17752 0.16749 0.16612 0.94003-0.98614
   4  -4  -1 1181.40 162.702   8 0.49047-0.20637-0.13987-0.19399 0.93428-0.98048
  -4  -4   1 1752.24 190.257   4 0.05349-0.33753-0.58650 0.25265-0.78531 0.83137
  -4  -4   1 1338.41 183.557   9 0.15093-0.43490-0.14128-0.19268 0.98963-0.94338
   4  -4  -1 1345.90 185.072   4-0.14354 0.42800-0.13494-0.19923-0.99021 0.94411
  -4   4   1 1223.62 164.073   7-0.54650 0.26309 0.08350 0.25038-0.91789 0.96376
  -4  -4   1 1361.88 150.178   7-0.73145 0.44793 0.12148-0.45537-0.79144 0.83743
  -3   4   1 153.908 49.8456   7-0.61153 0.40361 0.09666 0.23716-0.88235 0.94172
  -3  -4   1 136.498 50.0547   9 0.17956-0.38810-0.06849-0.26541 0.99767-0.93786
   3  -4  -1 175.730 69.3762   4-0.17027 0.37915-0.06261-0.27164-0.99798 0.93833
   3   4  -1 148.680 47.2651   6-0.22677 0.43549 0.10199 0.23214-0.99359 0.93376
  -3   4   1 165.236 65.0687   6-0.29446 0.08610 0.32793 0.00561-0.93599 0.99554
   3  -4  -1 165.724 49.7590   9-0.01579 0.22372-0.51030 0.17702 0.84316-0.90273
  -3  -4   1 138.821 23.8921   8-0.03140-0.17699 0.06814-0.40182 0.97532-0.91554
   3  -4  -1 196.325 59.5887   8 0.53473-0.32608-0.15854-0.17536 0.91258-0.97235
  -3  -4   1 137.143 57.5643   3-0.45134 0.24293-0.22038-0.11344-0.93165 0.99137
  -3   4   1 149.959 26.3317   2 0.41594-0.62419 0.24757 0.08614 0.93546-0.87599
   3   4  -1 89.7315 41.9603   2 0.41496-0.20651 0.24627 0.08764 0.93610-0.99577
  -3  -4   1 130.333 45.9499   4 0.01588-0.22453-0.51048 0.17667-0.84281 0.90239
   2   4  -1 801.451 115.079   6-0.19021 0.32341-0.00633 0.34053-0.99992 0.92651
  -2   4   1 941.500 144.080   6-0.30051 0.16766 0.35041-0.01686-0.92670 0.99979
  -2  -4   1 931.307 146.817   9 0.20524-0.33836-0.00029-0.33355 0.99966-0.92630
  -2  -4   1 1017.16 145.320   3-0.49133 0.35854-0.25816-0.07558-0.90648 0.97972
   2  -4  -1 1075.78 134.523   8 0.61182-0.47864-0.19162-0.14232 0.86486-0.93823
   2   4  -1 974.689 124.703   5 0.55317-0.42057 0.22466 0.10892 0.88845-0.96160
   2  -4  -1 1020.70 130.714   9 0.00606 0.12643-0.46680 0.13343 0.87116-0.94431
  -2  -4   1 1042.81 139.453   4-0.00450-0.12871-0.46733 0.13355-0.87041 0.94353
   2   4  -1 987.852 73.2095   7-0.26333 0.39611 0.02797 0.30614-0.99592 0.92266
  -2   4   1 1064.75 122.174   7-0.72435 0.59185 0.11999 0.21375-0.79796 0.87079
   1   4  -1 7380.82 370.682   2 0.48370-0.42609 0.34126-0.00731 0.87965-0.96646
   1   4  -1 6855.71 350.078   6-0.16550 0.22314-0.07561 0.40984-0.99703 0.91004
  -1   4   1 7192.29 385.110   6-0.31061 0.25328 0.38922-0.05569-0.90896 0.99558
  -1  -4   1 7347.60 387.507   9 0.22765-0.28536 0.06177-0.39555 0.99685-0.90995
  -1  -4   1 7556.80 365.614   3-0.55337 0.49615-0.31864-0.01502-0.85637 0.94309
   1   4  -1 8009.02 345.363   5 0.64595-0.58873 0.28454 0.04903 0.81279-0.89945
   1  -4  -1 6807.62 349.701   9 0.01530 0.04176-0.44798 0.11453 0.88223-0.96894
  -1  -4   1 6822.90 369.900   4-0.01336-0.04439-0.44813 0.11438-0.88164 0.96832
   0  -4   1 360.624 107.059   4-0.01395 0.03169-0.44685 0.11314-0.88237 0.98260
   0  -4  -1 213.992 40.6989   7-0.57556 0.55732 0.08935-0.42298-0.90302 0.80303
   0  -4  -1 391.565 104.199   9 0.01568-0.03405-0.44720 0.11368 0.88268-0.98294
   0   4  -1 436.728 107.615   2 0.54057-0.55841 0.42547-0.09151 0.81096-0.91135
   0  -4  -1 254.821 79.0864   4-0.23123 0.21336 0.11562-0.44999-0.99185 0.89148
   0   4   1 418.061 98.0919   6-0.32461 0.34277 0.44597-0.11248-0.87893 0.97907
   0  -4   1 298.649 63.0018   8-0.12458 0.14248 0.10335-0.43690 0.94838-0.84803
   0   4  -1 328.665 100.073   6-0.15050 0.13260-0.11623 0.45048-0.99280 0.89224
   0  -4   1 347.097 98.7713   9 0.24647-0.22876 0.11593-0.44966 0.99078-0.89036
   0   4   1 378.010 97.2563   1 0.20926-0.19121-0.11672 0.45010 0.99269-0.89252
  -1   4  -1 -12.404 41.9075   6-0.14337 0.04991-0.13525 0.46951-0.99016 0.87604
   1   4   1 -21.358 41.3357   1 0.21397-0.12055-0.15104 0.48441 0.98786-0.87417
   1  -4   1 54.4837 20.0043   9 0.26135-0.16821 0.16022-0.49392 0.98328-0.86932
  -1  -4  -1 14.6735 17.1739   4-0.24416 0.15070 0.15627-0.49064-0.98538 0.87145
   1  -4   1 -9.6583 29.2190   8-0.06599 0.15932 0.08128-0.41483 0.96647-0.85258
  -1  -4  -1 4.40754 10.9917   9 0.00951-0.10330-0.45982 0.12623 0.87534-0.98915
   1   4   1 32.2694 5.46484   6-0.34160 0.43524 0.52134-0.18787-0.83073 0.94437
  -1   4  -1 11.0574 22.3679   7 0.16069-0.25449-0.05129 0.38574-0.94078 0.82661
  -2  -4  -1 14.7429 21.9117   9-0.00172-0.16749-0.48245 0.14879 0.86148-0.98885
  -2   4  -1 -40.768 38.2685   6-0.14252-0.02649-0.13751 0.47175-0.98982 0.86214
   2  -4   1 -34.074 16.8679   9 0.27185-0.10328 0.19239-0.52604 0.97636-0.84887
   2   4   1 3.69343 7.87378   6-0.35946 0.52858 0.61389-0.28044-0.75605 0.88317
  -2  -4  -1 -43.459 33.1839   4-0.25277 0.08373 0.18401-0.51836-0.97986 0.85237
   2  -4   1 3.19712 31.2220   8-0.01685 0.18560 0.06260-0.39614 0.97864-0.85120
  -2  -4  -1 12.4198 8.37295   7 0.25464-0.42383-0.06827-0.26583-0.90320 0.77574
  -2   4  -1 -24.678 25.9473   7 0.06975-0.23906-0.03464 0.36910-0.96823 0.84051
   2   4   1 -15.139 30.9704   1 0.21646-0.04765-0.16995 0.50331 0.98466-0.85744
   3   4   1 2257.30 228.940   1 0.21677 0.02746-0.17228 0.50566 0.98424-0.84347
  -3  -4  -1 2447.64 220.899   4-0.25646 0.01186 0.19609-0.53040-0.97716 0.83613
  -3   4  -1 2644.95 281.879   6-0.14673-0.09782-0.12633 0.46055-0.99145 0.85022
  -3  -4  -1 2619.26 269.601   9-0.01694-0.22769-0.51254 0.17882 0.84162-0.98254
   3  -4   1 2495.42 217.369   9 0.27739-0.03338 0.20969-0.54331 0.97212-0.83111
   3  -4   1 2499.22 242.457   8 0.02827 0.21592 0.04531-0.37886 0.98741-0.84643
   3  -4   1 2654.73 285.132   4 0.01667 0.22761-0.51212 0.17857-0.84169 0.98251
  -3  -4  -1 2481.58 185.832   7 0.08198-0.32668-0.03690-0.29716-0.96504 0.82404
  -3   4  -1 2581.11 240.759   7 0.00247-0.24730-0.02221 0.35666-0.98305 0.84178
  -4  -4  -1 26.6209 14.0629   9-0.03539-0.28467-0.54810 0.21431 0.81585-0.97034
   4   4   1 25.3568 19.3757   8-0.02879 0.34847 0.06715 0.26659 0.97593-0.82150
  -4   4  -1 58.3107 56.1880   6-0.15504-0.16504-0.10404 0.43824-0.99426 0.83948
   4  -4   1 30.6407 20.5490   9 0.27700 0.04247 0.20844-0.54202 0.97244-0.81790
  -4  -4  -1 44.3778 31.4004   4-0.25421-0.06592 0.18870-0.52296-0.97883 0.82427
   4  -4   1 75.8532 43.7231   8 0.07128 0.24834 0.02871-0.36225 0.99363-0.83911
   4   4   1 21.8412 35.2250   1 0.21470 0.10498-0.15649 0.48989 0.98698-0.83264
  -4  -4  -1 5.02001 1.88115   7-0.02312-0.29708-0.01744-0.31657-0.98748 0.83294
  -4   4  -1 37.8918 20.6387   7-0.05410-0.26624-0.01167 0.34612-0.99195 0.83711
   4  -4   1 54.1895 45.6978   4 0.03430 0.28548-0.54830 0.21484-0.81571 0.97003
   5   4   1 5385.04 331.201   1 0.20975 0.18543-0.12021 0.45365 0.99225-0.82432
  -5   4  -1 5955.42 466.449   6-0.16670-0.22890-0.07231 0.40646-0.99729 0.82895
   5  -4   1 5887.47 314.246   9 0.26876 0.12617 0.18285-0.51638 0.97854-0.81048
  -5  -4  -1 4897.36 500.646   9-0.05651-0.33896-0.58755 0.25370 0.78408-0.95214
   5   4   1 5985.76 321.288   8 0.08076 0.31438 0.02504 0.30872 0.99472-0.82673
   5  -4   1 5478.81 431.649   8 0.11309 0.28196 0.01246-0.34600 0.99766-0.82961
   5  -4   1 5747.51 473.830   4 0.05461 0.34070-0.58869 0.25529-0.78347 0.95126
  -5  -4  -1 5488.96 345.223   7-0.10033-0.29534-0.00300-0.33102-0.99679 0.82870
  -5   4  -1 5677.72 438.583   7-0.10500-0.29085-0.00212 0.33658-0.99716 0.82875
  -5  -4  -1 5881.91 315.221   4-0.24399-0.15163 0.15573-0.48994-0.98548 0.81740
   6  -4   1 32.0957 48.4562   8 0.15413 0.31637-0.00361-0.32995 0.99966-0.81807
  -6   4  -1 83.5715 56.8866   6-0.18109-0.29001-0.03224 0.36635-0.99947 0.81760
   6   4   1 100.911 41.0383   1 0.20087 0.26988-0.05941 0.39286 0.99800-0.81645
  -6   4  -1 76.2750 37.3906   7-0.15254-0.31882 0.00685 0.32761-0.99960 0.81761
   6   4   1 131.493 52.0196   8 0.16165 0.30896-0.00656 0.34033 0.99981-0.81827
  -6  -4  -1 67.6500 35.6278   7-0.16398-0.30717 0.00901-0.34303-0.99984 0.81818
  -7   4  -1 622.464 162.847   6-0.19775-0.34884 0.01538 0.31868-0.99971 0.80430
   7  -4   1 555.998 178.474   8 0.19466 0.35127-0.01958-0.31397 0.99969-0.80458
  -7   4  -1 550.885 149.701   7-0.19793-0.34892 0.01546 0.31900-0.99971 0.80414
  -7  -4  -1 633.301 153.979   7-0.22012-0.32650 0.01969-0.35372-0.99895 0.80373
  -8   4  -1 11.9935 40.2784   6-0.21627-0.40579 0.07008 0.26392-0.99684 0.78788
   8  -4   1 8.17215 10.9898   8 0.23484 0.38654-0.03552-0.29804 0.99777-0.78912
  -8   4  -1 119.102 76.7479   7-0.24188-0.38047 0.02386 0.31061-0.99768 0.78852
  -8  -4  -1 99.5388 94.8165   7-0.27169-0.35038 0.02957-0.36361-0.99509 0.78629
  11   5  -1 613.763 215.252   2 0.46117 0.35050 0.30945 0.10792 0.90083-0.85230
 -10   5   1 141.446 112.754   7-0.55528-0.18117 0.08526 0.33238-0.91356 0.87793
  10   5  -1 234.091 132.309   5 0.49818 0.23815 0.19032 0.22674 0.92159-0.88633
  10  -5  -1 217.122 145.815   8 0.51986 0.21689-0.15225-0.26496 0.92029-0.88527
  10   5  -1 55.3521 43.3555   2 0.44450 0.29177 0.28635 0.13100 0.91474-0.87972
 -10  -5   1 99.0909 3.56899   3-0.47153-0.26613-0.23935-0.17819-0.91957 0.88418
  -9   5   1 390.582 157.584   7-0.54197-0.11894 0.08259 0.33503-0.92007 0.89804
  -9  -5   1 466.703 158.572   9-0.01748-0.64365-0.51360 0.09593 0.84089-0.86253
   9  -5  -1 469.405 160.159   8 0.50489 0.15643-0.14593-0.27128 0.92762-0.90612
   9   5  -1 448.895 145.806   5 0.48290 0.17794 0.18089 0.23616 0.92954-0.90786
  -9  -5   1 543.755 162.200   3-0.45635-0.20572-0.22506-0.19248-0.92877 0.90701
   9   5  -1 450.590 137.006   2 0.43002 0.23085 0.26657 0.15076 0.92571-0.90420
  -8   5   1 -0.5465 33.7720   7-0.53365-0.05174 0.08092 0.33667-0.92398 0.91555
   8  -5  -1 -28.309 48.4571   4-0.01606 0.60266-0.44223 0.02505-0.88497 0.89285
  -8   5   1 12.0813 4.43296   6-0.31251-0.27331 0.39667 0.02024-0.90530 0.89700
  -8  -5   1 18.8924 31.7157   9 0.01731-0.60302-0.44385 0.02624 0.88458-0.89262
   8  -5  -1 -13.564 27.1449   8 0.49403 0.09185-0.14137-0.27586 0.93267-0.92469
   8   5  -1 2.26304 37.9502   5 0.47126 0.11408 0.17377 0.24330 0.93524-0.92714
  -8  -5   1 94.0037 43.2708   3-0.44429-0.14217-0.21381-0.20373-0.93559 0.92742
   8   5  -1 90.6216 87.9006   2 0.41823 0.16724 0.25065 0.16666 0.93393-0.92594
  -7   5   1 278.987 99.6143   7-0.53205 0.02218 0.08060 0.33695-0.92472 0.92987
   7  -5  -1 240.785 101.123   4-0.04757 0.55865-0.37159-0.04575-0.92057 0.91500
  -7   5   1 257.305 108.090   6-0.30490-0.20544 0.36709 0.04985-0.91934 0.92461
  -7  -5   1 131.683 68.2366   9 0.05014-0.56044-0.37472-0.04283 0.91982-0.91427
   7  -5  -1 213.855 54.6799   8 0.48856 0.02189-0.13908-0.27817 0.93513-0.94068
   7   5  -1 193.771 46.7996   5 0.46434 0.04551 0.16953 0.24754 0.93849-0.94396
  -7  -5   1 592.314 167.785   3-0.43617-0.07468-0.20628-0.21126-0.93994 0.94537
   7   5  -1 231.675 74.8106   2 0.40973 0.10032 0.23929 0.17802 0.93948-0.94502
  -6   5   1 352.958 104.838   7-0.53980 0.10544 0.08215 0.33535-0.92110 0.93982
  -6  -5   1 407.643 100.219   7-0.69898 0.26465 0.11468-0.53208-0.81994 0.83883
   6  -5  -1 404.870 124.919   4-0.07692 0.51247-0.30274-0.11473-0.94827 0.92922
  -6  -5   1 418.036 122.587   9 0.08092-0.51580-0.30694-0.11056 0.94747-0.92833
  -6   5   1 378.329 110.941   6-0.29915-0.13570 0.34532 0.07165-0.92886 0.94771
   6  -5  -1 338.507 107.501   8 0.49034-0.05532-0.13982-0.27744 0.93433-0.95343
   6   5  -1 264.542 86.9876   5 0.46356-0.02919 0.16905 0.24801 0.93885-0.95788
  -6  -5   1 355.669 108.847   3-0.43306-0.00218-0.20339-0.21413-0.94156 0.96058
   6   5  -1 222.307 69.0007   2 0.40532 0.02934 0.23340 0.18390 0.94224-0.96131
  -5   5   1 619.306 131.462   7-0.56093 0.20208 0.08640 0.33104-0.91070 0.94296
  -5  -5   1 144.035 57.6243   7-0.75870 0.39977 0.12727-0.54459-0.76476 0.79721
   5  -5  -1 527.534 127.740   4-0.10400 0.46400-0.23655-0.18104-0.96896 0.93640
   5   5  -1 728.450 114.178   6-0.32882 0.68858 0.46384-0.04653-0.86841 0.83556
  -5   5   1 572.057 135.622   6-0.29559-0.06375 0.33213 0.08487-0.93431 0.96672
   5  -5  -1 515.232 127.336   8 0.50208-0.14250-0.14475-0.27254 0.92895-0.96160
   5   5  -1 567.786 120.380   5 0.47099-0.11209 0.17360 0.24345 0.93537-0.96794
  -5  -5   1 629.009 140.709   9 0.10950-0.46897-0.24131-0.17612 0.96829-0.93558
  -5  -5   1 605.828 147.107   3-0.43635 0.07673-0.20644-0.21105-0.93985 0.97245
   5   5  -1 538.320 140.038   2 0.40596-0.04669 0.23425 0.18306 0.94185-0.97446
   4   5  -1 979.993 170.794   2 0.41286-0.12899 0.24347 0.17385 0.93747-0.98362
   4   5  -1 1260.48 146.040   6-0.28557 0.56986 0.29573 0.12172-0.94811 0.90177
  -4   5   1 1342.01 212.305   6-0.29461 0.01076 0.32849 0.08852-0.93577 0.98174
  -4  -5   1 1348.33 208.102   9 0.13571-0.41976-0.17873-0.23863 0.98306-0.93679
   4  -5  -1 1515.04 183.477   9-0.02885 0.31216-0.53563 0.11903 0.82518-0.87120
  -4  -5   1 1214.02 192.046   3-0.44796 0.16396-0.21723-0.20021-0.93356 0.97972
   4   5  -1 1152.23 171.567   5 0.48958-0.20614 0.18501 0.23202 0.92613-0.97223
   4  -5  -1 1198.89 177.741   8 0.52788-0.24374-0.15564-0.26168 0.91619-0.96240
  -4   5   1 1268.83 199.660   1 0.15602-0.43952 0.19378 0.22358 0.98079-0.93479
  -4  -5   1 1420.48 183.275   4 0.02798-0.31209-0.53545 0.11817-0.82524 0.87129
   4  -5  -1 1138.88 188.139   4-0.12865 0.41309-0.17392-0.24378-0.98351 0.93742
  -4   5   1 1340.46 175.299   7-0.60187 0.31853 0.09469 0.32269-0.88816 0.93394
  -3  -5   1 1122.38 178.075   3-0.47041 0.26206-0.23830-0.17907-0.92027 0.97997
  -3   5   1 1186.05 101.321   2 0.45583-0.66406 0.30200 0.11518 0.90545-0.84601
   3   5  -1 904.017 158.063   2 0.42756-0.21909 0.26325 0.15410 0.92747-0.98717
   3   5  -1 1202.66 151.215   6-0.24882 0.45760 0.17135 0.24622-0.98249 0.92262
  -3   5   1 1134.21 182.008   6-0.29652 0.08819 0.33554 0.08147-0.93292 0.99245
  -3  -5   1 1098.73 185.094   9 0.15936-0.36800-0.12018-0.29713 0.99259-0.93277
   3  -5  -1 1201.79 154.628   9-0.00034 0.20820-0.47968 0.06299 0.86323-0.92282
   3  -5  -1 1262.72 168.120   8 0.57395-0.36526-0.17528-0.24209 0.89000-0.94980
  -3   5   1 1155.94 183.560   1 0.16937-0.37747 0.12554 0.29164 0.99202-0.93245
  -3  -5   1 1117.46 159.293   4 0.00164-0.21034-0.48046 0.06320-0.86236 0.92195
   3  -5  -1 1126.75 184.217   4-0.15070 0.35957-0.11586-0.30193-0.99284 0.93320
  -3   5   1 1310.64 159.433   7-0.67271 0.46483 0.10921 0.30807-0.84072 0.89998
   3   5  -1 1137.64 160.834   5 0.52359-0.31559 0.20609 0.21091 0.90721-0.96684
  -2   5   1 11.4026 36.3111   1 0.18015-0.31288 0.06653 0.35051 0.99777-0.92466
   2  -5  -1 46.1562 30.0638   4-0.16996 0.30323-0.06347-0.35437-0.99793 0.92472
   2   5  -1 -18.512 28.7327   6-0.22019 0.35343 0.08191 0.33574-0.99577 0.92234
  -2   5   1 -18.684 24.1705   2 0.31752-0.45032 0.12026 0.29681 0.98230-0.90932
   2  -5  -1 71.0798 27.7378   9 0.01541 0.11702-0.44777 0.03098 0.88235-0.95551
  -2  -5   1 -0.1533 20.3427   3-0.50702 0.37427-0.27322-0.14406-0.89519 0.96841
   2   5  -1 29.9461 41.3968   2 0.45181-0.31876 0.29644 0.12092 0.90881-0.98207
   2  -5  -1 -14.274 32.9516   8 0.64930-0.51609-0.20802-0.20940 0.83627-0.90967
  -2  -5   1 2.00232 23.4047   9 0.18023-0.31344-0.06674-0.35051 0.99778-0.92441
  -2   5   1 -27.699 40.4702   6-0.30161 0.16878 0.35454 0.06247-0.92491 0.99798
   2  -5  -1 0.23887 7.21348   3-0.36256 0.49584-0.13924-0.27857-0.97160 0.89824
  -1   5   1 13.4144 23.1605   6-0.31000 0.25270 0.38681 0.03017-0.91012 0.99672
   1   5  -1 85.3201 50.2816   6-0.19940 0.25708 0.02017 0.39754-0.99960 0.91259
   1  -5  -1 1.49031 13.8622   9 0.02205 0.03493-0.43408 0.01721 0.89002-0.97673
   1  -5  -1 46.8532 21.2608   4-0.18618 0.24387-0.01800-0.39988-0.99981 0.91304
  -1   5   1 84.2884 60.9638   1 0.18854-0.24591 0.01774 0.39920 0.99980-0.91316
   1   5  -1 92.4767 42.6005   5 0.66260-0.60540 0.29561 0.12134 0.79590-0.88256
  -1  -5   1 68.1272 50.1099   9 0.19805-0.25585-0.01965-0.39754 0.99963-0.91273
  -1  -5   1 51.9877 32.2985   3-0.56142 0.50427-0.32669-0.09049-0.84870 0.93540
  -1  -5   1 48.3452 14.6226   8 0.19146-0.24894-0.01832-0.39882 0.99976-0.91286
   0   5  -1 3802.64 291.036   2 0.53525-0.55306 0.41733 0.00009 0.81849-0.91891
   0   5  -1 2428.90 240.755   6-0.18558 0.16772-0.01952 0.43726-0.99979 0.89922
   0   5   1 3235.20 280.894   6-0.32163 0.33983 0.43351-0.01656-0.88596 0.98608
   0  -5   1 3481.48 293.853   9 0.21255-0.19492 0.01970-0.43685 0.99923-0.89879
   0  -5   1 3605.93 187.584   8 0.09610-0.07814 0.01908-0.43612 0.99627-0.89585
   0  -5  -1 3493.23 293.040   9 0.02184-0.04028-0.43452 0.01758 0.88978-0.99003
   0  -5   1 3609.72 311.153   4-0.01969 0.03741-0.43426 0.01706-0.88937 0.98963
   0   5  -1 3421.86 139.740   7-0.02842 0.01024-0.01646 0.43436-0.98832 0.88778
   0  -5  -1 3303.60 127.033   7-0.21831 0.20008 0.01935-0.43656-0.99903 0.89891
   0  -5  -1 3134.32 281.482   4-0.19911 0.18123 0.01920-0.43708-0.99962 0.89929
   0   5   1 3102.59 286.039   1 0.19471-0.17671-0.01993 0.43680 0.99969-0.89952
  -1   5  -1 1197.96 179.309   6-0.17781 0.08440-0.04145 0.45919-0.99913 0.88500
   1   5   1 1030.42 160.399   6-0.33597 0.42968 0.49537-0.07845-0.84849 0.96212
   1  -5   1 1127.24 161.353   9 0.22337-0.13031 0.04972-0.46683 0.99774-0.88377
  -1  -5  -1 1259.97 181.104   9 0.01624-0.11011-0.44605 0.02906 0.88333-0.99713
   1  -5   1 1247.48 135.886   8 0.08376 0.00962 0.02387-0.44088 0.99504-0.88110
   1  -5   1 1167.03 179.298   4-0.01460 0.10783-0.44544 0.02827-0.88317 0.99697
  -1   5  -1 1311.93 119.941   7-0.04075-0.05296-0.01416 0.43209-0.99014 0.87603
  -1  -5  -1 1284.34 75.7973   7-0.58210 0.48846 0.09067-0.50775-0.89945 0.78592
   1   5   1 895.036 153.065   1 0.19875-0.10537-0.04560 0.46245 0.99877-0.88508
  -2   5  -1 1962.89 246.749   6-0.17516 0.00620-0.04884 0.46657-0.99879 0.87109
   2   5   1 2122.33 232.275   6-0.35185 0.52104 0.57209-0.15520-0.79215 0.91925
   2  -5   1 2068.07 215.662   9 0.23004-0.06154 0.06853-0.48560 0.99628-0.86878
  -2  -5  -1 1883.07 235.666   9 0.00629-0.17560-0.46633 0.04927 0.87145-0.99879
   2  -5   1 2165.79 207.299   8 0.09483 0.07398 0.01957-0.43656 0.99615-0.86867
   2   5   1 2181.60 97.7120   8 0.53379-0.36490-0.15814 0.57561 0.91308-0.78554
   2  -5   1 2046.72 254.080   4-0.00532 0.17407-0.46557 0.04845-0.87146 0.99880
  -2  -5  -1 2009.70 106.802   7 0.01536-0.18449-0.02460-0.39288-0.98057 0.85322
  -2   5  -1 1907.28 174.871   7-0.06903-0.10019-0.00887 0.42684-0.99375 0.86606
   2   5   1 2086.91 230.236   1 0.20071-0.03192-0.05838 0.47523 0.99807-0.87083
   3   5   1 250.203 37.6590   8-0.00316 0.24743 0.05737 0.35985 0.98154-0.84064
  -3   5  -1 242.923 87.3756   6-0.17686-0.06765-0.04411 0.46182-0.99901 0.85776
   3   5   1 298.653 90.8232   1 0.20054 0.04367-0.05726 0.47412 0.99814-0.85735
   3  -5   1 309.034 76.9055   8 0.11607 0.12816 0.01129-0.42827 0.99787-0.85687
   3  -5   1 316.853 90.4412   9 0.23186 0.01208 0.07371-0.49073 0.99580-0.85478
  -3  -5  -1 304.926 95.7345   9-0.00725-0.23747-0.49346 0.07633 0.85441-0.99531
  -3  -5  -1 300.143 56.0231   7-0.08725-0.15737-0.00546-0.41199-0.99565 0.85475
  -3   5  -1 265.271 83.0168   7-0.10210-0.14263-0.00267 0.42065-0.99694 0.85567
   3  -5   1 364.469 111.228   4 0.00747 0.23681-0.49284 0.07577-0.85449 0.99536
   4   5   1 182.303 77.0184   1 0.19802 0.12166-0.04092 0.45780 0.99899-0.84464
  -4  -5  -1 268.796 97.0198   9-0.02381-0.29633-0.52590 0.10871 0.83224-0.98669
  -4   5  -1 190.123 91.2235   6-0.18222-0.13782-0.02906 0.44674-0.99957 0.84477
  -4  -5  -1 129.052 62.6442   4-0.20881-0.11126 0.04768-0.46546-0.99842 0.84391
   4  -5   1 153.657 60.2999   9 0.22772 0.09169 0.06195-0.47893 0.99684-0.84229
  -4   5  -1 168.680 58.0804   7-0.13727-0.18298 0.00396 0.41404-0.99908 0.84423
   4  -5   1 197.429 80.8920   8 0.14270 0.17697 0.00088-0.41785 0.99930-0.84476
  -4  -5  -1 141.494 46.4145   7-0.15139-0.16871 0.00663-0.42407-0.99957 0.84512
   4  -5   1 229.184 95.1807   4 0.02323 0.29658-0.52570 0.10871-0.83224 0.98661
  -5   5  -1 66.7606 69.1423   6-0.19066-0.20491-0.00505 0.42269-0.99992 0.83157
  -5  -5  -1 -43.865 40.3541   4-0.19567-0.19989 0.00920-0.42692-0.99983 0.83179
   5  -5   1 -1.2372 32.1362   9 0.21560 0.17927 0.02810-0.44502 0.99892-0.83084
  -5  -5  -1 12.9643 27.4010   9-0.04295-0.35260-0.56238 0.14513 0.80476-0.97277
   5  -5   1 24.1700 19.7330   8 0.17254 0.22256-0.01085-0.40612 0.99992-0.83184
   5   5   1 45.0981 44.1325   1 0.19270 0.20249-0.00748 0.42440 0.99988-0.83194
  -5   5  -1 -83.337 74.2276   7-0.17354-0.22224 0.01083 0.40718-0.99993 0.83150
  -5  -5  -1 -20.296 26.9756   7-0.20360-0.19196 0.01654-0.43400-0.99957 0.83155
   5  -5   1 22.9958 51.5840   4 0.04155 0.35380-0.56287 0.14596-0.80449 0.97234
  -6   5  -1 1413.49 250.032   6-0.20171-0.26936 0.02695 0.39065-0.99939 0.81748
  -6  -5  -1 -47.751 59.6002   9-0.06434-0.40663-0.60181 0.18449 0.77169-0.95328
   6  -5   1 1362.71 232.323   8 0.20446 0.26608-0.02346-0.39351 0.99941-0.81780
  -6   5  -1 1430.11 241.212   7-0.21046-0.26082 0.01785 0.40017-0.99935 0.81734
  -6  -5  -1 1378.27 188.478   7-0.25070-0.22033 0.02555-0.44301-0.99702 0.81544
  -7   5  -1 303.395 120.775   6-0.21497-0.33160 0.06620 0.35135-0.99715 0.80170
   7  -5   1 370.290 131.116   8 0.23779 0.30819-0.03670-0.38026 0.99755-0.80242
   7   5   1 182.570 53.7911   2 0.24350 0.30222 0.02964 0.38728 0.99741-0.80269
  -7   5  -1 448.875 143.754   7-0.24780-0.29898 0.02499 0.39304-0.99725 0.80164
  -8   5  -1 72.3955 73.3360   6-0.23010-0.39196 0.11223 0.30525-0.99230 0.78330
   8   5   1 59.1363 82.4266   2 0.26697 0.35415 0.05796 0.35899 0.99425-0.78600
   8  -5   1 -26.421 50.5018   8 0.27215 0.34927-0.05044-0.36655 0.99419-0.78554
  -8   5  -1 66.2382 64.0301   7-0.28543-0.33685 0.03221 0.38582-0.99355 0.78434
  -9  -5  -1 222.726 281.862   3-0.29757-0.40110-0.08182-0.33640-0.98914 0.76624
   9   5   1 73.1653 28.2542   2 0.29227 0.40425 0.08891 0.32806 0.98918-0.76740
 -10   6   1 59.4455 98.0078   7-0.58957-0.14680 0.09219 0.40901-0.89528 0.85955
  10   6  -1 26.1287 46.8582   2 0.45394 0.28233 0.29938 0.20137 0.90704-0.87205
  10  -6  -1 -25.965 108.904   8 0.54498 0.19181-0.16291-0.33773 0.90699-0.87200
  -9   6   1 257.147 132.302   7-0.57975-0.08110 0.09020 0.41096-0.90074 0.87862
  -9  -6   1 248.905 153.407   9-0.01451-0.64669-0.50779 0.00672 0.84487-0.86645
   9   6  -1 273.104 127.472   2 0.44121 0.21966 0.28183 0.21891 0.91732-0.89585
  -9   6   1 392.356 150.767   6-0.32232-0.33900 0.43636 0.06398-0.88437 0.86247
   9   6  -1 422.101 153.532   5 0.50515 0.15564 0.19463 0.30588 0.91780-0.89612
   9  -6  -1 191.434 127.259   8 0.53268 0.12868-0.15767-0.34296 0.91367-0.89219
  -9  -6   1 361.247 140.840   3-0.47245-0.18963-0.24021-0.26090-0.91899 0.89719
   9  -6  -1 167.502 97.1501   4 0.01462 0.64753-0.50784 0.00722-0.84459 0.86589
   8  -6  -1 51.9742 45.2415   4-0.01518 0.60180-0.44417-0.05659-0.88388 0.89176
  -8   6   1 43.8964 37.9713   7-0.57545-0.00987 0.08933 0.41179-0.90308 0.89455
  -8   6   1 96.5016 77.5452   6-0.31436-0.27147 0.40402 0.09635-0.90161 0.89328
  -8  -6   1 82.9365 72.8593   9 0.01646-0.60224-0.44560-0.05541 0.88359-0.89157
   8   6  -1 177.987 84.6285   5 0.49596 0.08933 0.18895 0.31156 0.92278-0.91467
   8  -6  -1 -9.2109 29.7338   8 0.52476 0.06116-0.15432-0.34633 0.91780-0.90984
  -8  -6   1 163.736 80.3504   3-0.46239-0.12408-0.23073-0.27037-0.92519 0.91699
   8   6  -1 -12.914 26.4910   2 0.43112 0.15436 0.26806 0.23266 0.92491-0.91696
  -7   6   1 25.0572 26.1504   7-0.57852 0.06872 0.08995 0.41112-0.90141 0.90646
   7  -6  -1 129.983 60.3476   4-0.04292 0.55401-0.38222-0.11867-0.91569 0.91012
  -7   6   1 158.066 95.5421   6-0.30781-0.20255 0.37825 0.12216-0.91419 0.91943
  -7  -6   1 56.6886 49.4890   9 0.04545-0.55582-0.38479-0.11616 0.91515-0.90955
   7   6  -1 104.547 60.7642   5 0.49159 0.01822 0.18625 0.31425 0.92508-0.93054
   7  -6  -1 180.198 113.819   8 0.52252-0.01203-0.15337-0.34729 0.91894-0.92452
  -7  -6   1 116.430 60.4153   3-0.45625-0.05460-0.22497-0.27613-0.92883 0.93423
   7   6  -1 233.141 97.4741   2 0.42422 0.08585 0.25872 0.24200 0.92983-0.93540
  -6   6   1 86.2134 47.5966   7-0.59167 0.15740 0.09262 0.40840-0.89408 0.91269
   6  -6  -1 60.3860 32.5571   4-0.06855 0.50409-0.32268-0.17834-0.94092 0.92186
  -6   6   1 94.9221 88.4447   6-0.30292-0.13193 0.35955 0.14089-0.92271 0.94153
  -6  -6   1 67.8730 106.366   9 0.07239-0.50734-0.32603-0.17487 0.94034-0.92116
   6   6  -1 40.7408 16.7730   5 0.49340-0.05907 0.18737 0.31312 0.92413-0.94315
   6  -6  -1 138.052 66.6298   8 0.52776-0.09270-0.15559-0.34510 0.91624-0.93536
  -6  -6   1 78.0243 79.0286   3-0.45495 0.01973-0.22376-0.27731-0.92958 0.94857
   6   6  -1 -31.076 21.4563   2 0.42118 0.01351 0.25463 0.24609 0.93193-0.95103
   5   6  -1 1993.53 270.127   2 0.42281-0.06353 0.25682 0.24390 0.93081-0.96345
  -5   6   1 2142.99 292.007   6-0.30001-0.05934 0.34853 0.15195-0.92750 0.95988
  -5  -6   1 2367.36 308.884   9 0.09715-0.45670-0.26999-0.23084 0.95988-0.92714
  -5  -6   1 2392.76 309.384   3-0.45974 0.10016-0.22826-0.27279-0.92677 0.95934
   5   6  -1 1799.59 240.561   5 0.50326-0.14440 0.19346 0.30700 0.91884-0.95140
   5  -6  -1 2416.68 289.814   8 0.54307-0.18344-0.16209-0.33864 0.90805-0.94073
   5  -6  -1 2095.24 294.611   4-0.09197 0.45196-0.26629-0.23484-0.96036 0.92779
  -5   6   1 2098.93 247.510   7-0.61895 0.26017 0.09816 0.40277-0.87777 0.90991
  -4   6   1 118.557 55.8055   7-0.66642 0.38314 0.10791 0.39294-0.84542 0.89107
  -4  -6   1 25.5593 14.5574   9 0.11961-0.40374-0.21746-0.28331 0.97449-0.92820
   4  -6  -1 76.5851 43.8894   4-0.11307 0.39748-0.21380-0.28743-0.97480 0.92870
  -4   6   1 57.8474 75.9991   1 0.14752-0.43107 0.23481 0.26602 0.97160-0.92566
   4   6  -1 166.355 63.5164   6-0.29546 0.57981 0.33165 0.16926-0.93450 0.88810
  -4   6   1 41.0763 47.7098   6-0.29931 0.01547 0.34592 0.15457-0.92861 0.97455
   4  -6  -1 35.5482 23.9255   9-0.02084 0.30409-0.52015 0.02012 0.83632-0.88236
   4   6  -1 59.9496 39.5434   5 0.52374-0.24035 0.20619 0.29424 0.90711-0.95320
   4  -6  -1 5.63714 27.6695   8 0.57216-0.28799-0.17451-0.32626 0.89111-0.93735
  -4  -6   1 -16.077 14.6533   3-0.47220 0.18826-0.23998-0.26100-0.91915 0.96528
   4   6  -1 103.273 78.1215   2 0.43008-0.14619 0.26667 0.23408 0.92566-0.97184
  -3  -6   1 495.782 128.073   9 0.13960-0.34831-0.16925-0.33146 0.98488-0.92504
   3  -6  -1 370.495 112.858   4-0.13170 0.34053-0.16604-0.33526-0.98501 0.92537
   3   6  -1 465.451 113.298   6-0.26665 0.47548 0.23013 0.27088-0.96863 0.90870
  -3   6   1 582.012 144.612   6-0.30108 0.09277 0.35256 0.14792-0.92577 0.98526
   3  -6  -1 490.834 116.750   9 0.00162 0.20617-0.47575-0.02437 0.86568-0.92529
  -3   6   1 412.123 111.226   1 0.15914-0.36730 0.17824 0.32243 0.98379-0.92427
   3   6  -1 503.007 114.346   5 0.55840-0.35043 0.22796 0.27243 0.88489-0.94451
  -3  -6   1 504.061 133.326   3-0.49435 0.28604-0.26105-0.23986-0.90438 0.96404
   3   6  -1 547.767 134.875   2 0.44417-0.23567 0.28590 0.21487 0.91500-0.97474
   3  -6  -1 466.816 109.464   8 0.62036-0.41164-0.19535-0.30549 0.85869-0.91851
  -3   6   1 634.840 126.177   7-0.74267 0.53484 0.12386 0.37690-0.78078 0.83991
  -3  -6   1 445.175 117.055   4-0.00020-0.20854-0.47654-0.02417-0.86479 0.92439
  -2  -6   1 493.842 118.056   4-0.01238-0.12090-0.45026-0.05046-0.88042 0.95357
  -2   6   1 372.608 71.0932   2 0.38069-0.51346 0.20096 0.29958 0.95625-0.88331
   2  -6  -1 353.331 105.692   4-0.14768 0.28093-0.12394-0.37741-0.99178 0.91859
   2   6  -1 461.270 112.038   6-0.24332 0.37661 0.15373 0.34738-0.98584 0.91237
  -2   6   1 426.124 126.691   6-0.30550 0.17272 0.36939 0.13108-0.91829 0.99133
   2  -6  -1 440.173 70.5847   3-0.46471 0.59810-0.23292-0.26828-0.92379 0.85036
  -2  -6   1 406.137 123.378   9 0.15693-0.29024-0.12628-0.37438 0.99179-0.91840
   2  -6  -1 408.353 106.525   9 0.01451 0.11785-0.44961-0.05059 0.88130-0.95445
   2  -6  -1 754.871 157.594   8 0.69459-0.56137-0.22815-0.27274 0.79595-0.86938
   2   6  -1 488.694 119.610   2 0.46633-0.33324 0.31667 0.18413 0.89623-0.96953
  -2  -6   1 334.184 98.5946   3-0.52864 0.39595-0.29422-0.20659-0.87815 0.95133
  -2   6   1 421.817 116.529   1 0.16857-0.30135 0.12979 0.37076 0.99147-0.91839
   1   6  -1 5308.69 387.460   2 0.49779-0.44012 0.36156 0.13927 0.86484-0.95171
   1   6  -1 4475.14 349.959   6-0.22559 0.28334 0.09839 0.40278-0.99402 0.90698
  -1   6   1 4789.92 300.799   2 0.31200-0.36934 0.11335 0.38711 0.98396-0.89749
  -1   6   1 4731.44 385.397   6-0.31268 0.25542 0.39735 0.10311-0.90496 0.99153
  -1  -6   1 4545.65 374.899   9 0.17140-0.22928-0.08957-0.41105 0.99597-0.90905
  -1  -6   1 4844.23 358.081   3-0.57758 0.52050-0.34300-0.15770-0.83238 0.91903
   1  -6  -1 4528.08 360.019   9 0.02015 0.03676-0.43801-0.06228 0.88785-0.97456
  -1   6   1 4649.94 388.931   1 0.17590-0.23332 0.09021 0.41024 0.99590-0.90928
   1  -6  -1 5049.05 272.466   3-0.33943 0.39715-0.11862-0.38286-0.97888 0.89192
  -1  -6   1 5010.07 389.283   4-0.01787-0.03994-0.43826-0.06245-0.88717 0.97388
   1  -6  -1 4710.39 388.816   4-0.16084 0.21850-0.08850-0.41287-0.99589 0.90914
   0  -6   1 66.9196 38.2782   4-0.01801 0.03570-0.43797-0.06274-0.88734 0.98761
   0   6   1 221.854 79.1973   1 0.18126-0.16330 0.06024 0.44015 0.99817-0.89802
   0  -6  -1 209.638 83.3560   9 0.02009-0.03861-0.43814-0.06221 0.88778-0.98803
   0  -6  -1 253.167 86.1019   4-0.17091 0.15300-0.06084-0.44053-0.99810 0.89779
   0   6  -1 159.877 66.0369   6-0.21313 0.19532 0.06069 0.44051-0.99757 0.89698
   0   6  -1 243.164 93.1283   2 0.53910-0.55688 0.42321 0.07765 0.81307-0.91352
   0   6   1 166.848 79.2904   6-0.32254 0.34079 0.43729 0.06314-0.88386 0.98395
   0  -6   1 100.597 45.3831   9 0.18272-0.16516-0.06026-0.44032 0.99819-0.89774
   0  -6   1 201.297 43.8092   8 0.30056-0.28253-0.06185-0.43874 0.99027-0.88982
  -1   6  -1 3687.24 336.985   6-0.20543 0.11206 0.03784 0.46337-0.99894 0.88478
   1   6   1 3909.21 335.746   6-0.33473 0.42850 0.48980 0.01059-0.85214 0.96574
   1   6   1 3421.65 293.661   2 0.24555-0.15212 0.03210 0.46827 0.99719-0.88366
   1  -6   1 3238.43 303.301   9 0.19054-0.09755-0.03968-0.46085 0.99916-0.88518
  -1  -6  -1 3965.24 355.511   9 0.01538-0.10934-0.44783-0.05258 0.88232-0.99610
   1  -6   1 3600.20 237.853   8 0.23072-0.13727-0.03388-0.46662 0.99806-0.88408
   1  -6   1 3783.76 355.434   4-0.01373 0.10694-0.44734-0.05335-0.88209 0.99591
  -1   6  -1 3939.05 192.474   7-0.26958 0.17603 0.02917 0.47215-0.99530 0.88123
   1   6   1 3350.22 328.149   1 0.18467-0.09134 0.04057 0.45978 0.99915-0.88547
  -1  -6  -1 3911.65 343.271   4-0.17756 0.08409-0.04230-0.45908-0.99909 0.88523
   2  -6   1 135.017 82.8115   4-0.00573 0.17447-0.46468-0.03595-0.87199 0.99935
   2  -6   1 92.9637 48.1949   9 0.19439-0.02597-0.02945-0.47105 0.99946-0.87195
  -2   6  -1 23.1955 31.9792   6-0.20194 0.03303 0.02762 0.47359-0.99936 0.87165
  -2  -6  -1 90.1833 51.9078   4-0.18037 0.01135-0.03442-0.46693-0.99940 0.87199
   2   6   1 82.9478 51.1044   6-0.34850 0.51776 0.55492-0.05457-0.80581 0.93289
   2   6   1 69.3427 32.6871   1 0.18614-0.01740 0.03198 0.46837 0.99946-0.87223
  -2  -6  -1 81.1159 5.67678   9 0.00678-0.17616-0.46534-0.03514 0.87204-0.99937
   2  -6   1 126.254 51.9441   8 0.20889-0.04000-0.02521-0.47525 0.99924-0.87173
  -2   6  -1 114.833 30.8225   7-0.22603 0.05693 0.02082 0.48059-0.99866 0.87099
  -3   6  -1 36.1221 46.8815   6-0.20216-0.04230 0.02824 0.47296-0.99934 0.85806
  -3  -6  -1 62.8594 36.2579   4-0.17867-0.06589-0.03920-0.46211-0.99922 0.85827
   3  -6   1 -20.463 36.7524   9 0.19358 0.05029-0.03159-0.46885 0.99940-0.85837
  -3  -6  -1 -20.287 41.8194   9-0.00511-0.23970-0.48921-0.01133 0.85717-0.99804
   3   6   1 -39.608 35.0109   1 0.18557 0.05861 0.03532 0.46505 0.99935-0.85857
   3  -6   1 25.6060 29.3399   8 0.20848 0.03583-0.02505-0.47538 0.99926-0.85822
  -3   6  -1 22.6756 20.0066   7-0.22147-0.02315 0.01995 0.48152-0.99889 0.85763
   3  -6   1 -32.863 53.0724   4 0.00548 0.23881-0.48862-0.01197-0.85720 0.99809
  -4  -6  -1 680.358 131.345   4-0.17144-0.14862-0.05938-0.44188-0.99819 0.84371
  -4   6  -1 663.522 177.632   6-0.20559-0.11441 0.03832 0.46285-0.99892 0.84409
  -4  -6  -1 787.421 187.392   9-0.01985-0.30037-0.51822 0.01762 0.83768-0.99210
   4   6   1 580.573 131.238   1 0.18275 0.13690 0.05170 0.44870 0.99865-0.84430
   4  -6   1 818.896 151.227   9 0.18704 0.13231-0.04893-0.45147 0.99878-0.84422
   4  -6   1 794.264 164.967   8 0.21968 0.10006-0.02949-0.47091 0.99873-0.84417
  -4   6  -1 975.103 167.538   7-0.23318-0.08696 0.02219 0.47932-0.99825 0.84340
   4  -6   1 733.488 173.634   4 0.01947 0.30037-0.51792 0.01739-0.83770 0.99209
  -5   6  -1 2205.01 327.619   6-0.21181-0.18371 0.05676 0.44437-0.99785 0.82946
  -5  -6  -1 3029.38 401.136   9-0.03708-0.35855-0.55130 0.05065 0.81340-0.98138
   5  -6   1 2074.16 285.527   8 0.23794 0.15722-0.03676-0.46364 0.99754-0.82945
   5   6   1 2835.06 278.802   1 0.17729 0.21788 0.08257 0.41787 0.99657-0.82863
   5  -6   1 2043.64 315.198   4 0.03590 0.35946-0.55154 0.05108-0.81326 0.98115
  -5   6  -1 2183.96 280.619   7-0.25333-0.14232 0.02605 0.47549-0.99681 0.82836
   6  -6   1 -23.759 36.8661   8 0.26082 0.20978-0.04589-0.45450 0.99547-0.81385
  -6  -6  -1 -35.698 83.1743   9-0.05652-0.41453-0.58756 0.08684 0.78407-0.96561
  -6   6  -1 78.7414 85.4974   6-0.22046-0.25059 0.08273 0.41835-0.99569 0.81375
   6   6   1 38.5134 48.6522   2 0.25871 0.21165 0.04794 0.45238 0.99553-0.81437
   6  -6   1 22.6755 67.4600   4 0.05454 0.41637-0.58854 0.08817-0.78359 0.96495
  -6   6  -1 21.6033 62.1005   7-0.27850-0.19268 0.03088 0.47068-0.99435 0.81231
  -7  -6  -1 209.540 103.004   3-0.27899-0.26849-0.06567-0.43618-0.99256 0.79681
  -7   6  -1 249.818 147.354   6-0.23119-0.31537 0.11560 0.38543-0.99185 0.79636
   7   6   1 256.647 125.140   2 0.27553 0.27023 0.06837 0.43197 0.99273-0.79805
   7  -6   1 270.591 111.586   8 0.28690 0.25913-0.05636-0.44403 0.99229-0.79715
  -7   6  -1 206.170 77.9942   7-0.30686-0.23982 0.03635 0.46522-0.99071 0.79507
  -8  -6  -1 27.1120 43.9153   3-0.30161-0.32147-0.08534-0.41649-0.98831 0.77896
   8   6   1 -138.22 96.7620   2 0.29496 0.32620 0.09221 0.40814 0.98854-0.78032
  -9   7   1 63.2024 88.6041   7-0.62376-0.03700 0.09914 0.48555-0.87472 0.85248
  -9  -7   1 90.3599 85.9593   9-0.01624-0.64503-0.51117-0.07330 0.84256-0.86408
  -9   7   1 98.0658 92.1425   6-0.32494-0.33639 0.44733 0.13648-0.87815 0.85620
   9   7  -1 123.221 85.7913   5 0.53144 0.12928 0.21100 0.37295 0.90244-0.88074
   9   7  -1 4.64441 96.8128   2 0.45510 0.20577 0.30100 0.28315 0.90606-0.88463
   9  -7  -1 3.37549 91.0595   8 0.56531 0.09608-0.17158-0.41248 0.89526-0.87382
   9  -7  -1 1.82895 55.6483   4 0.01626 0.64591-0.51125-0.07292-0.84227 0.86357
   8  -7  -1 403.644 160.624   4-0.01050 0.59713-0.45436-0.12996-0.87806 0.88593
  -8   7   1 608.264 166.802   7-0.62383 0.03860 0.09916 0.48548-0.87468 0.86602
  -8   7   1 755.130 208.638   6-0.31800-0.26785 0.41866 0.16518-0.89401 0.88563
  -8  -7   1 508.679 163.146   9 0.01164-0.59749-0.45547-0.12894 0.87790-0.88584
   8   7  -1 697.948 190.494   5 0.52474 0.06049 0.20682 0.37712 0.90652-0.89839
   8   7  -1 386.698 157.520   2 0.44661 0.13888 0.28925 0.29489 0.91306-0.90515
   8  -7  -1 327.490 124.109   8 0.56048 0.02549-0.16951-0.41456 0.89813-0.89021
  -8  -7   1 732.228 220.470   3-0.48370-0.10274-0.25089-0.33380-0.91167 0.90343
   7  -7  -1 136.563 116.858   4-0.03525 0.54634-0.39960-0.18485-0.90736 0.90177
  -7   7   1 332.905 138.885   7-0.63191 0.12219 0.10081 0.48377-0.86945 0.87437
  -7  -7   1 225.020 115.105   3-0.47945-0.03136-0.24685-0.33783-0.91449 0.91984
  -7   7   1 231.372 86.8600   6-0.31235-0.19800 0.39605 0.18783-0.90561 0.91081
  -7  -7   1 238.807 113.960   9 0.03756-0.54800-0.40160-0.18274 0.90701-0.90137
   7   7  -1 291.011 119.205   5 0.52294-0.01319 0.20569 0.37823 0.90759-0.91303
   7  -7  -1 141.332 46.2137   8 0.56159-0.05105-0.16999-0.41412 0.89748-0.90309
   7   7  -1 205.693 116.085   2 0.44120 0.06891 0.28181 0.30233 0.91733-0.92295
   6  -7  -1 585.519 168.691   4-0.05796 0.49348-0.34757-0.23700-0.93098 0.91190
  -6  -7   1 510.880 158.008   9 0.06145-0.49648-0.35015-0.23413 0.93060-0.91139
  -6   7   1 405.427 115.058   6-0.30823-0.12662 0.37991 0.20401-0.91341 0.93218
  -6  -7   1 552.448 179.448   3-0.47990 0.04472-0.24727-0.33736-0.91419 0.93313
   6   7  -1 355.040 111.457   5 0.52732-0.09304 0.20843 0.37547 0.90496-0.92395
   6  -7  -1 485.055 140.423   8 0.57037-0.13526-0.17374-0.41040 0.89220-0.91136
   6   7  -1 586.659 155.647   2 0.43941-0.00471 0.27939 0.30476 0.91870-0.93785
   5  -7  -1 -15.433 46.7866   4-0.07853 0.43849-0.29890-0.28577-0.94963 0.91704
  -5   7   1 8.77753 11.0469   6-0.30585-0.05348 0.37071 0.21323-0.91769 0.95003
  -5  -7   1 83.6961 46.5207   9 0.08323-0.44285-0.30174-0.28250 0.94933-0.91656
   5   7  -1 -1.0340 35.7427   5 0.53957-0.18075 0.21609 0.36777 0.89735-0.92989
  -5  -7   1 -31.937 38.7759   3-0.48612 0.12659-0.25319-0.33140-0.91005 0.94257
   5  -7  -1 -52.796 29.0766   8 0.58925-0.22959-0.18187-0.40233 0.88026-0.91297
   5   7  -1 17.3824 52.1573   2 0.44196-0.08265 0.28288 0.30128 0.91673-0.94941
   4  -7  -1 908.064 200.039   4-0.09687 0.38125-0.25425-0.33051-0.96397 0.91787
   4   7  -1 1052.05 171.920   6-0.30562 0.59001 0.36982 0.21455-0.91809 0.87162
   4  -7  -1 1062.78 200.007   8 0.62157-0.33735-0.19587-0.38837 0.85780-0.90409
  -4   7   1 974.836 204.066   6-0.30541 0.02161 0.36903 0.21493-0.91845 0.96435
   4  -7  -1 1073.40 190.454   9-0.02270 0.30588-0.52376-0.05970 0.83377-0.87981
  -4  -7   1 1095.21 217.168   9 0.10277-0.38698-0.25701-0.32717 0.96382-0.91750
   4   7  -1 1001.34 183.376   5 0.56192-0.27855 0.23019 0.35363 0.88246-0.92853
  -4  -7   1 1018.85 206.025   3-0.49944 0.21555-0.26592-0.31861-0.90075 0.94682
   4   7  -1 1044.94 208.718   2 0.44963-0.16571 0.29342 0.29076 0.91061-0.95684
  -4  -7   1 1015.77 198.895   4 0.02243-0.30664-0.52406-0.06011-0.83340 0.87944
   3  -7  -1 180.451 77.8710   4-0.11287 0.32167-0.21431-0.37051-0.97467 0.91503
  -3   7   1 110.261 50.1379   1 0.14891-0.35713 0.22822 0.35593 0.97320-0.91375
   3   7  -1 277.817 112.617   6-0.28213 0.49102 0.28355 0.30092-0.95234 0.89235
  -3   7   1 236.506 113.007   6-0.30710 0.09882 0.37554 0.20844-0.91546 0.97491
  -3  -7   1 199.179 90.3656   9 0.11993-0.32874-0.21669-0.36744 0.97468-0.91482
   3  -7  -1 220.779 78.9314   9-0.00353 0.21126-0.48606-0.09748 0.85919-0.91879
   3   7  -1 226.180 85.6994   5 0.59728-0.38933 0.25279 0.33100 0.85598-0.91558
   3   7  -1 192.993 85.3551   2 0.46329-0.25477 0.31241 0.27179 0.89896-0.95874
  -3  -7   1 204.639 95.4590   3-0.52145 0.31320-0.28721-0.29724-0.88401 0.94361
   3  -7  -1 149.457 74.1019   8 0.67172-0.46297-0.21793-0.36637 0.81717-0.87705
  -3  -7   1 170.615 80.1452   4 0.00458-0.21336-0.48671-0.09747-0.85842 0.91801
   2   7  -1 1859.69 258.041   2 0.48389-0.35077 0.34154 0.24270 0.87945-0.95280
   2   7  -1 2116.04 266.623   6-0.26261 0.39595 0.21659 0.36797-0.97220 0.89867
  -2   7   1 2069.66 282.763   6-0.31104 0.17830 0.39089 0.19307-0.90814 0.98114
   2   7  -1 1845.73 221.013   5 0.64908-0.51653 0.28661 0.29713 0.80970-0.88282
  -2  -7   1 1849.09 267.081   9 0.13456-0.26795-0.18153-0.40255 0.98250-0.90910
  -2  -7   1 1928.78 261.502   3-0.55399 0.42137-0.31925-0.26508-0.85579 0.92890
   2  -7  -1 1964.50 254.342   9 0.00787 0.12441-0.46315-0.12048 0.87336-0.94651
  -2   7   1 2179.02 305.010   1 0.15729-0.29012 0.18753 0.39651 0.98203-0.90900
  -2  -7   1 1792.71 257.382   4-0.00619-0.12713-0.46368-0.12051-0.87259 0.94574
   2  -7  -1 1709.51 272.885   4-0.12636 0.25958-0.17986-0.40499-0.98234 0.90915
  -1  -7   1 239.507 85.5419   4-0.01131-0.04653-0.45260-0.13161-0.87908 0.96579
  -1   7   1 288.865 87.3506   2 0.36900-0.42632 0.18576 0.39816 0.96209-0.87566
   1  -7  -1 248.564 107.610   4-0.13717 0.19481-0.15174-0.43313-0.98754 0.90080
   1   7  -1 238.223 86.6567   6-0.24730 0.30509 0.16644 0.41818-0.98346 0.89638
  -1   7   1 222.818 90.7966   6-0.31729 0.26007 0.41581 0.16813-0.89552 0.98205
   1   7  -1 229.153 89.7585   2 0.51222-0.45453 0.38272 0.20155 0.84827-0.93518
   1  -7  -1 311.766 102.782   9 0.01316 0.04367-0.45236-0.13134 0.87971-0.96641
  -1  -7   1 289.048 97.8567   3-0.59873 0.54171-0.36470-0.21952-0.80895 0.89552
  -1  -7   1 327.229 113.946   9 0.14645-0.20441-0.15241-0.43162 0.98785-0.90092
  -1   7   1 200.120 89.1174   1 0.16377-0.22125 0.15471 0.42924 0.98783-0.90126
   0   7  -1 378.393 210.103   6-0.23608 0.21832 0.13087 0.45379-0.98965 0.88901
   0  -7  -1 85.1024 52.7001   4-0.14506 0.12712-0.13093-0.45395-0.99080 0.89051
   0   7   1 163.686 47.5344   2 0.32739-0.30929 0.13263 0.45123 0.97909-0.87912
   0   7  -1 274.382 120.201   2 0.54857-0.56631 0.43788 0.14643 0.79911-0.89961
   0  -7   1 264.759 158.085   9 0.15533-0.13787-0.13030-0.45369 0.99124-0.89078
   0  -7  -1 60.3904 29.4261   9 0.01351-0.03211-0.45166-0.13210 0.88012-0.98035
   0   7   1 142.971 79.9361   6-0.32579 0.34409 0.45092 0.13298-0.87607 0.97612
   0  -7   1 833.938 238.066   4-0.01178 0.02946-0.45157-0.13264-0.87967 0.97994
   0   7   1 245.797 95.8652   1 0.16846-0.15056 0.13035 0.45354 0.99139-0.89128
   0  -7  -1 155.088 48.5310   3-0.35638 0.33853-0.13371-0.45141-0.97366 0.87307
   1   7   1 458.584 122.842   1 0.17133-0.07805 0.11505 0.46882 0.99331-0.87966
   1  -7   1 499.909 148.877   4-0.00833 0.10153-0.45905-0.12513-0.87532 0.98915
  -1  -7  -1 591.075 126.288   3-0.31622 0.22269-0.09814-0.48711-0.98502 0.87084
  -1  -7  -1 486.583 126.702   4-0.14971 0.05623-0.11851-0.46635-0.99250 0.87866
  -1   7  -1 765.906 170.115   6-0.22871 0.13540 0.10797 0.47671-0.99286 0.87866
   1   7   1 524.103 144.986   6-0.33627 0.43008 0.49669 0.08717-0.84762 0.96117
   1   7   1 595.795 141.979   2 0.30093-0.20745 0.09959 0.48422 0.98703-0.87353
   1  -7   1 568.844 135.386   9 0.16088-0.06798-0.11634-0.46762 0.99308-0.87909
  -1  -7  -1 611.794 148.774   9 0.00971-0.10375-0.45941-0.12442 0.87558-0.98935
  -2   7  -1 3324.36 367.665   6-0.22485 0.05598 0.09612 0.48857-0.99428 0.86652
   2   7   1 3296.18 334.320   2 0.28580-0.11694 0.08095 0.50284 0.99065-0.86362
   2   7   1 3525.95 350.197   6-0.34816 0.51749 0.55322 0.03060-0.80712 0.93416
   2  -7   1 3361.36 338.622   9 0.16265 0.00570-0.11188-0.47204 0.99362-0.86610
  -2  -7  -1 3305.26 365.869   9 0.00237-0.17184-0.47425-0.10964 0.86661-0.99392
  -2  -7  -1 3210.14 316.380   3-0.29445 0.12525-0.07910-0.50623-0.98976 0.86199
   2  -7   1 3389.54 274.059   8 0.32450-0.15554-0.07152-0.51243 0.98613-0.85861
   2   7   1 3280.44 363.777   1 0.17237-0.00368 0.10946 0.47442 0.99395-0.86675
   2  -7   1 3148.07 370.449   4-0.00151 0.17024-0.47375-0.11041-0.86651 0.99387
  -2  -7  -1 3255.90 336.889   4-0.15072-0.01830-0.11581-0.46902-0.99285 0.86547
   3   7   1 636.923 166.464   1 0.17147 0.07267 0.11430 0.46960 0.99340-0.85264
  -3  -7  -1 347.429 114.038   3-0.28524 0.04038-0.07110-0.51429-0.99148 0.85011
  -3  -7  -1 597.930 165.819   9-0.00803-0.23686-0.49500-0.08894 0.85340-0.99425
  -3  -7  -1 501.754 136.262   4-0.14747-0.09708-0.12450-0.46028-0.99170 0.85078
  -3   7  -1 481.320 146.792   6-0.22416-0.02026 0.09400 0.49067-0.99451 0.85320
   3  -7   1 469.290 118.963   8 0.30449-0.06011-0.06344-0.52046 0.98964-0.84860
   3   7   1 -85.912 55.3256   6-0.36050 0.60531 0.61997-0.03619-0.75044 0.89094
   3  -7   1 344.073 87.7155   9 0.15996 0.08385-0.11867-0.46519 0.99279-0.85175
   3   7   1 524.511 140.992   2 0.27931-0.03506 0.07299 0.51078 0.99200-0.85145
   3  -7   1 538.848 152.420   4 0.00828 0.23600-0.49455-0.08957-0.85339 0.99429
  -4  -7  -1 600.810 157.030   3-0.28500-0.03553-0.07089-0.51453-0.99153 0.83655
  -4  -7  -1 796.893 160.916   4-0.13904-0.18101-0.14684-0.43788-0.98836 0.83391
  -4   7  -1 741.205 197.294   6-0.22629-0.09367 0.10052 0.48413-0.99377 0.83890
   4  -7   1 772.185 160.791   9 0.15183 0.16743-0.13906-0.44475 0.98996-0.83540
  -4  -7  -1 700.244 189.083   9-0.02113-0.29918-0.52070-0.06331 0.83593-0.99033
   4  -7   1 966.800 189.931   8 0.30125 0.01856-0.06213-0.52174 0.99016-0.83559
   4   7   1 697.320 165.355   2 0.27951 0.04012 0.07323 0.51052 0.99196-0.83788
   4   7   1 778.260 174.395   1 0.16843 0.15118 0.13050 0.45344 0.99137-0.83705
   4  -7   1 814.599 215.183   4 0.02068 0.29913-0.52047-0.06360-0.83593 0.99034
  -5  -7  -1 299.431 113.085   3-0.29138-0.10479-0.07642-0.50901-0.99036 0.82178
  -5   7  -1 390.245 136.806   6-0.23093-0.16458 0.11479 0.46981-0.99196 0.82354
   5   7   1 202.976 108.843   2 0.28499 0.11003 0.07995 0.50380 0.99082-0.82322
  -5  -7  -1 409.780 164.793   9-0.03662-0.35910-0.55044-0.03363 0.81406-0.98201
   5   7   1 340.645 126.179   1 0.16290 0.23222 0.15922 0.42476 0.98710-0.81920
   5  -7   1 220.414 114.051   8 0.30837 0.08687-0.06500-0.51884 0.98900-0.82091
   5  -7   1 262.616 134.472   4 0.03545 0.35993-0.55062-0.03337-0.81396 0.98186
  -6  -7  -1 158.378 87.8541   3-0.30278-0.16902-0.08637-0.49906-0.98806 0.80588
  -6   7  -1 65.6383 43.1976   6-0.23777-0.23326 0.13615 0.44841-0.98883 0.80684
   6   7   1 307.083 145.650   2 0.29470 0.17570 0.09189 0.49186 0.98860-0.80747
  -6  -7  -1 203.434 67.8196   9-0.05428-0.41685-0.58345-0.00068 0.78755-0.96905
   6  -7   1 242.569 112.126   8 0.32240 0.14827-0.07067-0.51316 0.98653-0.80491
   6  -7   1 234.902 130.417   4 0.05234 0.41859-0.58424 0.00032-0.78720 0.96858
  -7  -7  -1 -128.24 99.3817   3-0.31811-0.22933-0.09979-0.48563-0.98456 0.78877
  -7   7  -1 34.5484 42.0762   6-0.24655-0.29998 0.16404 0.42048-0.98393 0.78839
   7   7   1 81.1047 92.8389   2 0.30784 0.23795 0.10818 0.47557 0.98516-0.79050
   7  -7   1 37.2754 58.5434   8 0.34126 0.20484-0.07832-0.50549 0.98277-0.78764
  -7   7  -1 15.8081 71.2678   7-0.37467-0.17187 0.04951 0.53559-0.97807 0.78238
   8  -8  -1 501.037 197.448   4-0.00304 0.58966-0.47047-0.19741-0.86851 0.87634
  -8  -8   1 443.229 162.172   9 0.00389-0.58982-0.47119-0.19661 0.86849-0.87637
   8   8  -1 484.334 161.965   5 0.55686 0.02833 0.22699 0.44037 0.88595-0.87780
   8  -8  -1 335.714 161.704   8 0.60042-0.01440-0.18669-0.48083 0.87280-0.86492
  -8   8   1 432.551 189.611   6-0.32283-0.26302 0.43851 0.22882-0.88317 0.87475
   7  -8  -1 12.9146 59.7431   4-0.02535 0.53642-0.42173-0.24626-0.89609 0.89047
  -7   8   1 89.6531 78.0364   6-0.31797-0.19237 0.41854 0.24883-0.89407 0.89922
  -7  -8   1 89.1524 109.587   9 0.02729-0.53781-0.42319-0.24456 0.89590-0.89022
   7   8  -1 24.1318 56.3823   2 0.45993 0.05019 0.30772 0.35984 0.90192-0.90759
   7   8  -1 68.9186 85.8588   5 0.55755-0.04785 0.22742 0.43991 0.88547-0.89088
  -7  -8   1 11.1729 19.2469   3-0.50501-0.00577-0.27129-0.39696-0.89668 0.90196
   7  -8  -1 -82.022 34.1924   8 0.60487-0.09428-0.18861-0.47895 0.86974-0.87540
   6  -8  -1 254.410 106.276   4-0.04569 0.48120-0.37590-0.29221-0.91861 0.89951
  -6   8   1 185.027 132.323   6-0.31449-0.12035 0.40453 0.26287-0.90135 0.92007
   6   8  -1 390.592 144.809   2 0.45929-0.02455 0.30682 0.36075 0.90247-0.92168
  -6  -8   1 462.747 180.598   9 0.04870-0.48382-0.37782-0.28987 0.91840-0.89916
   6   8  -1 206.839 99.7895   5 0.56438-0.13015 0.23175 0.43555 0.88073-0.89970
  -6  -8   1 377.091 131.856   3-0.50707 0.07194-0.27328-0.39494-0.89514 0.91401
   6  -8  -1 278.399 97.2050   8 0.61711-0.18196-0.19394-0.47367 0.86105-0.88026
   5  -8  -1 -41.891 90.6689   4-0.06398 0.42390-0.33348-0.33471-0.93671 0.90410
  -5  -8   1 157.249 100.337   9 0.06806-0.42778-0.33561-0.33203 0.93657-0.90377
   5   8  -1 97.5857 69.8258   5 0.57885-0.22007 0.24096 0.42630 0.87025-0.90275
   5   8  -1 79.4137 62.3015   2 0.46265-0.10331 0.31151 0.35607 0.89953-0.93226
  -5  -8   1 30.6027 15.1007   3-0.51460 0.15512-0.28055-0.38760-0.88941 0.92185
   5  -8  -1 56.2086 69.7826   8 0.63939-0.27968-0.20366-0.46399 0.84422-0.87699
   4  -8  -1 179.372 73.6456   4-0.08012 0.36447-0.29508-0.37318-0.95095 0.90483
  -4   8   1 349.695 127.403   6-0.31235 0.02856 0.39602 0.27142-0.90562 0.95147
  -4  -8   1 296.011 134.686   9 0.08526-0.36956-0.29713-0.37045 0.95094-0.90460
   4   8  -1 72.5383 35.7537   5 0.60288-0.31955 0.25640 0.41081 0.85143-0.89747
   4   8  -1 152.017 79.3229   2 0.47065-0.18671 0.32276 0.34485 0.89226-0.93855
  -4  -8   1 138.563 90.7475   3-0.52868 0.24485-0.29426-0.37382-0.87811 0.92410
   3  -8  -1 95.9222 73.3701   4-0.09401 0.30278-0.26129-0.40702-0.96188 0.90222
   3   8  -1 60.4391 40.0438   6-0.29607 0.50499 0.33388 0.33405-0.93360 0.87353
  -3   8   1 153.805 103.500   6-0.31398 0.10573 0.40248 0.26496-0.90239 0.96179
  -3  -8   1 115.835 41.3089   9 0.10017-0.30906-0.26302-0.40452 0.96203-0.90214
   3  -8  -1 72.2883 56.3869   9-0.01300 0.22066-0.50481-0.16215 0.84688-0.90648
   3   8  -1 248.646 123.374   5 0.63880-0.43087 0.27982 0.38735 0.81968-0.87925
  -3  -8   1 124.950 25.1702   3-0.55058 0.34239-0.31587-0.35212-0.85895 0.91848
   3   8  -1 170.576 102.190   2 0.48399-0.27543 0.34167 0.32597 0.87936-0.93920
  -3  -8   1 81.7526 57.8728   4 0.01339-0.22221-0.50528-0.16238-0.84631 0.90590
   2  -8  -1 -2.9897 57.1388   4-0.10552 0.23871-0.23277-0.43558-0.96997 0.89677
  -2   8   1 59.5078 42.2514   1 0.14607-0.27898 0.24172 0.42582 0.96987-0.89692
   2   8  -1 13.7933 53.2111   6-0.27944 0.41283 0.27406 0.39396-0.95550 0.88190
  -2   8   1 181.936 97.4125   6-0.31753 0.18482 0.41677 0.25067-0.89501 0.96795
  -2  -8   1 47.9519 14.5693   9 0.11264-0.24612-0.23393-0.43356 0.97029-0.89688
   2   8  -1 58.8799 42.9094   2 0.50330-0.37016 0.36960 0.29807 0.85868-0.93208
   2  -8  -1 60.6029 44.9557   9-0.00240 0.13461-0.48382-0.18323 0.86062-0.93377
  -2  -8   1 160.113 83.4312   3-0.58164 0.44909-0.34713-0.32074-0.82807 0.90109
  -2  -8   1 121.403 95.9047   4 0.00341-0.13676-0.48423-0.18345-0.85999 0.93313
   1  -8  -1 418.107 145.123   4-0.11447 0.17207-0.21025-0.45811-0.97565 0.88891
   1   8  -1 497.319 154.074   6-0.26605 0.32390 0.22813 0.43994-0.96917 0.88203
  -1   8   1 369.601 117.254   1 0.15187-0.20941 0.21406 0.45341 0.97648-0.88997
   1   8  -1 538.218 132.277   2 0.52914-0.47142 0.40801 0.25969 0.82684-0.91381
  -1  -8   1 702.271 174.775   3-0.62290 0.56595-0.39006-0.27769-0.77887 0.86533
  -1   8   1 402.519 115.792   6-0.32305 0.26587 0.43944 0.22798-0.88265 0.96913
   1  -8  -1 426.554 124.631   9 0.00286 0.05390-0.47327-0.19385 0.86722-0.95391
  -1  -8   1 493.714 151.289   9 0.12248-0.18053-0.21062-0.45684 0.97614-0.88920
  -1   8   1 505.565 121.309   2 0.41815-0.47544 0.25056 0.41684 0.93398-0.84759
  -1  -8   1 444.376 130.242   4-0.00163-0.05624-0.47348-0.19421-0.86667 0.95337
   0  -8   1 431.637 151.999   4-0.00252 0.02017-0.47156-0.19613-0.86784 0.96810
   0   8   1 197.245 66.1739   2 0.37806-0.35993 0.19752 0.46981 0.95761-0.85768
   0  -8  -1 276.201 115.046   4-0.12063 0.10268-0.19456-0.47380-0.97924 0.87895
   0   8  -1 215.207 112.917   2 0.56151-0.57922 0.45831 0.20944 0.77849-0.87905
   0   8  -1 197.488 104.166   6-0.25596 0.23824 0.19456 0.47355-0.97752 0.87683
   0   8   1 228.077 105.320   1 0.15598-0.13815 0.19397 0.47345 0.98075-0.88069
   0  -8  -1 239.991 113.371   9 0.00369-0.02237-0.47160-0.19559 0.86824-0.96847
   0   8   1 272.565 119.347   6-0.33045 0.34881 0.47094 0.19645-0.86407 0.96407
   0  -8   1 178.599 91.6708   9 0.12945-0.11206-0.19391-0.47350 0.97992-0.87945
   1  -8   1 211.154 109.368   9 0.13322-0.04039-0.18479-0.48258 0.98184-0.86784
   1   8   1 285.124 104.368   2 0.35075-0.25722 0.16227 0.50501 0.97026-0.85680
  -1  -8  -1 272.172 105.046   4-0.12373 0.03022-0.18662-0.48170-0.98094 0.86711
  -1   8  -1 129.500 44.5142   6-0.24902 0.15574 0.17198 0.49616-0.98237 0.86812
  -1  -8  -1 159.763 93.4888   9 0.00075-0.09487-0.47750-0.18974 0.86459-0.97835
   1   8   1 240.450 107.194   1 0.15839-0.06517 0.18197 0.48542 0.98309-0.86949
   1   8   1 170.265 105.258   6-0.33952 0.43340 0.51164 0.15570-0.83752 0.95101
  -1  -8  -1 354.314 106.240   3-0.38518 0.29177-0.15959-0.50914-0.96329 0.84906
   1  -8   1 251.944 108.069   4 0.00015 0.09303-0.47728-0.19041-0.86433 0.97815
  -2  -8  -1 58.0191 69.3113   4-0.12335-0.04570-0.18759-0.48070-0.98074 0.85336
   2   8   1 198.731 106.438   2 0.33350-0.16459 0.14034 0.52689 0.97695-0.84996
  -2   8  -1 199.318 130.760   6-0.24503 0.07621 0.15919 0.50896-0.98485 0.85704
   2  -8   1 217.382 90.1115   9 0.13336 0.03492-0.18445-0.48288 0.98191-0.85439
  -2  -8  -1 361.624 147.745   9-0.00545-0.16409-0.48990-0.17740 0.85673-0.98402
   2   8   1 169.358 87.3399   1 0.15906 0.00958 0.17862 0.48879 0.98372-0.85656
   2   8   1 115.117 73.7173   6-0.34983 0.51921 0.56164 0.10565-0.80053 0.92752
  -2  -8  -1 215.026 80.9608   3-0.35841 0.18932-0.13552-0.53331-0.97299 0.84517
   2  -8   1 226.800 116.468   4 0.00593 0.16278-0.48958-0.17809-0.85659 0.98395
  -3  -8  -1 81.7148 69.8022   4-0.11894-0.12562-0.19888-0.46935-0.97828 0.83738
   3   8   1 19.9386 17.5034   2 0.32422-0.07993 0.12866 0.53855 0.98015-0.83963
  -3   8  -1 134.615 88.1654   6-0.24377-0.00061 0.15516 0.51298-0.98559 0.84423
   3  -8   1 -41.204 34.3259   9 0.12926 0.11448-0.19436-0.47291 0.97983-0.83878
   3   8   1 -39.579 40.1794   6-0.36061 0.60548 0.62061 0.04665-0.74984 0.89029
   3   8   1 60.8636 84.4018   1 0.15788 0.08620 0.18454 0.48289 0.98260-0.84190
  -3  -8  -1 6.81024 51.1529   9-0.01454-0.23044-0.50783-0.15952 0.84484-0.98566
   3  -8   1 80.3818 69.5105   4 0.01448 0.22978-0.50755-0.16009-0.84478 0.98568
  -3  -8  -1 54.6337 41.7597   3-0.34396 0.09919-0.12264-0.54627-0.97755 0.83613
  -4   8  -1 457.079 176.423   6-0.24499-0.07493 0.15905 0.50907-0.98487 0.82995
   4   8   1 348.863 131.257   2 0.32134-0.00167 0.12504 0.54214 0.98109-0.82705
   4   8   1 426.629 144.540   1 0.15465 0.16490 0.20051 0.46698 0.97941-0.82514
  -4  -8  -1 488.331 178.276   9-0.02619-0.29421-0.53048-0.13693 0.82894-0.98331
   4  -8   1 321.750 135.522   4 0.02551 0.29432-0.53038-0.13721-0.82890 0.98331
  -4  -8  -1 402.635 173.286   3-0.33861 0.01818-0.11790-0.55106-0.97911 0.82409
   5   8   1 -59.220 55.7181   2 0.32364 0.07142 0.12793 0.53925 0.98034-0.81278
  -5   8  -1 30.0325 117.905   6-0.24845-0.14701 0.17014 0.49794-0.98273 0.81426
   5   8   1 34.2575 62.1339   1 0.14907 0.24600 0.22750 0.44004 0.97338-0.80552
  -5  -8  -1 78.4573 112.482   9-0.04014-0.35566-0.55709-0.11038 0.80892-0.97683
   5  -8   1 40.7620 53.8614   8 0.38311 0.01222-0.09538-0.57192 0.97264-0.80456
   5  -8   1 -49.778 88.5043   4 0.03879 0.35659-0.55734-0.11020-0.80880 0.97671
  -5  -8  -1 -21.596 53.9468   3-0.34019-0.05590-0.11929-0.54969-0.97866 0.81003
   6   8   1 222.131 154.699   2 0.33019 0.14026 0.13616 0.53101 0.97812-0.79704
  -6   8  -1 131.305 80.7931   6-0.25391-0.21708 0.18787 0.48017-0.97902 0.79698
  -6  -8  -1 231.201 162.259   9-0.05621-0.41501-0.58699-0.08054 0.78456-0.96602
   6  -8   1 385.267 166.729   8 0.38850 0.08225-0.09759-0.56969 0.97115-0.78955
   6  -8   1 215.703 148.003   4 0.05414 0.41680-0.58776-0.07972-0.78425 0.96563
  -6  -8  -1 309.155 174.229   3-0.34714-0.12460-0.12547-0.54353-0.97658 0.79435
   7   8   1 -4.6355 56.8322   2 0.34024 0.20559 0.14889 0.51829 0.97445-0.77984
  -7  -8  -1 -23.231 66.8793   3-0.35834-0.18903-0.13546-0.53354-0.97301 0.77717
   7   9  -1 95.4650 133.242   5 0.59468-0.08503 0.25111 0.49962 0.85806-0.86343
   6  -9  -1 112.486 22.0048   4-0.03209 0.46756-0.40670-0.34493-0.90383 0.88469
  -6   9   1 124.866 41.4370   6-0.32133-0.11349 0.43226 0.31863-0.88665 0.90531
  -6  -9   1 30.8456 65.1501   9 0.03451-0.46970-0.40805-0.34304 0.90377-0.88450
   6   9  -1 -14.378 104.014   5 0.60378-0.16958 0.25697 0.49371 0.85070-0.86962
   6   9  -1 147.598 108.226   2 0.48025-0.04549 0.33635 0.41464 0.88308-0.90234
  -6  -9   1 -47.898 34.7094   3-0.53582 0.10075-0.30127-0.45049-0.87208 0.89085
   5  -9  -1 201.355 145.394   4-0.04848 0.40837-0.36948-0.38222-0.92151 0.88887
  -5   9   1 12.8350 69.7747   6-0.31978-0.03952 0.42590 0.32501-0.89013 0.92236
  -5  -9   1 84.1281 91.2605   9 0.05187-0.41166-0.37100-0.38004 0.92151-0.88869
   5   9  -1 -39.351 80.9365   2 0.48431-0.12493 0.34214 0.40887 0.87903-0.91183
  -5  -9   1 47.0693 45.0965   3-0.54448 0.18507-0.30981-0.44189-0.86450 0.89683
   4  -9  -1 726.744 215.166   4-0.06282 0.34713-0.33620-0.41558-0.93563 0.88947
  -4   9   1 918.463 236.735   6-0.31974 0.03598 0.42575 0.32518-0.89021 0.93600
  -4  -9   1 489.175 145.535   9 0.06713-0.35152-0.33766-0.41332 0.93574-0.88938
   4   9  -1 827.891 200.999   2 0.49258-0.20860 0.35402 0.39702 0.87046-0.91680
  -4  -9   1 615.960 183.434   3-0.55918 0.27542-0.32445-0.42718-0.85086 0.89675
   3  -9  -1 6.61624 6.29886   4-0.07499 0.28371-0.30738-0.44444-0.94661 0.88692
  -3  -9   1 118.013 107.775   9 0.08018-0.28916-0.30859-0.44235 0.94687-0.88698
   3   9  -1 -84.201 101.433   6-0.30883 0.51782 0.38228 0.36911-0.91229 0.85213
  -3   9   1 -32.566 59.0700   6-0.32131 0.11310 0.43221 0.31872-0.88668 0.94602
   3   9  -1 -87.566 87.4634   2 0.50558-0.29701 0.37293 0.37813 0.85608-0.91597
   3  -9  -1 163.924 121.227   9-0.02539 0.23299-0.52893-0.22146 0.83006-0.88965
  -3  -9   1 -98.452 96.2208   3-0.58091 0.37280-0.34639-0.40514-0.82885 0.88825
  -3  -9   1 91.9440 61.0512   4 0.02493-0.23379-0.52921-0.22192-0.82975 0.88931
   2   9  -1 1535.67 282.544   2 0.52379-0.39062 0.39996 0.35116 0.83386-0.90732
   2   9  -1 1253.77 250.041   6-0.29449 0.42793 0.32804 0.42342-0.93595 0.86227
  -2  -9   1 1488.38 262.032   3-0.61059 0.47810-0.37707-0.37435-0.79466 0.86754
   2  -9  -1 1553.51 281.158   9-0.01520 0.14734-0.50914-0.24133 0.84395-0.91709
  -2   9   1 1381.92 273.465   6-0.32455 0.19187 0.44569 0.30522-0.87909 0.95198
  -2  -9   1 1334.16 250.769   9 0.09088-0.22444-0.28437-0.46655 0.95527-0.88184
  -2  -9   1 1462.89 283.371   4 0.01538-0.14878-0.50944-0.24172-0.84351 0.91663
   2  -9  -1 1562.20 294.034   4-0.08487 0.21801-0.28360-0.46824-0.95483 0.88161
   1  -9  -1 357.282 133.839   4-0.09230 0.14987-0.26550-0.48634-0.96060 0.87385
   1   9  -1 175.690 78.4993   6-0.28271 0.34060 0.28560 0.46592-0.95164 0.86443
   1   9  -1 265.900 135.411   2 0.54749-0.48975 0.43620 0.31496 0.80075-0.88778
  -1   9   1 148.968 42.8693   6-0.32945 0.27232 0.46660 0.28430-0.86673 0.95314
  -1  -9   1 127.789 10.3113   9 0.09905-0.15717-0.26563-0.48524 0.96123-0.87427
   1  -9  -1 129.309 64.8172   9-0.00982 0.06650-0.49854-0.25200 0.85107-0.93775
  -1  -9   1 46.8860 29.1135   4 0.01027-0.06817-0.49873-0.25244-0.85065 0.93734
   0  -9  -1 22.7574 22.0546   4-0.09706 0.07907-0.25378-0.49805-0.96411 0.86381
   0  -9   1 10.2627 28.3834   9 0.10444-0.08713-0.25313-0.49770 0.96496-0.86447
   0  -9  -1 -58.674 45.6585   9-0.00847-0.01028-0.49589-0.25472 0.85282-0.95303
   0   9   1 -3.2214 22.3460   6-0.33596 0.35435 0.49530 0.25556-0.84854 0.94847
   0  -9   1 -26.877 7.62835   4 0.00893 0.00868-0.49592-0.25527-0.85249 0.95273
  -1  -9  -1 -12.959 38.9881   4-0.09888 0.00534-0.24928-0.50251-0.96541 0.85157
   1  -9   1 -45.949 70.7620   9 0.10676-0.01400-0.24773-0.50306 0.96650-0.85249
  -1   9  -1 138.781 55.9148   6-0.26712 0.17390 0.23174 0.51985-0.96819 0.85389
   1   9   1 -91.288 116.142   6-0.34384 0.43777 0.53206 0.21877-0.82302 0.93645
  -1  -9  -1 11.0017 6.87743   9-0.01062-0.08358-0.50012-0.25053 0.85002-0.96377
   1   9   1 34.4521 63.4412   2 0.39635-0.30278 0.22151 0.52923 0.94762-0.83421
   1  -9   1 -50.755 123.844   4 0.01088 0.08226-0.50003-0.25117-0.84980 0.96359
   2   9   1 1071.33 220.925   2 0.37784-0.20889 0.19724 0.55346 0.95772-0.83078
  -2  -9  -1 1161.98 241.859   4-0.09738-0.07169-0.25298-0.49877-0.96434 0.83697
   2   9   1 1276.58 275.969   1 0.14597 0.02261 0.24217 0.50878 0.96976-0.84267
  -2   9  -1 1356.63 273.606   6-0.26316 0.09438 0.21841 0.53320-0.97173 0.84387
   2  -9   1 1036.71 214.317   9 0.10559 0.06262-0.25045-0.50030 0.96573-0.83819
   2   9   1 1132.95 252.960   6-0.35277 0.52221 0.57695 0.17383-0.78816 0.91508
  -2  -9  -1 1159.14 272.775   9-0.01581-0.15381-0.51034-0.24037 0.84313-0.97041
   2  -9   1 1187.05 273.343   4 0.01574 0.15295-0.51019-0.24100-0.84300 0.97034
   3   9   1 -25.492 48.8062   2 0.36662-0.12228 0.18267 0.56798 0.96323-0.82276
  -3  -9  -1 -59.868 80.3809   4-0.09205-0.15254-0.26610-0.48559-0.96042 0.81951
   3  -9   1 33.8416 66.0703   9 0.10036 0.14330-0.26258-0.48811 0.96216-0.82110
  -3   9  -1 89.3782 80.0752   6-0.26154 0.01721 0.21303 0.53858-0.97310 0.83168
  -3  -9  -1 53.9121 59.4577   9-0.02373-0.22132-0.52575-0.22502 0.83235-0.97315
  -3  -9  -1 -16.331 70.6900   3-0.40053 0.15587-0.17353-0.57889-0.95696 0.81547
   3  -9   1 20.5695 99.1505   4 0.02320 0.22104-0.52565-0.22551-0.83228 0.97315
   4   9   1 451.300 170.378   2 0.36140-0.04168 0.17595 0.57468 0.96563-0.81164
  -4   9  -1 765.188 224.302   6-0.26211-0.05777 0.21493 0.53666-0.97262 0.81764
  -4  -9  -1 538.357 223.892   9-0.03409-0.28637-0.54565-0.20518 0.81771-0.97206
  -4  -9  -1 302.368 124.140   3-0.39110 0.07077-0.16495-0.58753-0.96092 0.80584
   4  -9   1 479.432 206.028   4 0.03302 0.28678-0.54572-0.20542-0.81766 0.97204
   5   9   1 49.0828 42.9376   2 0.36117 0.03394 0.17565 0.57497 0.96574-0.79822
  -5   9  -1 -19.341 56.7537   6-0.26469-0.13075 0.22353 0.52803-0.97040 0.80186
  -5  -9  -1 -96.271 102.930   9-0.04670-0.34919-0.56938-0.18149 0.79915-0.96703
  -5  -9  -1 -68.977 141.890   3-0.38866-0.00734-0.16274-0.58979-0.96191 0.79322
   5  -9   1 28.3800 61.5407   4 0.04501 0.35036-0.56977-0.18131-0.79902 0.96691
   6   9   1 51.9584 47.1640   2 0.36510 0.10538 0.18072 0.56989 0.96394-0.78290
  -6   9  -1 59.0500 113.266   6-0.26907-0.20189 0.23833 0.51318-0.96637 0.78427
  -6  -9  -1 -52.349 46.4773   9-0.06135-0.40995-0.59638-0.15454 0.77646-0.95789
   6   9   1 -33.595 99.0718   5 0.42481 0.04582 0.14553 0.60535 0.95523-0.77363
  -6  -9  -1 -65.902 28.9924   3-0.39177-0.07988-0.16556-0.58699-0.96065 0.77834
   7   9   1 -217.18 212.763   5 0.43149 0.11462 0.14957 0.60135 0.95262-0.75743
  -5 -10   1 913.696 255.636   3-0.57523 0.21587-0.34061-0.49465-0.83484 0.86704
  -4 -10   1 178.676 95.2492   9 0.04838-0.33285-0.37851-0.45590 0.91808-0.87170
   4  10  -1 20.2451 108.224   2 0.51496-0.23095 0.38677 0.44771 0.84495-0.89137
  -4  10   1 49.0267 74.0204   6-0.32734 0.04361 0.45749 0.37692-0.87221 0.91793
  -4 -10   1 57.7858 108.434   3-0.59038 0.30668-0.35607-0.47910-0.81851 0.86425
   3 -10  -1 217.000 114.129   4-0.05570 0.26438-0.35282-0.48248-0.92877 0.86906
   3  10  -1 146.507 103.256   2 0.52761-0.31901 0.40571 0.42880 0.82887-0.88884
  -3  10   1 320.993 137.815   6-0.32884 0.12066 0.46397 0.37045-0.86833 0.92760
  -3 -10   1 406.643 191.024   9 0.05987-0.26892-0.35361-0.48075 0.92913-0.86922
   2 -10  -1 123.388 136.841   4-0.06421 0.19731-0.33293-0.50240-0.93693 0.86368
   2  10  -1 100.276 115.014   2 0.54478-0.41159 0.43198 0.40257 0.80481-0.87834
   2  10  -1 141.350 62.6970   6-0.30817 0.44165 0.37967 0.45525-0.91352 0.83975
  -2  10   1 52.0536 11.1937   6-0.33179 0.19915 0.47680 0.35761-0.86044 0.93324
  -2 -10   1 -66.776 89.2744   9 0.06908-0.20271-0.33337-0.50095 0.93746-0.86401
   2 -10  -1 85.5620 60.0011   9-0.02991 0.16199-0.53765-0.29624 0.82369-0.89682
  -2 -10   1 154.570 119.567   4 0.02916-0.16259-0.53785-0.29678-0.82349 0.89658
   1 -10  -1 671.217 204.600   4-0.07035 0.12789-0.31841-0.51691-0.94254 0.85575
   1  10  -1 1110.31 275.177   6-0.29776 0.35570 0.34014 0.49484-0.93103 0.84373
  -1  10   1 1102.34 259.643   6-0.33618 0.27908 0.49629 0.33808-0.84788 0.93422
  -1 -10   1 697.639 190.879   9 0.07582-0.13402-0.31837-0.51591 0.94326-0.85629
   1 -10  -1 834.773 223.369   9-0.02431 0.08092-0.52686-0.30710 0.83155-0.91822
  -1 -10   1 852.380 238.631   4 0.02387-0.08181-0.52703-0.30764-0.83130 0.91795
   0 -10  -1 -71.259 106.276   4-0.07393 0.05590-0.30990-0.52540-0.94569 0.84537
   0 -10   1 100.693 20.2156   9 0.07989-0.06265-0.30925-0.52499 0.94663-0.84614
   0  10  -1 35.2213 24.7801   6-0.28954 0.27192 0.31000 0.52503-0.94291 0.84208
   0  10   1 43.3717 64.8251   6-0.34190 0.36033 0.52274 0.31161-0.82974 0.92958
   0 -10  -1 116.183 94.2456   9-0.02245 0.00361-0.52326-0.31076 0.83412-0.93432
   0 -10   1 85.9342 84.3099   4 0.02209-0.00451-0.52336-0.31133-0.83389 0.93411
  -1 -10  -1 1135.35 280.189   4-0.07468-0.01889-0.30812-0.52715-0.94634 0.83248
  -1  10  -1 1010.26 253.281   6-0.28352 0.19034 0.28846 0.54661-0.95066 0.83627
   1 -10   1 1142.43 259.251   9 0.08098 0.01169-0.30679-0.52741 0.94752-0.83350
  -1 -10  -1 891.998 230.708   9-0.02386-0.07042-0.52598-0.30809 0.83218-0.94590
   1  10   1 1081.98 273.466   6-0.34878 0.44275 0.55633 0.27798-0.80471 0.91805
   1 -10   1 1007.51 272.405   4 0.02338 0.06973-0.52602-0.30868-0.83202 0.94578
  -2 -10  -1 -51.767 32.9420   4-0.07224-0.09686-0.31393-0.52128-0.94421 0.81682
  -2  10  -1 -13.583 55.1835   6-0.27966 0.11091 0.27482 0.56025-0.95525 0.82731
   2 -10   1 -84.342 108.861   9 0.07871 0.08942-0.31190-0.52227 0.94566-0.81812
   2  10   1 67.0978 82.4719   6-0.35650 0.52599 0.59709 0.23716-0.77106 0.89788
  -2 -10  -1 -4.6425 33.9599   9-0.02814-0.14156-0.53426-0.29986 0.82619-0.95344
   2  10   1 41.0624 78.5973   2 0.41941-0.25042 0.25224 0.58191 0.93313-0.80625
   2 -10   1 46.0424 105.153   4 0.02741 0.14125-0.53429-0.30041-0.82608 0.95339
  -3  10  -1 -20.209 68.6239   6-0.27783 0.03354 0.26846 0.56661-0.95731 0.81582
  -3 -10  -1 -103.74 141.480   9-0.03503-0.21010-0.54743-0.28676 0.81636-0.95715
   3  10   1 41.4323 113.839   2 0.40684-0.16245 0.23542 0.59869 0.94130-0.80089
   3 -10   1 57.5455 62.0964   4 0.03391 0.21030-0.54751-0.28718-0.81631 0.95714
   4  10   1 170.251 140.747   2 0.39985-0.08009 0.22615 0.60793 0.94556-0.79162
   1  11  -1 -11.199 50.0539   6-0.31147 0.36945 0.39257 0.52586-0.90732 0.81992
  -1 -11   1 8.89592 69.2262   4 0.03888-0.09685-0.55752-0.36064-0.80867 0.89528
   0 -11   1 -17.852 98.4055   9 0.05551-0.03835-0.36311-0.55456 0.92502-0.82451
   0 -11  -1 182.877 109.518   9-0.03791 0.01901-0.55289-0.36455 0.81218-0.91236
  -1 -11  -1 71.6386 114.590   4-0.05079-0.04282-0.36418-0.55454-0.92387 0.80998
   1 -11   1 123.674 153.856   9 0.05553 0.03707-0.36306-0.55457 0.92505-0.81101
   1  11   1 -62.597 39.4749   6-0.35398 0.44800 0.58339 0.33440-0.78279 0.89604
 -12   0   2 228.045 115.653   7-0.63115-0.23795 0.10066-0.10099-0.86995 0.90761
  12   0  -2 193.629 94.9123   5 0.62330 0.24580 0.26965-0.27007 0.83396-0.87161
  12   0  -2 34.8885 87.4764   8 0.62841 0.24145-0.19886 0.19862 0.85269-0.89112
 -11   0   2 -4.2039 67.5895   7-0.61540-0.17819 0.09745-0.09776-0.87998 0.93124
  11   0  -2 73.8523 69.9750   5 0.60766 0.18594 0.25948-0.25987 0.84747-0.89872
  11   0  -2 -28.496 39.0713   8 0.61267 0.18174-0.19200 0.19177 0.86425-0.91620
 -10   0   2 2003.29 307.335   3-0.58680-0.13227-0.35241 0.35270-0.82247 0.88745
  10   0  -2 1748.03 265.404   5 0.59549 0.12262 0.25164-0.25197 0.85741-0.92226
  10   0  -2 1832.76 303.453   8 0.60052 0.11845-0.18673 0.18652 0.87273-0.93821
 -10   0   2 2220.80 323.729   7-0.60333-0.11476 0.09498-0.09529-0.88730 0.95216
  -9   0   2 44.4820 59.0107   7-0.59604-0.04655 0.09350-0.09381-0.89157 0.97000
  -9   0   2 36.7414 27.5904   3-0.57884-0.06469-0.34427 0.34459-0.83106 0.90961
   9   0  -2 -51.762 45.8084   5 0.58785 0.05478 0.24672-0.24702 0.86341-0.94184
   9   0  -2 -8.0222 38.0866   8 0.59303 0.05049-0.18349 0.18329 0.87777-0.95678
  -8   0   2 35.0308 53.1490   7-0.59512 0.02802 0.09331-0.09360-0.89211 0.98409
   8   0  -2 54.7459 48.9244   2 0.55903 0.00862 0.45437-0.45408 0.78258-0.87479
  -8   0   2 50.6154 50.6893   3-0.57634 0.00834-0.34175 0.34205-0.83367 0.92579
   8   0  -2 -65.095 52.6074   5 0.58616-0.01900 0.24563-0.24590 0.86472-0.95671
   8   0  -2 84.7945 67.0769   8 0.59172-0.02366-0.18293 0.18275 0.87864-0.97119
  -7   0   2 -1.2369 13.0878   7-0.60280 0.11118 0.09488-0.09515-0.88761 0.99314
   7   0  -2 57.3027 63.3354   2 0.56159-0.06937 0.45845-0.45817 0.77835-0.88410
  -7   0   2 50.6992 44.7264   3-0.58104 0.08858-0.34652 0.34683-0.82871 0.93439
   7   0  -2 20.3029 23.1600   5 0.59241-0.10073 0.24965-0.24987 0.85985-0.96541
   7   0  -2 -33.244 30.7315   8 0.59872-0.10612-0.18595 0.18578 0.87396-0.98006
  -6   0   2 1951.37 101.641   1 0.20683-0.62258-0.09965 0.09952 0.99463-0.87539
  -6   0   2 1690.95 128.048   9 0.20843-0.62482 0.00839-0.00893 0.99953-0.88022
   6   0  -2 2198.01 241.855   8 0.61702-0.19988-0.19389 0.19374 0.86113-0.98080
   6   0  -2 2162.85 226.552   5 0.60935-0.19313 0.26058-0.26077 0.84605-0.96513
  -6   0   2 2053.13 232.744   7-0.62230 0.20616 0.09884-0.09912-0.87565 0.99470
   6   0  -2 1992.52 139.241   4-0.20689 0.62476 0.04198-0.04207-0.99873 0.87920
  -5   0   2 54.1388 38.7309   7-0.65817 0.31748 0.10621-0.10648-0.85143 0.98398
   5   0  -2 14.2433 23.1613   4-0.29239 0.63475 0.32023-0.32043-0.93901 0.80576
  -5   0   2 1.76749 13.7437   9 0.29970-0.64063 0.28192-0.28234 0.95037-0.81743
  -5   0   2 17.8679 31.3382   3-0.62130 0.27987-0.38836 0.38865-0.78099 0.91375
   5   0  -2 21.6765 23.7708   5 0.64059-0.29980 0.28099-0.28113 0.81798-0.95059
   5   0  -2 -41.402 40.7354   8 0.65071-0.30906-0.20865 0.20850 0.83511-0.96836
   4   0  -2 16845.7 678.236   8 0.70471-0.43857-0.23271 0.23258 0.78593-0.93277
  -4   0   2 16700.9 588.111   7-0.71623 0.45094 0.11828-0.11853-0.80522 0.95127
 -12  -1   2 126.771 121.561   7-0.64279-0.22626 0.10305-0.18691-0.86218 0.89984
  12   1  -2 176.591 94.1614   5 0.60649 0.26261 0.25872-0.17568 0.84845-0.88616
  12  -1  -2 -36.822 44.6764   8 0.61640 0.25344-0.19362 0.10994 0.86158-0.89998
  12   1  -2 161.167 104.725   8 0.64797 0.22193-0.20744 0.29063 0.83735-0.87583
 -11   1   2 87.7685 84.1198   7-0.61059-0.18303 0.09646-0.01324-0.88293 0.93418
 -11  -1   2 -8.7646 48.5230   7-0.62778-0.16578 0.09997-0.18382-0.87214 0.92341
 -11  -1   2 97.5247 65.1404   3-0.57521-0.21947-0.34059 0.25745-0.83486 0.88627
  11  -1  -2 33.2223 55.6336   5 0.63404 0.15954 0.27668-0.36053 0.82416-0.87534
  11   1  -2 140.888 76.2363   5 0.59028 0.20333 0.24828-0.16519 0.86152-0.91284
  11  -1  -2 -75.841 94.6249   8 0.60022 0.19418-0.18660 0.10294 0.87293-0.92485
  11   1  -2 16.1399 40.1454   8 0.63337 0.16109-0.20102 0.28425 0.84891-0.90090
 -10   1   2 338.851 129.652   7-0.59831-0.11981 0.09396-0.01073-0.89025 0.95509
 -10  -1   2 387.549 148.136   7-0.61662-0.10144 0.09768-0.18152-0.87922 0.94407
 -10  -1   2 405.805 140.791   3-0.56204-0.15710-0.32731 0.24417-0.84810 0.91310
  10  -1  -2 185.348 83.0658   5 0.62364 0.09445 0.26988-0.35367 0.83365-0.89842
  10   1  -2 238.791 89.7238   5 0.57729 0.14083 0.23997-0.15685 0.87141-0.93632
  10  -1  -2 463.365 163.723   8 0.58743 0.13151-0.18108 0.09743 0.88145-0.94689
  10   1  -2 102.493 96.3518   8 0.62265 0.09634-0.19635 0.27958 0.85700-0.92251
  -9   1   2 78.8198 72.0878   7-0.59069-0.05192 0.09242-0.00918-0.89464 0.97306
  -9  -1   2 -2.5516 26.2048   7-0.61051-0.03206 0.09645-0.18025-0.88298 0.96141
   9   1  -2 79.2264 40.7550   2 0.53110 0.11196 0.41099-0.32721 0.82420-0.90287
  -9   1   2 54.9374 52.4615   3-0.61777-0.02571-0.38462 0.46831-0.78558 0.86411
  -9  -1   2 23.6987 34.1023   3-0.55260-0.09099-0.31787 0.23475-0.85709 0.93567
   9  -1  -2 -62.538 49.2306   5 0.61831 0.02430 0.26640-0.35014 0.83836-0.91672
   9   1  -2 -35.405 32.2661   5 0.56844 0.07419 0.23433-0.15118 0.87785-0.95634
   9  -1  -2 -122.43 70.2548   8 0.57904 0.06446-0.17747 0.09382 0.88683-0.96580
   9   1  -2 -47.790 61.7131   8 0.61704 0.02649-0.19391 0.27716 0.86110-0.94015
  -8   1   2 318.759 101.329   7-0.58923 0.02213 0.09212-0.00889-0.89547 0.98744
  -8  -1   2 163.800 76.8142   7-0.61111 0.04403 0.09657-0.18036-0.88261 0.97459
   8   1  -2 259.094 77.2116   2 0.52547 0.04217 0.40249-0.31873 0.83168-0.92387
  -8   1   2 261.425 89.7363   3-0.61894 0.05099-0.38586 0.46955-0.78406 0.87616
   8  -1  -2 185.829 60.1474   5 0.61971-0.05255 0.26731-0.35101 0.83714-0.92906
  -8  -1   2 230.013 85.8277   3-0.54800-0.02005-0.31330 0.23017-0.86132 0.95348
   8   1  -2 174.939 80.1512   5 0.56500 0.00215 0.23215-0.14896 0.88029-0.97235
   8  -1  -2 174.865 88.8399   8 0.57640-0.00835-0.17633 0.09270 0.88848-0.98100
   8   1  -2 314.766 116.472   8 0.61824-0.05016-0.19442 0.27770 0.86024-0.95283
   7   1  -2 2103.95 232.437   2 0.52510-0.03288 0.40194-0.31819 0.83216-0.93789
  -7  -1   2 1694.04 164.504   9 0.13014-0.62207-0.19223 0.10821 0.98028-0.87457
  -7  -1   2 1698.13 229.456   3-0.54968 0.05719-0.31497 0.23185-0.85979 0.96550
   7  -1  -2 1696.91 213.566   5 0.63012-0.13844 0.27412-0.35777 0.82778-0.93326
   7   1  -2 1697.46 214.502   5 0.56871-0.07703 0.23450-0.15129 0.87766-0.98326
   7  -1  -2 1385.64 208.924   8 0.58144-0.08884-0.17850 0.09488 0.88531-0.99137
   7   1  -2 1756.63 235.098   8 0.62859-0.13598-0.19894 0.28224 0.85255-0.95870
   7  -1  -2 1703.85 159.594   4-0.12770 0.62104-0.17638 0.09294-0.98303 0.87710
  -7   1   2 1597.31 227.261   7-0.59607 0.10446 0.09351-0.01028-0.89155 0.99707
  -7  -1   2 1513.42 215.042   7-0.62081 0.12921 0.09854-0.18231-0.87659 0.98211
  -6   1   2 109.522 52.7432   7-0.61426 0.19812 0.09721-0.01399-0.88068 0.99973
  -6  -1   2 59.5339 42.6047   7-0.64301 0.22686 0.10309-0.18683-0.86204 0.98108
   6  -1  -2 31.2521 15.5103   4-0.19715 0.61503 0.01351-0.09715-0.99975 0.88023
   6   1  -2 70.5156 16.2704   4-0.20699 0.62483 0.04228 0.04122-0.99872 0.87919
   6   1  -2 148.033 58.6170   2 0.53141-0.11462 0.41146-0.32773 0.82378-0.94306
  -6   1   2 88.1151 19.8881   9 0.19644-0.61277-0.02398 0.10684 0.99957-0.88033
  -6  -1   2 90.3983 37.7251   9 0.20226-0.61873-0.00835-0.07559 0.99970-0.88034
   6  -1  -2 66.9660 39.4400   5 0.65262-0.23638 0.28896-0.37256 0.80616-0.92518
  -6  -1   2 120.266 61.2765   3-0.55956 0.14262-0.32483 0.24172-0.85050 0.96976
   6   1  -2 84.0060 42.0300   5 0.58195-0.16573 0.24294-0.15970 0.86792-0.98706
   6  -1  -2 94.5206 53.2244   8 0.59685-0.17971-0.18514 0.10153 0.87522-0.99485
   6   1  -2 63.5541 47.5993   8 0.65141-0.23428-0.20895 0.29228 0.83454-0.95425
  -6   1   2 74.3402 25.1887   1 0.19603-0.61184-0.02827 0.11160 0.99946-0.88023
  -5   1   2 281.036 76.3114   7-0.64809 0.30741 0.10414-0.02092-0.85854 0.99109
  -5  -1   2 336.218 90.5797   7-0.68240 0.34169 0.11122-0.19495-0.83328 0.96582
   5  -1  -2 265.267 60.9635   4-0.25815 0.60050 0.20165-0.28542-0.97587 0.84269
   5   1  -2 430.079 103.916   2 0.54594-0.20458 0.43379-0.35007 0.80308-0.93591
  -5  -1   2 260.094 66.4117   9 0.26688-0.60790 0.17706-0.26089 0.97981-0.84684
  -5   1   2 214.582 44.1250   1 0.23035-0.57065-0.28810 0.37116 0.95580-0.82316
   5   1  -2 341.746 85.1882   5 0.60794-0.26717 0.25966-0.17639 0.84724-0.97991
   5  -1  -2 353.923 99.3325   8 0.62635-0.28469-0.19796 0.11435 0.85424-0.98745
   5   1  -2 342.389 95.3709   8 0.69102-0.34938-0.22655 0.30990 0.79939-0.93268
  -4  -1   2 511.051 102.204   7-0.74467 0.47935 0.12428-0.20797-0.77884 0.92488
  -4  -1   2 687.435 113.609   9 0.32102-0.58660 0.35565-0.43937 0.92106-0.77452
  -4  -1   2 610.163 123.083   3-0.61365 0.34776-0.38026 0.29717-0.79085 0.93717
   4   1  -2 710.479 128.168   5 0.65052-0.38517 0.28756-0.20426 0.80828-0.95445
   4  -1  -2 561.595 116.967   8 0.67469-0.40851-0.21925 0.13565 0.81452-0.96133
  -4   1   2 766.083 128.407   7-0.70319 0.43794 0.11556-0.03235-0.81644 0.96246
 -12  -2   2 253.061 160.754   7-0.66162-0.20738 0.10692-0.27430-0.84893 0.88658
 -12  -2   2 114.632 83.4794   3-0.57632-0.29400-0.34172 0.17510-0.83370 0.87152
  12   2  -2 145.540 125.163   5 0.59701 0.27210 0.25261-0.08609 0.85620-0.89396
 -11   2   2 165.313 58.7786   7-0.61300-0.18063 0.09696 0.06982-0.88145 0.93267
 -11  -2   2 -3.7146 34.9344   7-0.64799-0.14550 0.10412-0.27147-0.85861 0.90986
 -11  -2   2 35.3196 11.9941   3-0.56022-0.23455-0.32549 0.15887-0.84986 0.90129
  11   2  -2 132.976 84.3634   5 0.58085 0.21276 0.24223-0.07569 0.86875-0.92011
  11  -2  -2 39.6556 88.7886   8 0.59529 0.19908-0.18447 0.01738 0.87626-0.92816
  11   2  -2 74.7262 79.5952   8 0.66295 0.13154-0.21405 0.38073 0.82483-0.87687
 -10   2   2 380.249 127.165   7-0.60117-0.11695 0.09454 0.07223-0.88858 0.95339
 -10  -2   2 422.634 139.865   7-0.63852-0.07949 0.10217-0.26950-0.86507 0.92990
  10   2  -2 647.219 158.801   2 0.52121 0.19725 0.39610-0.22886 0.83716-0.90230
 -10  -2   2 395.507 143.981   3-0.54684-0.17238-0.31215 0.14553-0.86237 0.92740
  10   2  -2 288.817 111.353   5 0.56775 0.15036 0.23390-0.06731 0.87834-0.94329
  10  -2  -2 373.198 134.980   8 0.58257 0.13637-0.17899 0.01191 0.88459-0.95000
  10   2  -2 338.977 138.810   8 0.65462 0.06440-0.21037 0.37707 0.83188-0.89745
  -9   2   2 212.981 103.502   7-0.59398-0.04863 0.09308 0.07368-0.89276 0.97116
  -9  -2   2 116.162 73.2291   7-0.63448-0.00805 0.10134-0.26864-0.86776 0.94617
   9   2  -2 -21.248 27.4123   2 0.51096 0.13209 0.38085-0.21362 0.84978-0.92845
   9  -2  -2 314.496 135.528   5 0.66125-0.01864 0.29470-0.46188 0.79732-0.87558
  -9  -2   2 108.864 67.2327   3-0.53690-0.10676-0.30233 0.13572-0.87116 0.94977
   9   2  -2 243.837 94.9807   5 0.55858 0.08405 0.22808-0.06147 0.88476-0.96329
   9  -2  -2 97.6221 77.3693   8 0.57407 0.06942-0.17533 0.00827 0.88993-0.96888
   9   2  -2 132.788 91.6010   8 0.65202-0.00845-0.20922 0.37595 0.83404-0.91314
  -8   2   2 449.081 139.657   7-0.59289 0.02578 0.09286 0.07389-0.89339 0.98534
  -8  -2   2 320.389 99.7433   7-0.63767 0.07061 0.10199-0.26927-0.86564 0.95760
   8   2  -2 307.268 91.3357   2 0.50438 0.06325 0.37117-0.20395 0.85746-0.94965
   8  -2  -2 295.627 116.079   5 0.66728-0.10014 0.29874-0.46587 0.79094-0.88276
  -8  -2   2 334.610 114.854   3-0.53135-0.03673-0.29689 0.13029-0.87588 0.96807
   8   2  -2 413.965 120.631   5 0.55446 0.01268 0.22548-0.05883 0.88758-0.97967
   8  -2  -2 348.577 121.507   8 0.57108-0.00303-0.17405 0.00698 0.89177-0.98426
   8   2  -2 492.995 138.788   8 0.65702-0.08892-0.21143 0.37818 0.82988-0.92252
  -7   2   2 771.910 163.071   7-0.59994 0.10834 0.09430 0.07245-0.88930 0.99479
  -7  -2   2 828.474 150.100   7-0.65061 0.15901 0.10465-0.27189-0.85679 0.96229
   7  -2  -2 638.677 116.274   4-0.13264 0.62602-0.16356-0.00346-0.98547 0.87953
  -7  -2   2 623.150 106.631   9 0.13680-0.62880-0.17608 0.00866 0.98358-0.87779
   7   2  -2 808.938 146.604   2 0.50245-0.01024 0.36835-0.20115 0.85965-0.96538
   7  -2  -2 261.361 101.357   5 0.68357-0.19188 0.30973-0.47679 0.77285-0.87823
  -7   2   2 706.964 101.836   1 0.14935-0.64077 0.22613-0.05899 0.97370-0.86807
  -7  -2   2 957.182 182.260   3-0.53145 0.03892-0.29698 0.13039-0.87580 0.98156
   7   2  -2 794.467 154.365   5 0.55691-0.06524 0.22702-0.06036 0.88591-0.99155
   7  -2  -2 706.236 156.763   8 0.57533-0.08272-0.17587 0.00881 0.88915-0.99519
   7   2  -2 793.767 159.614   8 0.67225-0.17962-0.21817 0.38496 0.81670-0.92291
  -6   2   2 531.098 121.304   7-0.61805 0.20193 0.09798 0.06874-0.87833 0.99735
  -6  -2   2 611.883 130.526   7-0.67686 0.26072 0.11007-0.27727-0.83757 0.95658
   6  -2  -2 493.234 104.270   4-0.18472 0.60259-0.02214-0.14505-0.99974 0.88023
  -6  -2   2 508.900 100.576   9 0.19126-0.60781-0.03775-0.12959 0.99922-0.87982
   6   2  -2 689.807 133.740   2 0.50635-0.08956 0.37408-0.20688 0.85518-0.97446
  -6  -2   2 583.878 131.311   3-0.53878 0.12183-0.30419 0.13762-0.86952 0.98883
   6   2  -2 685.758 133.771   5 0.56803-0.15182 0.23407-0.06739 0.87815-0.99733
   6  -2  -2 424.353 112.749   8 0.58926-0.17211-0.18187 0.01480 0.88026-0.99987
   6   2  -2 745.516 162.116   8 0.70118-0.28405-0.23112 0.39793 0.78947-0.90924
  -6   2   2 531.050 90.1398   1 0.18736-0.60319 0.02479 0.14199 0.99966-0.88044
  -5   2   2 -11.196 28.3575   7-0.65124 0.31059 0.10478 0.06192-0.85635 0.98886
  -5  -2   2 23.2133 28.1683   7-0.72111 0.38038 0.11930-0.28647-0.80088 0.93341
   5  -2  -2 19.0507 21.7261   4-0.23168 0.57401 0.11701-0.28434-0.99166 0.85854
  -5  -2   2 16.4902 13.1162   9 0.24101-0.58213 0.10000-0.26724 0.99292-0.85992
   5   2  -2 -26.122 26.7446   2 0.51747-0.17611 0.39050-0.22332 0.84186-0.97470
  -5   2   2 -2.1244 12.2981   1 0.21450-0.55486-0.15499 0.32150 0.98722-0.85453
  -5  -2   2 61.1234 47.8487   3-0.55540 0.21400-0.32066 0.15412-0.85447 0.98731
   5   2  -2 53.7597 37.1778   5 0.59058-0.24983 0.24847-0.08177 0.86129-0.99399
   5  -2  -2 -29.994 18.5290   8 0.61621-0.27454-0.19355 0.02646 0.86170-0.99489
  -4   2   2 135.991 56.8827   7-0.70474 0.43952 0.11588 0.05080-0.81513 0.96113
   4  -2  -2 96.3544 45.3221   4-0.27266 0.53940 0.25048-0.41788-0.96285 0.81610
   4   2  -2 128.175 45.9241   2 0.53717-0.27124 0.42026-0.25309 0.81581-0.96220
  -4  -2   2 98.5477 50.1386   9 0.28499-0.55068 0.23379-0.40095 0.96559-0.81902
   4  -2  -2 60.2746 3.87435   8 0.66047-0.39428-0.21295 0.04587 0.82696-0.97373
 -12  -3   2 138.175 89.0605   7-0.68781-0.18112 0.11235-0.36322-0.82901 0.86664
 -12  -3   2 217.743 134.331   3-0.56818-0.30223-0.33348 0.08336-0.84204 0.87986
 -11   3   2 140.917 98.6317   7-0.62225-0.17139 0.09883 0.15150-0.87569 0.92685
 -11  -3   2 -40.539 81.2110   7-0.67625-0.11719 0.10994-0.36079-0.83803 0.88926
  11   3  -2 178.221 100.726   2 0.52265 0.27119 0.39826-0.14756 0.83532-0.88696
 -11  -3   2 -0.3915 37.2925   3-0.55253-0.24231-0.31782 0.06770-0.85715 0.90858
  11   3  -2 181.438 129.946   5 0.57837 0.21524 0.24065 0.00937 0.87061-0.92200
  11  -3  -2 170.345 105.355   8 0.59719 0.19718-0.18529-0.06521 0.87499-0.92688
 -10   3   2 281.569 84.4168   7-0.61143-0.10668 0.09663 0.15370-0.88242 0.94718
 -10  -3   2 384.664 138.529   7-0.66924-0.04872 0.10849-0.35929-0.84333 0.90814
  10   3  -2 455.443 142.681   2 0.50983 0.20862 0.37918-0.12850 0.85112-0.91627
 -10  -3   2 400.814 161.477   3-0.53951-0.17977-0.30491 0.05479-0.86889 0.93393
  10   3  -2 349.332 113.978   5 0.56574 0.15237 0.23261 0.01744 0.87977-0.94476
  10  -3  -2 272.832 143.071   8 0.58508 0.13385-0.18007-0.07044 0.88297-0.94838
  -9   3   2 92.8570 37.0823   7-0.60533-0.03727 0.09539 0.15493-0.88611 0.96445
  -9  -3   2 192.125 102.129   7-0.66817 0.02569 0.10827-0.35904-0.84412 0.92250
   9   3  -2 276.296 113.542   2 0.49971 0.14332 0.36436-0.11370 0.86272-0.94138
  -9  -3   2 235.785 88.7750   3-0.52975-0.11396-0.29531 0.04520-0.87722 0.95585
   9   3  -2 343.903 138.944   5 0.55690 0.08572 0.22702 0.02306 0.88592-0.96448
   9  -3  -2 337.934 105.191   8 0.57713 0.06636-0.17665-0.07385 0.88802-0.96695
   9   3  -2 454.460 158.815   8 0.69859-0.05500-0.22995 0.48017 0.79204-0.87120
  -8   3   2 337.230 116.227   7-0.60537 0.03829 0.09540 0.15490-0.88608 0.97798
  -8  -3   2 410.170 123.029   7-0.67498 0.10795 0.10968-0.36041-0.83900 0.93093
   8  -3  -2 390.741 103.678   4-0.08389 0.65278-0.28596 0.03555-0.95405 0.86162
  -8  -3   2 439.316 118.444   9 0.08705-0.65455-0.29309 0.04219 0.95233-0.86011
  -8   3   2 21.8370 14.1790   6-0.35713-0.21056 0.60059-0.35074-0.76799 0.85994
   8   3  -2 571.814 143.053   2 0.49298 0.07464 0.35460-0.10395 0.87003-0.96223
   8   3  -2 548.045 136.841   5 0.55287 0.01426 0.22447 0.02563 0.88865-0.98077
  -8  -3   2 265.861 105.119   3-0.52408-0.04405-0.28978 0.03967-0.88188 0.97410
   8  -3  -2 361.998 115.260   8 0.57455-0.00650-0.17554-0.07496 0.88963-0.98211
   8   3  -2 464.055 152.143   8 0.70870-0.14060-0.23451 0.48477 0.78188-0.87459
  -7   3   2 775.566 166.230   7-0.61355 0.12197 0.09707 0.15321-0.88112 0.98657
  -7  -3   2 771.603 161.886   7-0.69232 0.20074 0.11328-0.36397-0.82540 0.93087
  -7   3   2 709.089 146.088   6-0.35249-0.13974 0.57544-0.32559-0.78940 0.89491
  -7  -3   2 629.408 129.534   9 0.13415-0.62622-0.18253-0.06829 0.98230-0.87646
   7   3  -2 781.376 152.562   2 0.49045 0.00176 0.35095-0.10031 0.87271-0.97845
   7   3  -2 805.941 161.502   5 0.55503-0.06337 0.22582 0.02427 0.88720-0.99286
  -7  -3   2 719.798 166.035   3-0.52358 0.03103-0.28928 0.03919-0.88230 0.98808
   7  -3  -2 703.439 162.892   8 0.57894-0.08633-0.17743-0.07308 0.88689-0.99292
   7   3  -2 -151.27 82.8537   8 0.73008-0.23747-0.24424 0.49453 0.75899-0.86525
   7  -3  -2 871.573 152.031   4-0.12915 0.62256-0.17262-0.07797-0.98377 0.87783
  -6   3   2 376.328 102.758   7-0.63262 0.21653 0.10096 0.14928-0.86899 0.98796
  -6  -3   2 599.857 131.835   7-0.72377 0.30761 0.11986-0.37050-0.79849 0.91749
   6  -3  -2 505.645 114.166   4-0.17095 0.58882-0.06073-0.19001-0.99811 0.87861
  -6  -3   2 372.160 93.8576   9 0.17805-0.59468-0.07242-0.17832 0.99739-0.87794
  -6   3   2 494.977 122.893   6-0.34951-0.06726 0.56003-0.31017-0.80181 0.92088
   6   3  -2 529.175 123.037   2 0.49309-0.07630 0.35476-0.10413 0.86991-0.98919
   6   3  -2 501.271 117.433   5 0.56519-0.14901 0.23226 0.01785 0.88016-0.99937
  -6  -3   2 488.701 125.593   3-0.52960 0.11262-0.29516 0.04510-0.87735 0.99669
   6  -3  -2 414.179 116.574   8 0.59251-0.17535-0.18327-0.06725 0.87812-0.99771
  -5   3   2 130.320 65.7509   7-0.66633 0.32571 0.10789 0.14231-0.84548 0.97796
   5   3  -2 122.429 33.6176   6-0.13933 0.48109-0.14590 0.39683-0.98851 0.85531
   5  -3  -2 94.1600 40.4220   4-0.20895 0.55126 0.04809-0.29896-0.99840 0.86532
  -5   3   2 122.148 50.4911   1 0.20128-0.54170-0.06214 0.31211 0.99783-0.86512
  -5  -3   2 120.319 62.6744   9 0.21834-0.55955 0.03570-0.28636 0.99857-0.86553
  -5   3   2 91.4735 43.3462   6-0.34860 0.00730 0.55540-0.30554-0.80543 0.93805
   5   3  -2 63.9861 19.1479   2 0.50205-0.16067 0.36777-0.11714 0.86010-0.99293
  -5  -3   2 88.2356 47.9929   3-0.54383 0.20244-0.30918 0.05914-0.86507 0.99796
   5   3  -2 149.403 65.7662   5 0.58576-0.24503 0.24538 0.00474 0.86502-0.99775
   5  -3  -2 173.956 78.3199   8 0.61823-0.27654-0.19442-0.05611 0.86024-0.99341
  -4   3   2 413.897 96.8173   7-0.71936 0.45417 0.11894 0.13122-0.80244 0.94840
   4   3  -2 435.462 80.0849   6-0.06633 0.33255-0.32778 0.57877-0.93894 0.79209
  -4   3   2 339.814 79.1137   1 0.21799-0.48304-0.18179 0.43159 0.98247-0.83629
   4  -3  -2 358.806 85.3434   4-0.24283 0.50954 0.15201-0.40298-0.98615 0.83947
  -4  -3   2 324.280 93.7991   9 0.25462-0.52041 0.14000-0.39056 0.98699-0.84039
   4   3  -2 385.613 103.291   2 0.51852-0.25258 0.39208-0.14144 0.84055-0.98695
  -4   3   2 423.629 105.670   6-0.35003 0.08419 0.56267-0.31281-0.79972 0.94589
   4   3  -2 295.494 81.8450   5 0.61971-0.35440 0.26731-0.01718 0.83714-0.98337
   4  -3  -2 437.281 107.926   8 0.65987-0.39366-0.21269-0.03786 0.82746-0.97423
  -3   3   2 220.683 74.5477   1 0.23000-0.41971-0.28474 0.53443 0.95684-0.79719
   3  -3  -2 282.390 90.5507   4-0.27227 0.46337 0.24912-0.50013-0.96325 0.80296
  -3  -3   2 210.079 71.5569   9 0.28645-0.47682 0.23849-0.48898 0.96424-0.80408
  -3   3   2 300.162 89.0000   6-0.35387 0.16352 0.58280-0.33292-0.78329 0.94301
  -3  -3   2 221.072 69.4974   3-0.60474 0.41447-0.37095 0.12098-0.80182 0.96172
   3  -3  -2 20.4557 51.9916   8 0.72121-0.53052-0.24018-0.01036 0.76873-0.92909
 -11   4   2 219.617 129.133   7-0.63790-0.15571 0.10204 0.23187-0.86548 0.91658
  11   4  -2 254.518 117.383   2 0.51707 0.27677 0.38990-0.05579 0.84236-0.89401
 -11  -4   2 171.721 114.976   3-0.55094-0.24397-0.31622-0.01743-0.85863 0.91006
  11   4  -2 190.481 122.576   5 0.58194 0.21165 0.24293 0.09057 0.86793-0.91934
  11  -4  -2 24.7973 131.931   8 0.60521 0.18916-0.18876-0.14515 0.86950-0.92138
 -10   4   2 134.613 132.205   7-0.62860-0.08949 0.10013 0.23375-0.87161 0.93631
 -10  -4   2 -22.395 32.3540   7-0.70879-0.00912 0.11672-0.45098-0.81168 0.87645
  10   4  -2 -41.275 83.1646   2 0.50492 0.21350 0.37197-0.03787 0.85683-0.92200
 -10  -4   2 158.621 97.5868   3-0.53865-0.18069-0.30405-0.02960-0.86964 0.93468
  10   4  -2 -62.406 69.4702   5 0.57018 0.14791 0.23544 0.09808 0.87660-0.94160
  10  -4  -2 129.443 99.6152   8 0.59417 0.12477-0.18399-0.14992 0.87701-0.94241
  -9   4   2 1134.37 241.806   7-0.62415-0.01842 0.09922 0.23463-0.87447 0.95275
  -9  -4   2 1252.18 233.803   7-0.71155 0.06910 0.11730-0.45151-0.80930 0.88764
   9   4  -2 1210.78 245.277   5 0.56215 0.08045 0.23033 0.10320 0.88230-0.96087
   9   4  -2 1239.91 241.786   2 0.49536 0.14766 0.35805-0.02396 0.86748-0.94616
  -9  -4   2 1222.55 254.368   3-0.52950-0.11424-0.29507-0.03857-0.87743 0.95607
   9  -4  -2 1178.78 235.511   8 0.58729 0.05622-0.18102-0.15290 0.88154-0.96048
  -8   4   2 134.321 92.6913   7-0.62597 0.05892 0.09960 0.23423-0.87331 0.96515
  -8  -4   2 231.879 117.749   7-0.72289 0.15588 0.11968-0.45383-0.79928 0.89118
   8  -4  -2 52.2341 30.0678   4-0.08348 0.65240-0.28697-0.04701-0.95371 0.86128
  -8  -4   2 36.7156 61.9046   9 0.08708-0.65465-0.29301-0.04128 0.95236-0.86008
  -8   4   2 102.262 47.2173   6-0.34923-0.21848 0.55862-0.22538-0.80291 0.89485
   8   4  -2 166.770 63.3281   2 0.48897 0.07864 0.34882-0.01474 0.87425-0.96647
   8   4  -2 148.164 71.1096   5 0.55877 0.00833 0.22820 0.10534 0.88463-0.97677
  -8  -4   2 45.7853 13.2196   3-0.52424-0.04392-0.28993-0.04370-0.88175 0.97398
   8  -4  -2 79.9897 9.07285   8 0.58570-0.01763-0.18033-0.15360 0.88258-0.97505
   7   4  -2 1305.52 218.605   2 0.48642 0.00578 0.34517-0.01110 0.87688-0.98263
  -7   4   2 1591.32 239.754   6-0.34459-0.14766 0.53563-0.20238-0.82040 0.92591
  -7  -4   2 1557.89 220.784   9 0.12669-0.61883-0.20054-0.13369 0.97846-0.87257
  -7  -4   2 1429.25 233.763   3-0.52378 0.03123-0.28949-0.04413-0.88212 0.98793
   7   4  -2 1389.77 214.846   5 0.56130-0.06967 0.22979 0.10375 0.88289-0.98857
  -7   4   2 1434.00 199.666   1 0.14719-0.63855 0.23645 0.09755 0.97120-0.86565
   7  -4  -2 1675.22 255.986   8 0.59090-0.09827-0.18258-0.15136 0.87918-0.98521
   7  -4  -2 1516.37 232.647   4-0.12137 0.61478-0.19266-0.14148-0.97966 0.87371
  -7   4   2 1601.22 246.529   7-0.63599 0.14444 0.10165 0.23214-0.86676 0.97215
  -7  -4   2 1454.75 218.958   7-0.74549 0.25391 0.12445-0.45854-0.77804 0.88348
  -6   4   2 -31.393 38.0810   7-0.65680 0.24075 0.10593 0.22782-0.85241 0.97132
  -6  -4   2 -11.892 30.2615   9 0.16347-0.58019-0.10979-0.22436 0.99386-0.87438
   6  -4  -2 93.4650 60.1175   4-0.15630 0.57415-0.10082-0.23348-0.99462 0.87514
  -6   4   2 -49.028 26.1618   6-0.34156-0.07522 0.52117-0.18791-0.83085 0.94992
   6   4  -2 -35.312 60.6155   2 0.48854-0.07174 0.34820-0.01414 0.87470-0.99399
   6   4  -2 -60.590 44.4742   5 0.57133-0.15517 0.23617 0.09737 0.87577-0.99498
  -6  -4   2 -30.123 9.82400   3-0.52930 0.11233-0.29487-0.03871-0.87760 0.99696
   6  -4  -2 -18.288 50.9784   8 0.60491-0.18773-0.18863-0.14533 0.86971-0.98930
  -6   4   2 39.5399 40.4322   1 0.17058-0.58647 0.11907 0.21463 0.99283-0.87367
  -5   4   2 158.856 65.2093   7-0.69185 0.35127 0.11319 0.22051-0.82577 0.95817
   5   4  -2 101.194 34.3853   6-0.20211 0.54389 0.02810 0.30626-0.99935 0.86617
   5  -4  -2 118.669 66.1646   4-0.18809 0.53039-0.01254-0.32189-0.99988 0.86682
  -5  -4   2 108.267 68.0123   9 0.19724-0.53853-0.02184-0.31223 0.99960-0.86654
  -5   4   2 50.4661 40.6324   6-0.34048-0.00082 0.51608-0.18281-0.83444 0.96706
   5   4  -2 76.8463 45.8555   2 0.49625-0.15486 0.35933-0.02526 0.86652-0.99936
  -5   4   2 92.6547 46.7889   1 0.18951-0.52998 0.01195 0.32149 0.99987-0.86718
   5   4  -2 68.1207 41.6107   5 0.59095-0.25024 0.24871 0.08483 0.86100-0.99374
  -5  -4   2 136.297 61.8116   3-0.54219 0.20082-0.30756-0.02599-0.86653 0.99943
   5  -4  -2 95.9692 66.3072   8 0.63038-0.28866-0.19972-0.13426 0.85120-0.98437
  -4   4   2 115.764 59.6921   7-0.74515 0.47999 0.12438 0.20926-0.77837 0.92425
   4   4  -2 168.180 53.6802   6-0.14407 0.41033-0.13340 0.46786-0.99044 0.84364
   4  -4  -2 136.873 66.7755   4-0.21662 0.48332 0.07100-0.40551-0.99676 0.85012
  -4  -4   2 163.450 70.3179   9 0.22777-0.49365 0.06211-0.39610 0.99682-0.85019
  -4   4   2 134.215 69.1170   6-0.34158 0.07577 0.52124-0.18797-0.83080 0.97698
   4   4  -2 165.646 64.0948   2 0.51053-0.24456 0.38021-0.04613 0.85029-0.99670
  -4   4   2 157.047 60.5027   1 0.20451-0.46961-0.08372 0.41697 0.99617-0.84997
  -4  -4   2 191.587 79.9848   3-0.56410 0.29831-0.32938-0.00413-0.84608 0.99251
   4   4  -2 135.559 60.9603   5 0.62264-0.35735 0.26923 0.06432 0.83454-0.98079
   4  -4  -2 197.634 79.6732   8 0.67052-0.40430-0.21741-0.11660 0.81823-0.96499
   3   4  -2 317.218 75.2106   6-0.10603 0.29675-0.23131 0.56582-0.97035 0.80994
   3  -4  -2 313.818 99.3987   4-0.24174 0.43283 0.14857-0.48313-0.98675 0.82653
   3   4  -2 282.228 96.5934   2 0.53223-0.34170 0.41271-0.07863 0.82266-0.98263
  -3  -4   2 341.516 96.7763   9 0.25489-0.44536 0.14081-0.47473 0.98685-0.82667
  -3   4   2 309.068 87.6838   6-0.34497 0.15465 0.53751-0.20423-0.81902 0.97873
  -3  -4   2 325.219 96.6674   3-0.59658 0.40635-0.36247 0.02901-0.81145 0.97137
  -3   4   2 234.948 75.6204   1 0.21608-0.40585-0.16702 0.50015 0.98518-0.82549
   3  -4  -2 -6.5246 25.8967   8 0.72848-0.53776-0.24351-0.09052 0.76077-0.92114
  -2  -4   2 -3.0214 24.8990   9 0.27843-0.39349 0.21296-0.54683 0.97128-0.79755
  -2   4   2 37.8223 32.5610   6-0.35058 0.23574 0.56552-0.23223-0.79745 0.97070
  -1   4   2 11.8795 35.4595   6-0.35798 0.31862 0.60539-0.27211-0.76373 0.95050
  11   5  -2 334.437 147.527   2 0.51638 0.27744 0.38887 0.02866 0.84322-0.89490
 -10   5   2 -115.72 111.259   7-0.65214-0.06591 0.10497 0.31247-0.85571 0.92033
  10   5  -2 40.3948 44.7646   2 0.50512 0.21329 0.37227 0.04525 0.85660-0.92179
 -10  -5   2 23.2767 28.7961   3-0.54307-0.17630-0.30842-0.10878-0.86575 0.93078
  10   5  -2 -28.567 76.2672   5 0.58016 0.13789 0.24179 0.17518 0.86927-0.93427
  10  -5  -2 -8.9444 71.1810   8 0.60909 0.10986-0.19044-0.22688 0.86679-0.93220
  -9   5   2 382.363 143.225   7-0.64979 0.00726 0.10449 0.31292-0.85736 0.93555
  -9  -5   2 339.928 130.244   9 0.04540-0.68847-0.38490-0.03284 0.91510-0.83636
   9   5  -2 381.302 146.284   2 0.49635 0.14666 0.35948 0.05803 0.86640-0.94511
   9   5  -2 374.303 148.568   5 0.57325 0.06930 0.23740 0.17959 0.87437-0.95294
  -9  -5   2 329.803 139.464   3-0.53483-0.10894-0.30030-0.11690-0.87294 0.95157
   9  -5  -2 324.763 117.829   8 0.60364 0.03989-0.18808-0.22926 0.87059-0.94953
  -8   5   2 60.1863 76.6196   7-0.65388 0.08687 0.10533 0.31204-0.85449 0.94624
   8  -5  -2 38.2757 68.0099   4-0.07835 0.64728-0.29931-0.11823-0.94948 0.85704
  -8   5   2 -84.414 41.5320   6-0.34476-0.22297 0.53648-0.11981-0.81978 0.91170
  -8  -5   2 -25.394 45.9161   9 0.08210-0.64974-0.30429-0.11340 0.94842-0.85608
   8   5  -2 -89.291 76.3380   2 0.49056 0.07706 0.35111 0.06639 0.87259-0.96482
   8   5  -2 -16.145 44.4033   5 0.57092-0.00384 0.23590 0.18109 0.87607-0.96821
  -8  -5   2 -53.437 75.5041   3-0.53029-0.03788-0.29584-0.12134-0.87677 0.96899
   8  -5  -2 -13.283 51.5788   8 0.60346-0.03538-0.18800-0.22934 0.87071-0.96319
  -7   5   2 835.323 188.800   7-0.66625 0.17474 0.10787 0.30944-0.84554 0.95084
  -7  -5   2 721.033 171.976   9 0.11630-0.60852-0.22530-0.19231 0.97253-0.86660
   7  -5  -2 767.317 176.778   4-0.11098 0.60438-0.21905-0.19864-0.97350 0.86756
  -7   5   2 735.584 173.733   6-0.34040-0.15187 0.51570-0.09901-0.83470 0.94020
   7   5  -2 813.200 186.254   2 0.48834 0.00387 0.34792 0.06958 0.87490-0.98068
   7   5  -2 836.305 172.981   5 0.57425-0.08265 0.23803 0.17896 0.87365-0.97933
  -7  -5   2 822.238 195.350   3-0.53028 0.03772-0.29584-0.12132-0.87678 0.98258
   7  -5  -2 748.479 182.464   8 0.60997-0.11732-0.19082-0.22654 0.86617-0.97221
  -6   5   2 7.90080 37.6484   7-0.68934 0.27332 0.11266 0.30459-0.82779 0.94661
  -6  -5   2 52.9324 56.0317   9 0.14793-0.56473-0.14873-0.26881 0.98845-0.86894
   6  -5  -2 -5.7212 55.2154   4-0.14096 0.55879-0.14177-0.27607-0.98917 0.86969
  -6   5   2 39.6143 40.7746   6-0.33754-0.07924 0.50251-0.08580-0.84374 0.96281
   6   5  -2 98.8679 48.7641   2 0.49036-0.07355 0.35083 0.06666 0.87280-0.99211
  -6   5   2 20.3098 29.9808   1 0.16192-0.57784 0.16422 0.25294 0.98627-0.86716
   6   5  -2 144.548 81.3354   5 0.58469-0.16856 0.24469 0.17228 0.86584-0.98505
  -6  -5   2 79.6573 68.3200   3-0.53580 0.11884-0.30125-0.11587-0.87210 0.99147
   6  -5  -2 21.2970 28.7664   8 0.62497-0.20777-0.19736-0.22005 0.85527-0.97487
   5   5  -2 1821.20 253.497   2 0.49738-0.15599 0.36099 0.05652 0.86527-0.99813
   5   5  -2 1740.08 172.327   6-0.23716 0.57898 0.13423 0.28355-0.98913 0.85593
  -5   5   2 1411.09 228.975   6-0.33645-0.00484 0.49757-0.08086-0.84704 0.97966
  -5  -5   2 1913.94 266.088   9 0.17689-0.51827-0.07541-0.34207 0.99717-0.86408
  -5  -5   2 1610.95 244.977   3-0.54802 0.20666-0.31332-0.10376-0.86130 0.99421
   5   5  -2 1896.24 240.305   5 0.60402-0.26334 0.25713 0.15983 0.85050-0.98323
   5  -5  -2 2005.24 272.720   8 0.65081-0.30907-0.20869-0.20875 0.83503-0.96822
  -5   5   2 1397.95 200.893   1 0.17845-0.51897 0.07608 0.34083 0.99708-0.86442
   5  -5  -2 1679.44 234.190   4-0.16821 0.51047-0.06829-0.34966-0.99759 0.86456
  -5   5   2 2121.50 267.913   7-0.72621 0.38565 0.12038 0.29681-0.79627 0.92859
  -4   5   2 363.846 111.183   6-0.33734 0.07154 0.50159-0.08488-0.84436 0.99053
   4   5  -2 280.332 70.0325   6-0.19189 0.45819-0.00152 0.41942-0.99992 0.85312
   4  -5  -2 305.930 100.812   4-0.19265 0.45932 0.00051-0.41855-0.99991 0.85331
  -4  -5   2 283.169 95.0540   9 0.20305-0.46902-0.00619-0.41121 0.99970-0.85305
   4   5  -2 380.866 123.858   2 0.51021-0.24422 0.37974 0.03777 0.85067-0.99710
  -4  -5   2 209.135 76.4751   3-0.56825 0.30249-0.33356-0.08348-0.84196 0.98839
   4   5  -2 205.941 72.4351   5 0.63431-0.36904 0.27686 0.14009 0.82391-0.97016
  -4   5   2 358.985 103.709   1 0.19193-0.45708-0.00272 0.41945 0.99992-0.85372
   4  -5  -2 407.103 138.332   8 0.69019-0.42393-0.22618-0.19128 0.80018-0.94696
   3   5  -2 2975.93 313.127   2 0.52951-0.33895 0.40857 0.00894 0.82634-0.98634
   3   5  -2 2780.12 253.037   6-0.15906 0.34981-0.09317 0.51114-0.99543 0.83503
  -3   5   2 2481.93 282.394   6-0.34030 0.15000 0.51526-0.09854-0.83501 0.99473
  -3  -5   2 2895.06 297.126   9 0.22631-0.41687 0.05798-0.47532 0.99715-0.83695
  -3  -5   2 2901.80 308.690   3-0.59777 0.40760-0.36370-0.05327-0.81007 0.96999
   3   5  -2 1753.14 260.427   5 0.67758-0.48770 0.30567 0.11128 0.77966-0.93941
   3  -5  -2 2348.46 280.111   4-0.21420 0.40527 0.06372-0.48182-0.99734 0.83716
  -3   5   2 2413.34 270.120   1 0.20269-0.39251-0.07152 0.48811 0.99717-0.83745
  -2   5   2 86.7859 40.5309   1 0.21108-0.32556-0.12977 0.54627 0.99100-0.81778
   2   5  -2 71.6916 54.7814   6-0.13630 0.25150-0.15384 0.57186-0.98718 0.81319
   2   5  -2 117.238 88.1344   2 0.55559-0.44046 0.44891-0.03138 0.78815-0.96172
   2  -5  -2 20.6582 45.4708   4-0.23278 0.34825 0.12043-0.53855-0.99118 0.81744
  -2  -5   2 72.3072 36.3171   9 0.24655-0.36170 0.11615-0.53344 0.99075-0.81701
  -2   5   2 136.670 76.9466   6-0.34530 0.23050 0.53913-0.12241-0.81782 0.99107
  -1   5   2 229.691 78.3086   1 0.21739-0.25653-0.17706 0.59353 0.98336-0.79662
   1   5  -2 296.979 97.1994   6-0.12172 0.16136-0.19161 0.60963-0.97988 0.79231
   1  -5  -2 215.131 84.4914   4-0.24835 0.28821 0.16968-0.58782-0.98282 0.79550
  -1  -5   2 220.773 79.9180   9 0.26370-0.30343 0.16736-0.58461 0.98185-0.79457
  -1   5   2 217.988 91.8683   6-0.35212 0.31281 0.57350-0.15679-0.79099 0.97776
 -10   6   2 83.3407 60.7494   7-0.68147-0.03652 0.11103 0.38996-0.83401 0.89851
  10   6  -2 136.356 98.9322   2 0.50934 0.20907 0.37846 0.12248 0.85170-0.91692
  10  -6  -2 69.3327 92.4757   8 0.62914 0.08984-0.19918-0.30157 0.85214-0.91757
   9  -6  -2 168.298 124.262   4-0.03911 0.68355-0.39090-0.11004-0.91159 0.83259
  -9   6   2 -2.4032 80.6729   7-0.68157 0.03909 0.11105 0.38990-0.83393 0.91201
  -9   6   2 111.799 87.1800   6-0.34814-0.29509 0.55314-0.05304-0.80719 0.88552
  -9  -6   2 5.55409 22.5332   9 0.04137-0.68450-0.39351-0.10764 0.91098-0.83219
   9   6  -2 117.364 126.098   2 0.50147 0.14155 0.36692 0.13400 0.86075-0.93949
  -9  -6   2 67.7050 12.7580   3-0.54462-0.09916-0.30996-0.19081-0.86437 0.94297
   9   6  -2 80.2823 66.3075   5 0.58929 0.05323 0.24765 0.25278 0.86229-0.94086
   9  -6  -2 65.5059 100.188   8 0.62538 0.01816-0.19754-0.30323 0.85496-0.93393
  -8   6   2 315.649 124.098   7-0.68826 0.12130 0.11244 0.38845-0.82866 0.92030
   8  -6  -2 142.827 99.7041   4-0.07015 0.63908-0.31890-0.18220-0.94235 0.84989
  -8   6   2 202.195 119.232   6-0.34302-0.22474 0.52806-0.02794-0.82593 0.91784
  -8  -6   2 137.502 82.8988   9 0.07380-0.64151-0.32289-0.17820 0.94154-0.84916
   8   6  -2 363.487 142.428   2 0.49641 0.07120 0.35958 0.14134 0.86633-0.95860
   8   6  -2 190.084 70.8931   5 0.58821-0.02117 0.24695 0.25347 0.86313-0.95525
  -8  -6   2 322.428 143.235   3-0.54101-0.02717-0.30638-0.19436-0.86758 0.95978
   8  -6  -2 311.762 126.296   8 0.62690-0.05878-0.19820-0.30259 0.85382-0.94633
  -7   6   2 514.416 155.336   7-0.70330 0.21184 0.11558 0.38525-0.81634 0.92152
   7  -6  -2 285.317 119.113   4-0.09880 0.59218-0.24947-0.25178-0.96536 0.85940
  -7   6   2 229.667 107.662   6-0.33903-0.15325 0.50935-0.00922-0.83909 0.94457
  -7  -6   2 338.433 126.998   9 0.10389-0.59619-0.25440-0.24661 0.96459-0.85862
   7   6  -2 357.630 114.189   2 0.49469-0.00248 0.35709 0.14383 0.86820-0.97399
   7   6  -2 389.375 118.702   5 0.59263-0.10106 0.24979 0.25062 0.85968-0.96535
  -7  -6   2 169.734 99.7022   3-0.54168 0.04911-0.30704-0.19367-0.86699 0.97277
   7  -6  -2 295.349 126.215   8 0.63500-0.14232-0.20174-0.29907 0.84765-0.95371
  -6   6   2 538.411 158.955   7-0.72892 0.31293 0.12095 0.37981-0.79379 0.91249
   6  -6  -2 261.646 114.279   4-0.12503 0.54285-0.18328-0.31811-0.98164 0.86216
  -6   6   2 365.812 115.702   1 0.15295-0.56892 0.20880 0.29183 0.97764-0.85859
  -6   6   2 324.445 119.962   6-0.33643-0.08035 0.49750 0.00265-0.84709 0.96614
  -6  -6   2 205.819 98.3060   9 0.13161-0.54849-0.18870-0.31224 0.98103-0.86149
   6   6  -2 382.987 117.911   2 0.49688-0.08005 0.36024 0.14069 0.86584-0.98518
  -6  -6   2 307.427 112.318   3-0.54748 0.13055-0.31279-0.18789-0.86179 0.98114
   6   6  -2 420.890 139.507   5 0.60380-0.18769 0.25698 0.24340 0.85068-0.96988
   6  -6  -2 372.727 122.925   8 0.65132-0.23409-0.20891-0.29193 0.83461-0.95425
   5  -6  -2 44.0443 26.9005   4-0.14879 0.49103-0.12097-0.38051-0.99218 0.85916
  -5   6   2 118.940 36.6395   6-0.33545-0.00584 0.49302 0.00715-0.85004 0.98265
  -5  -6   2 100.879 41.5753   9 0.15687-0.49834-0.12645-0.37443 0.99177-0.85865
   5   6  -2 169.749 95.9111   2 0.50356-0.16213 0.36997 0.13096 0.85839-0.99129
  -5  -6   2 154.456 99.3437   3-0.55941 0.21809-0.32468-0.17595-0.85064 0.98353
   5   6  -2 88.1560 62.7018   5 0.62324-0.28258 0.26962 0.23076 0.83401-0.96673
   5  -6  -2 136.300 58.8053   8 0.67788-0.33611-0.22067-0.28020 0.81164-0.94485
  -5   6   2 42.3074 20.3533   1 0.16769-0.50827 0.13438 0.36602 0.99085-0.85821
  -4   6   2 25.4569 36.4198   1 0.17989-0.44512 0.06794 0.43227 0.99767-0.85149
   4  -6  -2 71.6087 46.4347   4-0.17003 0.43667-0.06326-0.43830-0.99794 0.85136
   4   6  -2 118.290 57.8923   6-0.22541 0.49176 0.09781 0.40353-0.99408 0.84726
  -4  -6   2 94.7775 88.7518   9 0.17961-0.44567-0.06836-0.43246 0.99768-0.85100
  -4   6   2 77.4134 40.1558   6-0.33620 0.07043 0.49646 0.00372-0.84778 0.99394
   4   6  -2 27.2617 52.5485   2 0.51538-0.24937 0.38739 0.11356 0.84444-0.99090
  -4  -6   2 -2.5231 16.0226   3-0.57853 0.31282-0.34396-0.15661-0.83138 0.97779
   4   6  -2 65.2434 72.0238   5 0.65265-0.38739 0.28898 0.21138 0.80614-0.95237
   4  -6  -2 -0.3381 83.3670   8 0.71686-0.45057-0.23820-0.26272 0.77338-0.92019
   3   6  -2 147.694 63.8656   6-0.19746 0.38825 0.01453 0.48690-0.99973 0.83932
   3  -6  -2 87.9398 75.3623   4-0.18867 0.37972-0.01088-0.49073-0.99990 0.83975
   3   6  -2 54.8275 50.0276   2 0.53287-0.34228 0.41368 0.08728 0.82179-0.98181
  -3  -6   2 27.3464 13.5883   9 0.19973-0.39037-0.01516-0.48560 0.99968-0.83946
  -3   6   2 119.548 80.2181   6-0.33882 0.14854 0.50837-0.00819-0.83976 0.99947
  -3  -6   2 64.5213 49.5791   3-0.60582 0.41569-0.37206-0.12844-0.80052 0.96042
  -3   6   2 14.2258 27.5561   1 0.18983-0.37970 0.01004 0.49004 0.99989-0.84018
   2   6  -2 2346.67 324.828   2 0.55628-0.44112 0.44999 0.05098 0.78706-0.96065
   2   6  -2 2030.66 247.162   6-0.17683 0.29208-0.04418 0.54566-0.99901 0.82502
  -2   6   2 2084.00 276.252   6-0.34326 0.22848 0.52922-0.02905-0.82509 0.99833
  -2  -6   2 1554.75 229.327   9 0.21714-0.33238 0.03236-0.53307 0.99873-0.82497
   2  -6  -2 1799.71 259.106   4-0.20466 0.32010 0.03542-0.53708-0.99905 0.82534
  -2   6   2 2061.14 272.333   1 0.19770-0.31223-0.03889 0.53887 0.99908-0.82585
   1   6  -2 495.453 126.373   6-0.16259 0.20226-0.08357 0.58507-0.99635 0.80878
   1  -6  -2 454.537 125.742   4-0.21792 0.25775 0.07488-0.57653-0.99642 0.80916
  -1  -6   2 505.995 129.796   9 0.23175-0.27157 0.07340-0.57408 0.99583-0.80854
  -1   6   2 518.114 134.702   6-0.34937 0.31011 0.55931-0.05915-0.80237 0.98913
  -1   6   2 522.399 125.727   1 0.20372-0.24292-0.07842 0.57836 0.99662-0.80986
   1  -6  -2 -3.8659 31.7543   9-0.06768 0.10655-0.60784 0.10769 0.76630-0.95328
   0   6   2 1621.86 231.772   1 0.20805-0.17190-0.10821 0.60813 0.99370-0.79341
   0   6  -2 2005.31 291.110   6-0.15381 0.11793-0.10736 0.60887-0.99388 0.79275
   0  -6   2 1605.51 228.200   9 0.24346-0.20786 0.10711-0.60775 0.99200-0.79118
   0   6   2 385.625 123.237   6-0.35678 0.39301 0.59864-0.09849-0.76971 0.96997
   0  -6  -2 24.5577 65.1773   9-0.06345 0.02689-0.60019 0.09997 0.77312-0.97366
   0  -6  -2 1755.91 239.211   4-0.22833 0.19257 0.10663-0.60828-0.99302 0.79220
  -1  -6  -2 -0.8239 37.8302   4-0.23578 0.12444 0.12978-0.63140-0.98981 0.77545
  -1  -6  -2 -31.807 53.7846   9-0.06407-0.04791-0.60133 0.10104 0.77212-0.98620
   9  -7  -2 -59.631 75.7809   4-0.03198 0.67642-0.40696-0.17753-0.90370 0.82467
  -9   7   2 -36.322 83.8717   7-0.71874 0.07632 0.11881 0.46566-0.80299 0.88094
  -9   7   2 118.102 129.010   6-0.34793-0.29532 0.55206 0.03150-0.80802 0.88632
   9   7  -2 -58.254 88.1127   2 0.50977 0.13325 0.37910 0.20523 0.85119-0.92996
  -9  -7   2 -40.734 42.6022   9 0.03407-0.67727-0.40899-0.17556 0.90329-0.82445
   9   7  -2 -43.666 6.35596   5 0.60945 0.03304 0.26064 0.32323 0.84597-0.92451
   9  -7  -2 120.532 135.739   8 0.65174-0.00817-0.20910-0.37509 0.83427-0.91327
   8  -7  -2 -65.508 82.3742   4-0.05975 0.62866-0.34338-0.24126-0.93271 0.84022
  -8   7   2 45.3771 58.0350   7-0.72821 0.16130 0.12080 0.46361-0.79444 0.88593
  -8   7   2 -20.163 28.8754   6-0.34330-0.22448 0.52940 0.05418-0.82496 0.91684
  -8  -7   2 -7.1922 86.4370   9 0.06312-0.63091-0.34649-0.23798 0.93213-0.83970
   8   7  -2 -137.15 102.850   2 0.50552 0.06211 0.37284 0.21148 0.85615-0.94845
  -8  -7   2 -70.663 71.5337   3-0.55540-0.01277-0.32067-0.26365-0.85446 0.94662
   8   7  -2 37.6004 28.0889   5 0.60976-0.04275 0.26084 0.32302 0.84571-0.93781
   8  -7  -2 33.4535 99.4467   8 0.65511-0.08696-0.21059-0.37363 0.83147-0.92401
   7   7  -2 1660.30 294.693   2 0.50438-0.01215 0.37117 0.21316 0.85746-0.96329
  -7  -7   2 1830.38 315.857   9 0.08997-0.58236-0.28644-0.29797 0.95458-0.84857
  -7  -7   2 2035.14 334.111   3-0.55685 0.06431-0.32211-0.26217-0.85310 0.95883
  -7   7   2 1574.60 291.267   6-0.33973-0.15255 0.51260 0.07100-0.83685 0.94231
   7   7  -2 1812.84 280.119   5 0.61538-0.12385 0.26449 0.31934 0.84091-0.94655
   7  -7  -2 2170.73 364.838   8 0.66495-0.17225-0.21493-0.36932 0.82311-0.92921
   7  -7  -2 1403.71 275.210   4-0.08528 0.57864-0.28260-0.30219-0.95516 0.84918
  -7   7   2 1611.76 278.042   7-0.74602 0.25460 0.12457 0.45976-0.77752 0.88255
   6  -7  -2 372.875 134.619   4-0.10856 0.52635-0.22515-0.35976-0.97196 0.85247
  -6   7   2 334.790 126.672   6-0.33743-0.07934 0.50203 0.08159-0.84406 0.96309
  -6  -7   2 420.322 148.439   9 0.11459-0.53155-0.22934-0.35500 0.97149-0.85192
   6   7  -2 318.661 133.008   2 0.50682-0.08998 0.37476 0.20958 0.85464-0.97402
  -6  -7   2 357.369 132.499   3-0.56310 0.14619-0.32837-0.25587-0.84707 0.96637
   6   7  -2 212.119 96.7843   5 0.62743-0.21135 0.27236 0.31145 0.83024-0.94942
   6  -7  -2 599.144 181.216   8 0.68272-0.26547-0.22284-0.36145 0.80719-0.92686
   5  -7  -2 569.123 170.450   4-0.12955 0.47175-0.17159-0.41341-0.98396 0.85094
  -5   7   2 629.927 171.749   6-0.33657-0.00470 0.49811 0.08553-0.84668 0.97927
  -5  -7   2 667.942 174.985   9 0.13692-0.47848-0.17580-0.40848 0.98364-0.85050
   5   7  -2 722.009 195.948   2 0.51335-0.17191 0.38439 0.19997 0.84691-0.97984
  -5   7   2 560.063 158.632   1 0.15698-0.49762 0.18899 0.39489 0.98174-0.84917
  -5  -7   2 681.125 178.542   3-0.57497 0.23368-0.34035-0.24384-0.83511 0.96795
   5   7  -2 911.226 201.503   5 0.64718-0.30654 0.28535 0.29843 0.81158-0.94428
   5  -7  -2 774.636 241.556   8 0.71011-0.36832-0.23514-0.34919 0.78043-0.91369
   4  -7  -2 11.8674 37.8814   4-0.14821 0.41483-0.12252-0.46256-0.99197 0.84540
   4   7  -2 55.0567 63.2723   6-0.25126 0.51766 0.17925 0.40553-0.98087 0.83400
   4   7  -2 60.2525 17.9089   2 0.52446-0.25843 0.40096 0.18341 0.83300-0.97949
  -4   7   2 58.9682 33.3866   6-0.33727 0.07152 0.50129 0.08236-0.84456 0.99070
  -4  -7   2 70.3775 43.6275   9 0.15689-0.42305-0.12639-0.45785 0.99178-0.84509
  -4  -7   2 136.001 77.0070   3-0.59329 0.32762-0.35908-0.22503-0.81522 0.96158
   4   7  -2 89.5528 78.4335   5 0.67597-0.41074 0.30459 0.27916 0.78145-0.92767
  -4   7   2 136.714 62.4775   1 0.16815-0.43342 0.13197 0.45174 0.99117-0.84504
   3   7  -2 2797.89 369.738   2 0.54054-0.34993 0.42544 0.15896 0.81100-0.97105
   3   7  -2 2317.02 278.603   6-0.22734 0.41820 0.10374 0.48113-0.99338 0.83294
  -3   7   2 2378.95 318.988   6-0.33960 0.14935 0.51200 0.07165-0.83727 0.99696
  -3  -7   2 2733.37 359.917   3-0.61881 0.42874-0.38572-0.19832-0.78424 0.94409
  -3  -7   2 2021.70 292.798   9 0.17445-0.36518-0.08173-0.50246 0.99666-0.83643
  -3   7   2 2097.42 305.765   1 0.17731-0.36724 0.08244 0.50113 0.99658-0.83690
   3  -7  -2 2149.66 325.369   4-0.16448 0.35549-0.07854-0.50659-0.99678 0.83666
   2   7  -2 -20.203 17.1557   6-0.20892 0.32422 0.04815 0.53678-0.99840 0.82439
   2  -7  -2 35.9323 32.7576   4-0.17827 0.29370-0.04031-0.54485-0.99918 0.82550
   2   7  -2 4.32449 73.4983   2 0.56177-0.44659 0.45874 0.12568 0.77805-0.95169
  -2  -7   2 91.8756 57.8916   9 0.18948-0.30479-0.04249-0.54165 0.99905-0.82528
  -2   7   2 3.45478 34.3153   6-0.34355 0.22881 0.53061 0.05303-0.82408 0.99730
  -2   7   2 45.2739 53.4873   1 0.18463-0.29922 0.04080 0.54267 0.99914-0.82593
   2  -7  -2 -50.710 111.015   9-0.07205 0.18630-0.61570 0.03222 0.75913-0.93256
   1   7  -2 2724.47 325.753   6-0.19553 0.23526 0.00895 0.57602-0.99983 0.81225
  -1   7   2 2674.82 332.654   6-0.34899 0.30977 0.55739 0.02623-0.80388 0.99062
  -1  -7   2 2564.87 317.128   9 0.20188-0.24179-0.00937-0.57473 0.99970-0.81239
   1  -7  -2 2554.99 321.285   4-0.18951 0.22933-0.00849-0.57667-0.99991 0.81269
  -1   7   2 2180.79 301.245   1 0.19026-0.22951 0.00743 0.57600 0.99991-0.81316
   0   7  -2 -64.348 15.1010   6-0.18663 0.15080-0.01654 0.60153-0.99983 0.79868
   0  -7  -2 66.0980 46.0865   4-0.19806 0.16229 0.01615-0.60130-0.99970 0.79892
   0   7   2 54.3426 35.1632   6-0.35565 0.39193 0.59239-0.00879-0.77514 0.97538
   0  -7  -2 31.9420 55.1609   9-0.05993 0.02329-0.59379 0.01016 0.77872-0.97925
   0   7   2 133.149 83.0737   1 0.19429-0.15818-0.01732 0.60072 0.99974-0.79945
   1   7   2 399.788 142.518   1 0.19679-0.08532-0.03308 0.61648 0.99930-0.78547
  -1   7  -2 349.912 138.198   6-0.18174 0.07036-0.03040 0.61539-0.99953 0.78481
  -1  -7  -2 262.527 98.5399   4-0.20376 0.09241 0.03276-0.61789-0.99916 0.78485
   1  -7   2 344.003 106.805   9 0.21821-0.10726 0.03534-0.61937 0.99858-0.78422
  -1  -7  -2 104.521 105.841   9-0.06068-0.05139-0.59515 0.01145 0.77753-0.99161
   2   7   2 17.8771 57.8624   1 0.19779-0.01091-0.03941 0.62283 0.99906-0.77167
  -2  -7  -2 76.3441 40.0350   4-0.20634 0.01943 0.04036-0.62545-0.99882 0.77097
  -2  -7  -2 218.092 145.456   9-0.06506-0.12243-0.60312 0.01935 0.77053-0.99815
   8  -8  -2 180.732 100.307   4-0.04766 0.61655-0.37138-0.29681-0.92066 0.82814
  -8   8   2 168.700 132.172   6-0.34505-0.22272 0.53791 0.12914-0.81872 0.91056
  -8  -8   2 55.1113 25.5621   9 0.05061-0.61848-0.37371-0.29416 0.92028-0.82781
   8   8  -2 58.9180 68.2906   5 0.63473-0.06776 0.27713 0.39014 0.82352-0.91559
   8  -8  -2 -8.1475 100.392   8 0.68728-0.11910-0.22488-0.44278 0.80293-0.89553
   7  -8  -2 -146.07 106.911   4-0.07067 0.56400-0.31766-0.35067-0.94282 0.83681
   7   8  -2 62.5117 84.0841   2 0.51653-0.02428 0.38911 0.27864 0.84302-0.94891
  -7   8   2 20.0391 41.7603   6-0.34191-0.15037 0.52280 0.14428-0.82970 0.93512
  -7  -8   2 -70.345 70.1101   9 0.07484-0.56730-0.32057-0.34723 0.94243-0.83639
  -7  -8   2 93.4063 52.5180   3-0.57494 0.08243-0.34032-0.32753-0.83514 0.94081
   7   8  -2 71.5712 70.3696   5 0.64160-0.15010 0.28166 0.38558 0.81701-0.92262
   7  -8  -2 30.4574 55.0102   8 0.69888-0.20615-0.23008-0.43762 0.79175-0.89791
   6  -8  -2 689.920 208.201   4-0.09156 0.50931-0.26729-0.40114-0.96005 0.84053
   6   8  -2 931.634 242.038   2 0.51929-0.10244 0.39322 0.27455 0.83959-0.95902
  -6   8   2 1077.66 255.840   6-0.33991-0.07686 0.51342 0.15369-0.83629 0.95528
  -6  -8   2 851.231 236.561   9 0.09693-0.51399-0.27050-0.39725 0.95973-0.84012
  -6  -8   2 895.564 235.168   3-0.58169 0.16482-0.34718-0.32063-0.82802 0.94726
   6   8  -2 829.732 225.832   5 0.65456-0.23851 0.29025 0.37697 0.80421-0.92335
   6  -8  -2 386.644 201.507   8 0.71806-0.30078-0.23875-0.42899 0.77210-0.89184
   5  -8  -2 7.33192 50.2211   4-0.11030 0.45246-0.22078-0.44773-0.97307 0.84004
  -5   8   2 35.2144 51.2446   1 0.14619-0.48688 0.24113 0.42624 0.97002-0.83753
   5   8  -2 -52.971 79.5066   2 0.52577-0.18431 0.40292 0.26486 0.83130-0.96428
  -5   8   2 38.5852 38.3232   6-0.33919-0.00207 0.51009 0.15702-0.83858 0.97113
  -5  -8   2 -8.2546 82.8288   9 0.11686-0.45851-0.22398-0.44371 0.97287-0.83971
  -5  -8   2 -26.966 48.2490   3-0.59359 0.25235-0.35938-0.30837-0.81488 0.94766
   5   8  -2 89.2285 103.438   5 0.67466-0.33403 0.30370 0.36348 0.78291-0.91558
   4   8  -2 3342.45 432.164   2 0.53632-0.27027 0.41896 0.24885 0.81700-0.96354
  -4   8   2 2860.26 393.191   6-0.33986 0.07411 0.51319 0.15394-0.83644 0.98256
  -4  -8   2 2803.43 402.370   3-0.61129 0.34568-0.37780-0.28987-0.79380 0.94008
  -4  -8   2 3068.10 401.468   9 0.13457-0.40081-0.18152-0.48612 0.98251-0.83580
  -4   8   2 3013.01 399.396   1 0.15648-0.42182 0.19151 0.47569 0.98124-0.83517
   4  -8  -2 2323.76 362.140   4-0.12684 0.39341-0.17862-0.48997-0.98259 0.83602
   3  -8  -2 67.5848 79.5592   4-0.14113 0.33210-0.14134-0.52729-0.98923 0.82912
   3   8  -2 42.9160 44.5700   6-0.25187 0.44277 0.18122 0.48709-0.98046 0.81996
   3   8  -2 63.9995 91.0404   2 0.55126-0.36063 0.44210 0.22573 0.79497-0.95508
  -3  -8   2 -31.131 66.0586   9 0.14997-0.34081-0.14367-0.52392 0.98926-0.82901
  -3   8   2 28.5971 57.8206   6-0.34196 0.15174 0.52303 0.14409-0.82953 0.98918
  -3   8   2 47.0305 62.1021   1 0.16496-0.35495 0.14861 0.51847 0.98878-0.82915
  -2   8   2 692.984 191.510   1 0.17176-0.28641 0.11278 0.55421 0.99357-0.82039
   2  -8  -2 619.993 162.795   4-0.15307 0.26846-0.10950-0.55915-0.99363 0.81997
   2   8  -2 420.067 121.584   6-0.23546 0.35080 0.12892 0.53946-0.98995 0.81589
  -2  -8   2 728.687 187.699   9 0.16298-0.27840-0.11102-0.55654 0.99372-0.81993
  -2   8   2 661.900 182.958   6-0.34547 0.23078 0.53994 0.12717-0.81721 0.99039
   2  -8  -2 -11.165 85.6958   9-0.07263 0.18681-0.61673-0.05017 0.75818-0.93161
  -1   8   2 542.480 151.060   1 0.17697-0.21628 0.08434 0.58259 0.99642-0.80969
   1  -8  -2 626.413 173.003   4-0.16258 0.20238-0.08373-0.58492-0.99633 0.80913
   1   8  -2 370.712 125.894   6-0.22307 0.26286 0.09069 0.57774-0.99487 0.80726
  -1  -8   2 431.835 124.370   9 0.17350-0.21348-0.08418-0.58335 0.99645-0.80914
  -1   8   2 409.970 111.848   6-0.35031 0.31113 0.56413 0.10297-0.79856 0.98526
   1  -8  -2 43.4114 43.5276   9-0.06489 0.10361-0.60281-0.06417 0.77080-0.95779
   0   8  -2 2611.44 377.372   6-0.21442 0.17865 0.06454 0.60390-0.99728 0.79610
   0   8   2 2327.11 277.691   2 0.27322-0.23721 0.06555 0.60156 0.99316-0.79312
   0   8   2 947.779 249.616   6-0.35624 0.39257 0.59566 0.07142-0.77231 0.97252
   0  -8   2 2372.09 332.554   9 0.18134-0.14589-0.06386-0.60363 0.99797-0.79712
   0   8   2 2499.99 350.612   1 0.18065-0.14460 0.06366 0.60325 0.99796-0.79768
  -1   8  -2 2.89233 29.4110   6-0.20918 0.09784 0.04891 0.61955-0.99835 0.78361
  -1  -8  -2 33.0574 69.1354   4-0.17367 0.06231-0.05319-0.61543-0.99856 0.78428
   1   8   2 153.492 114.909   1 0.18286-0.07142 0.05109 0.61582 0.99868-0.78485
   1  -8   2 30.3245 61.4632   9 0.18630-0.07543-0.05085-0.61660 0.99869-0.78432
   1   8   2 -29.600 32.4418   2 0.25556-0.14417 0.04414 0.62293 0.99597-0.78240
  -1  -8  -2 5.52680 107.314   9-0.06224-0.04990-0.59801-0.06911 0.77504-0.98911
  -3  -8  -2 -19.929 95.7429   4-0.17242-0.09004-0.05667-0.61185-0.99836 0.75704
   3   8   2 -0.9956 22.6367   1 0.18269 0.07957 0.05207 0.61492 0.99863-0.75767
   3   8   2 -126.85 138.886   2 0.24522 0.01692 0.03171 0.63531 0.99722-0.75663
  -3  -8  -2 -86.466 191.957   9-0.07301-0.18998-0.61742-0.04983 0.75754-0.99869
   7   9  -2 475.420 198.126   5 0.67049-0.17902 0.30090 0.44976 0.78748-0.89305
   6  -9  -2 41.8182 61.2454   4-0.07403 0.49175-0.30966-0.44229-0.94578 0.82624
   6   9  -2 41.0373 45.3165   2 0.53358-0.11670 0.41477 0.33642 0.82081-0.94029
  -6   9   2 57.7438 97.8446   6-0.34339-0.07337 0.52988 0.22070-0.82461 0.94355
  -6  -9   2 150.968 73.5772   9 0.07866-0.49580-0.31201-0.43913 0.94562-0.82599
  -6  -9   2 144.251 96.7255   3-0.60246 0.18563-0.36858-0.38281-0.80455 0.92369
   6   9  -2 49.6388 97.5581   5 0.68430-0.26826 0.31022 0.44040 0.77202-0.89113
   5  -9  -2 33.2805 3.93389   4-0.09089 0.43301-0.26893-0.48310-0.95954 0.82648
   5   9  -2 20.7568 89.9197   2 0.54003-0.19854 0.42463 0.32657 0.81175-0.94479
  -5  -9   2 7.53186 53.6285   9 0.09659-0.43832-0.27130-0.47980 0.95948-0.82630
  -5  -9   2 -61.488 55.5825   3-0.61441 0.27321-0.38108-0.37024-0.78988 0.92256
   4  -9  -2 704.344 236.430   4-0.10566 0.37219-0.23242-0.51966-0.97007 0.82348
   4   9  -2 863.786 277.928   2 0.55012-0.28405 0.44031 0.31092 0.79673-0.94333
  -4  -9   2 614.548 177.876   9 0.11238-0.37871-0.23455-0.51650 0.97012-0.82340
  -4   9   2 650.628 197.597   6-0.34347 0.07775 0.53023 0.22038-0.82436 0.97042
   3  -9  -2 -2.9802 30.5062   4-0.11827 0.30920-0.20060-0.55152-0.97789 0.81778
   3   9  -2 158.093 123.599   2 0.56407-0.37341 0.46242 0.28883 0.77418-0.93434
   3   9  -2 121.241 100.467   6-0.27277 0.46371 0.25094 0.50081-0.96271 0.80215
  -3   9   2 167.439 111.736   1 0.15263-0.34270 0.21037 0.54022 0.97730-0.81774
  -3  -9   2 -28.061 96.2586   9 0.12597-0.31689-0.20227-0.54874 0.97807-0.81781
  -3   9   2 196.751 122.975   6-0.34537 0.15518 0.53944 0.21117-0.81758 0.97719
   2  -9  -2 101.551 67.3764   4-0.12864 0.24399-0.17396-0.57817-0.98351 0.80986
   2   9  -2 208.970 122.030   6-0.25814 0.37354 0.20174 0.55007-0.97585 0.80174
  -2  -9   2 118.667 86.7048   9 0.13726-0.25277-0.17495-0.57602 0.98380-0.81000
  -2   9   2 219.550 117.100   6-0.34852 0.23386 0.55502 0.19558-0.80573 0.97887
  -2   9   2 125.038 74.6493   1 0.15894-0.27367 0.17923 0.57127 0.98360-0.81048
   1  -9  -2 330.163 139.940   4-0.13667 0.17643-0.15306-0.59907-0.98732 0.80013
   1   9  -2 168.803 82.3155   6-0.24678 0.28662 0.16478 0.58709-0.98379 0.79612
  -1  -9   2 394.602 140.192   9 0.14613-0.18620-0.15319-0.59774 0.98772-0.80040
  -1   9   2 335.377 163.829   6-0.35280 0.31367 0.57713 0.17345-0.78801 0.97467
   1  -9  -2 -45.982 124.562   9-0.07039 0.10905-0.61272-0.13768 0.76186-0.94884
  -1   9   2 283.614 114.916   1 0.16375-0.20312 0.15483 0.59562 0.98781-0.80113
   0  -9  -2 37.4789 71.5280   4-0.14219 0.10637-0.13853-0.61359-0.98967 0.78895
   0   9  -2 -36.464 75.7698   6-0.23853 0.20281 0.13856 0.61334-0.98844 0.78721
   0  -9   2 -87.825 79.9002   9 0.15240-0.11705-0.13762-0.61328 0.99018-0.78933
   0   9   2 22.9377 56.1471   6-0.35806 0.39444 0.60583 0.14473-0.76334 0.96350
   0   9   2 -30.408 27.1006   1 0.16710-0.13111 0.13748 0.61295 0.99041-0.79018
  -1  -9  -2 -64.929 116.287   4-0.14500 0.03362-0.13107-0.62101-0.99078 0.77653
   1   9   2 71.3581 78.3740   2 0.31376-0.20231 0.11555 0.63498 0.98344-0.76991
  -1  -9  -2 91.8920 100.921   9-0.06751-0.04473-0.60753-0.14301 0.76658-0.98064
   1   9   2 123.534 82.7792   1 0.16899-0.05761 0.12754 0.62291 0.99176-0.77797
  -2  -9  -2 5.77917 137.004   4-0.14482-0.04210-0.13154-0.62049-0.99071 0.76294
   2   9   2 1.85755 35.0524   2 0.30167-0.11486 0.10052 0.64997 0.98683-0.75979
  -2  -9  -2 44.4461 117.546   9-0.07090-0.11676-0.61364-0.13696 0.76102-0.98862
   2   9   2 61.8591 93.8319   1 0.16940 0.01738 0.12537 0.62511 0.99204-0.76468
   4  10  -2 200.787 194.102   2 0.56521-0.29911 0.46425 0.37040 0.77223-0.91889
   3 -10  -2 42.5379 86.9375   4-0.09566 0.28655-0.25724-0.57836-0.96309 0.80296
  -3 -10   2 46.0519 74.3159   9 0.10218-0.29319-0.25837-0.57606 0.96342-0.80314
  -3  10   2 22.3459 71.6680   6-0.34947 0.15931 0.55983 0.27426-0.80196 0.96150
   2 -10  -2 411.213 150.145   4-0.10466 0.21996-0.23490-0.60071-0.96940 0.79574
  -2  10   2 518.019 192.446   1 0.14608-0.26088 0.24166 0.59237 0.96989-0.79684
   2  10  -2 448.684 172.835   6-0.27796 0.39341 0.26892 0.56634-0.95716 0.78297
  -2 -10   2 696.405 208.458   9 0.11198-0.22756-0.23549-0.59890 0.96987-0.79607
  -2  10   2 745.667 223.748   6-0.35228 0.23766 0.57433 0.25975-0.79031 0.96338
   1 -10  -2 -8.8437 52.7446   4-0.11139 0.15112-0.21802-0.61759-0.97376 0.78657
   1  10  -2 -1.4828 28.8729   6-0.26759 0.30748 0.23331 0.60201-0.96776 0.78002
  -1  10   2 41.2775 24.7230   1 0.15051-0.18995 0.22061 0.61338 0.97499-0.78839
  -1 -10   2 -26.916 40.4908   9 0.11942-0.15957-0.21792-0.61645 0.97438-0.78704
  -1  10   2 -26.159 36.9398   6-0.35608 0.31698 0.59475 0.23933-0.77310 0.95969
   0 -10  -2 237.435 190.602   4-0.11569 0.07984-0.20716-0.62843-0.97638 0.77566
   0  10   2 514.650 179.891   1 0.15352-0.11759 0.20603 0.62794 0.97824-0.77807
  -1 -10  -2 -33.672 30.7781   4-0.11733 0.00592-0.20298-0.63256-0.97735 0.76311
   1  10   2 329.758 176.654   1 0.15511-0.04380 0.19826 0.63574 0.97988-0.76614
  12   0  -3 67.8137 95.4463   8 0.70915 0.14288-0.23471 0.23442 0.78142-0.92035
 -11   0   3 115.522 79.9802   7-0.70900-0.06626 0.11677-0.11721-0.81150 0.96292
  11   0  -3 61.9364 70.1971   8 0.70215 0.07442-0.23156 0.23128 0.78850-0.94096
 -10   0   3 -48.700 41.4380   7-0.70687 0.00711 0.11633-0.11675-0.81332 0.97830
  10   0  -3 13.4569 64.6112   5 0.68861 0.01128 0.31315-0.31349 0.76699-0.93200
  10   0  -3 12.5943 81.7424   8 0.69953 0.00160-0.23037 0.23012 0.79111-0.95711
  -9   0   3 -32.202 27.7590   7-0.71048 0.08620 0.11707-0.11749-0.81023 0.98875
   9   0  -3 -34.808 33.5922   8 0.70231-0.07665-0.23163 0.23138 0.78834-0.96789
  -7   0   3 -18.581 26.0352   7-0.74087 0.26750 0.12347-0.12387-0.78253 0.98809
  -7   0   3 10.5979 32.5046   9 0.26390-0.73762 0.16798-0.16860 0.98172-0.77562
   7   0  -3 28.3573 62.6657   8 0.72946-0.25475-0.24395 0.24375 0.75969-0.96637
 -12  -1   3 344.709 182.717   7-0.72727-0.12346 0.12060-0.20458-0.79531 0.93313
  12   1  -3 -17.379 61.0668   5 0.68130 0.16956 0.30819-0.22516 0.77545-0.91336
  12  -1  -3 203.446 134.887   8 0.69622 0.15579-0.22889 0.14515 0.79436-0.93325
  12   1  -3 -10.848 135.616   8 0.72854 0.12351-0.24353 0.32669 0.76071-0.89969
 -11   1   3 -58.831 39.2069   7-0.70329-0.07198 0.11558-0.03249-0.81635 0.96776
 -11  -1   3 151.692 114.424   7-0.72131-0.05392 0.11935-0.20331-0.80070 0.95210
  11   1  -3 -8.2210 64.2125   5 0.67317 0.10219 0.30270-0.21963 0.78455-0.93605
  11  -1  -3 136.936 124.276   8 0.68851 0.08805-0.22543 0.14171 0.80177-0.95418
  11   1  -3 -72.034 75.2835   8 0.72277 0.05382-0.24089 0.32408 0.76704-0.91956
 -10   1   3 8.05983 46.1028   7-0.70077 0.00101 0.11505-0.03196-0.81846 0.98343
 -10  -1   3 67.7509 61.2786   7-0.72010 0.02036 0.11909-0.20302-0.80178 0.96675
  10   1  -3 127.354 58.2603   5 0.66890 0.03097 0.29983-0.21673 0.78920-0.95427
  10  -1  -3 -33.468 57.3962   8 0.68498 0.01614-0.22385 0.14014 0.80509-0.97104
  10   1  -3 -182.96 112.396   8 0.72160-0.02047-0.24036 0.32357 0.76831-0.93436
  -9   1   3 244.337 103.334   7-0.70385 0.07958 0.11569-0.03260-0.81588 0.99440
  -9  -1   3 43.9722 7.77050   7-0.72480 0.10053 0.12008-0.20399-0.79756 0.97607
   9   1  -3 174.098 96.7896   5 0.66939-0.04499 0.30015-0.21701 0.78867-0.96731
   9  -1  -3 -12.142 25.5606   8 0.68661-0.06095-0.22458 0.14088 0.80356-0.98306
   9   1  -3 -45.448 6.30188   8 0.72614-0.10047-0.24243 0.32567 0.76337-0.94296
   8   1  -3 2480.64 350.320   5 0.67569-0.12675 0.30440-0.22122 0.78176-0.97395
  -8   1   3 3122.81 367.422   7-0.71391 0.16511 0.11779-0.03471-0.80725 0.99930
  -8  -1   3 3135.46 360.326   7-0.73685 0.18803 0.12262-0.20651-0.78637 0.97841
  -7   1   3 126.686 73.7738   7-0.73262 0.25928 0.12173-0.03864-0.79035 0.99591
  -7  -1   3 59.1376 68.7359   7-0.75793 0.28455 0.12710-0.21095-0.76555 0.97110
   7  -1  -3 115.126 67.3672   4-0.23805 0.71374 0.13692-0.22072-0.98870 0.78212
  -7  -1   3 127.284 66.9023   9 0.24505-0.71885 0.11177-0.19581 0.99137-0.78522
   7   1  -3 -25.044 39.9349   5 0.68904-0.21554 0.31345-0.23022 0.76648-0.97220
   7  -1  -3 136.191 98.4406   8 0.71050-0.23578-0.23532 0.15164 0.78003-0.98667
 -12  -2   3 188.823 156.201   7-0.74505-0.10565 0.12436-0.29183-0.77847 0.91627
 -11   2   3 489.947 204.420   7-0.70399-0.07129 0.11572 0.05090-0.81576 0.96715
 -11  -2   3 404.788 162.560   7-0.74034-0.03486 0.12336-0.29081-0.78304 0.93441
  11   2  -3 512.933 188.306   5 0.66145 0.11391 0.29483-0.12831 0.79711-0.94868
  11  -2  -3 352.793 217.956   8 0.68148 0.09508-0.22228 0.05512 0.80834-0.96073
 -10   2   3 361.350 146.274   7-0.70156 0.00179 0.11521 0.05141-0.81780 0.98275
 -10  -2   3 336.585 137.483   7-0.74056 0.04083 0.12341-0.29082-0.78283 0.94777
 -10  -2   3 255.602 134.742   3-0.62475-0.07626-0.39202 0.22564-0.77641 0.94169
  10   2  -3 427.523 162.811   5 0.65657 0.04330 0.29159-0.12502 0.80216-0.96729
  10  -2  -3 289.086 167.957   8 0.67756 0.02356-0.22053 0.05338 0.81193-0.97785
  -9   2   3 990.969 228.021   7-0.70464 0.08037 0.11586 0.05075-0.81521 0.99371
  -9  -2   3 815.507 198.519   7-0.74688 0.12262 0.12475-0.29213-0.77667 0.95515
  -9  -2   3 1059.16 237.864   3-0.62244-0.00302-0.38957 0.22319-0.77948 0.95834
   9   2  -3 1159.41 242.124   5 0.65619-0.03180 0.29133-0.12474 0.80255-0.98124
   9  -2  -3 836.127 228.156   8 0.67860-0.05294-0.22099 0.05385 0.81098-0.99046
  -8   2   3 708.204 178.255   7-0.71457 0.16577 0.11793 0.04866-0.80668 0.99871
  -8  -2   3 248.897 110.213   7-0.76074 0.21192 0.12770-0.29504-0.76265 0.95466
  -8  -2   3 721.842 193.629   3-0.62466 0.07476-0.39192 0.22556-0.77653 0.96894
   8   2  -3 905.616 194.771   5 0.66129-0.11238 0.29473-0.12812 0.79727-0.98951
   8  -2  -3 740.493 215.902   8 0.68575-0.13555-0.22420 0.05705 0.80437-0.99740
  -7   2   3 4.52343 44.5981   7-0.73293 0.25960 0.12180 0.04479-0.79006 0.99560
   7  -2  -3 84.6815 35.1075   4-0.21921 0.69488 0.07878-0.24614-0.99606 0.78952
  -7  -2   3 31.5968 6.38347   9 0.22706-0.70094 0.06009-0.22753 0.99698-0.79079
   7   2  -3 166.853 94.7376   5 0.67306-0.19959 0.30262-0.13598 0.78467-0.99043
   7  -2  -3 189.482 111.615   8 0.70039-0.22566-0.23076 0.06362 0.79025-0.99686
  -7   2   3 11.2114 14.0508   1 0.20885-0.68171-0.11382 0.28026 0.99304-0.78729
  -6   2   3 62.9029 53.5756   7-0.76149 0.36359 0.12786 0.03871-0.76188 0.98091
   6  -2  -3 4.43393 33.2542   4-0.26238 0.66248 0.21570-0.38317-0.97242 0.75223
   6  -2  -3 34.5322 68.1315   8 0.72402-0.32478-0.24146 0.07432 0.76568-0.98587
 -12  -3   3 -169.15 169.284   3-0.62954-0.22264-0.39714 0.14727-0.76991 0.90804
 -11   3   3 885.361 256.852   7-0.71077-0.06450 0.11713 0.13304-0.80998 0.96132
 -11  -3   3 -206.09 113.652   7-0.76602-0.00917 0.12883-0.37973-0.75711 0.90846
 -11  -3   3 1017.08 277.628   3-0.62025-0.15637-0.38724 0.13738-0.78237 0.93409
  11   3  -3 898.351 247.842   5 0.65593 0.11942 0.29116-0.04117 0.80281-0.95442
  11  -3  -3 728.780 287.768   8 0.68056 0.09599-0.22187-0.02871 0.80919-0.96155
 -10   3   3 75.8290 33.8675   7-0.70887 0.00911 0.11674 0.13341-0.81161 0.97652
 -10  -3   3 -13.014 67.9531   3-0.61388-0.08717-0.38052 0.13066-0.79054 0.95585
  10   3  -3 29.3296 46.9682   5 0.65090 0.04895 0.28782-0.03780 0.80789-0.97306
  10  -3  -3 98.3367 45.8361   8 0.67670 0.02441-0.22015-0.03043 0.81270-0.97861
  -9   3   3 292.251 126.872   7-0.71244 0.08818 0.11748 0.13265-0.80853 0.98699
  -9  -3   3 525.725 174.145   3-0.61106-0.01442-0.37756 0.12771-0.79408 0.97297
   9   3  -3 418.710 148.829   5 0.65016-0.02579 0.28733-0.03730 0.80863-0.98736
   9  -3  -3 375.056 155.660   8 0.67765-0.05198-0.22057-0.03002 0.81185-0.99130
  -8   3   3 233.868 126.248   7-0.72273 0.17396 0.11964 0.13047-0.79943 0.99142
   8  -3  -3 157.895 91.6682   4-0.15907 0.71028-0.09331-0.15747-0.99542 0.80250
   8   3  -3 32.9469 57.6806   2 0.56589-0.01616 0.46535-0.21458 0.77106-0.96355
  -8  -3   3 138.790 71.6811   9 0.16500-0.71439-0.10593-0.14501 0.99430-0.80168
  -8  -3   3 214.688 107.617   3-0.61248 0.06257-0.37905 0.12921-0.79231 0.98476
   8   3  -3 174.375 83.8537   5 0.65463-0.10572 0.29030-0.04024 0.80414-0.99641
   8  -3  -3 221.982 133.133   8 0.68447-0.13426-0.22361-0.02697 0.80557-0.99858
  -7   3   3 821.983 191.641   7-0.74125 0.26794 0.12356 0.12653-0.78215 0.98765
   7  -3  -3 813.349 172.840   4-0.20114 0.67681 0.02511-0.27604-0.99945 0.79293
  -7  -3   3 830.076 156.091   9 0.20931-0.68326 0.01080-0.26164 0.99948-0.79324
  -7  -3   3 929.992 203.864   3-0.61892 0.14456-0.38583 0.13601-0.78410 0.99010
   7   3  -3 1147.18 224.308   5 0.66536-0.19191 0.29745-0.04739 0.79299-0.99878
   7  -3  -3 1114.87 240.785   8 0.69845-0.22370-0.22989-0.02071 0.79217-0.99876
   6  -3  -3 36.2821 44.8199   4-0.23821 0.63830 0.13740-0.38843-0.98862 0.76849
  -6  -3   3 223.434 91.2558   9 0.24872-0.64725 0.12252-0.37326 0.98981-0.76999
   6   3  -3 211.790 105.379   5 0.68352-0.28550 0.30969-0.05960 0.77291-0.99223
   6  -3  -3 119.719 90.9099   8 0.72097-0.32171-0.24007-0.01052 0.76899-0.98916
 -11   4   3 1215.22 296.006   7-0.72327-0.05199 0.11976 0.21396-0.79894 0.95022
 -11  -4   3 1314.83 307.961   3-0.61517-0.16150-0.38188 0.04850-0.78891 0.94065
 -10   4   3 46.0657 41.7166   7-0.72229 0.02255 0.11955 0.21415-0.79982 0.96467
  10   4  -3 -9.5190 30.2467   2 0.56285 0.13770 0.46046-0.12622 0.77624-0.94168
 -10  -4   3 45.9110 139.048   3-0.60888-0.09222-0.37527 0.04190-0.79678 0.96212
  10   4  -3 -35.265 66.4631   5 0.65116 0.04868 0.28799 0.04548 0.80763-0.97283
  10  -4  -3 68.6429 123.288   8 0.68181 0.01930-0.22244-0.11158 0.80803-0.97393
  -9   4   3 49.6567 49.1757   7-0.72674 0.10249 0.12049 0.21318-0.79579 0.97419
   9   4  -3 94.9069 101.559   2 0.55844 0.06671 0.45341-0.11919 0.78356-0.96252
  -9  -4   3 34.9599 43.9615   3-0.60594-0.01957-0.37219 0.03884-0.80037 0.97929
   9   4  -3 75.4381 94.1729   5 0.65047-0.02612 0.28753 0.04595 0.80832-0.98707
   9  -4  -3 139.490 84.5341   8 0.68307-0.05740-0.22299-0.11103 0.80687-0.98631
  -8   4   3 175.819 109.573   7-0.73781 0.18905 0.12283 0.21081-0.78546 0.97738
   8  -4  -3 149.279 116.056   4-0.14725 0.69846-0.12508-0.20926-0.99163 0.79871
   8   4  -3 163.549 80.1183   2 0.55708-0.00735 0.45127-0.11705 0.78575-0.97825
  -8  -4   3 90.8447 34.9144   9 0.15343-0.70290-0.13507-0.19927 0.99056-0.79788
  -8  -4   3 65.0133 71.7433   3-0.60699 0.05705-0.37328 0.03995-0.79910 0.99159
   8   4  -3 219.006 113.381   5 0.65474-0.10585 0.29037 0.04312 0.80403-0.99632
   8  -4  -3 29.9657 63.2445   8 0.69000-0.13977-0.22610-0.10794 0.80035-0.99336
  -7   4   3 181.256 99.1485   7-0.75689 0.28360 0.12688 0.20671-0.76662 0.97206
   7  -4  -3 310.204 123.775   4-0.18338 0.65903-0.02593-0.30855-0.99965 0.79316
   7   4  -3 411.929 145.238   2 0.55929-0.08496 0.45477-0.12055 0.78217-0.98822
  -7  -4   3 404.437 113.639   9 0.19151-0.66555-0.03710-0.29715 0.99924-0.79297
  -7  -4   3 393.150 132.442   3-0.61270 0.13835-0.37928 0.04597-0.79203 0.99807
  -7   4   3 224.073 67.3476   1 0.18687-0.65981 0.02772 0.30563 0.99958-0.79385
   7   4  -3 474.230 142.167   5 0.66492-0.19149 0.29716 0.03634 0.79345-0.99927
   7  -4  -3 323.506 140.182   8 0.70378-0.22902-0.23229-0.10176 0.78687-0.99345
   6   4  -3 85.0125 53.9237   2 0.56549-0.16660 0.46470-0.13049 0.77175-0.99135
   6  -4  -3 -4.0619 41.1173   4-0.21566 0.61574 0.06811-0.40269-0.99700 0.77691
  -6  -4   3 126.626 96.4285   9 0.22580-0.62442 0.05656-0.39071 0.99726-0.77740
  -6  -4   3 129.958 97.1509   3-0.62382 0.22503-0.39103 0.05774-0.77765 0.99723
   6   4  -3 45.2154 58.9714   5 0.68206-0.28406 0.30870 0.02481 0.77459-0.99392
  -6   4   3 -34.375 32.6155   1 0.20480-0.60234-0.08565 0.41877 0.99599-0.77677
   6  -4  -3 -23.583 20.7514   8 0.72566-0.32637-0.24221-0.09185 0.76389-0.98406
 -10   5   3 19.3032 38.5149   7-0.74129 0.04157 0.12357 0.29368-0.78211 0.94688
  10   5  -3 -64.724 45.6388   2 0.55917 0.14137 0.45459-0.03692 0.78235-0.94780
 -10  -5   3 96.5878 75.8392   3-0.60887-0.09225-0.37526-0.04164-0.79679 0.96214
  10   5  -3 -53.183 104.250   5 0.65660 0.04322 0.29160 0.12532 0.80213-0.96733
  10  -5  -3 -115.92 89.2314   8 0.69227 0.00886-0.22711-0.19032 0.79819-0.96409
  -9   5   3 37.4901 107.908   7-0.74693 0.12271 0.12476 0.29244-0.77662 0.95493
   9   5  -3 106.006 104.860   2 0.55489 0.07025 0.44780-0.03014 0.78927-0.96825
  -9  -5   3 -46.952 79.4134   9 0.10362-0.72860-0.25503-0.16279 0.96440-0.78529
  -9  -5   3 29.1631 22.6161   3-0.60611-0.01943-0.37236-0.04451-0.80017 0.97911
   9   5  -3 242.132 131.656   5 0.65627-0.03194 0.29139 0.12555 0.80246-0.98122
   9  -5  -3 213.387 138.301   8 0.69415-0.06846-0.22796-0.18950 0.79637-0.97582
  -8   5   3 0.33957 5.17946   7-0.75907 0.21034 0.12735 0.28981-0.76438 0.95622
   8  -5  -3 228.723 129.406   4-0.13401 0.68521-0.16001-0.25788-0.98611 0.79318
   8   5  -3 178.567 87.6799   2 0.55347-0.00374 0.44557-0.02792 0.79151-0.98402
  -8  -5   3 128.970 85.1021   9 0.14013-0.68968-0.16794-0.24979 0.98513-0.79241
  -8  -5   3 174.867 117.505   3-0.60709 0.05715-0.37339-0.04347-0.79898 0.99148
   8   5  -3 116.826 81.9019   5 0.66068-0.11181 0.29433 0.12260 0.79791-0.99021
   8  -5  -3 160.052 111.858   8 0.70152-0.15129-0.23127-0.18619 0.78913-0.98214
  -7   5   3 -43.739 58.3273   1 0.17653-0.64953 0.08673 0.33009 0.99621-0.79051
   7  -5  -3 56.3577 56.3636   4-0.16565 0.64129-0.07532-0.34270-0.99705 0.79057
   7   5  -3 -8.6173 74.8863   2 0.55535-0.08103 0.44854-0.03089 0.78853-0.99458
  -7  -5   3 -55.497 75.6832   9 0.17352-0.64764-0.08411-0.33354 0.99646-0.79015
  -7  -5   3 54.3359 46.5722   3-0.61244 0.13809-0.37901-0.03783-0.79236 0.99842
   7   5  -3 146.725 113.110   5 0.67068-0.19727 0.30102 0.11591 0.78727-0.99310
   7  -5  -3 -3.4999 36.5490   8 0.71544-0.24067-0.23756-0.17992 0.77488-0.98146
   6   5  -3 101.553 82.1295   2 0.56094-0.16203 0.45741-0.03976 0.77943-0.99904
  -6  -5   3 104.785 21.0784   9 0.20377-0.60248-0.00427-0.41329 0.99969-0.77980
  -6  -5   3 212.718 124.573   3-0.62279 0.22403-0.38994-0.02686-0.77902 0.99861
   6   5  -3 38.7378 95.0515   5 0.68718-0.28920 0.31218 0.10476 0.76867-0.98801
  -6   5   3 58.1989 29.8532   1 0.19295-0.59055-0.00900 0.42558 0.99987-0.78064
 -10   6   3 -1.5546 59.3184   7-0.76530 0.06561 0.12868 0.37211-0.75787 0.92252
   9  -6  -3 292.847 172.975   4-0.08876 0.71547-0.27415-0.22711-0.95790 0.77847
   9   6  -3 689.634 220.698   2 0.55538 0.06976 0.44858 0.05250 0.78848-0.96748
  -9  -6   3 572.385 190.576   9 0.09309-0.71814-0.27932-0.22188 0.95692-0.77776
  -9  -6   3 546.251 162.666   3-0.61067-0.01488-0.37715-0.12329-0.79457 0.97349
   9   6  -3 839.904 249.508   5 0.66677-0.04246 0.29840 0.20197 0.79148-0.97024
   9  -6  -3 583.371 240.431   8 0.71016-0.08446-0.23517-0.26570 0.78038-0.95985
   8  -6  -3 126.471 68.4869   4-0.11967 0.67085-0.19702-0.30440-0.97870 0.78576
   8   6  -3 376.044 130.646   2 0.55410-0.00435 0.44654 0.05453 0.79054-0.98307
  -8  -6   3 189.571 72.4474   9 0.12554-0.67517-0.20331-0.29782 0.97784-0.78508
  -8  -6   3 452.146 174.499   3-0.61183 0.06188-0.37835-0.12205-0.79313 0.98563
   8   6  -3 349.179 154.322   5 0.67155-0.12271 0.30161 0.19875 0.78632-0.97861
   8  -6  -3 74.5045 75.3990   8 0.71821-0.16796-0.23882-0.26208 0.77194-0.96497
   7  -6  -3 101.437 91.2839   4-0.14781 0.62342-0.12360-0.37796-0.99183 0.78536
   7   6  -3 222.416 124.864   2 0.55586-0.08152 0.44933 0.05175 0.78773-0.99380
  -7  -6   3 352.608 146.291   9 0.15524-0.62945-0.13053-0.37052 0.99120-0.78486
  -7  -6   3 284.329 136.398   3-0.61705 0.14272-0.38386-0.11651-0.78651 0.99256
   7   6  -3 201.875 123.417   5 0.68162-0.20823 0.30841 0.19195 0.77509-0.98090
  -7   6   3 193.628 72.1963   1 0.16626-0.63929 0.14187 0.35841 0.98978-0.78413
   7  -6  -3 -28.474 90.0840   8 0.73250-0.25771-0.24534-0.25559 0.75628-0.96288
  -6   6   3 101.815 46.4882   1 0.18137-0.57902 0.05960 0.44045 0.99821-0.77901
   6  -6  -3 -7.8996 53.9487   4-0.17321 0.57322-0.05447-0.44720-0.99848 0.77846
   6   6  -3 149.092 110.736   2 0.56104-0.16211 0.45756 0.04353 0.77928-0.99891
  -6  -6   3 20.2055 41.9273   9 0.18221-0.58101-0.06157-0.43940 0.99811-0.77820
  -6  -6   3 -58.015 116.065   3-0.62691 0.22817-0.39432-0.10601-0.77351 0.99310
  -6   6   3 -27.372 61.8113   6-0.36062-0.03813 0.62068-0.12075-0.74978 0.96901
   4  -6  -3 -68.258 54.4131   4-0.21585 0.46466 0.06867-0.57047-0.99695 0.74979
  -4   6   3 42.5096 46.9785   1 0.20368-0.45066-0.07812 0.57786 0.99664-0.75041
   9  -7  -3 258.559 131.601   4-0.07662 0.70332-0.30347-0.28134-0.94801 0.76856
  -9  -7   3 27.3901 75.2749   9 0.08067-0.70580-0.30750-0.27709 0.94727-0.76806
   9  -7  -3 -41.649 139.365   8 0.73041-0.10468-0.24438-0.33993 0.75863-0.93814
   8  -7  -3 139.925 90.6126   4-0.10443 0.65558-0.23549-0.34947-0.96924 0.77629
   8   7  -3 624.679 213.959   2 0.55809-0.00834 0.45287 0.13163 0.78412-0.97668
  -8  -7   3 697.263 239.656   9 0.10988-0.65959-0.24042-0.34409 0.96854-0.77575
  -8  -7   3 819.586 274.794   3-0.62033 0.07039-0.38733-0.19664-0.78226 0.97473
   8   7  -3 175.426 130.271   5 0.68654-0.13772 0.31174 0.27205 0.76942-0.96169
   7  -7  -3 41.7848 95.3283   4-0.12974 0.60532-0.17111-0.41398-0.98406 0.77758
   7   7  -3 137.382 92.4412   2 0.55988-0.08553 0.45571 0.12879 0.78120-0.98730
  -7  -7   3 224.563 96.3706   9 0.13661-0.61091-0.17654-0.40790 0.98349-0.77712
  -7   7   3 88.7472 67.4982   1 0.15587-0.62896 0.19452 0.38924 0.98064-0.77505
  -7  -7   3 322.365 147.505   3-0.62559 0.15127-0.39293-0.19101-0.77527 0.98130
  -7   7   3 -78.476 68.6799   6-0.36047-0.11378 0.61977-0.03641-0.75063 0.95628
   6  -7  -3 68.6151 26.3278   4-0.15259 0.55258-0.11080-0.47439-0.99347 0.77345
   6   7  -3 431.271 191.380   2 0.56479-0.16585 0.46358 0.12094 0.77295-0.99261
  -6  -7   3 770.888 217.999   9 0.16087-0.55977-0.11636-0.46801 0.99307-0.77314
   5  -7  -3 -206.26 144.541   4-0.17300 0.49739-0.05504-0.53023-0.99845 0.76489
  -5   7   3 27.1013 8.46575   1 0.18154-0.50390 0.05865 0.52470 0.99826-0.76556
  -5   7   3 -78.374 64.9986   6-0.35940 0.03615 0.61353-0.03015-0.75637 0.98915
   8  -8  -3 -23.301 106.261   4-0.08839 0.63951-0.27503-0.39346-0.95761 0.76464
   7  -8  -3 44.2914 82.4384   4-0.11137 0.58691-0.21807-0.45054-0.97375 0.76726
  -7   8   3 -104.79 84.9511   6-0.36054-0.11370 0.62020 0.04663-0.75023 0.95586
   6  -8  -3 -13.956 58.7849   4-0.13209 0.53204-0.16503-0.50368-0.98520 0.76519
  -6   8   3 -89.652 76.8645   6-0.35959-0.03916 0.61459 0.05224-0.75540 0.97460
  -6   8   3 90.3530 70.1963   1 0.15836-0.55614 0.18214 0.48489 0.98306-0.76396
  -4   8   3 -39.254 45.1186   1 0.17848-0.42557 0.07595 0.59075 0.99709-0.75089
   4  -8  -3 -72.088 60.8008   4-0.16676 0.41552-0.07226-0.59657-0.99729 0.75019
  -4   8   3 -104.73 78.7942   6-0.36052 0.11280 0.62010 0.04676-0.75032 0.99663
   5  -9  -3 285.231 299.854   4-0.12831 0.45263-0.17481-0.57749-0.98334 0.74978
   0   0   0    0.00    0.00
   1   5   2 33.1579 30.9040   1 0.22477-0.11322-0.23757 0.65404 0.97006-0.75626
   4  -7  -3 -43.276 27.8175   4-0.19097 0.43976-0.00430-0.58103-0.99992 0.75280
  -4   7   3 -78.013 63.0435   6-0.36045 0.11269 0.61964-0.03625-0.75075 0.99707
  -4   7   3 -9.6150 23.0301   1 0.19110-0.43813 0.00237 0.58084 0.99993-0.75369
   5  -6  -3 44.4578 77.7861   4-0.19588 0.52030 0.00981-0.51156-0.99982 0.76622
  -5   6   3 16.7213 18.0269   6-0.36062 0.03735 0.62064-0.12071-0.74981 0.98260
   5  -4  -3 -22.493 32.7850   4-0.24409 0.56855 0.15604-0.49069-0.98542 0.75174
   3   7   2 -34.947 86.3594   1 0.19722 0.06508-0.03578 0.61924 0.99920-0.75824
  -3  -7  -2 -158.64 156.745   4-0.20543-0.05703 0.03769-0.62272-0.99895 0.75758
  -3  -7  -2 -40.849 126.885   9-0.07259-0.19033-0.61666 0.03283 0.75824-0.99941
   5  -5  -3 39.8365 40.6709   4-0.21946 0.54390 0.07955-0.49776-0.99599 0.76236
  -5   5   3 -1.7085 25.4079   1 0.20601-0.52826-0.09400 0.51039 0.99521-0.76248
  -6   1   3 511.435 145.684   7-0.76181 0.36389 0.12793-0.04484-0.76154 0.98059
   0  -5  -2 21.7744 25.1128   4-0.26084 0.22509 0.21056-0.62868-0.97371 0.77283
   0   5   2 1.58196 16.1490   6-0.36020 0.39637 0.61819-0.20149-0.75209 0.95236
   0   5   2 216.846 77.5324   1 0.22188-0.18568-0.21309 0.62954 0.97593-0.77567
   5  -8  -3 -25.670 31.5795   4-0.15055 0.47491-0.11628-0.55251-0.99279 0.75924
  -5   8   3 -47.247 54.3979   6-0.35957 0.03633 0.61449 0.05236-0.75549 0.98826
  -5   8   3 26.6658 78.7380   1 0.16936-0.49179 0.12556 0.54127 0.99202-0.75936
   2  -3  -2 16.0287 21.5984   4-0.29707 0.41255 0.33745-0.58846-0.93213 0.75825
  -2   3   2 -58.163 36.6323   6-0.35987 0.24498 0.61627-0.36640-0.75387 0.92711
   1   4   0 35.7730 56.8674   2 0.30626-0.23076 0.10621 0.22751 0.98560-0.97215
  -1   4   0 2.50631 27.6439   2 0.43534-0.51066 0.27381 0.06001 0.92179-0.93545
  -1  -4   0 47.9617 41.5172   4-0.14017 0.06458-0.14387-0.19019-0.98883 0.97534
  -1  -4   0 165.634 79.8182   9 0.12535-0.20112-0.20375-0.12995 0.97774-0.99121
  -1   4   0 175.754 86.4429   6-0.23344 0.15807 0.12264 0.21126-0.99087 0.97722
   1   4   0 78.5620 66.9360   6-0.26842 0.34411 0.23613 0.09769-0.96698 0.98042
   1   4   0 123.134 61.7904   1 0.16705-0.09180 0.13775 0.19615 0.99038-0.97693
   1  -4   0 86.3181 61.4367   9 0.15099-0.07590-0.14113-0.19245 0.98965-0.97605
  -1   4   0 38.1073 30.4743   7-0.47237 0.39707 0.06872 0.26524-0.94927 0.93559
   1  -4   0 113.830 48.3290   3-0.52972 0.60552-0.29528-0.03855-0.87725 0.89071
   1  -4   0 72.8085 36.6392   8 0.37283-0.29727-0.09118-0.24262 0.97537-0.96177
  -1  -4   0 92.6720 49.3447   3-0.32154 0.24608-0.10281-0.23135-0.98371 0.97017
   1   4   0 35.7730 56.8674   2 0.30626-0.23076 0.10621 0.22751 0.98560-0.97215
  -1   4   0 2.50631 27.6439   2 0.43534-0.51066 0.27381 0.06001 0.92179-0.93545
  -1  -4   0 47.9617 41.5172   4-0.14017 0.06458-0.14387-0.19019-0.98883 0.97534
  -1  -4   0 165.634 79.8182   9 0.12535-0.20112-0.20375-0.12995 0.97774-0.99121
  -1   4   0 175.754 86.4429   6-0.23344 0.15807 0.12264 0.21126-0.99087 0.97722
   1   4   0 78.5620 66.9360   6-0.26842 0.34411 0.23613 0.09769-0.96698 0.98042
   1   4   0 123.134 61.7904   1 0.16705-0.09180 0.13775 0.19615 0.99038-0.97693
   1  -4   0 86.3181 61.4367   9 0.15099-0.07590-0.14113-0.19245 0.98965-0.97605
  -1   4   0 38.1073 30.4743   7-0.47237 0.39707 0.06872 0.26524-0.94927 0.93559
   1  -4   0 113.830 48.3290   3-0.52972 0.60552-0.29528-0.03855-0.87725 0.89071
   1  -4   0 72.8085 36.6392   8 0.37283-0.29727-0.09118-0.24262 0.97537-0.96177
  -6   9   3 37.5301 84.3733   1 0.14670-0.54454 0.23877 0.51174 0.97062-0.75161
   9   3   1 490.314 175.009   2 0.24996 0.44655 0.03739 0.21276 0.99668-0.77484
   9   3   1 246.700 114.753   8 0.28488 0.41210-0.05555 0.30582 0.99256-0.77041
  -9  -3  -1 43.4674 74.7250   7-0.27559-0.42206 0.03032-0.28086-0.99467 0.77224
 -10   4   1 0.37035 41.3819   7-0.52742-0.20907 0.07967 0.25440-0.92683 0.89128
 -10  -4   1 -48.428 69.3387   7-0.59946-0.13676 0.09420-0.42840-0.88958 0.85421
  10  -4  -1 -39.857 112.645   8 0.50010 0.23663-0.14392-0.18989 0.92987-0.89484
  10   4  -1 -112.97 71.2088   2 0.43871 0.29756 0.27841 0.05551 0.91924-0.88418
  10   4  -1 -28.758 43.6224   5 0.48295 0.25342 0.18093 0.15266 0.92951-0.89424
 -10  -4   1 128.691 60.9944   3-0.46149-0.27613-0.22989-0.10408-0.92573 0.89038
  -8  -7  -1 -4.6306 92.9012   3-0.33652-0.28653-0.11604-0.46936-0.97971 0.77031
   8   7   1 191.339 162.873   2 0.32381 0.29737 0.12815 0.45562 0.98028-0.77211
  -5 -10  -1 -104.99 54.9713   3-0.43665 0.04074-0.20671-0.62934-0.93969 0.77090
  -2  -8  -2 22.5756 59.5543   4-0.17477-0.01214-0.05012-0.61844-0.99872 0.77092
   2   8   2 56.5230 79.4415   1 0.18356 0.00328 0.04706 0.61988 0.99887-0.77149
   2   8   2 133.180 87.0565   2 0.24691-0.06015 0.03373 0.63331 0.99704-0.76996
  -2  -8  -2 -68.491 105.544   9-0.06617-0.12141-0.60513-0.06205 0.76873-0.99635
   3  -2  -2 -18.520 32.9068   8 0.72624-0.53557-0.24247 0.07540 0.76325-0.92363
   2   6   2 1.35828 55.8829   1 0.21208-0.02517-0.13705 0.63700 0.98998-0.76259
  -2  -6  -2 -6.3928 24.4617   4-0.24007 0.05315 0.14326-0.64484-0.98766 0.75977
  -2  -6  -2 -12.371 61.9865   9-0.06875-0.11866-0.60978 0.10942 0.76454-0.99218
   9  -1   1 342.366 129.830   8 0.21884 0.47797-0.02916-0.05422 0.99877-0.77662
  -9  -1  -1 -9.9344 122.004   7-0.22538-0.47245 0.02070-0.10414-0.99869 0.77615
  -9   1  -1 112.724 86.4211   7-0.22041-0.47750 0.01975 0.06395-0.99894 0.77630
   9   1   1 208.479 114.733   8 0.22646 0.47041-0.03219 0.11562 0.99834-0.77619
   9   4   1 644.586 202.437   2 0.26986 0.42665 0.06147 0.27209 0.99376-0.77195
  -9  -4  -1 -43.598 61.2417   7-0.32033-0.37722 0.03895-0.37300-0.98865 0.76627
  -6   7   3 -104.20 77.1380   6-0.35942-0.03933 0.61367-0.03029-0.75626 0.97548
  -6   7   3 347.249 123.822   1 0.16989-0.56760 0.12276 0.46077 0.99237-0.77321
;
_shelx_hkl_checksum              64579
loop_
_space_group_symop_operation_xyz
'x, y, z'
'-x+1/2, y+1/2, -z'
'-x, -y, -z'
'x-1/2, -y-1/2, z'
loop_
_atom_site_label
_atom_site_type_symbol
_atom_site_fract_x
_atom_site_fract_y
_atom_site_fract_z
_atom_site_U_iso_or_equiv
_atom_site_adp_type
_atom_site_occupancy
_atom_site_site_symmetry_order
_atom_site_calc_flag
_atom_site_refinement_flags_posn
_atom_site_refinement_flags_adp
_atom_site_refinement_flags_occupancy
_atom_site_disorder_assembly
_atom_site_disorder_group
C1 C 0.6949(8) 0.2998(8) 0.788(3) 0.031(11) Uani 1 1 d . U . . .
H1D H 0.604228 0.248044 0.786671 0.037 Uiso 1 1 calc R U . . .
H1E H 0.726733 0.342554 0.913766 0.037 Uiso 1 1 calc R U . . .
C2 C 0.8021(8) 0.1812(7) 0.744(3) 0.038(11) Uani 1 1 d . U . . .
N1 N 0.6768(6) 0.4273(6) 0.650(2) 0.027(10) Uani 1 1 d . . . . .
H1A H 0.636967 0.389951 0.537014 0.033 Uiso 1 1 calc R U . . .
H1B H 0.761346 0.468546 0.642884 0.033 Uiso 1 1 calc R U . . .
H1C H 0.621152 0.501248 0.685437 0.033 Uiso 1 1 calc R U . . .
O1 O 0.4951(8) 0.8624(6) 0.962(3) 0.058(13) Uani 1 1 d . . . . .
H1 H 0.527801 0.951027 0.983309 0.070 Uiso 0.5 1 calc D U P . .
O2 O 0.4651(5) 0.6446(5) 0.725(2) 0.035(8) Uani 1 1 d . . . . .
O3 O 0.4394(6) 0.9242(6) 0.611(2) 0.045(10) Uani 1 1 d . . . . .
H3 H 0.498702 0.967298 0.558708 0.054 Uiso 0.5 1 calc D U P . .
O4 O 0.8624(6) 0.1964(5) 0.609(2) 0.032(9) Uani 1 1 d . . . . .
O5 O 0.8162(5) 0.0627(5) 0.8601(19) 0.036(9) Uani 1 1 d . . . . .
H5 H 0.875847 0.001758 0.832764 0.043 Uiso 1 1 calc . U . . .
P1 P 0.5131(2) 0.8110(2) 0.7590(9) 0.017(4) Uani 1 1 d . . . . .
H1P H 0.614958 0.814264 0.754568 0.020 Uiso 1 1 calc R U . . .
loop_
_atom_site_aniso_label
_atom_site_aniso_U_11
_atom_site_aniso_U_22
_atom_site_aniso_U_33
_atom_site_aniso_U_23
_atom_site_aniso_U_13
_atom_site_aniso_U_12
C1 0.027(4) 0.027(4) 0.04(4) 0.006(7) 0.004(9) 0.005(3)
C2 0.021(4) 0.015(3) 0.08(3) 0.003(6) 0.010(9) -0.003(3)
N1 0.020(3) 0.018(3) 0.04(3) 0.001(5) 0.000(8) 0.004(2)
O1 0.075(5) 0.023(3) 0.09(4) -0.009(7) 0.042(11) 0.000(3)
O2 0.029(3) 0.019(2) 0.06(3) -0.009(4) 0.008(6) -0.0067(18)
O3 0.030(3) 0.031(3) 0.08(3) 0.014(6) 0.016(8) 0.010(2)
O4 0.033(3) 0.025(2) 0.04(3) 0.002(5) 0.017(8) 0.003(2)
O5 0.039(3) 0.022(2) 0.05(3) 0.008(5) 0.014(7) 0.009(2)
P1 0.0217(10) 0.0149(10) 0.013(13) -0.0009(18) 0.000(3) -0.0022(7)
loop_
_atom_type_symbol
_atom_type_description
_atom_type_scat_dispersion_real
_atom_type_scat_dispersion_imag
_atom_type_scat_source
C C 0.0033 0.0016 'International Tables Vol C Tables 4.2.6.8 and 6.1.1.4'
H H 0.0000 0.0000 'International Tables Vol C Tables 4.2.6.8 and 6.1.1.4'
N N 0.0061 0.0033 'International Tables Vol C Tables 4.2.6.8 and 6.1.1.4'
O O 0.0106 0.0060 'International Tables Vol C Tables 4.2.6.8 and 6.1.1.4'
P P 0.1023 0.0942 'International Tables Vol C Tables 4.2.6.8 and 6.1.1.4'
loop_
_geom_angle_atom_site_label_1
_geom_angle_atom_site_label_2
_geom_angle_atom_site_label_3
_geom_angle
_geom_angle_site_symmetry_1
_geom_angle_site_symmetry_3
_geom_angle_publ_flag
N1 C1 C2 110.9(13) . . ?
N1 C1 H1D 109.5 . . ?
C2 C1 H1D 109.5 . . ?
N1 C1 H1E 109.5 . . ?
C2 C1 H1E 109.5 . . ?
H1D C1 H1E 108.1 . . ?
O4 C2 O5 125.6(7) . . ?
O4 C2 C1 122.0(13) . . ?
O5 C2 C1 112.4(15) . . ?
C1 N1 H1A 109.5 . . ?
C1 N1 H1B 109.5 . . ?
H1A N1 H1B 109.5 . . ?
C1 N1 H1C 109.5 . . ?
H1A N1 H1C 109.5 . . ?
H1B N1 H1C 109.5 . . ?
P1 O1 H1 109.5 . . ?
P1 O3 H3 109.5 . . ?
C2 O5 H5 109.5 . . ?
O2 P1 O3 113.4(7) . . ?
O2 P1 O1 109.7(7) . . ?
O3 P1 O1 111.3(5) . . ?
O2 P1 H1P 107.4 . . ?
O3 P1 H1P 107.4 . . ?
O1 P1 H1P 107.4 . . ?
loop_
_geom_bond_atom_site_label_1
_geom_bond_atom_site_label_2
_geom_bond_distance
_geom_bond_site_symmetry_2
_geom_bond_publ_flag
C1 N1 1.459(16) . ?
C1 C2 1.509(12) . ?
C1 H1D 0.9700 . ?
C1 H1E 0.9700 . ?
C2 O4 1.22(2) . ?
C2 O5 1.298(17) . ?
N1 H1A 0.8900 . ?
N1 H1B 0.8900 . ?
N1 H1C 0.8900 . ?
O1 P1 1.56(2) . ?
O1 H1 0.8200 . ?
O2 P1 1.493(5) . ?
O3 P1 1.511(11) . ?
O3 H3 0.8200 . ?
O5 H5 0.8200 . ?
P1 H1P 0.9800 . ?
loop_
_geom_hbond_atom_site_label_D
_geom_hbond_atom_site_label_H
_geom_hbond_atom_site_label_A
_geom_hbond_distance_DH
_geom_hbond_distance_HA
_geom_hbond_distance_DA
_geom_hbond_angle_DHA
_geom_hbond_site_symmetry_A
_geom_hbond_publ_flag
N1 H1A O2 0.89 1.98 2.85(2) 167.4 3_666 yes
N1 H1B O3 0.89 1.98 2.866(7) 174.5 4_675 yes
N1 H1C O2 0.89 1.99 2.861(7) 167.9 . yes
O1 H1 O1 0.82 1.66 2.402(13) 149.5 3_677 yes
O3 H3 O3 0.82 1.72 2.491(19) 156.9 3_676 yes
O5 H5 O2 0.82 1.76 2.564(9) 164.3 4_665 yes
loop_
_geom_torsion_atom_site_label_1
_geom_torsion_atom_site_label_2
_geom_torsion_atom_site_label_3
_geom_torsion_atom_site_label_4
_geom_torsion
_geom_torsion_site_symmetry_1
_geom_torsion_site_symmetry_2
_geom_torsion_site_symmetry_3
_geom_torsion_site_symmetry_4
_geom_torsion_publ_flag
N1 C1 C2 O4 0.1(19) . . . . ?
N1 C1 C2 O5 -177.3(10) . . . . ?

_cod_database_fobs_code 2109032
