#------------------------------------------------------------------------------
#$Date: 2022-09-02 04:49:51 +0300 (Fri, 02 Sep 2022) $
#$Revision: 277573 $
#$URL: file:///home/coder/svn-repositories/cod/cif/2/10/90/2109028.cif $
#------------------------------------------------------------------------------
#
# This file is available in the Crystallography Open Database (COD),
# http://www.crystallography.net/. The original data for this entry
# were provided by IUCr Journals, http://journals.iucr.org/.
#
# The file may be used within the scientific community so long as
# proper attribution is given to the journal article from which the
# data were obtained.
#
data_2109028
loop_
_publ_author_name
'Bogdanov, Nikita E.'
'Korabel'nikov, Dmitry V.'
'Fedorov, Igor A.'
'Zakharov, Boris A.'
'Boldyreva, Elena V.'
_publ_section_title
;
 The effect of hydrostatic compression on the crystal structure of
 glycinium phosphite
;
_journal_issue                   5
_journal_name_full               'Acta Crystallographica Section B'
_journal_page_first
;
;
_journal_paper_doi               10.1107/S2052520622008289
_journal_volume                  78
_journal_year                    2022
_chemical_formula_moiety         'C2 H6 N O2, H2 O3 P'
_chemical_formula_sum            'C2 H8 N O5 P'
_chemical_formula_weight         157.06
_space_group_crystal_system      monoclinic
_space_group_IT_number           14
_space_group_name_Hall           '-P 2yab'
_space_group_name_H-M_alt        'P 1 21/a 1'
_atom_sites_solution_hydrogens   geom
_atom_sites_solution_primary     direct
_atom_sites_solution_secondary   difmap
_audit_creation_method           SHELXL-2018/3
_cell_angle_alpha                90
_cell_angle_beta                 100.44(3)
_cell_angle_gamma                90
_cell_formula_units_Z            4
_cell_length_a                   9.7823(9)
_cell_length_b                   8.4929(5)
_cell_length_c                   7.412(7)
_cell_measurement_pressure       10000
_cell_measurement_reflns_used    876
_cell_measurement_temperature    298(2)
_cell_measurement_theta_max      27.1150
_cell_measurement_theta_min      3.1880
_cell_volume                     605.6(6)
_computing_cell_refinement       'CrysAlisPro 1.171.40.53 (Rigaku OD, 2019)'
_computing_data_collection       'CrysAlisPro 1.171.40.53 (Rigaku OD, 2019)'
_computing_data_reduction        'CrysAlisPro 1.171.40.53 (Rigaku OD, 2019)'
_computing_structure_refinement  'SHELXL-2018/3 (Sheldrick, 2018)'
_diffrn_ambient_pressure         10000
_diffrn_ambient_temperature      298(2)
_diffrn_detector                 'CCD plate'
_diffrn_detector_area_resol_mean 10.3457
_diffrn_detector_type            Ruby
_diffrn_measured_fraction_theta_full 0.362
_diffrn_measured_fraction_theta_max 0.322
_diffrn_measurement_device       'four-circle diffractometer'
_diffrn_measurement_device_type  'Xcalibur, Ruby, Gemini ultra'
_diffrn_radiation_monochromator  graphite
_diffrn_radiation_probe          x-ray
_diffrn_radiation_type           'Mo K\a'
_diffrn_radiation_wavelength     0.71073
_diffrn_reflns_av_R_equivalents  0.1105
_diffrn_reflns_av_unetI/netI     0.0721
_diffrn_reflns_Laue_measured_fraction_full 0.362
_diffrn_reflns_Laue_measured_fraction_max 0.322
_diffrn_reflns_limit_h_max       12
_diffrn_reflns_limit_h_min       -12
_diffrn_reflns_limit_k_max       11
_diffrn_reflns_limit_k_min       -11
_diffrn_reflns_limit_l_max       3
_diffrn_reflns_limit_l_min       -3
_diffrn_reflns_number            3001
_diffrn_reflns_point_group_measured_fraction_full 0.362
_diffrn_reflns_point_group_measured_fraction_max 0.322
_diffrn_reflns_theta_full        25.242
_diffrn_reflns_theta_max         28.040
_diffrn_reflns_theta_min         3.200
_diffrn_source                   'fine-focus sealed X-ray tube'
_diffrn_source_type              'Enhance (Mo) X-ray Source'
_exptl_absorpt_coefficient_mu    0.410
_exptl_absorpt_correction_T_max  1.00000
_exptl_absorpt_correction_T_min  0.19017
_exptl_absorpt_correction_type   multi-scan
_exptl_absorpt_process_details
;
CrysAlisPro 1.171.40.53 (Rigaku Oxford Diffraction, 2019)
Empirical absorption correction using spherical harmonics,
 implemented in SCALE3 ABSPACK scaling algorithm.
;
_exptl_crystal_colour            white
_exptl_crystal_density_diffrn    1.723
_exptl_crystal_description       plates
_exptl_crystal_F_000             328
_exptl_crystal_size_max          0.21
_exptl_crystal_size_mid          0.10
_exptl_crystal_size_min          0.05
_refine_diff_density_max         0.400
_refine_diff_density_min         -0.282
_refine_diff_density_rms         0.067
_refine_ls_extinction_method     none
_refine_ls_goodness_of_fit_ref   1.059
_refine_ls_hydrogen_treatment    constr
_refine_ls_matrix_type           full
_refine_ls_number_parameters     83
_refine_ls_number_reflns         470
_refine_ls_number_restraints     44
_refine_ls_restrained_S_all      1.081
_refine_ls_R_factor_all          0.0980
_refine_ls_R_factor_gt           0.0576
_refine_ls_shift/su_max          0.000
_refine_ls_shift/su_mean         0.000
_refine_ls_structure_factor_coef Fsqd
_refine_ls_weighting_details
'w=1/[\s^2^(Fo^2^)+(0.0869P)^2^] where P=(Fo^2^+2Fc^2^)/3'
_refine_ls_weighting_scheme      calc
_refine_ls_wR_factor_gt          0.1321
_refine_ls_wR_factor_ref         0.1526
_reflns_Friedel_coverage         0.000
_reflns_number_gt                318
_reflns_number_total             470
_reflns_threshold_expression     'I > 2\s(I)'
_cod_data_source_file            xk5096sup1.cif
_cod_data_source_block           0.10
_cod_original_cell_volume        605.6(5)
_cod_original_sg_symbol_H-M      'P 21/a'
_cod_database_code               2109028
_shelx_shelxl_version_number     2018/3
_shelx_space_group_comment
;
The symmetry employed for this shelxl refinement is uniquely defined
by the following loop, which should always be used as a source of
symmetry information in preference to the above space-group names.
They are only intended as comments.
;
_oxdiff_exptl_absorpt_empirical_full_min 0.761
_oxdiff_exptl_absorpt_empirical_full_max 4.225
_oxdiff_exptl_absorpt_empirical_details
;
Empirical correction (ABSPACK) includes:
- Absorption correction using spherical harmonics
- Frame scaling
;
_shelx_res_file
;
TITL GPI_0 in P2(1)/c
    0.10.res
    created by SHELXL-2018/3 at 13:14:08 on 15-Aug-2022
REM  transformed to space group : P21/a:b3
REM P2(1)/c (#14 in standard setting)
CELL   0.71073  9.7823  8.4929  7.4124   90.000  100.444   90.000
ZERR   4        0.0009  0.0005  0.0066    0.000    0.030    0.000
LATT    1
SYMM   1/2-X,1/2+Y,-Z
SFAC C H N O P
UNIT 8 32 4 20 4
LIST 4 ! automatically inserted. Change 6 to 4 for CHECKCIF!!
TEMP 25
PLAN 30
FMAP 2
L.S. 20
BOND
BOND $H
CONF
ACTA
EQIV $1 1-X, 1-Y,1-Z
EQIV $2 1/2+X, 3/2-Y,Z
EQIV $3 1-X, 2-Y, 2-Z
EQIV $4 1-X, 2-Y, 1-Z
EQIV $5 1/2+X, 1/2-Y, Z
HTAB N1 O2_$1
HTAB N1 O3_$2
HTAB N1 O2
HTAB O1 O1_$3
HTAB O3 O3_$4
HTAB O5 O2_$5
DFIX 1.66 0.04 H1 O1_$3
DFIX 1.70 0.04 H3 O3_$4
SIMU 0.005
REM  DELU 0.005
WGHT    0.086900
FVAR       2.47492
C1    1    0.698258    0.301886    0.779037    11.00000    0.03059    0.02056 =
         0.04119    0.00088    0.01524    0.00392
AFIX  23
H1D   2    0.610438    0.249080    0.779781    11.00000   -1.20000
H1E   2    0.729628    0.346493    0.899922    11.00000   -1.20000
AFIX   0
C2    1    0.803156    0.183660    0.739293    11.00000    0.02470    0.01642 =
         0.04109   -0.00437    0.01644   -0.00306
N1    3    0.677304    0.427335    0.644848    11.00000    0.02587    0.01802 =
         0.03776    0.00457    0.00596    0.00107
AFIX 137
H1A   2    0.635641    0.389091    0.537041    11.00000   -1.20000
H1B   2    0.759128    0.468301    0.633827    11.00000   -1.20000
H1C   2    0.624252    0.501796    0.681117    11.00000   -1.20000
AFIX   0
O1    4    0.483755    0.862916    0.949785    11.00000    0.08597    0.02754 =
         0.02621   -0.01099    0.03762   -0.01133
AFIX 141
H1    2    0.505457    0.955579    0.968111    10.50000   -1.20000
AFIX   0
O2    4    0.467315    0.643268    0.715303    11.00000    0.03477    0.01570 =
         0.01508   -0.00479    0.00759   -0.00285
O3    4    0.436682    0.924246    0.608077    11.00000    0.03772    0.03182 =
         0.01588    0.00720    0.01967    0.00825
AFIX  81
H3    2    0.493623    0.959297    0.549839    10.50000   -1.20000
AFIX   0
O4    4    0.862697    0.198516    0.613031    11.00000    0.03902    0.02424 =
         0.03687   -0.00214    0.02262    0.00575
O5    4    0.818797    0.063141    0.855078    11.00000    0.04281    0.02731 =
         0.04814    0.00992    0.02260    0.00816
AFIX 141
H5    2    0.863561   -0.006500    0.815827    11.00000   -1.20000
AFIX   0
P1    5    0.508308    0.813074    0.754153    11.00000    0.02749    0.01399 =
         0.02677   -0.00232    0.01209   -0.00321
AFIX  13
H1P   2    0.608378    0.820829    0.755006    11.00000   -1.20000
AFIX   0
HKLF 4




REM  GPI_0 in P2(1)/c
REM wR2 = 0.1526, GooF = S = 1.059, Restrained GooF = 1.081 for all data
REM R1 = 0.0576 for 318 Fo > 4sig(Fo) and 0.0980 for all 470 data
REM 83 parameters refined using 44 restraints

END

WGHT      0.0897      0.0000

REM Highest difference peak  0.400,  deepest hole -0.282,  1-sigma level  0.067
Q1    1   0.6836  0.8251  0.7345  11.00000  0.05    0.40
Q2    1   0.7391  0.1795  0.7518  11.00000  0.05    0.22
Q3    1   0.4060  0.9909  0.6123  11.00000  0.05    0.21
Q4    1   0.5016  0.3312  0.7520  11.00000  0.05    0.20
Q5    1   0.7574  0.3179  0.7445  11.00000  0.05    0.20
Q6    1   0.9653  0.0282  0.9304  11.00000  0.05    0.20
Q7    1   0.9841  0.1673  0.6948  11.00000  0.05    0.19
Q8    1   0.9756  0.0411  0.9809  11.00000  0.05    0.19
Q9    1   0.3230  0.8236  0.7642  11.00000  0.05    0.19
Q10   1   0.3485  0.9024  0.9528  11.00000  0.05    0.18
Q11   1   0.7981  0.1511  0.8409  11.00000  0.05    0.18
Q12   1   0.4050  0.9006  0.5086  11.00000  0.05    0.17
Q13   1   0.9378  0.1469  0.8830  11.00000  0.05    0.16
Q14   1   0.9428 -0.0003  0.8642  11.00000  0.05    0.16
Q15   1   0.5058  0.9201  0.7403  11.00000  0.05    0.16
Q16   1   0.6671  0.8719  0.8950  11.00000  0.05    0.16
Q17   1   0.7028  0.2353  0.5647  11.00000  0.05    0.16
Q18   1   0.4245  0.6573  0.6628  11.00000  0.05    0.16
Q19   1   0.5345  0.8607  0.9950  11.00000  0.05    0.16
Q20   1   0.5849  0.1909  0.9268  11.00000  0.05    0.15
Q21   1   0.6848  0.1941  0.8288  11.00000  0.05    0.15
Q22   1   0.4194  0.7317  0.8787  11.00000  0.05    0.15
Q23   1   0.5000  1.0000  0.5000  10.50000  0.05    0.15
Q24   1   0.8980  0.1230  0.9981  11.00000  0.05    0.15
Q25   1   0.8469  0.2566  0.4415  11.00000  0.05    0.14
Q26   1   0.7848  0.3224  0.4996  11.00000  0.05    0.14
Q27   1   0.7812  0.2524  0.5646  11.00000  0.05    0.14
Q28   1   0.7786  0.3427  0.5660  11.00000  0.05    0.13
Q29   1   0.4163  0.8477  0.7049  11.00000  0.05    0.13
Q30   1   0.3554  0.7777  0.9485  11.00000  0.05    0.13
;
_shelx_res_checksum              64003
_shelx_hkl_file
;
   1   0   0 7.90290 11.8825   8 0.03545 0.03816 0.03754-0.03755 0.98867-0.97530
  -1   0   0 8.88751 7.73354   7-0.03579-0.03798-0.01990 0.01989-0.98923 0.97585
  -2   0   0 16545.2 450.623   7-0.07266-0.07486-0.01160 0.01158-0.99404 0.96729
   2   0   0 16493.6 431.150   8 0.07227 0.07495 0.02196-0.02200 0.99382-0.96708
  -3   0   0 -19.664 14.4416   7-0.10952-0.11173-0.00328 0.00325-0.99743 0.95730
   3   0   0 -22.600 23.0281   8 0.10908 0.11172 0.00630-0.00635 0.99739-0.95729
  -3   0   0 4.26792 14.3326   4-0.11049-0.11044-0.16255 0.16215-0.98427 0.94451
   3   0   0 4.83879 7.89231   9 0.11025 0.11016-0.22266 0.22228 0.97276-0.93312
  -3   0   0 16.4142 7.20028   6-0.11019-0.11094-0.19740 0.19746-0.97792 0.93795
   4   0   0 10290.9 482.816   8 0.14588 0.14849-0.00945 0.00936 0.99935-0.94590
  -4   0   0 10400.9 293.686   6-0.14702-0.14774-0.08663 0.08678-0.99565 0.94239
  -4   0   0 9804.71 497.990   7-0.14637-0.14861 0.00509-0.00513-0.99940 0.94589
  -5   0   0 33.2656 25.4422   4-0.18426-0.18408 0.07304-0.07352-0.99736 0.93095
   5   0   0 -9.3522 32.1442   8 0.18269 0.18523-0.02528 0.02516 0.99969-0.93289
  -5   0   0 117.422 76.6909   7-0.18320-0.18549 0.01350-0.01356-0.99991 0.93302
  -5   0   0 1.86830 18.2023   6-0.18389-0.18445 0.03226-0.03201-0.99949 0.93299
  -6   0   0 20641.3 468.921   6-0.22069-0.22119 0.16077-0.16042-0.98611 0.90639
   6   0   0 19273.3 813.140   8 0.21950 0.22196-0.04121 0.04105 0.99836-0.91823
  -6   0   0 18834.7 859.098   7-0.22024-0.22218 0.02199-0.02208-0.99894 0.91874
   6   0   0 19698.4 708.693   2 0.22073 0.22052 0.05860-0.05832 0.99739-0.91789
  -7   0   0 111.196 105.456   7-0.25712-0.25900 0.03050-0.03060-0.99644 0.90289
   7   0   0 60.1341 73.4461   2 0.25751 0.25725 0.09896-0.09860 0.99182-0.89912
  -7   0   0 -30.845 69.1903   3-0.25790-0.25808-0.08417 0.08432-0.99318 0.90009
   7   0   0 -126.59 119.686   8 0.25634 0.25865-0.05723 0.05702 0.99532-0.90188
  -8   0   0 77.7241 91.4783   3-0.29471-0.29494-0.11307 0.11326-0.98640 0.88000
   8   0   0 -75.167 58.4757   2 0.29430 0.29397 0.13992-0.13945 0.98291-0.87702
   8   0   0 47.3159 91.9282   8 0.29377 0.29484-0.07360 0.07338 0.99042-0.88399
  -8   0   0 -12.266 94.6491   7-0.29489-0.29509 0.03926-0.03941-0.99227 0.88583
  -9   0   0 131.426 153.682   7-0.33143-0.33223 0.04776-0.04795-0.98661 0.86667
  -9   0   0 -4.3252 84.1344   3-0.33152-0.33180-0.14225 0.14248-0.97708 0.85735
   9   0   0 -66.110 154.387   8 0.33049 0.33162-0.08977 0.08948 0.98376-0.86403
   9   0   0 174.644 117.999   2 0.33108 0.33068 0.18150-0.18094 0.97041-0.85135
 -10   0   0 2124.59 389.157   3-0.36830-0.36864-0.17174 0.17203-0.96505 0.83200
  10   0   0 1393.84 342.212   8 0.36811 0.36774-0.10643 0.10617 0.97495-0.84247
 -10   0   0 1421.36 345.114   7-0.36825-0.36912 0.05640-0.05662-0.97923 0.84593
  11   0   0 65.1290 94.7879   8 0.40511 0.40437-0.12293 0.12263 0.96422-0.81865
  11   0   0 -184.05 175.206   5 0.40485 0.40445 0.13572-0.13568 0.96236-0.81663
 -11   0   0 107.644 131.314   7-0.40501-0.40605 0.06507-0.06532-0.97010 0.82340
  12   0   0 3.75786 133.299   5 0.44170 0.44122 0.15550-0.15545 0.94866-0.78972
 -12   0   0 380.818 220.286   7-0.44179-0.44297 0.07379-0.07409-0.95911 0.79900
  12   0   0 -73.792 193.339   8 0.44202 0.44106-0.13950 0.13920 0.95133-0.79264
   0   1   0 2.12870 4.42240   2 0.20517-0.20517 0.04171 0.04172 0.99878-0.99882
   0   1   0 10.6604 12.1716   4-0.17504 0.17514 0.04174 0.04174-0.99914 0.99909
   0   1   0 4.68665 8.28858   6-0.18673 0.18673 0.04181 0.04166-0.99912 0.99909
   0  -1   0 1.53183 7.76088   9 0.18755-0.18746-0.04106-0.04237 0.99915-0.99905
   0  -1   0 8.54369 9.14527   1 0.14970-0.14964-0.04169-0.04169 0.99867-0.99863
   1  -1   0 818.636 83.3627   6-0.11694 0.19069-0.17761 0.09407-0.98211 0.99545
   1   1   0 860.619 65.2007   6-0.25693 0.33059 0.30053-0.21721-0.94994 0.96310
  -1   1   0 888.680 78.7010   1 0.12119-0.19486 0.18122-0.09779 0.98171-0.99503
  -1   1   0 938.181 90.5260   8-0.01823-0.05541 0.06012 0.02332 0.97835-0.99184
  -1  -1   0 811.183 80.5784   9 0.12646-0.19997-0.18611 0.10270 0.98128-0.99454
   1  -1   0 815.230 80.3084   1 0.13905-0.06537 0.04851-0.13195 0.99793-0.98461
   1   1   0 738.690 64.7302   1 0.15169-0.07813-0.05977 0.14313 0.99783-0.98461
  -1  -1   0 830.953 61.5265   7-0.06888-0.00488-0.01246-0.07107-0.99361 0.98027
  -1   1   0 779.454 81.7339   6-0.15477 0.08102-0.06234 0.14587-0.99770 0.98436
  -1  -1   0 870.053 63.9744   6-0.20591 0.13226 0.10780-0.19114-0.99385 0.98061
  -1   1   0 894.550 81.9635   7-0.09151 0.01778-0.00735 0.09089-0.99595 0.98255
   1  -1   0 851.885 84.5020   8 0.09554-0.02189 0.01207-0.09551 0.99626-0.98278
   2  -1   0 195.457 57.2272   8 0.10100 0.04626 0.00974-0.09319 0.99674-0.96989
   2  -1   0 275.112 59.7281   4-0.06661 0.21388-0.28916 0.20606-0.95118 0.97769
  -2   1   0 248.500 51.2089   6-0.14674-0.00073-0.08750 0.17105-0.99556 0.96890
  -2  -1   0 193.420 49.1686   9 0.07387-0.22102-0.30197 0.21869 0.94835-0.97482
  -2  -1   0 231.084 48.9345   7-0.09218-0.05531-0.00720-0.07633-0.99602 0.96930
   2   1   0 251.454 47.5971   8 0.08754 0.05964 0.01547 0.06787 0.99549-0.96887
   2   1   0 190.256 33.3985   1 0.15642-0.00923-0.10459 0.18791 0.99430-0.96781
  -2   1   0 225.816 53.8244   7-0.09949-0.04801-0.00555 0.08909-0.99665 0.96986
   2  -1   0 234.753 48.7766   1 0.13644 0.01084 0.06914-0.15263 0.99660-0.97000
   3   1   0 39419.6 753.193   8 0.12534 0.09543-0.00065 0.08394 0.99845-0.95848
  -3  -1   0 37796.1 800.792   7-0.12536-0.09586 0.00031-0.08387-0.99846 0.95836
   3  -1   0 40179.1 588.096   1 0.14040 0.08050 0.03756-0.12110 0.99846-0.95858
  -3   1   0 38742.5 890.041   7-0.12520-0.09605 0.00028 0.08325-0.99845 0.95828
   3  -1   0 37807.3 872.625   8 0.12447 0.09639-0.00027-0.08318 0.99840-0.95819
  -3   1   0 38334.0 707.604   6-0.15242-0.06873-0.06973 0.15332-0.99714 0.95716
   4  -1   0 3676.89 302.955   8 0.15387 0.14057-0.01287-0.07059 0.99956-0.94599
  -4  -1   0 3366.17 275.929   7-0.16050-0.13442 0.00831-0.09187-0.99977 0.94630
  -4   1   0 3219.98 297.824   7-0.15612-0.13886 0.00731 0.07619-0.99968 0.94612
   4   1   0 3319.91 258.688   8 0.16259 0.13174-0.01663 0.09986 0.99971-0.94638
  -4   1   0 3358.12 224.927   6-0.16625-0.12856-0.02572 0.10933-0.99956 0.94627
  -5  -1   0 1274.19 201.390   7-0.19658-0.17206 0.01656-0.10015-0.99973 0.93296
   5  -1   0 1295.90 204.579   8 0.18595 0.18204-0.02669-0.05679 0.99964-0.93271
  -5   1   0 1265.98 147.944   6-0.18518-0.18324 0.03659 0.04708-0.99934 0.93279
  -5   1   0 1175.10 195.527   7-0.18930-0.17941 0.01489 0.06860-0.99985 0.93292
  -5  -1   0 1096.49 210.383   9-0.06388-0.30427-0.57054 0.48796 0.79414-0.85981
   5   1   0 1080.15 172.106   8 0.19968 0.16820-0.03262 0.11580 0.99929-0.93262
   5  -1   0 1166.93 133.167   2 0.20203 0.16564 0.03831-0.12143 0.99900-0.93272
   6   1   0 1642.13 239.292   8 0.23668 0.20472-0.04867 0.13179 0.99716-0.91717
  -6   1   0 1956.59 234.310   3-0.24260-0.19963-0.07224 0.15584-0.99528 0.91548
  -6  -1   0 1934.63 267.421   7-0.23280-0.20954 0.02489-0.10848-0.99826 0.91812
   6  -1   0 1903.98 264.624   8 0.21948 0.22205-0.04120-0.04230 0.99836-0.91810
   6   1   0 1464.00 229.223   2 0.21812 0.22322 0.05575 0.02786 0.99766-0.91817
  -6   1   0 1544.05 259.729   7-0.22383-0.21863 0.02282 0.06065-0.99876 0.91851
   6  -1   0 1625.25 184.721   2 0.24457 0.19664 0.08469-0.16770 0.99415-0.91466
  -7   1   0 181.541 148.719   7-0.25890-0.25728 0.03091 0.05255-0.99628 0.90268
   7   1   0 143.458 90.9229   8 0.27400 0.24096-0.06495 0.14802 0.99324-0.90010
   7  -1   0 29.8969 83.8931   8 0.25393 0.26115-0.05618-0.02735 0.99558-0.90200
  -7  -1   0 93.7080 51.4778   3-0.25179-0.26424-0.07940-0.00397-0.99407 0.90101
  -7  -1   0 185.153 127.095   7-0.26923-0.24681 0.03330-0.11692-0.99528 0.90178
   7  -1   0 210.155 73.6143   2 0.28524 0.22948 0.12978-0.21268 0.98543-0.89275
   7   1   0 51.8050 77.5303   2 0.24968 0.26514 0.09032-0.00664 0.99328-0.90058
  -7   1   0 103.774 44.2708   6-0.23184-0.28375 0.20215-0.11838-0.97782 0.88488
   8  -1   0 155.715 95.0834   8 0.28952 0.29919-0.07174-0.01182 0.99107-0.88454
  -8  -1   0 181.241 110.860   3-0.28562-0.30411-0.10590 0.02257-0.98831 0.88192
  -8   1   0 -6.9002 101.380   7-0.29524-0.29481 0.03934 0.04412-0.99222 0.88572
   8  -1   0 128.605 74.0468   2 0.32489 0.26333 0.17446-0.25723 0.97278-0.86693
  -8  -1   0 248.468 150.031   7-0.30686-0.28305 0.04203-0.12576-0.99059 0.88428
  -8   1   0 269.440 132.261   3-0.31938-0.27015-0.13259 0.21625-0.98044 0.87403
   8   1   0 125.694 105.618   2 0.28232 0.30601 0.12651-0.04277 0.98620-0.88029
   8   1   0 -2.7240 101.866   8 0.31119 0.27734-0.08126 0.16429 0.98750-0.88119
  -9   1   0 835.165 222.931   3-0.35724-0.30594-0.16283 0.24654-0.96896 0.84922
  -9  -1   0 338.822 171.260   7-0.34294-0.32058 0.05046-0.13419-0.98448 0.86457
   9   1   0 824.842 242.649   8 0.34788 0.31411-0.09746 0.18041 0.97995-0.86027
   9  -1   0 664.332 218.129   8 0.32479 0.33745-0.08725 0.00366 0.98492-0.86508
   9   1   0 666.328 207.052   2 0.31572 0.34611 0.16404-0.08022 0.97609-0.85700
  -9   1   0 654.685 267.085   7-0.33070-0.33305 0.04759 0.03582-0.98674 0.86673
  -9  -1   0 544.139 177.132   3-0.32001-0.34339-0.13309 0.04981-0.98028 0.86057
 -10   1   0 494.532 259.037   7-0.36662-0.37084 0.05602 0.02736-0.97959 0.84621
  10   1   0 595.522 231.814   8 0.38599 0.34982-0.11439 0.19743 0.97003-0.83780
  10  -1   0 499.408 213.401   8 0.36096 0.37497-0.10326 0.01965 0.97679-0.84405
 -10  -1   0 461.599 194.702   3-0.35480-0.38226-0.16087 0.07766-0.96979 0.83674
 -10  -1   0 818.493 265.377   7-0.37958-0.35763 0.05907-0.14283-0.97661 0.84335
  10   1   0 266.128 182.197   2 0.34965 0.38565 0.20276-0.11883 0.96263-0.83038
  11   1   0 22.2689 118.456   5 0.39566 0.41355 0.13081-0.04738 0.96541-0.81976
 -11   1   0 -255.68 291.796   7-0.40266-0.40851 0.06451 0.01883-0.97074 0.82394
 -11  -1   0 53.9914 125.364   3-0.38991-0.42081-0.18920 0.10604-0.95664 0.81024
  11   1   0 104.588 143.373   8 0.42298 0.38642-0.13093 0.21396 0.95826-0.81290
 -11  -1   0 97.3510 152.108   7-0.41627-0.39465 0.06774-0.15154-0.96694 0.82032
  11  -1   0 39.8680 110.317   5 0.42426 0.38517 0.14612-0.22951 0.95545-0.80964
  12   1   0 280.310 205.831   8 0.45984 0.42311-0.14755 0.23053 0.94429-0.78574
  12  -1   0 96.8638 126.227   8 0.43321 0.45002-0.13554 0.05189 0.95461-0.79580
 -12   1   0 -139.22 218.579   7-0.43882-0.44605 0.07309 0.01022-0.96007 0.79986
  12   1   0 259.087 180.069   5 0.43145 0.45137 0.14999-0.06653 0.95272-0.79386
 -12  -1   0 131.297 202.399   3-0.42523-0.45912-0.21802 0.13494-0.94059 0.78083
 -12  -1   0 -140.74 254.937   7-0.45294-0.43167 0.07645-0.16030-0.95540 0.79538
   0   2   0 9000.92 285.019   2 0.24340-0.24340 0.08341 0.08344 0.99434-0.99442
   0   2   0 8825.02 329.213   6-0.19891 0.19889 0.08338 0.08353-0.99637 0.99627
   0  -2   0 8897.68 326.200   9 0.17042-0.17023-0.08300-0.08386 0.99655-0.99639
   0  -2   0 9034.36 255.230   3-0.25699 0.25713-0.08346-0.08350-0.99332 0.99339
   0  -2   0 9202.17 216.044   8 0.31619-0.31635-0.08347-0.08340 0.98658-0.98648
  -1   2   0 987.881 78.2994   2 0.41968-0.49339 0.28469-0.11796 0.92327-0.93655
  -1  -2   0 834.032 96.9406   4-0.15244 0.07851-0.03254-0.13450-0.99906 0.98583
   1   2   0 782.591 92.6293   6-0.23176 0.30545 0.20185-0.03508-0.97789 0.99106
   1  -2   0 828.696 90.3787   9 0.19957-0.12585-0.01104-0.15570 0.99975-0.98631
   1  -2   0 937.422 101.136   8 0.17402-0.10039-0.02154-0.14534 0.99976-0.98617
  -1   2   0 856.886 85.0687   7-0.19070 0.11709 0.01521 0.15185-0.99984 0.98639
  -1   2   0 856.043 113.255   6-0.18034 0.10659 0.02044 0.14656-0.99980 0.98647
   1   2   0 826.210 99.4043   1 0.14040-0.06690 0.03762 0.12913 0.99846-0.98528
  -2  -2   0 3580.12 177.546   7-0.18205 0.03459 0.01323-0.18017-0.99992 0.97325
   2  -2   0 3644.04 245.994   8 0.15220-0.00492-0.01216-0.15473 0.99953-0.97256
  -2   2   0 3643.80 250.566   6-0.17291 0.02542-0.00406 0.17111-0.99996 0.97328
  -2   2   0 3824.29 240.365   7-0.15843 0.01103 0.00784 0.15926-0.99973 0.97291
   2   2   0 3764.80 211.666   1 0.14221 0.00491 0.02274 0.14397 0.99899-0.97254
   2   2   0 3973.12 145.721   8 0.20917-0.06193-0.03673 0.20334 0.99891-0.97240
   2   2   0 3953.04 208.596   6-0.27874 0.42608 0.39395-0.22735-0.91195 0.93823
  -2   2   0 3672.71 235.013   1 0.11138-0.25871 0.24678-0.07992 0.96683-0.99347
   3  -2   0 711.042 124.252   4-0.05966 0.28055-0.30840 0.14200-0.94443 0.98423
  -3  -2   0 658.097 102.219   7-0.18252-0.03864 0.01334-0.18031-0.99992 0.95987
  -3   2   0 685.155 118.638   6-0.17397-0.04722-0.00060 0.16766-0.99998 0.95998
   3   2   0 720.208 90.0189   1 0.13952 0.08123 0.04472 0.12195 0.99813-0.95841
  -3   2   0 667.914 122.172   7-0.16547-0.05571 0.00944 0.15765-0.99985 0.95964
  -3  -2   0 765.502 80.0260   6-0.17505-0.04588 0.00296-0.16959-0.99998 0.96013
   3   2   0 752.843 93.6856   8 0.19604 0.02475-0.03105 0.19760 0.99940-0.95955
  -3  -2   0 763.538 128.238   9 0.06649-0.28723-0.31760 0.15085 0.94254-0.98227
   3  -2   0 840.982 144.582   8 0.15988 0.06101-0.01546-0.15142 0.99967-0.95934
  -3  -2   0 633.645 73.9724   4-0.15468-0.06661-0.02533-0.14187-0.99933 0.95952
  -4  -2   0 2513.43 254.406   9 0.02920-0.32363-0.39448 0.22789 0.90885-0.96174
   4   2   0 2496.75 214.145   8 0.21598 0.07834-0.03968 0.20617 0.99856-0.94537
  -4  -2   0 2781.58 245.484   7-0.20407-0.09080 0.01828-0.18528-0.99955 0.94617
   4   2   0 2556.40 163.009   1 0.13080 0.16357 0.11218 0.05441 0.99243-0.93943
  -4   2   0 2553.07 236.462   6-0.18129-0.11357 0.02358 0.14352-0.99973 0.94645
   4  -2   0 2585.07 252.738   4-0.02822 0.32277-0.39283 0.22665-0.90900 0.96196
  -4   2   0 2891.61 289.807   7-0.18571-0.10925 0.01407 0.15303-0.99989 0.94630
  -4  -2   0 2610.91 126.485   6-0.14975-0.14483-0.07809-0.08858-0.99644 0.94327
   4  -2   0 2677.66 268.719   8 0.17927 0.11522-0.02381-0.14306 0.99973-0.94603
   5   2   0 594.861 111.995   8 0.24435 0.12352-0.05200 0.21842 0.99650-0.92999
   5  -2   0 464.267 130.303   8 0.20449 0.16358-0.03470-0.13217 0.99911-0.93206
  -5  -2   0 440.066 121.695   7-0.23237-0.13618 0.02479-0.19180-0.99829 0.93156
   5  -2   0 571.364 79.0074   2 0.27570 0.09199 0.11912-0.28546 0.98785-0.92160
  -5   2   0 554.434 112.683   6-0.19306-0.17542 0.06328 0.10382-0.99794 0.93128
  -5   2   0 432.621 119.837   7-0.21210-0.15661 0.02012 0.14696-0.99928 0.93235
   5  -2   0 138.078 124.696   4 0.00514 0.36307-0.47780 0.31182-0.86289 0.92895
  -5  -2   0 594.306 137.431   9-0.00887-0.35927-0.46921 0.30283 0.86721-0.93319
  -5   2   0 585.158 103.993   3-0.26144-0.10703-0.08693 0.25393-0.99264 0.92611
   5   2   0 490.757 125.601   2 0.20367 0.16421 0.04008 0.12687 0.99889-0.93266
   6   2   0 2458.75 272.705   8 0.27644 0.16498-0.06600 0.23238 0.99292-0.91320
  -6   2   0 2392.00 333.141   7-0.24170-0.20075 0.02693 0.14013-0.99767 0.91741
  -6   2   0 2565.88 244.789   3-0.29548-0.14663-0.11367 0.28068-0.98623 0.90641
   6  -2   0 2000.70 287.389   8 0.23300 0.20862-0.04707-0.11981 0.99745-0.91705
  -6  -2   0 2135.10 283.114   7-0.26381-0.17842 0.03204-0.19909-0.99582 0.91574
   6   2   0 2046.37 278.694   2 0.22742 0.21399 0.06591 0.10107 0.99661-0.91714
   6  -2   0 2595.23 192.808   2 0.31298 0.12823 0.16095-0.32718 0.97703-0.89760
  -6   2   0 2408.60 257.076   6-0.20830-0.23378 0.11622 0.05091-0.99283 0.91287
  -7   2   0 317.162 108.571   6-0.22627-0.28944 0.18132-0.01417-0.98224 0.88923
   7  -2   0 363.033 169.536   8 0.26364 0.25153-0.06042-0.10647 0.99451-0.90081
  -7   2   0 599.844 150.523   3-0.33069-0.18507-0.14159 0.30863-0.97732 0.88419
   7   2   0 309.260 125.761   8 0.31012 0.20483-0.08079 0.24710 0.98769-0.89477
   7   2   0 441.369 134.933   2 0.25386 0.26105 0.09493 0.07209 0.99252-0.89983
  -7  -2   0 399.224 139.113   3-0.25769-0.25838-0.08401-0.08291-0.99321 0.90017
  -7   2   0 305.354 122.170   7-0.27311-0.24309 0.03420 0.13285-0.99488 0.90123
  -7  -2   0 344.005 119.024   7-0.29797-0.21806 0.03997-0.20714-0.99185 0.89886
   7  -2   0 428.863 87.0172   2 0.35039 0.16434 0.20361-0.36971 0.96229-0.86970
   8   2   0 2942.28 390.250   2 0.28220 0.30622 0.12637 0.04070 0.98623-0.88032
  -8  -2   0 2779.87 379.563   7-0.33175-0.25794 0.04784-0.21504-0.98655 0.88010
   8   2   0 2844.17 362.530   8 0.34424 0.24419-0.09585 0.26205 0.98078-0.87446
  -8   2   0 3028.93 457.235   7-0.30680-0.28330 0.04202 0.12508-0.99060 0.88412
  -8  -2   0 3159.79 419.483   3-0.28784-0.30195-0.10764-0.05922-0.98786 0.88149
   8  -2   0 2872.05 399.746   8 0.29626 0.29257-0.07469-0.09224 0.99003-0.88339
  -9   2   0 658.719 215.777   7-0.33990-0.32387 0.04975 0.11729-0.98506 0.86497
   9   2   0 392.584 155.527   2 0.31193 0.34997 0.15976 0.00738 0.97739-0.85829
   9  -2   0 272.538 127.178   8 0.32911 0.33325-0.08916-0.07779 0.98405-0.86411
  -9  -2   0 445.596 215.459   7-0.36652-0.29686 0.05599-0.22322-0.97961 0.85984
  -9  -2   0 374.993 157.811   3-0.31916-0.34430-0.13242-0.03439-0.98050 0.86080
   9   2   0 516.233 181.930   8 0.38068 0.28149-0.11202 0.27835 0.97154-0.85265
 -10  -2   0 921.342 276.388   7-0.40165-0.33541 0.06428-0.23155-0.97101 0.83786
  10  -2   0 1300.97 336.529   8 0.36321 0.37284-0.10426-0.06274 0.97622-0.84335
 -10   2   0 1150.15 314.727   7-0.37398-0.36352 0.05775 0.10926-0.97792 0.84440
  10   2   0 781.734 223.295   8 0.41623 0.31950-0.12792 0.29422 0.96057-0.82854
 -10  -2   0 741.593 235.094   3-0.35137-0.38577-0.15812-0.00862-0.97093 0.83789
  10   2   0 886.634 283.444   2 0.34270 0.39269 0.19479-0.02755 0.96566-0.83338
  10  -2   0 857.090 232.789   5 0.41960 0.31636 0.14361-0.31047 0.95717-0.82451
  11   2   0 610.250 248.645   8 0.45196 0.35731-0.14399 0.31025 0.94747-0.80226
 -11   2   0 479.483 269.917   7-0.40860-0.40264 0.06592 0.10106-0.96911 0.82221
 -11  -2   0 398.504 221.130   3-0.38425-0.42657-0.18460 0.01792-0.95895 0.81254
 -11  -2   0 420.707 206.721   7-0.43712-0.37361 0.07268-0.24000-0.96061 0.81408
  11  -2   0 550.443 252.330   8 0.39769 0.41205-0.11961-0.04740 0.96654-0.82070
  11   2   0 170.852 197.290   5 0.39513 0.41402 0.13053 0.03628 0.96558-0.82002
  11   2   0 463.306 190.316   2 0.37427 0.43461 0.23123-0.06392 0.95067-0.80524
  12  -2   0 -162.47 139.687   8 0.43235 0.45104-0.13515-0.03190 0.95493-0.79599
 -12  -2   0 -26.910 186.519   7-0.47284-0.41157 0.08121-0.24856-0.94831 0.78839
  12   2   0 -130.88 188.562   5 0.42932 0.45342 0.14884 0.01800 0.95354-0.79478
 -12  -2   0 59.7573 130.253   3-0.41764-0.46683-0.21180 0.04518-0.94430 0.78453
   0   3   0 -36.773 23.0200   6-0.21075 0.21071 0.12495 0.12542-0.99169 0.99151
   0  -3   0 -10.653 16.2365   8 0.41040-0.41073-0.12530-0.12504 0.96251-0.96233
   0  -3   0 -3.5590 16.7797   9 0.15279-0.15255-0.12507-0.12519 0.99186-0.99171
   0   3   0 -3.0904 24.8018   2 0.28107-0.28108 0.12511 0.12518 0.98652-0.98663
   0  -3   0 20.6439 15.0276   3-0.31002 0.31025-0.12517-0.12525-0.98284 0.98292
   0  -3   0 -8.9513 26.1678   4-0.12288 0.12254-0.12517-0.12521-0.99045 0.99056
   1   3   0 1742.07 177.646   6-0.23235 0.30605 0.20407 0.04616-0.97739 0.99047
   1  -3   0 2470.33 144.462   3-0.50519 0.57914-0.28462 0.03443-0.89231 0.90555
  -1  -3   0 2304.98 217.725   9 0.13150-0.20481-0.17460-0.07574 0.98362-0.99676
   1   3   0 2011.75 194.075   1 0.13285-0.05942 0.09676 0.15338 0.99414-0.98101
   1  -3   0 2024.08 164.109   8 0.25952-0.18596-0.05862-0.19176 0.99498-0.98130
   1  -3   0 2105.72 184.097   9 0.16925-0.09550-0.08580-0.16434 0.99630-0.98282
  -1   3   0 2327.29 161.871   2 0.39110-0.46483 0.25089-0.00070 0.94137-0.95469
  -1  -3   0 2124.75 199.340   4-0.13193 0.05789-0.09729-0.15319-0.99405 0.98085
  -1   3   0 2032.81 144.383   7-0.31410 0.24070 0.04372 0.20681-0.98949 0.97606
   1   3   0 2080.79 193.553   2 0.22973-0.15608 0.06842 0.18191 0.99632-0.98317
  -1   3   0 1944.83 202.194   6-0.19729 0.12352 0.07780 0.17265-0.99685 0.98338
   2  -3   0 5368.83 278.353   9 0.17873-0.03155-0.06278-0.18727 0.99806-0.97131
   2   3   0 4495.98 293.922   1 0.13380 0.01326 0.08956 0.16054 0.99486-0.96846
   2   3   0 5354.74 349.651   2 0.20882-0.06156 0.04566 0.20468 0.99851-0.97209
  -2  -3   0 5496.41 193.032   7-0.39099 0.24354 0.06175-0.31195-0.97380 0.94737
   2  -3   0 5235.02 356.467   4-0.09045 0.23757-0.22151-0.02857-0.97124 0.99789
  -2  -3   0 5616.94 309.734   4-0.13440-0.01333-0.08966-0.16090-0.99488 0.96839
  -2   3   0 5323.98 297.816   7-0.24063 0.09337 0.02668 0.22395-0.99775 0.97094
   2  -3   0 5052.50 309.530   8 0.21617-0.06891-0.03976-0.21061 0.99855-0.97148
  -2   3   0 5283.17 360.182   6-0.19096 0.04345 0.05608 0.19441-0.99839 0.97163
   2   3   0 5782.85 320.478   6-0.26217 0.40956 0.32223-0.07219-0.94215 0.96840
  -3   3   0 12414.7 578.884   6-0.19047-0.03074 0.05444 0.19609-0.99849 0.95840
  -3   3   0 12472.4 541.349   7-0.22543 0.00435 0.02319 0.22749-0.99868 0.95848
   3  -3   0 13319.4 571.796   8 0.20871 0.01221-0.03653-0.21381 0.99893-0.95848
  -3  -3   0 12168.6 564.682   9 0.07852-0.29914-0.29206 0.04174 0.95186-0.99163
  -3  -3   0 12550.6 437.944   4-0.12772-0.09365-0.11030-0.14034-0.99248 0.95270
   3  -3   0 11940.2 568.710   4-0.06880 0.28962-0.28307 0.03318-0.95321 0.99309
   3   3   0 13529.7 329.651   8 0.37749-0.15654-0.11060 0.36037 0.97243-0.93292
   3   3   0 12338.3 478.214   1 0.13160 0.08910 0.10623 0.14382 0.99312-0.95344
  -3  -3   0 12415.8 408.020   7-0.29747 0.07637 0.03986-0.29020-0.99192 0.95220
   3  -3   0 12598.0 391.987   9 0.17779 0.04272-0.06507-0.18492 0.99791-0.95794
   3   3   0 14423.2 513.912   6-0.29786 0.51887 0.48498-0.23512-0.86271 0.90208
   3  -3   0 13516.4 294.101   5 0.40869-0.18785 0.13777-0.38830 0.96104-0.92107
   4   3   0 4072.16 244.352   8 0.32802-0.03359-0.08868 0.33833 0.98427-0.93124
   4  -3   0 4197.01 357.938   4-0.04430 0.33883-0.35020 0.10050-0.92810 0.98117
   4   3   0 4113.61 273.455   1 0.12557 0.16875 0.15036 0.09963 0.98712-0.93417
  -4  -3   0 4415.71 241.371   4-0.10695-0.18800-0.17313-0.07759-0.98223 0.92920
   4  -3   0 3634.41 336.355   8 0.21741 0.07711-0.04030-0.21003 0.99848-0.94467
  -4  -3   0 4099.49 359.721   9 0.04843-0.34275-0.35530 0.10507 0.92711-0.98008
  -4   3   0 4938.32 169.199   3-0.47090 0.17625-0.25580 0.50596-0.91522 0.86204
  -4   3   0 4093.51 355.096   7-0.23207-0.06279 0.02472 0.22599-0.99830 0.94474
  -4  -3   0 4348.54 293.214   7-0.28377-0.01101 0.03667-0.28700-0.99367 0.94033
  -4   3   0 4382.21 362.638   6-0.19477-0.10011 0.06913 0.18141-0.99753 0.94413
   4  -3   0 4048.05 198.462   9 0.15876 0.13499-0.11095-0.13916 0.99367-0.94054
  -5   3   0 2533.47 291.408   6-0.20290-0.16565 0.09723 0.15330-0.99502 0.92829
   5   3   0 2518.02 209.355   1 0.11436 0.25360 0.22734 0.02258 0.97173-0.90549
  -5   3   0 2120.17 281.153   7-0.24917-0.11948 0.02865 0.22204-0.99711 0.93018
  -5  -3   0 2703.14 183.208   4-0.05935-0.30909-0.30927 0.05845-0.94411 0.87793
  -5  -3   0 2171.47 239.153   7-0.29626-0.07221 0.03958-0.29006-0.99208 0.92577
   5  -3   0 2441.83 291.466   4-0.01737 0.38557-0.42099 0.17152-0.89496 0.96117
   5   3   0 2276.49 219.341   8 0.32871 0.03922-0.08898 0.33858 0.98413-0.91782
  -5  -3   0 2310.46 288.685   9 0.01651-0.38457-0.41980 0.16971 0.89579-0.96191
   5   3   0 2343.68 301.080   2 0.22566 0.14230 0.06397 0.18639 0.99683-0.93062
   5  -3   0 2359.74 291.558   8 0.23480 0.13331-0.04785-0.20245 0.99731-0.93014
  -5   3   0 2739.52 181.042   3-0.40752 0.03920-0.20352 0.45377-0.94901 0.88251
  -6   3   0 579.261 159.807   7-0.27203-0.17036 0.03395 0.21674-0.99499 0.91467
   6   3   0 488.308 123.500   8 0.34512 0.09633-0.09624 0.34572 0.98058-0.90089
  -6  -3   0 158.852 148.046   9-0.01691-0.42490-0.48450 0.23458 0.85749-0.93671
  -6   3   0 443.563 135.533   6-0.21415-0.22802 0.13712 0.11344-0.98996 0.91001
  -6  -3   0 433.299 133.531   3-0.24844-0.19390-0.07678-0.17374-0.99453 0.91482
   6   3   0 338.733 126.369   2 0.24408 0.19742 0.08415 0.16623 0.99423-0.91478
  -6   3   0 472.316 91.8928   3-0.40679-0.03518-0.20292 0.45322-0.94934 0.86954
   6  -3   0 384.542 136.589   4 0.01166 0.43020-0.49388 0.24462-0.85285 0.93216
  -6  -3   0 389.554 115.979   7-0.31735-0.12483 0.04447-0.29504-0.98898 0.90942
   6  -3   0 281.517 126.830   8 0.25746 0.18426-0.05771-0.19258 0.99520-0.91471
  -7   3   0 3919.11 395.892   6-0.22783-0.28797 0.18711 0.06346-0.98106 0.88793
  -7  -3   0 3714.67 444.812   3-0.27229-0.24378-0.09543-0.15505-0.99083 0.89780
  -7  -3   0 3176.82 363.494   7-0.34291-0.17292 0.05046-0.30100-0.98449 0.89142
   7   3   0 3012.78 394.312   2 0.26587 0.24914 0.10820 0.14222 0.99010-0.89742
  -7   3   0 3940.63 482.119   7-0.29930-0.21696 0.04028 0.21048-0.99167 0.89838
   7   3   0 4303.51 388.047   8 0.37060 0.14442-0.10753 0.35713 0.97430-0.88185
   7  -3   0 3457.52 424.347   8 0.28396 0.23139-0.06930-0.18105 0.99189-0.89840
   8   3   0 826.526 196.923   8 0.39868 0.18988-0.12006 0.36962 0.96624-0.86063
  -8   3   0 795.782 271.145   7-0.32784-0.26215 0.04693 0.20379-0.98723 0.88044
  -8  -3   0 635.819 203.459   3-0.29852-0.29126-0.11607-0.13436-0.98556 0.87920
  -8  -3   0 632.632 180.728   7-0.37208-0.21745 0.05730-0.30791-0.97836 0.87201
   8  -3   0 826.768 240.679   8 0.31223 0.27670-0.08171-0.16864 0.98731-0.88057
  -8   3   0 750.325 208.839   6-0.24336-0.34604 0.24634 0.00426-0.96676 0.86045
   8  -3   0 624.849 158.148   5 0.40562 0.18324 0.13612-0.38651 0.96210-0.85585
   8   3   0 488.164 177.873   2 0.29012 0.29839 0.13524 0.11522 0.98410-0.87820
  -9  -3   0 1051.85 271.848   3-0.32652-0.33697-0.13827-0.11210-0.97850 0.85880
   9   3   0 1000.18 264.687   2 0.31627 0.34574 0.16466 0.08582 0.97590-0.85680
   9   3   0 1269.61 283.148   8 0.42926 0.23286-0.13376 0.38331 0.95604-0.83735
  -9   3   0 1567.33 397.547   7-0.35824-0.30550 0.05405 0.19665-0.98140 0.86122
   9  -3   0 1280.46 333.324   8 0.34208 0.32042-0.09489-0.15546 0.98127-0.86127
  -9  -3   0 1063.24 248.198   7-0.40300-0.26021 0.06459-0.31524-0.97065 0.85094
  10  -3   0 158.608 185.560   8 0.37378 0.36249-0.10895-0.14149 0.97344-0.84066
 -10  -3   0 143.342 91.0428   7-0.43522-0.30165 0.07223-0.32293-0.96122 0.82814
 -10  -3   0 24.4738 106.152   3-0.35585-0.38135-0.16171-0.08860-0.96944 0.83639
  10   3   0 368.215 234.999   2 0.34385 0.39164 0.19611 0.05445 0.96517-0.83288
 -10   3   0 212.498 197.981   7-0.38981-0.34768 0.06147 0.18918-0.97409 0.84050
  11   3   0 777.546 262.316   2 0.37258 0.43639 0.22926 0.02134 0.95156-0.80610
 -11  -3   0 1425.77 376.819   3-0.38621-0.42467-0.18619-0.06404-0.95816 0.81175
 -11  -3   0 1078.85 339.556   7-0.46836-0.34218 0.08014-0.33088-0.94996 0.80352
 -11   3   0 754.889 303.129   7-0.42225-0.38898 0.06916 0.18147-0.96519 0.81817
  11   3   0 873.397 319.010   5 0.40205 0.40706 0.13422 0.11595 0.96330-0.81784
  11  -3   0 628.368 257.672   8 0.40580 0.40409-0.12324-0.12723 0.96400-0.81806
 -12  -3   0 148.659 188.168   3-0.41738-0.46718-0.21158-0.03858-0.94442 0.78464
 -12  -3   0 270.428 155.239   7-0.50215-0.38205 0.08825-0.33904-0.93674 0.77691
   0  -4   0 6595.46 332.038   3-0.36225 0.36261-0.16686-0.16700-0.96722 0.96729
   0  -4   0 6403.12 400.649   9 0.13492-0.13461-0.16675-0.16690 0.98513-0.98492
   0  -4   0 7181.26 291.119   8 0.50277-0.50329-0.16705-0.16675 0.92495-0.92464
   0   4   0 6973.40 365.045   2 0.31817-0.31821 0.16682 0.16694 0.97523-0.97537
   0   4   0 6722.98 416.615   6-0.22229 0.22225 0.16663 0.16718-0.98505 0.98479
   0   4   0 7520.40 297.990   5 0.46289-0.46266 0.16698 0.16688 0.93965-0.93991
  -2  -4   0 5782.83 382.659   4-0.11508-0.03276-0.14882-0.18517-0.98672 0.96025
  -2   4   0 8169.77 454.011   2 0.54361-0.69112 0.43893-0.10548 0.80149-0.82783
   2   4   0 5699.26 389.951   1 0.12656 0.02046 0.14330 0.19019 0.98821-0.96186
  -2  -4   0 5487.52 375.452   3-0.25904 0.11186-0.08506-0.24902-0.99301 0.96655
  -2   4   0 5894.47 430.015   6-0.20603 0.05851 0.10823 0.22571-0.99380 0.96694
   2  -4   0 5920.07 365.473   8 0.28859-0.14139-0.07133-0.26257 0.99121-0.96422
  -2   4   0 5841.10 329.681   7-0.33937 0.19234 0.04962 0.28452-0.98516 0.95832
  -2  -4   0 5654.69 419.575   9 0.10055-0.24741-0.24418-0.08964 0.96695-0.99351
   2  -4   0 5433.22 339.486   9 0.14925-0.00209-0.13342-0.20005 0.99068-0.96400
   2   4   0 5927.22 409.857   2 0.24898-0.10170 0.08954 0.24427 0.99340-0.96702
   2   4   0 5795.00 381.627   6-0.26012 0.40751 0.31364 0.01989-0.94531 0.97148
  -3   4   0 1092.12 192.153   6-0.20487-0.01636 0.10416 0.22982-0.99427 0.95408
  -3   4   0 1154.55 170.509   7-0.30134 0.08048 0.04076 0.29353-0.99138 0.95131
  -3  -4   0 916.940 172.655   9 0.07846-0.29897-0.29218-0.04165 0.95181-0.99161
   3  -4   0 1017.78 140.670   9 0.14473 0.07573-0.14398-0.18944 0.98906-0.94917
   3   4   0 1027.05 165.389   6-0.28636 0.50743 0.42897-0.09565-0.89453 0.93387
  -3  -4   0 992.227 182.374   3-0.24759 0.02662-0.07613-0.25799-0.99464 0.95488
   3   4   0 815.273 148.461   1 0.12461 0.09603 0.15723 0.17622 0.98600-0.94638
  -3  -4   0 981.145 146.561   4-0.10850-0.11298-0.16853-0.16553-0.98313 0.94337
   3  -4   0 1002.36 180.272   4-0.06818 0.28891-0.28481-0.04859-0.95264 0.99257
   3  -4   0 1029.82 174.553   8 0.26721-0.04630-0.06198-0.27189 0.99409-0.95367
  -3  -4   0 1123.73 113.972   7-0.49171 0.27063 0.08573-0.41920-0.94102 0.90142
   4  -4   0 2201.40 192.604   9 0.12671 0.16702-0.18554-0.14802 0.98140-0.92862
  -4  -4   0 2384.93 213.511   7-0.41164 0.11692 0.06664-0.40027-0.96826 0.91530
  -4  -4   0 1897.27 267.174   3-0.24895-0.04580-0.07718-0.25694-0.99446 0.94140
   4   4   0 3364.38 349.989   6-0.31404 0.60873 0.57343-0.24031-0.80118 0.85358
   4  -4   0 2071.53 267.382   8 0.26514 0.02941-0.06108-0.27273 0.99434-0.94044
   4  -4   0 1990.16 274.574   4-0.04839 0.34285-0.33914 0.00595-0.93265 0.98579
   4   4   0 2484.16 171.303   8 0.55013-0.25546-0.18880 0.52164 0.89940-0.84700
   4   4   0 2144.94 289.794   2 0.24272 0.05174 0.08266 0.25113 0.99445-0.94153
  -4   4   0 2062.52 282.034   6-0.20750-0.08743 0.11340 0.22057-0.99318 0.93965
  -4   4   0 2367.90 283.416   7-0.29216-0.00253 0.03862 0.29566-0.99262 0.93903
  -4  -4   0 2209.23 295.471   9 0.05373-0.34794-0.34432 0.01053 0.93182-0.98483
  -4  -4   0 2258.71 222.688   4-0.09244-0.20263-0.21575-0.11837-0.97269 0.91967
   4   4   0 1992.89 228.059   1 0.11980 0.17449 0.19078 0.14261 0.97983-0.92693
   5  -4   0 5052.41 462.253   8 0.27484 0.09336-0.06530-0.26853 0.99313-0.92606
  -5  -4   0 4794.51 460.630   9 0.02679-0.39473-0.39931 0.06560 0.90644-0.97263
   5   4   0 6306.75 357.923   8 0.47538-0.10727-0.15458 0.48742 0.93768-0.87194
   5  -4   0 5335.11 482.367   4-0.02614 0.39431-0.39827 0.06528-0.90638 0.97269
   5   4   0 4899.28 476.339   2 0.25158 0.11644 0.09242 0.24138 0.99294-0.92676
   5   4   0 5381.42 379.963   1 0.11139 0.25653 0.24667 0.08665 0.96686-0.90067
  -5   4   0 5420.67 476.619   6-0.21342-0.15518 0.13448 0.19952-0.99035 0.92360
  -5   4   0 5305.96 465.923   7-0.29920-0.06933 0.04026 0.29413-0.99168 0.92498
  -5  -4   0 5131.63 471.629   3-0.25862-0.10991-0.08473-0.24938-0.99307 0.92669
  -5  -4   0 6146.33 398.775   7-0.39122 0.02285 0.06181-0.39553-0.97374 0.90744
  -6   4   0 247.510 129.445   7-0.31429-0.12805 0.04376 0.29064-0.98946 0.90945
  -6  -4   0 153.750 89.6746   3-0.27397-0.16832-0.09675-0.23734-0.99053 0.91083
   6   4   0 278.033 107.657   8 0.45758-0.01599-0.14653 0.47931 0.94521-0.86624
   6  -4   0 202.204 120.023   8 0.29138 0.15045-0.07255-0.26130 0.99079-0.91058
  -6   4   0 427.855 151.818   6-0.22195-0.22028 0.16539 0.16860-0.98528 0.90521
   6   4   0 258.504 152.633   2 0.26550 0.17606 0.10780 0.22601 0.99018-0.91076
   6  -4   0 258.793 150.734   4-0.00166 0.44352-0.46087 0.12810-0.87299 0.95242
  -6  -4   0 309.479 109.612   7-0.39402-0.04801 0.06247-0.39628-0.97302 0.89339
  -6  -4   0 161.562 183.854   9-0.00207-0.43964-0.45612 0.12252 0.87519-0.95452
  -7  -4   0 1086.91 296.885   9-0.03258-0.48290-0.51386 0.18041 0.83759-0.93000
  -7  -4   0 1264.21 260.309   3-0.29334-0.22269-0.11199-0.22206-0.98670 0.89367
  -7   4   0 1010.89 256.777   7-0.33440-0.18170 0.04846 0.28591-0.98607 0.89255
  -7   4   0 1406.37 285.678   6-0.23280-0.28309 0.20574 0.12827-0.97701 0.88380
   7  -4   0 900.926 245.240   8 0.31214 0.20331-0.08168-0.25216 0.98732-0.89380
   7   4   0 967.750 236.916   2 0.28317 0.23192 0.12746 0.20635 0.98597-0.89331
   7  -4   0 1116.46 265.137   4 0.02484 0.49071-0.52579 0.19324-0.83157 0.92407
  -7  -4   0 1439.66 253.680   7-0.40830-0.10738 0.06585-0.39972-0.96920 0.87625
  -8   4   0 -1.3941 92.8041   7-0.35843-0.23146 0.05409 0.28027-0.98136 0.87446
   8   4   0 80.6657 84.1146   2 0.30372 0.28489 0.15049 0.18333 0.98007-0.87418
  -8  -4   0 -19.553 99.8785   9-0.06457-0.52469-0.57176 0.23849 0.79312-0.89853
   8  -4   0 77.0164 124.065   4 0.05320 0.53601-0.59199 0.25966-0.78112 0.88663
  -8   4   0 313.888 180.901   6-0.24537-0.34413 0.25416 0.07985-0.96455 0.85811
   8  -4   0 69.8032 137.939   8 0.33627 0.25279-0.09232-0.24153 0.98254-0.87584
  -8  -4   0 255.669 159.666   3-0.31570-0.27408-0.12968-0.20433-0.98141 0.87504
  -8  -4   0 162.638 112.152   7-0.42908-0.16027 0.07077-0.40471-0.96313 0.85685
   9   4   0 9.69834 139.049   2 0.32648 0.33562 0.17627 0.15759 0.97218-0.85308
  -9  -4   0 284.139 159.473   3-0.34031-0.32320-0.14926-0.18468-0.97446 0.85475
   9  -4   0 135.953 160.655   8 0.36273 0.29997-0.10405-0.22983 0.97634-0.85648
  -9  -4   0 142.414 116.916   7-0.45390-0.20911 0.07669-0.41068-0.95507 0.83544
  -9   4   0 35.6003 111.045   7-0.38497-0.27871 0.06034 0.27402-0.97530 0.85498
 -10  -4   0 -200.62 193.507   3-0.36664-0.37058-0.17040-0.16348-0.96565 0.83259
  10  -4   0 -67.755 130.285   8 0.39116 0.34525-0.11670-0.21726 0.96851-0.83570
 -10   4   0 -103.02 129.453   7-0.41334-0.32409 0.06705 0.26729-0.96778 0.83405
  10   4   0 73.5839 174.591   2 0.35103 0.38457 0.20433 0.12957 0.96201-0.82972
  11   4   0 -18.004 136.961   2 0.37697 0.43210 0.23437 0.09958 0.94925-0.80377
 -11  -4   0 12.4893 182.859   3-0.39435-0.41657-0.19281-0.14100-0.95478 0.80836
 -11   4   0 171.359 151.920   7-0.44312-0.36807 0.07411 0.26019-0.95868 0.81153
  11   4   0 -103.04 226.671   5 0.41539 0.39369 0.14136 0.19216 0.95869-0.81332
  11  -4   0 265.683 115.074   8 0.42062 0.38944-0.12989-0.20409 0.95908-0.81312
   0   5   0 -20.530 26.9027   5 0.53909-0.53877 0.20874 0.20860 0.89969-0.90008
   0   5   0 3.29659 34.6212   2 0.35466-0.35474 0.20852 0.20870 0.96035-0.96050
   0   5   0 123.522 78.5472   1 0.11719-0.11750 0.20845 0.20850 0.97610-0.97632
   0  -5   0 12.7114 19.3737   8 0.59299-0.59371-0.20871-0.20857 0.87196-0.87138
   0   5   0 5.28257 59.5848   6-0.23347 0.23343 0.20832 0.20894-0.97642 0.97608
   0  -5   0 -1.1022 49.9429   9 0.11622-0.11589-0.20930-0.20778 0.97607-0.97616
   0  -5   0 33.5248 44.9566   3-0.41367 0.41414-0.20854-0.20875-0.94618 0.94620
   1   5   0 414.692 120.649   1 0.11935-0.04603 0.19383 0.22310 0.97921-0.96616
   1  -5   0 585.293 162.574   4-0.08737 0.16053-0.23039-0.18678-0.96892 0.98235
  -1  -5   0 421.638 127.373   9 0.10504-0.17823-0.23426-0.18292 0.96970-0.98304
   1  -5   0 606.708 111.831   8 0.43858-0.36541-0.13795-0.27952 0.95263-0.93908
   1   5   0 597.523 108.393   5 0.41619-0.34234 0.14178 0.27538 0.95840-0.94545
  -1   5   0 461.047 138.669   6-0.22462 0.15083 0.17523 0.24213-0.98344 0.96982
  -1   5   0 568.289 89.5111   7-0.59276 0.51983 0.11026 0.30700-0.89164 0.87770
  -1   5   0 531.991 114.227   2 0.42393-0.49775 0.28976 0.12736 0.92032-0.93366
  -1   5   0 474.078 141.082   1 0.11319-0.18711 0.23499 0.18201 0.96986-0.98334
   1   5   0 331.505 98.4936   6-0.24636 0.32005 0.25811 0.15903-0.96341 0.97628
   1  -5   0 534.522 143.140   9 0.12294-0.04915-0.19414-0.22284 0.97955-0.96641
  -1  -5   0 546.564 123.199   3-0.34617 0.27289-0.15395-0.26351-0.97262 0.95942
   1  -5   0 576.132 102.915   3-0.53419 0.60837-0.30933-0.10774-0.87000 0.88316
   2   5   0 13.0212 35.6840   6-0.26332 0.41074 0.32702 0.08997-0.94036 0.96644
  -2   5   0 -19.382 70.9368   6-0.21955 0.07200 0.15663 0.26076-0.98683 0.95979
   2   5   0 113.233 66.3574   2 0.28807-0.14077 0.13293 0.28435 0.98467-0.95831
  -2  -5   0 7.43873 36.5044   3-0.30998 0.16291-0.12513-0.29243-0.98285 0.95638
   2  -5   0 -5.3708 45.7298   8 0.36585-0.21882-0.10543-0.31207 0.97554-0.94866
   2   5   0 125.872 83.1797   1 0.11960 0.02736 0.19212 0.22477 0.97956-0.95325
   2  -5   0 46.7761 60.6223   4-0.07651 0.22341-0.26136-0.15567-0.96010 0.98680
   2  -5   0 -1.0735 35.8917   9 0.12408 0.02307-0.19153-0.22538 0.98012-0.95376
  -2   5   0 39.3775 47.9187   7-0.44971 0.30296 0.07569 0.34188-0.95649 0.92944
  -2  -5   0 51.6906 66.5375   9 0.09016-0.23693-0.26693-0.15033 0.96016-0.98674
  -2   5   0 -52.890 50.7535   2 0.53020-0.67777 0.42147-0.00453 0.81902-0.84541
  -3   5   0 5889.26 505.540   6-0.21807-0.00319 0.15124 0.26617-0.98774 0.94742
   3   5   0 5803.01 459.303   1 0.11780 0.10280 0.20440 0.21244 0.97699-0.93740
  -3  -5   0 5340.46 478.829   9 0.07214-0.29256-0.30564-0.11166 0.94701-0.98683
  -3  -5   0 5517.80 454.843   3-0.29315 0.07228-0.11183-0.30579-0.98674 0.94698
  -3   5   0 6529.19 433.024   7-0.38862 0.16800 0.06120 0.35655-0.97439 0.93410
   3   5   0 6030.53 495.034   2 0.27692-0.05601 0.12048 0.29678 0.98755-0.94793
  -3  -5   0 6354.67 450.634   4-0.09129-0.13030-0.21907-0.19840-0.97186 0.93211
   3  -5   0 5573.70 497.185   4-0.06272 0.28336-0.29996-0.11692-0.94745 0.98741
   3  -5   0 5844.92 392.578   9 0.11801 0.10245-0.20529-0.21159 0.97702-0.93747
   3   5   0 6584.95 471.917   6-0.28373 0.50485 0.41674 0.00004-0.90082 0.94008
   3  -5   0 5417.81 424.603   8 0.33248-0.11166-0.09065-0.32682 0.98335-0.94305
  -4  -5   0 34.9342 70.4086   9 0.05144-0.34554-0.34908-0.06825 0.92980-0.98284
   4   5   0 58.4315 73.7318   6-0.30606 0.60083 0.52804-0.11146-0.83461 0.88697
   4  -5   0 119.167 69.8394   9 0.10189 0.19178-0.24122-0.17573 0.96778-0.91509
   4   5   0 -15.469 60.9964   2 0.27506 0.01946 0.11841 0.29885 0.98800-0.93511
  -4   5   0 51.1737 78.7236   6-0.21966-0.07529 0.15704 0.26037-0.98676 0.93309
  -4  -5   0 -101.67 55.7867   3-0.28898-0.00567-0.10854-0.30912-0.98762 0.93456
   4  -5   0 126.788 102.870   4-0.04630 0.34067-0.34482-0.07189-0.93034 0.98352
   4   5   0 -96.987 92.3359   1 0.11365 0.18059 0.23197 0.18483 0.97060-0.91774
  -4   5   0 81.0915 63.7367   7-0.36408 0.06962 0.05542 0.36244-0.98015 0.92654
  -4  -5   0 56.0446 67.1236   4-0.07763-0.21755-0.25821-0.15931-0.96105 0.90804
   4  -5   0 32.9925 47.3980   8 0.32086-0.02632-0.08552-0.33193 0.98569-0.93206
  -4  -5   0 69.5023 32.1878   7-0.60142 0.30674 0.11239-0.52912-0.88651 0.83377
   5  -5   0 2908.18 366.042   8 0.32216 0.04605-0.08609-0.33132 0.98544-0.91848
  -5   5   0 3255.90 393.830   7-0.35892-0.00938 0.05420 0.36373-0.98126 0.91432
  -5   5   0 3631.42 431.504   6-0.22411-0.14453 0.17335 0.24412-0.98380 0.91702
  -5  -5   0 3076.36 395.848   3-0.29346-0.07498-0.11208-0.30557-0.98667 0.92029
   5  -5   0 3088.04 417.491   4-0.02748 0.39559-0.39476-0.02175-0.90808 0.97446
  -5  -5   0 3289.26 415.521   9 0.02839-0.39621-0.39609-0.02121 0.90805-0.97430
   5   5   0 3149.52 406.049   2 0.28003 0.08806 0.12395 0.29330 0.98678-0.92063
  -5  -5   0 3547.73 329.210   4-0.05398-0.31474-0.32397-0.09360-0.93862 0.87238
   6  -5   0 -9.7559 69.5906   8 0.33182 0.11005-0.09036-0.32703 0.98349-0.90320
   6  -5   0 336.922 165.531   4-0.00647 0.44831-0.44874 0.03245-0.87994 0.95946
  -6   5   0 129.777 95.6236   6-0.23080-0.21150 0.19824 0.21921-0.97869 0.89863
  -6  -5   0 -16.354 120.734   9 0.00327-0.44485-0.44577 0.02853 0.88129-0.96070
  -6   5   0 48.4356 105.033   7-0.36521-0.07693 0.05568 0.36229-0.97990 0.89961
  -6  -5   0 136.245 111.052   3-0.30412-0.13808-0.12050-0.29715-0.98427 0.90457
   6   5   0 27.3270 81.0474   2 0.29014 0.15149 0.13527 0.28198 0.98409-0.90469
   7   5   0 3206.60 473.703   2 0.30424 0.21094 0.15108 0.26616 0.97990-0.88726
   7  -5   0 2960.30 418.414   8 0.34735 0.16816-0.09723-0.32017 0.98007-0.88656
  -7   5   0 3449.27 468.877   6-0.23951-0.27645 0.23138 0.18607-0.97076 0.87746
  -7   5   0 2748.99 436.988   7-0.37873-0.13720 0.05887 0.35912-0.97681 0.88311
  -7  -5   0 2824.40 415.394   3-0.31931-0.19666-0.13254-0.28508-0.98046 0.88743
   7  -5   0 3126.91 462.052   4 0.01654 0.49899-0.50579 0.08972-0.84513 0.93775
  -7  -5   0 1608.51 473.159   9-0.02369-0.49167-0.49728 0.08014 0.84904-0.94156
   8   5   0 1496.12 422.871   2 0.32143 0.26726 0.17053 0.24672 0.97406-0.86818
  -8   5   0 -195.18 152.495   7-0.39735-0.19240 0.06326 0.35474-0.97215 0.86509
   8  -5   0 52.6201 134.078   8 0.36720 0.22199-0.10603-0.31143 0.97519-0.86866
  -8   5   0 3.37647 83.1118   6-0.24986-0.33970 0.27201 0.14543-0.95924 0.85268
  -8  -5   0 2127.89 510.579   3-0.33793-0.25179-0.14737-0.27021-0.97518 0.86881
  -8  -5   0 -26.503 119.533   9-0.05231-0.53684-0.54989 0.13289 0.81079-0.91635
   8  -5   0 79.2218 159.575   4 0.04147 0.54775-0.56504 0.14919-0.80276 0.90842
   9   5   0 455.037 162.459   2 0.34110 0.32110 0.19295 0.22431 0.96634-0.84724
  -9  -5   0 438.364 218.843   3-0.35921-0.30428-0.16440-0.25312-0.96829 0.84856
  -9   5   0 501.674 245.854   7-0.41943-0.24411 0.06849 0.34952-0.96602 0.84556
   9  -5   0 691.052 231.513   8 0.38984 0.27302-0.11611-0.30139 0.96890-0.84923
  10   5   0 215.670 205.502   5 0.40833 0.32720 0.13757 0.27927 0.96117-0.82910
  10  -5   0 330.462 211.261   8 0.41471 0.32184-0.12723-0.29029 0.96108-0.82825
  10   5   0 446.053 248.159   2 0.36277 0.37292 0.21789 0.19940 0.95650-0.82420
 -10  -5   0 480.812 278.040   3-0.38255-0.35465-0.18324-0.23423-0.95962 0.82653
 -10   5   0 -81.412 144.540   7-0.44410-0.29324 0.07434 0.34365-0.95836 0.82448
  11   5   0 849.471 357.350   2 0.38607 0.42312 0.24499 0.17232 0.94425-0.79877
   0  -6   0 2412.52 340.671   4-0.08042 0.07973-0.25026-0.25044-0.96340 0.96354
   0  -6   0 3994.71 342.287   8 0.68085-0.68174-0.25036-0.25041 0.79989-0.79893
   0  -6   0 2739.91 277.195   3-0.46420 0.46481-0.25023-0.25051-0.91930 0.91924
   0   6   0 2344.88 327.922   1 0.11085-0.11121 0.25014 0.25022 0.96594-0.96620
   0  -6   0 2207.99 305.563   9 0.09743-0.09707-0.25104-0.24942 0.96497-0.96510
   0   6   0 2363.91 322.138   6-0.24427 0.24421 0.24989 0.25081-0.96577 0.96528
   0   6   0 3302.42 275.070   5 0.61348-0.61307 0.25051 0.25033 0.84713-0.84770
   1  -6   0 634.793 155.953   9 0.10175-0.02797-0.24153-0.25882 0.96770-0.95461
   1   6   0 461.639 128.346   6-0.25501 0.32870 0.29274 0.20785-0.95258 0.96534
  -1  -6   0 505.183 156.368   4-0.08276 0.00836-0.24362-0.25716-0.96530 0.95214
   1  -6   0 469.792 146.158   4-0.07467 0.14771-0.26656-0.23407-0.95850 0.97194
   1   6   0 744.485 144.615   5 0.49307-0.41912 0.18341 0.31724 0.92531-0.91248
  -1  -6   0 531.902 137.503   3-0.39938 0.32624-0.19690-0.30400-0.95263 0.93937
  -1   6   0 462.186 110.824   2 0.45055-0.52442 0.32183 0.17877 0.90015-0.91347
   1   6   0 508.996 147.680   2 0.35081-0.27722 0.20410 0.29665 0.96210-0.94902
   1   6   0 538.130 166.662   1 0.11258-0.03931 0.23894 0.26138 0.96886-0.95585
   1  -6   0 550.710 110.392   8 0.52743-0.45447-0.17835-0.32264 0.91223-0.89845
   1  -6   0 582.860 125.858   3-0.56883 0.64313-0.33931-0.16120-0.83931 0.85236
  -1  -6   0 479.185 145.582   9 0.08899-0.16211-0.26948-0.23109 0.95935-0.97272
  -1   6   0 316.934 107.056   6-0.23669 0.16289 0.22056 0.28024-0.97350 0.95974
   2  -6   0 3372.95 354.177   9 0.10109 0.04605-0.24300-0.25727 0.96728-0.94099
  -2  -6   0 3660.34 432.741   9 0.07705-0.22373-0.29520-0.20547 0.95076-0.97737
  -2  -6   0 3751.03 407.782   4-0.08112-0.06695-0.24829-0.25253-0.96397 0.93751
   2   6   0 3736.27 393.741   2 0.32625-0.17898 0.17600 0.32475 0.97227-0.94592
  -2   6   0 3333.93 415.119   6-0.23220 0.08465 0.20349 0.29738-0.97752 0.95053
   2   6   0 3751.95 401.432   6-0.26885 0.41629 0.35051 0.14993-0.93109 0.95707
   2  -6   0 3972.64 359.277   8 0.44571-0.29889-0.14117-0.35993 0.94992-0.92303
   2  -6   0 3309.10 414.083   4-0.06592 0.21269-0.29110-0.20941-0.95052 0.97723
  -2  -6   0 3423.41 362.714   3-0.36086 0.21393-0.16574-0.33530-0.96771 0.94120
   2   6   0 3814.96 421.614   1 0.11264 0.03426 0.23857 0.26173 0.96895-0.94268
  -2   6   0 6410.44 496.462   2 0.53637-0.68400 0.42948 0.07095 0.81112-0.83748
  -2   6   0 4160.11 310.956   7-0.56878 0.42230 0.10439 0.39654-0.90507 0.87770
   3  -6   0 44.0966 87.3891   4-0.05444 0.27497-0.32270-0.17765-0.93910 0.97908
   3   6   0 133.747 89.7666   6-0.28538 0.50653 0.42437 0.07589-0.89692 0.93609
   3   6   0 101.633 83.1414   2 0.31300-0.09208 0.16097 0.33978 0.97703-0.93742
  -3   6   0 64.8158 106.679   6-0.23053 0.00925 0.19724 0.30366-0.97891 0.93864
   3   6   0 30.5300 45.2479   5 0.38932-0.16836 0.12743 0.37296 0.96743-0.92803
  -3  -6   0 189.274 84.9378   3-0.33995 0.11923-0.14898-0.35215-0.97457 0.93478
   3  -6   0 57.4924 83.0721   8 0.40238-0.18171-0.12171-0.37941 0.96508-0.92491
  -3  -6   0 13.5079 63.0406   4-0.07474-0.14696-0.26637-0.23450-0.95856 0.91882
   3  -6   0 201.357 91.6281   9 0.09415 0.12626-0.25822-0.24201 0.96283-0.92337
  -3  -6   0 101.355 89.9787   9 0.06208-0.28241-0.32689-0.17387 0.93893-0.97878
   3   6   0 43.6824 106.849   1 0.11091 0.10963 0.24978 0.25047 0.96604-0.92650
  -3   6   0 153.324 81.3018   7-0.48601 0.26568 0.08436 0.41683-0.94328 0.90274
   4  -6   0 4568.68 456.861   8 0.38178-0.08734-0.11251-0.38861 0.97123-0.91777
  -4   6   0 4387.60 494.404   6-0.23147-0.06354 0.20074 0.30017-0.97814 0.92456
   4  -6   0 3798.20 463.731   4-0.04051 0.33479-0.36032-0.13988-0.92380 0.97701
  -4  -6   0 4348.43 505.896   9 0.04449-0.33846-0.36342-0.13739 0.92352-0.97659
  -4  -6   0 4732.30 439.324   4-0.06249-0.23281-0.30061-0.20029-0.94722 0.89421
  -4   6   0 4726.84 439.434   7-0.44545 0.15125 0.07467 0.42670-0.95792 0.90410
   4   6   0 4429.44 486.323   2 0.30826-0.01372 0.15563 0.34510 0.97860-0.92574
  -4  -6   0 4165.38 467.989   3-0.33124 0.03670-0.14202-0.35915-0.97716 0.92407
   4   6   0 5257.12 497.477   6-0.30362 0.59845 0.51495-0.01491-0.84351 0.89580
   5   6   0 301.758 138.922   2 0.31009 0.05805 0.15768 0.34303 0.97800-0.91188
  -5   6   0 538.265 212.115   6-0.23472-0.13397 0.21306 0.28785-0.97531 0.90842
  -5   6   0 376.377 158.615   7-0.42821 0.06016 0.07056 0.43091-0.96339 0.89626
  -5  -6   0 419.776 179.303   3-0.33125-0.03707-0.14204-0.35916-0.97715 0.91076
   5  -6   0 517.413 188.511   8 0.37545-0.00728-0.10970-0.39141 0.97299-0.90623
  -5  -6   0 429.324 175.649   9 0.02453-0.39223-0.40385-0.09698 0.90414-0.97042
   5  -6   0 250.718 155.424   4-0.02432 0.39235-0.40300-0.09702-0.90407 0.97048
   5   6   0 -238.82 170.718   6-0.32166 0.69011 0.62159-0.12174-0.76085 0.82618
  -6  -6   0 1399.47 311.049   3-0.33771-0.10440-0.14719-0.35402-0.97525 0.89552
  -6   6   0 1211.68 306.007   6-0.24006-0.20231 0.23350 0.26740-0.97021 0.89006
  -6  -6   0 1165.28 269.088   9 0.00245-0.44390-0.44736-0.05346 0.88036-0.95983
   6   6   0 1563.53 335.090   2 0.31702 0.12469 0.16552 0.33518 0.97563-0.89625
   6  -6   0 1522.63 294.649   8 0.37875 0.06315-0.11116-0.38993 0.97208-0.89204
   6  -6   0 1386.64 302.519   4-0.00602 0.44779-0.44989-0.04993-0.87929 0.95887
  -6   6   0 1665.53 338.975   7-0.42516-0.01674 0.06983 0.43171-0.96432 0.88384
   7  -6   0 -35.785 100.307   8 0.38881 0.12677-0.11565-0.38546 0.96921-0.87595
   7   6   0 -131.91 139.878   2 0.32797 0.18727 0.17797 0.32271 0.97161-0.87898
  -7  -6   0 -8.2620 102.264   3-0.34904-0.16685-0.15626-0.34493-0.97170 0.87864
  -7  -6   0 -68.621 106.664   9-0.02153-0.49371-0.49322-0.00755 0.85176-0.94435
  -7   6   0 20.8500 83.3072   7-0.43135-0.08438 0.07131 0.43029-0.96243 0.86858
   7  -6   0 133.410 140.969   4 0.01425 0.50125-0.50019 0.00059-0.84879 0.94149
  -7   6   0 -36.981 82.1985   6-0.24718-0.26883 0.26132 0.23957-0.96247 0.86904
   8  -6   0 1142.87 438.727   4 0.03639 0.55282-0.55316 0.05378-0.81180 0.91758
  -8  -6   0 1844.25 440.436   9-0.04727-0.54176-0.54076 0.04010 0.81784-0.92351
   8   6   0 1520.28 346.177   2 0.34219 0.24659 0.19419 0.30648 0.96588-0.86001
  -8   6   0 1782.91 400.358   7-0.44390-0.14565 0.07430 0.42733-0.95843 0.85119
  -8   6   0 2339.99 461.744   6-0.25584-0.33380 0.29608 0.20479-0.95145 0.84477
  -8  -6   0 2244.01 410.993   3-0.36414-0.22552-0.16838-0.33278-0.96655 0.86015
   8   6   0 2026.60 408.717   5 0.39598 0.19253 0.13098 0.36922 0.96530-0.85976
   8  -6   0 1863.45 363.578   8 0.40368 0.18560-0.12229-0.37880 0.96467-0.85817
   9  -6   0 72.1892 193.939   8 0.42225 0.24071-0.13061-0.37050 0.95851-0.83881
  -9   6   0 -240.65 219.242   7-0.46101-0.20236 0.07837 0.42328-0.95260 0.83194
   9   6   0 -149.59 127.457   5 0.41416 0.24787 0.14070 0.35949 0.95913-0.84038
  -9  -6   0 350.368 250.367   3-0.38220-0.28122-0.18295-0.31816-0.95976 0.84000
  -9   6   0 302.695 232.186   6-0.26578-0.39746 0.33742 0.16345-0.93634 0.81641
   9   6   0 44.4538 209.558   2 0.35903 0.30326 0.21357 0.28710 0.95830-0.83921
  10   6   0 978.945 418.133   2 0.37805 0.35775 0.23563 0.26506 0.94867-0.81638
  10   6   0 728.725 305.729   5 0.43505 0.30052 0.15193 0.34827 0.95131-0.81936
  10  -6   0 467.940 239.673   8 0.44354 0.29308-0.14019-0.36091 0.95075-0.81782
 -10   6   0 287.497 208.271   7-0.48149-0.25568 0.08329 0.41837-0.94504 0.81096
   0   7   0 -6.3919 82.2768   6-0.25472 0.25467 0.29156 0.29259-0.95297 0.95237
   0   7   0 32.8079 48.0964   2 0.42574-0.42592 0.29193 0.29226 0.91904-0.91916
   0  -7   0 -128.50 118.324   9 0.07817-0.07779-0.29279-0.29104 0.95160-0.95180
   0  -7   0 -19.531 55.9562   3-0.51377 0.51451-0.29190-0.29226-0.88601 0.88584
   0  -7   0 123.379 114.476   4-0.06561 0.06478-0.29196-0.29219-0.95022 0.95036
  -1  -7   0 290.909 154.684   4-0.06693-0.00760-0.28827-0.29592-0.95148 0.93831
   1  -7   0 116.978 100.379   9 0.08075-0.00696-0.28728-0.29643 0.95350-0.94049
   1   7   0 -33.258 80.1709   6-0.26389 0.33759 0.32941 0.25462-0.93944 0.95209
  -1   7   0 283.961 150.075   6-0.24810 0.17429 0.26499 0.31924-0.96138 0.94751
   1   7   0 235.396 87.0815   5 0.56870-0.49464 0.22524 0.35889 0.88056-0.86792
   1   7   0 206.694 118.052   2 0.38835-0.31479 0.24767 0.33656 0.94295-0.92987
  -1  -7   0 316.961 149.752   3-0.45144 0.37844-0.23962-0.34472-0.92671 0.91337
  -1  -7   0 73.0359 132.196   9 0.07177-0.14486-0.30642-0.27753 0.94673-0.96015
   1  -7   0 282.158 133.106   4-0.06118 0.13409-0.30421-0.27987-0.94594 0.95937
  -2  -7   0 1153.74 268.707   4-0.06472-0.08348-0.29442-0.28981-0.94938 0.92291
   2  -7   0 1460.98 245.865   8 0.52671-0.38009-0.17802-0.40662 0.91262-0.88549
   2  -7   0 1321.67 263.104   9 0.07877 0.06834-0.29152-0.29211 0.95204-0.92584
   2   7   0 1311.08 272.033   6-0.27551 0.42295 0.37947 0.20441-0.91862 0.94448
   2   7   0 1158.19 219.880   5 0.49697-0.34939 0.18555 0.39842 0.92331-0.89734
  -2  -7   0 1193.55 286.743   9 0.06209-0.20873-0.32687-0.25720 0.93893-0.96559
  -2   7   0 1240.71 317.904   6-0.24398 0.09643 0.24877 0.33554-0.96608 0.93894
   2  -7   0 1170.58 292.518   4-0.05400 0.20065-0.32392-0.26005-0.93864 0.96535
  -2  -7   0 1092.43 225.652   3-0.41144 0.26466-0.20672-0.37777-0.94721 0.92063
   2   7   0 1153.89 248.474   2 0.36364-0.21640 0.21890 0.36534 0.95607-0.92973
  -3  -7   0 6488.95 583.548   4-0.05835-0.16348-0.31199-0.27226-0.94312 0.90336
   3  -7   0 6302.94 637.040   4-0.04431 0.26472-0.35017-0.23369-0.92812 0.96809
   3   7   0 6468.71 615.168   2 0.34889-0.12795 0.20187 0.38236 0.96297-0.92337
  -3   7   0 5933.21 624.868   6-0.24223 0.02094 0.24195 0.34239-0.96796 0.92754
   3   7   0 6320.87 577.642   6-0.28923 0.51040 0.44256 0.14115-0.88727 0.92632
  -3  -7   0 6640.54 666.090   9 0.04952-0.26974-0.35304-0.23114 0.92809-0.96798
   3  -7   0 5963.19 524.808   9 0.07121 0.14914-0.30762-0.27598 0.94629-0.90693
   3   7   0 6490.04 545.050   5 0.45419-0.23312 0.16226 0.42158 0.94345-0.90419
   3  -7   0 3889.21 430.931   8 0.47506-0.25459-0.15444-0.43029 0.93782-0.89754
  -3  -7   0 6033.63 561.843   3-0.38740 0.16682-0.18716-0.39745-0.95767 0.91782
   4   7   0 112.694 111.173   2 0.34193-0.04737 0.19390 0.39032 0.96599-0.91313
  -4   7   0 -86.119 116.171   6-0.24270-0.05233 0.24375 0.34060-0.96747 0.91376
   4  -7   0 -203.42 133.935   9 0.05656 0.23697-0.33845-0.24519 0.93426-0.88181
   4   7   0 2.45376 77.7724   6-0.30441 0.59928 0.51912 0.06438-0.84071 0.89288
   4  -7   0 201.378 186.984   4-0.03230 0.32648-0.38208-0.20162-0.91406 0.96728
   4  -7   0 -202.42 127.839   8 0.44651-0.15221-0.14152-0.44325 0.94961-0.89612
  -4  -7   0 228.247 153.224   3-0.37496 0.08057-0.17710-0.40759-0.96257 0.90943
  -4  -7   0 165.649 97.9980   4-0.04698-0.24845-0.34299-0.24131-0.93109 0.87806
   4   7   0 129.562 84.3813   5 0.43044-0.13587 0.14945 0.43430 0.95310-0.90058
  -4  -7   0 -29.461 151.840   9 0.03438-0.32825-0.38401-0.20026 0.91396-0.96707
   5  -7   0 577.445 206.235   8 0.43312-0.06505-0.13550-0.44930 0.95464-0.88791
   5  -7   0 243.421 154.448   4-0.01817 0.38611-0.41891-0.16462-0.89604 0.96246
  -5   7   0 128.629 148.126   6-0.24518-0.12355 0.25343 0.33093-0.96476 0.89776
  -5  -7   0 359.960 159.951   3-0.37114 0.00294-0.17401-0.41071-0.96401 0.89756
   5   7   0 144.209 164.869   2 0.34118 0.02699 0.19305 0.39116 0.96630-0.90018
  -5  -7   0 121.961 145.469   9 0.01693-0.38450-0.41896-0.16536 0.89623-0.96255
   5   7   0 240.424 130.121   5 0.41972-0.05165 0.14368 0.43999 0.95712-0.89136
  -5   7   0 221.434 113.791   7-0.50556 0.13780 0.08907 0.49591-0.93531 0.86792
   6   7   0 478.168 199.939   2 0.34540 0.09635 0.19788 0.38629 0.96450-0.88513
  -6  -7   0 201.507 148.122   9-0.00262-0.43869-0.45719-0.12715 0.87455-0.95405
  -6   7   0 13.3531 133.293   6-0.24946-0.19294 0.27041 0.31393-0.95974 0.87945
   6   7   0 422.222 179.634   5 0.41827 0.02330 0.14290 0.44072 0.95765-0.87866
  -6   7   0 10.1266 167.629   7-0.49283 0.05123 0.08600 0.49909-0.94057 0.85985
   6  -7   0 174.499 185.139   8 0.43022 0.01161-0.13419-0.45061 0.95570-0.87570
   6  -7   0 211.464 167.081   4-0.00203 0.44372-0.45993-0.12340-0.87354 0.95314
  -6  -7   0 239.989 185.290   3-0.37387-0.06813-0.17622-0.40852-0.96298 0.88321
   7   7   0 168.423 222.842   2 0.35366 0.16165 0.20737 0.37677 0.96081-0.86819
   7  -7   0 -190.07 162.803   4 0.01602 0.49943-0.50449-0.07864-0.84598 0.93872
   7  -7   0 -63.483 156.206   8 0.43483 0.08074-0.13627-0.44851 0.95402-0.86075
  -7  -7   0 214.161 162.649   9-0.02411-0.49097-0.49806-0.08628 0.84851-0.94116
  -7   7   0 -112.29 180.906   6-0.25537-0.26070 0.29417 0.29016-0.95210 0.85855
   7   7   0 212.219 191.151   5 0.42361 0.09146 0.14578 0.43782 0.95569-0.86348
  -7  -7   0 293.535 150.764   3-0.38167-0.13411-0.18252-0.40222-0.95997 0.86686
  -7   7   0 -137.80 121.569   7-0.49122-0.02424 0.08562 0.49956-0.94122 0.84713
   8   7   0 1.59238 120.607   5 0.43409 0.15450 0.15140 0.43216 0.95169-0.84627
  -8  -7   0 -26.400 176.635   9-0.04738-0.54149-0.54097-0.04332 0.81768-0.92343
  -8   7   0 347.217 214.967   6-0.26268-0.32703 0.32431 0.26000-0.94138 0.83456
   8   7   0 658.504 274.821   2 0.36522 0.22364 0.22072 0.36340 0.95529-0.84944
   8  -7   0 310.495 229.041   4 0.03587 0.55331-0.55196-0.03096-0.81270 0.91853
   8  -7   0 315.711 192.146   8 0.44501 0.14428-0.14085-0.44391 0.95019-0.84365
  -8  -7   0 221.506 158.473   3-0.39350-0.19607-0.19211-0.39261-0.95515 0.84869
  -8   7   0 476.569 223.879   7-0.49736-0.09195 0.08710 0.49814-0.93873 0.83125
   9  -7   0 92.9892 204.011   8 0.45941 0.20358-0.14735-0.43738 0.94446-0.82465
  -9  -7   0 -139.67 199.007   3-0.40853-0.25483-0.20434-0.38034-0.94855 0.82873
  -9   7   0 -69.256 147.054   6-0.27117-0.39216 0.36051 0.22376-0.92691 0.80683
   9   7   0 233.838 197.958   2 0.37951 0.28288 0.23734 0.34678 0.94788-0.82880
   9   7   0 64.0787 155.297   5 0.44852 0.21358 0.15919 0.42437 0.94585-0.82723
  -9   7   0 -210.20 256.166   7-0.50912-0.15403 0.08993 0.49535-0.93379 0.81290
   0   8   0 10620.8 846.063   6-0.26480 0.26474 0.33324 0.33436-0.93797 0.93724
   0   8   0 12228.4 768.864   2 0.46023-0.46047 0.33362 0.33404 0.89206-0.89214
   0  -8   0 10638.4 877.536   4-0.05042 0.04946-0.33365-0.33394-0.93484 0.93496
   0  -8   0 10546.1 847.525   9 0.05843-0.05804-0.33454-0.33265 0.93586-0.93614
  -1  -8   0 59.2100 171.806   4-0.05095-0.02370-0.33220-0.33542-0.93542 0.92224
   1  -8   0 -10.190 103.735   4-0.04705 0.11982-0.34279-0.32472-0.93117 0.94458
   1   8   0 150.497 125.495   6-0.27274 0.34644 0.36733 0.30016-0.92399 0.93650
  -1  -8   0 -193.49 203.793   9 0.05366-0.12671-0.34446-0.32285 0.93176-0.94524
   1  -8   0 48.3721 116.032   9 0.05962 0.01414-0.33204-0.33501 0.93687-0.92395
  -1  -8   0 -5.0632 98.9862   3-0.50234 0.42947-0.28222-0.38557-0.89435 0.88087
  -1   8   0 -76.228 110.371   6-0.25894 0.18511 0.30882 0.35889-0.94704 0.93304
   1   8   0 -83.859 91.8284   2 0.42487-0.35135 0.29088 0.37684 0.91966-0.90654
  -2  -8   0 -9.3022 97.8055   4-0.04827-0.10005-0.33946-0.32818-0.93252 0.90604
  -2   8   0 3.79416 115.165   6-0.25516 0.10758 0.29333 0.37443-0.95238 0.92511
   2   8   0 8.66372 76.7429   6-0.28264 0.43010 0.41173 0.25561-0.90333 0.92907
  -2  -8   0 5.61646 103.675   9 0.04578-0.19234-0.36075-0.30670 0.92471-0.95142
   2  -8   0 -0.2727 96.3874   9 0.05662 0.09045-0.33831-0.32865 0.93432-0.90823
   2   8   0 26.4144 77.7558   2 0.40026-0.25302 0.26166 0.40608 0.93589-0.90954
  -2  -8   0 18.8504 88.6634   3-0.46152 0.31488-0.24799-0.41996-0.92089 0.89419
   2  -8   0 62.2740 113.957   4-0.04111 0.18763-0.35874-0.30870-0.92448 0.95117
  -3   8   0 433.213 207.734   6-0.25339 0.03208 0.28615 0.38165-0.95476 0.91420
   3   8   0 125.017 139.168   6-0.29426 0.51546 0.46701 0.20016-0.87347 0.91239
   3  -8   0 476.661 199.319   9 0.04857 0.17173-0.35500-0.31193 0.92724-0.88803
  -3  -8   0 349.620 133.986   9 0.03513-0.25527-0.38249-0.28510 0.91469-0.95462
   3   8   0 733.146 258.339   2 0.38443-0.16352 0.24308 0.42466 0.94517-0.90557
  -3  -8   0 434.562 163.891   3-0.43511 0.21467-0.22613-0.44195-0.93557 0.89563
   3  -8   0 262.222 194.585   4-0.03282 0.25310-0.38073-0.28660-0.91469 0.95465
  -3  -8   0 454.056 176.315   4-0.04188-0.18008-0.35667-0.31099-0.92537 0.88560
  -4  -8   0 601.314 198.534   4-0.03107-0.26449-0.38536-0.28231-0.91254 0.85949
   4  -8   0 568.505 259.014   4-0.02237 0.31642-0.40806-0.25914-0.90155 0.95476
  -4   8   0 689.851 257.720   6-0.25352-0.04153 0.28665 0.38116-0.95459 0.90076
   4   8   0 952.570 274.737   6-0.30707 0.60196 0.53350 0.13347-0.83080 0.88285
   4   8   0 718.452 230.358   5 0.49109-0.19640 0.18233 0.48486 0.92630-0.87394
  -4  -8   0 765.556 287.834   9 0.02201-0.31577-0.40889-0.25881 0.90154-0.95470
   4   8   0 599.244 200.230   2 0.37576-0.08118 0.23296 0.43475 0.94989-0.89704
  -4  -8   0 752.155 252.806   3-0.41961 0.12536-0.21341-0.45477-0.94335 0.89012
  -5   8   0 -74.196 120.188   6-0.25539-0.11337 0.29427 0.37354-0.95207 0.88495
   5   8   0 76.5212 79.0338   5 0.47501-0.10682 0.17355 0.49355 0.93411-0.86850
   5  -8   0 309.045 174.889   8 0.49412-0.12617-0.16311-0.50529 0.92913-0.86218
  -5  -8   0 159.674 165.929   9 0.00661-0.37406-0.43925-0.22854 0.88504-0.95140
  -5  -8   0 445.384 188.698   3-0.41250 0.04445-0.20759-0.46065-0.94672 0.88019
   5  -8   0 -86.621 164.305   4-0.00989 0.37772-0.44009-0.22696-0.88475 0.95117
   5   8   0 61.1254 112.857   2 0.37290-0.00470 0.22964 0.43805 0.95139-0.88528
  -6   8   0 2605.95 511.737   6-0.25887-0.18357 0.30854 0.35926-0.94714 0.86673
  -6  -8   0 2941.67 549.130   9-0.01083-0.43034-0.47294-0.19491 0.86487-0.94442
  -6  -8   0 3063.46 538.555   3-0.41194-0.02992-0.20713-0.46114-0.94698 0.86713
   6  -8   0 3265.55 535.238   8 0.48536-0.04364-0.15912-0.50929 0.93321-0.85301
   6   8   0 3082.50 518.395   5 0.46859-0.02691 0.17006 0.49696 0.93709-0.85824
   6  -8   0 1453.05 505.270   4 0.00450 0.43710-0.47621-0.19065-0.86386 0.94347
   6   8   0 2918.77 530.769   2 0.37484 0.06696 0.23190 0.43576 0.95037-0.87101
   7   8   0 361.067 247.288   2 0.38075 0.13464 0.23878 0.42886 0.94721-0.85459
  -7  -8   0 32.1684 251.751   9-0.03020-0.48473-0.50943-0.15845 0.84070-0.93341
   7   8   0 220.303 195.656   5 0.46942 0.04577 0.17051 0.49647 0.93671-0.84464
   7  -8   0 -49.756 175.687   8 0.48479 0.03071-0.15886-0.50954 0.93347-0.84001
  -7   8   0 -112.15 171.546   6-0.26380-0.25232 0.32905 0.33873-0.93958 0.84590
  -7  -8   0 -241.13 153.665   3-0.41656-0.09911-0.21091-0.45737-0.94481 0.85162
   7  -8   0 137.573 191.337   4 0.02071 0.49466-0.51588-0.15079-0.83838 0.93114
  -8   8   0 -347.76 190.941   6-0.27001-0.31977 0.35546 0.31229-0.92904 0.82208
  -8  -8   0 -93.936 160.630   9-0.05135-0.53737-0.54816-0.11971 0.81213-0.91795
   8   8   0 -198.75 125.901   5 0.47582 0.11287 0.17398 0.49296 0.93374-0.82846
   8  -8   0 -39.902 205.454   4 0.03868 0.55043-0.55854-0.10793-0.80774 0.91360
   8  -8   0 24.8520 187.405   8 0.49038 0.09886-0.16140-0.50697 0.93089-0.82416
  -8  -8   0 287.436 253.705   3-0.42535-0.16411-0.21811-0.45015-0.94054 0.83400
   0   9   0 4.09994 127.394   6-0.27447 0.27441 0.37493 0.37613-0.92065 0.91978
   0  -9   0 -62.422 105.575   9 0.03818-0.03779-0.37628-0.37424 0.91762-0.91800
   0  -9   0 -68.582 141.156   4-0.03486 0.03378-0.37533-0.37567-0.91715 0.91724
   1  -9   0 15.7613 90.2801   9 0.03824 0.03550-0.37616-0.37423 0.91768-0.90488
  -1   9   0 -58.653 142.537   6-0.26924 0.19542 0.35219 0.39895-0.93039 0.91626
   1   9   0 283.148 155.347   2 0.46041-0.38694 0.33384 0.41737 0.89190-0.87873
   1   9   0 147.518 119.802   6-0.28141 0.35512 0.40607 0.34487-0.90613 0.91849
  -1  -9   0 370.245 189.798   9 0.03475-0.10778-0.38325-0.36742 0.91432-0.92790
  -1  -9   0 53.1316 120.189   4-0.03474-0.04003-0.37564-0.37539-0.91701 0.90380
   1  -9   0 26.1000 148.926   4-0.03233 0.10498-0.38200-0.36896-0.91410 0.92748
   2  -9   0 377.331 163.402   9 0.03439 0.11265-0.38400-0.36629 0.91397-0.88803
  -2  -9   0 352.751 181.443   4-0.03166-0.11680-0.38378-0.36727-0.91327 0.88676
   2   9   0 185.667 142.534   6-0.28997 0.43744 0.44612 0.30469-0.88532 0.91091
   2  -9   0 131.512 145.110   4-0.02742 0.17380-0.39492-0.35597-0.90800 0.93466
  -2   9   0 -102.42 193.332   6-0.26577 0.11819 0.33736 0.41383-0.93636 0.90896
   2   9   0 -32.757 94.0937   2 0.43609-0.28889 0.30435 0.44689 0.91147-0.88509
  -2  -9   0 -9.7340 118.905   9 0.02836-0.17486-0.39616-0.35466 0.90802-0.93480
  -3  -9   0 1157.81 302.815   3-0.48274 0.26246-0.26572-0.48582-0.90771 0.86762
   3   9   0 1396.17 335.134   2 0.41955-0.19865 0.28453 0.46670 0.92336-0.88374
   3  -9   0 756.185 266.738   9 0.02588 0.19435-0.40116-0.34910 0.90551-0.86647
   3   9   0 1014.22 278.783   6-0.29991 0.52113 0.49547 0.25516-0.85617 0.89493
  -3   9   0 1066.19 301.071   6-0.26402 0.04269 0.32994 0.42130-0.93924 0.89856
  -3  -9   0 1345.17 349.370   4-0.02519-0.19689-0.40074-0.35032-0.90518 0.86538
  -3  -9   0 980.722 343.077   9 0.01931-0.23937-0.41425-0.33672 0.89874-0.93874
   3  -9   0 1559.72 420.169   4-0.02028 0.24043-0.41346-0.33734-0.89883 0.93876
  -4   9   0 288.357 110.747   6-0.26390-0.03117 0.32944 0.42182-0.93944 0.88546
  -4  -9   0 301.514 191.927   9 0.00785-0.30153-0.43682-0.31430 0.88641-0.93962
  -4  -9   0 322.866 169.923   3-0.46477 0.17068-0.25070-0.50095-0.91895 0.86560
   4   9   0 355.240 185.120   2 0.40953-0.11495 0.27263 0.47860 0.93004-0.87718
   4  -9   0 193.269 207.867   4-0.01110 0.30503-0.43700-0.31368-0.88644 0.93961
  -5  -9   0 -179.05 283.135   9-0.00578-0.36155-0.46327-0.28796 0.87087-0.93728
  -5   9   0 236.242 256.432   6-0.26531-0.10346 0.33543 0.41583-0.93712 0.86987
  -5  -9   0 -46.559 197.334   3-0.45487 0.08697-0.24247-0.50926-0.92476 0.85811
   5   9   0 -111.34 208.003   2 0.40496-0.03674 0.26721 0.48398 0.93297-0.86685
   5  -9   0 118.577 172.883   4 0.00000 0.36770-0.46503-0.28552-0.87055 0.93696
  -6  -9   0 -84.405 199.440   3-0.45141 0.00970-0.23960-0.51218-0.92673 0.84676
  -6   9   0 102.021 181.233   6-0.26815-0.17432 0.34753 0.40372-0.93230 0.85177
  -6  -9   0 217.924 234.828   9-0.02145-0.41959-0.49307-0.25827 0.85186-0.93146
   6   9   0 270.819 161.929   2 0.40496 0.03688 0.26721 0.48394 0.93297-0.85359
   6  -9   0 311.024 249.493   4 0.01295 0.42855-0.49701-0.25338-0.85085 0.93044
  -7   9   0 -69.960 243.567   6-0.27229-0.24387 0.36538 0.38583-0.92483 0.83101
  -7  -9   0 113.732 195.481   3-0.45317-0.06235-0.24106-0.51076-0.92573 0.83243
   7   9   0 295.103 223.421   5 0.51803-0.00274 0.19711 0.55328 0.91200-0.82011
   0  10   0 457.353 238.074   6-0.28370 0.28365 0.41660 0.41790-0.90089 0.89986
   0 -10   0 761.408 353.079   4-0.01890 0.01768-0.41701-0.41743-0.89701 0.89705
   0 -10   0 472.268 177.226   9 0.01740-0.01701-0.41802-0.41583 0.89673-0.89724
   1  10   0 234.591 197.262   6-0.28982 0.36352 0.44537 0.38904-0.88573 0.89794
  -1 -10   0 282.461 212.820   9 0.01511-0.08811-0.42257-0.41146 0.89429-0.90797
  -1  10   0 154.490 228.536   6-0.27905 0.20520 0.39528 0.43930-0.91132 0.89703
   1 -10   0 188.927 137.278   9 0.01648 0.05723-0.41983-0.41388 0.89576-0.88311
  -1 -10   0 215.130 246.742   4-0.01823-0.05670-0.41876-0.41568-0.89611 0.88285
   1 -10   0 -135.72 115.665   4-0.01711 0.08960-0.42165-0.41275-0.89461 0.90794
   2  10   0 -50.675 188.312   6-0.29725 0.44473 0.48195 0.35231-0.86456 0.88998
  -2 -10   0 206.668 269.637   9 0.00996-0.15645-0.43268-0.40151 0.88873-0.91561
  -2  10   0 142.685 326.122   6-0.27585 0.12826 0.38103 0.45362-0.91792 0.89036
   2  10   0 237.300 143.488   2 0.47110-0.32395 0.34698 0.48777 0.88244-0.85601
  -2 -10   0 -38.564 102.376   4-0.01478-0.13380-0.42762-0.40684-0.89148 0.86493
   2 -10   0 -212.85 136.059   9 0.01186 0.13510-0.42895-0.40467 0.89081-0.86505
   2 -10   0 199.413 187.521   4-0.01304 0.15928-0.43208-0.40225-0.88910 0.91571
  -3 -10   0 50.4201 208.822   9 0.00228-0.22228-0.44770-0.38666 0.88017-0.92025
   3  10   0 -56.869 128.239   6-0.30581 0.52704 0.52664 0.30746-0.83558 0.87416
   3 -10   0 -170.29 109.561   4-0.00687 0.22689-0.44774-0.38654-0.88050 0.92038
   3  10   0 11.9550 159.183   2 0.45412-0.23324 0.32618 0.50857 0.89721-0.85755
  -3 -10   0 -70.656 175.648   4-0.00818-0.21402-0.44441-0.39004-0.88236 0.84252
  -4 -10   0 45.7134 139.438   9-0.00772-0.28586-0.46701-0.36751 0.86857-0.92185
   4  10   0 117.226 183.754   2 0.44307-0.14850 0.31277 0.52195 0.90612-0.85322
  -4  10   0 -97.727 300.900   6-0.27384-0.02124 0.37217 0.46254-0.92187 0.86776
   4 -10   0 60.1431 197.760   4 0.00124 0.29256-0.46811-0.36606-0.86873 0.92186
   5  10   0 -44.160 127.197   2 0.43710-0.06888 0.30556 0.52912 0.91071-0.84457
  -5 -10   0 -351.02 296.994   3-0.49786 0.13011-0.27843-0.55679-0.89751 0.83070
   0 -11   0 -154.38 184.047   9-0.00396 0.00433-0.45978-0.45742 0.87299-0.87366
   1 -11   0 776.409 337.819   9-0.00574 0.07943-0.46321-0.45384 0.87091-0.85844
  -1 -11   0 1212.80 436.051   4-0.00135-0.07372-0.46164-0.45621-0.87254 0.85922
   1  11   0 1321.26 406.894   6-0.29788 0.37159 0.48506 0.43279-0.86266 0.87467
   2  11   0 205.525 260.572   6-0.30436 0.45183 0.51881 0.39890-0.84092 0.86614
  -2 -11   0 -190.30 194.768   4 0.00245-0.15116-0.47112-0.44674-0.86693 0.84033
  12   0  -1 14.3984 209.853   8 0.53065 0.33495-0.17983 0.17992 0.91048-0.84945
  12   0  -1 291.319 221.303   5 0.52867 0.33725 0.20297-0.20264 0.90591-0.84338
 -12   0   1 262.047 226.031   7-0.53117-0.33528 0.09525-0.09595-0.92391 0.86146
 -11   0   1 -101.59 153.423   7-0.50552-0.28723 0.08906-0.08971-0.93533 0.88629
  11   0  -1 90.9756 159.747   5 0.50301 0.28932 0.18885-0.18853 0.92017-0.87085
  11   0  -1 302.470 194.610   8 0.50511 0.28693-0.16812 0.16824 0.92380-0.87596
 -11   0   1 26.4557 194.754   3-0.50061-0.29201-0.28075 0.28134-0.89558 0.84633
  10   0  -1 163.902 127.297   5 0.47927 0.23946 0.17588-0.17558 0.93209-0.89599
  10   0  -1 -92.284 152.672   8 0.48153 0.23694-0.15738 0.15753 0.93495-0.90032
 -10   0   1 161.350 146.594   3-0.47720-0.24175-0.26107 0.26163-0.91127 0.87537
 -10   0   1 65.8855 152.707   7-0.48183-0.23717 0.08337-0.08399-0.94490 0.90925
   9   0  -1 -70.093 129.696   8 0.46058 0.18431-0.14789 0.14807 0.94398-0.92257
   9   0  -1 -85.167 93.2675   2 0.45261 0.19200 0.32434-0.32376 0.89846-0.87649
  -9   0   1 145.646 145.332   3-0.45632-0.18896-0.24368 0.24419-0.92393 0.90136
   9   0  -1 149.994 75.9146   5 0.45813 0.18703 0.16440-0.16410 0.94175-0.91888
  -9   0   1 181.114 178.074   7-0.46079-0.18448 0.07832-0.07892-0.95268 0.93039
   8   0  -1 111.876 91.4723   5 0.44053 0.13104 0.15487-0.15460 0.94913-0.93950
  -8   0   1 150.402 69.5795   7-0.44339-0.12815 0.07417-0.07474-0.95859 0.94966
  -8   0   1 264.032 137.936   3-0.43891-0.13269-0.22928 0.22976-0.93357 0.92432
   8   0  -1 102.297 53.6881   2 0.43541 0.13573 0.30353-0.30305 0.91198-0.90318
   8   0  -1 148.062 93.9992   8 0.44323 0.12809-0.14005 0.14026 0.95087-0.94269
   7   0  -1 -96.233 83.4101   2 0.42296 0.07468 0.28859-0.28820 0.92100-0.92540
   7   0  -1 -37.809 75.6286   5 0.42797 0.07002 0.14812-0.14785 0.95405-0.95766
   7   0  -1 -90.731 67.6266   8 0.43099 0.06674-0.13454 0.13478 0.95542-0.96046
  -7   0   1 164.381 112.079   3-0.42646-0.07147-0.21902 0.21946-0.93998 0.94406
  -7   0   1 -25.387 57.3792   7-0.43112-0.06668 0.07125-0.07179-0.96250 0.96690
  -6   0   1 1641.06 253.514   7-0.42650 0.00243 0.07016-0.07066-0.96391 0.98163
   6   0  -1 2003.64 230.947   2 0.41746 0.00667 0.28204-0.28173 0.92479-0.94240
   6   0  -1 1690.64 242.929   5 0.42284 0.00158 0.14536-0.14511 0.95597-0.97284
   6   0  -1 1704.84 244.954   8 0.42633-0.00217-0.13244 0.13271 0.95709-0.97537
   5   0  -1 21.4789 26.5148   6-0.06941 0.42083-0.31203 0.31224-0.94436 0.91347
   5   0  -1 58.2098 57.5493   8 0.43336-0.08280-0.13560 0.13590 0.95456-0.98608
  -5   0   1 -36.292 28.2471   9 0.07245-0.42380-0.30498 0.30601 0.94725-0.91509
  -5   0   1 -49.472 57.0277   3-0.42724 0.07668-0.21966 0.22004-0.93959 0.97025
   5   0  -1 86.6189 68.5325   5 0.42926-0.07841 0.14881-0.14856 0.95356-0.98370
   5   0  -1 -10.619 27.0271   2 0.42256-0.07194 0.28812-0.28788 0.92128-0.95214
   5   0  -1 -8.1723 19.2941   4-0.07549 0.42665-0.26426 0.26491-0.95921 0.92737
  -5   0   1 158.993 94.1654   7-0.43377 0.08344 0.07188-0.07237-0.96167 0.99268
   4   0  -1 13289.0 537.975   5 0.45470-0.17742 0.16253-0.16228 0.94324-0.98666
   4   0  -1 13589.6 506.379   2 0.44440-0.16731 0.31437-0.31421 0.90507-0.94919
   4   0  -1 12241.2 528.464   8 0.45978-0.18281-0.14752 0.14784 0.94431-0.98908
  -4   0   1 13901.4 546.525   3-0.45136 0.17450-0.23956 0.23990-0.92676 0.97068
   4   0  -1 13154.4 315.173   6-0.18386 0.46132 0.03217-0.03207-0.99949 0.95531
  -4   0   1 12031.8 539.238   7-0.46086 0.18425 0.07834-0.07880-0.95265 0.99692
  -3   0   1 -0.9912 10.8348   9 0.30611-0.51008 0.28411-0.28403 0.94877-0.89040
   3   0  -1 22.4670 18.9983   6-0.28313 0.48666 0.41392-0.41383-0.90224 0.84469
   3   0  -1 1.84625 18.2400   2 0.49314-0.28961 0.37434-0.37424 0.86115-0.91854
   3   0  -1 -1.7489 27.0823   5 0.51359-0.30991 0.19466-0.19441 0.91447-0.97120
   3   0  -1 14.9727 14.6334   8 0.52035-0.31700-0.17510 0.17545 0.91601-0.97402
  -3   0   1 -16.780 15.7025   3-0.50628 0.30308-0.28555 0.28584-0.89152 0.94869
  -3   0   1 26.5913 29.9953   7-0.52342 0.32052 0.09337-0.09381-0.92748 0.98497
   2   0  -1 11001.1 411.116   5 0.63241-0.50238 0.26133-0.26110 0.83116-0.90122
  -2   0   1 12260.1 507.178   3-0.61181 0.48220-0.37733 0.37756-0.79394 0.86432
  -2   0   1 10484.0 408.982   7-0.65260 0.52329 0.12507-0.12546-0.85278 0.92346
  -3   0  -1 -18.485 18.7570   7 0.24998-0.48939-0.08275 0.08309-0.90379 0.76559
  -4   0  -1 760.892 154.663   7 0.13370-0.44691-0.05749 0.05781-0.94901 0.79748
   4   0   1 951.960 163.651   8-0.13405 0.44572 0.10822-0.10863 0.94468-0.79358
  -5   0  -1 8.06934 40.8261   7 0.04386-0.43082-0.03767 0.03799-0.97404 0.80917
   5   0   1 56.0036 35.7095   8-0.04497 0.43020 0.07129-0.07175 0.97197-0.80753
   6   0   1 -15.755 76.1581   8 0.02924 0.42953 0.04016-0.04065 0.98765-0.80990
  -6   0  -1 -10.702 71.2383   7-0.03064-0.43002-0.02105 0.02135-0.98845 0.81024
   7   0   1 -84.169 96.8647   8 0.09414 0.43816 0.01267-0.01321 0.99613-0.80507
  -7   0  -1 96.0720 122.522   7-0.09561-0.43876-0.00643 0.00670-0.99632 0.80475
  -7   0  -1 17.0295 30.8907   6-0.10092-0.43229-0.22415 0.22459-0.97151 0.78095
  -8   0  -1 73.8727 69.1417   7-0.15427-0.45375 0.00689-0.00662-0.99963 0.79470
   8   0   1 -13.239 64.8954   8 0.15285 0.45296-0.01244 0.01185 0.99954-0.79519
   9   0   1 40.1238 47.5464   2 0.20912 0.46978 0.04599-0.04544 0.99848-0.78245
  -9   0  -1 -83.102 96.8010   7-0.20878-0.47297 0.01936-0.01912-0.99940 0.78118
 -10   0  -1 171.724 57.8662   7-0.26008-0.49536 0.03118-0.03097-0.99617 0.76462
 -10   0  -1 348.667 137.179   3-0.26153-0.49344-0.08701 0.08701-0.99262 0.76223
  12   1  -1 928.289 307.986   5 0.51499 0.35082 0.19544-0.11169 0.91369-0.85122
 -12   1   1 1046.38 439.810   7-0.52643-0.34014 0.09410-0.01123-0.92610 0.86358
  12   1  -1 1054.02 341.540   8 0.55115 0.31435-0.18928 0.27262 0.89880-0.83789
  12  -1  -1 817.570 322.634   8 0.51883 0.34690-0.17440 0.09117 0.91681-0.85567
 -12  -1   1 1120.66 345.980   3-0.50472-0.36166-0.28425 0.20144-0.89264 0.83006
 -12  -1   1 893.593 370.073   7-0.54375-0.32258 0.09830-0.18253-0.91789 0.85549
  11   1  -1 463.894 209.937   8 0.52639 0.26555-0.17787 0.26126 0.91280-0.86507
  11   1  -1 354.658 223.782   5 0.48945 0.30280 0.18143-0.09769 0.92713-0.87786
 -11  -1   1 545.547 229.120   3-0.47951-0.31322-0.26300 0.18015-0.90980 0.86059
  11  -1  -1 339.628 184.752   5 0.52657 0.26587 0.20181-0.28495 0.90713-0.85776
  11  -1  -1 432.217 226.287   8 0.49333 0.29881-0.16275 0.07954 0.92950-0.88158
 -11  -1   1 449.603 198.708   7-0.51864-0.27396 0.09222-0.17641-0.92963 0.88063
 -11   1   1 423.073 282.105   7-0.50094-0.29188 0.08796-0.00504-0.93725 0.88815
  10   1  -1 53.3953 125.512   8 0.50384 0.21455-0.16755 0.25098 0.92442-0.88990
  10   1  -1 -232.46 161.386   5 0.46573 0.25293 0.16852-0.08479 0.93838-0.90233
  10   1  -1 -55.564 113.795   2 0.44528 0.27285 0.31544-0.23154 0.90438-0.86917
 -10  -1   1 91.4781 135.006   7-0.49568-0.22322 0.08669-0.17083-0.93942 0.90380
  10  -1  -1 -185.69 151.144   8 0.46973 0.24884-0.15203 0.06884 0.94013-0.90544
 -10  -1   1 55.7712 128.318   3-0.45602-0.26302-0.24343 0.16053-0.92410 0.88825
  10  -1  -1 -92.093 139.328   5 0.50386 0.21498 0.18931-0.27247 0.91972-0.88358
 -10   1   1 191.904 140.805   7-0.47741-0.24167 0.08231 0.00063-0.94660 0.91089
  -9   1   1 -10.605 104.971   3-0.49272-0.15246-0.27410 0.35801-0.90105 0.87842
   9   1  -1 80.2273 134.790   8 0.48428 0.16056-0.15863 0.24210 0.93370-0.91237
   9   1  -1 -58.060 136.370   5 0.44446 0.20063 0.15699-0.07330 0.94754-0.92470
   9  -1  -1 128.468 133.236   5 0.48413 0.16111 0.17852-0.26170 0.92975-0.90683
  -9   1   1 101.604 105.141   7-0.45648-0.18885 0.07729 0.00566-0.95418 0.93185
   9  -1  -1 100.155 106.060   8 0.44861 0.19637-0.14248 0.05931 0.94879-0.92732
   9   1  -1 87.9598 93.4812   2 0.42445 0.22020 0.29040-0.20657 0.91995-0.89791
  -9  -1   1 177.655 120.610   7-0.47559-0.16960 0.08187-0.16597-0.94728 0.92503
  -9  -1   1 1.74621 137.259   3-0.43484-0.21053-0.22592 0.14297-0.93571 0.91320
  -8   1   1 3589.43 454.732   7-0.43910-0.13248 0.07315 0.00983-0.95998 0.95101
   8   1  -1 3776.56 401.991   2 0.40651 0.16465 0.26905-0.18532 0.93198-0.92313
   8   1  -1 3435.12 426.540   8 0.46889 0.10238-0.15164 0.23515 0.94049-0.93238
  -8   1   1 3557.18 391.974   3-0.47814-0.09338-0.26186 0.34572-0.91067 0.90137
   8   1  -1 3517.65 413.785   5 0.42648 0.14503 0.14732-0.06361 0.95461-0.94502
  -8  -1   1 3466.66 434.528   3-0.41675-0.15492-0.21107 0.12809-0.94472 0.93554
   8  -1  -1 3641.27 393.103   5 0.46857 0.10308 0.17007-0.25325 0.93709-0.92742
   8  -1  -1 3418.18 429.203   8 0.43087 0.14053-0.13448 0.05134 0.95546-0.94723
  -8  -1   1 3421.39 433.186   7-0.45947-0.11200 0.07801-0.16207-0.95314 0.94423
   8  -1  -1 3992.52 366.819   2 0.48587 0.08526 0.36525-0.44800 0.86846-0.85978
   7  -1  -1 116.472 78.3006   5 0.45906 0.03901 0.16490-0.24809 0.94135-0.94493
   7   1  -1 190.469 118.768   8 0.45953 0.03819-0.14741 0.23094 0.94441-0.94952
   7  -1  -1 83.4012 79.6617   4 0.01400 0.48430-0.49958 0.41723-0.84919 0.84351
   7  -1  -1 287.070 92.5485   2 0.47881 0.01884 0.35648-0.43931 0.87529-0.87980
  -7   1   1 170.020 91.7302   6-0.31428-0.18361 0.57486-0.49137-0.80006 0.80457
   7   1  -1 215.488 92.9670   5 0.41307 0.08487 0.14012-0.05642 0.95951-0.96316
  -7  -1   1 170.246 108.882   9-0.01485-0.48382-0.48060 0.39847 0.86001-0.85385
  -7  -1   1 118.583 92.5046   3-0.40294-0.09504-0.19978 0.11677-0.95107 0.95521
   7  -1  -1 11.7843 86.5715   8 0.41780 0.07998-0.12862 0.04549 0.96004-0.96504
   7   1  -1 342.337 110.708   2 0.39251 0.10515 0.25255-0.16889 0.94054-0.94491
  -7   1   1 201.338 128.046   7-0.42671-0.07111 0.07020 0.01279-0.96385 0.96822
  -7  -1   1 240.210 99.7491   7-0.44905-0.04870 0.07553-0.15954-0.95671 0.96113
   6  -1  -1 3868.19 300.366   2 0.48186-0.05773 0.36027-0.44320 0.87237-0.89009
   6   1  -1 3041.65 312.047   2 0.38404 0.04011 0.24261-0.15903 0.94539-0.96298
  -6  -1   1 2937.29 327.534   3-0.39518-0.02910-0.19349 0.11043-0.95443 0.97188
   6  -1  -1 3090.35 316.724   5 0.45869-0.03421 0.16470-0.24791 0.94151-0.95836
  -6   1   1 3484.01 319.382   3-0.47145 0.04726-0.25626 0.34004-0.91488 0.93218
   6  -1  -1 3399.56 357.483   8 0.41154 0.01264-0.12581 0.04272 0.96213-0.98038
  -6   1   1 3124.07 360.273   7-0.42160-0.00246 0.06901 0.01402-0.96538 0.98306
  -6  -1   1 3081.99 346.742   7-0.44716 0.02311 0.07507-0.15904-0.95735 0.97508
   6   1  -1 2861.51 321.725   8 0.45923-0.03508-0.14727 0.23084 0.94454-0.96287
   6   1  -1 3035.01 327.994   5 0.40626 0.01812 0.13646-0.05277 0.96188-0.97879
   5  -1  -1 928.428 143.385   2 0.50107-0.15044 0.38429-0.46730 0.85284-0.88382
  -5   1   1 793.151 137.617   3-0.48860 0.13807-0.27062 0.35436-0.90384 0.93442
   5   1  -1 765.036 147.728   8 0.47340-0.12282-0.15370 0.23729 0.93855-0.97011
  -5   1   1 740.325 121.799   6-0.30094-0.04978 0.50077-0.41741-0.85279 0.88372
  -5  -1   1 673.096 112.442   9 0.11763-0.46891-0.20614 0.12335 0.97682-0.94486
   5   1  -1 684.494 144.770   5 0.40933-0.05852 0.13811-0.05442 0.96082-0.99099
  -5  -1   1 867.639 174.264   3-0.39637 0.04580-0.19445 0.11138-0.95392 0.98466
   5  -1  -1 692.751 146.901   8 0.41554-0.06498-0.12761 0.04453 0.96080-0.99229
   5  -1  -1 845.544 144.570   5 0.47297-0.12208 0.17244-0.25567 0.93507-0.96519
  -5   1   1 777.819 90.5942   1 0.11680-0.46729 0.21109-0.12746 0.97551-0.94471
   5   1  -1 708.310 136.265   2 0.38357-0.03294 0.24206-0.15854 0.94565-0.97649
   5  -1  -1 656.162 121.322   4-0.10990 0.46112-0.16432 0.08142-0.98393 0.95221
  -5   1   1 697.885 154.337   7-0.42769 0.07738 0.07043 0.01257-0.96355 0.99453
  -5  -1   1 739.392 149.991   7-0.45874 0.10841 0.07783-0.16176-0.95340 0.98441
   4   1  -1 19737.0 670.075   2 0.39502-0.11793 0.25550-0.17202 0.93906-0.98316
  -4   1   1 22809.1 656.493   6-0.30001 0.02291 0.49598-0.41268-0.85584 0.90000
  -4  -1   1 19148.5 545.841   9 0.18677-0.46430-0.04300-0.04006 0.99907-0.95396
   4  -1  -1 25916.8 900.466   2 0.54624-0.26914 0.44238-0.52547 0.79789-0.84215
  -4   1   1 21125.0 621.038   3-0.53214 0.25526-0.30758 0.39125-0.87167 0.91551
  -4  -1   1 19910.0 701.216   3-0.41136 0.13449-0.20666 0.12357-0.94725 0.99125
   4  -1  -1 20416.4 647.957   5 0.51229-0.23501 0.19395-0.27721 0.91518-0.95859
  -4  -1   1 20070.4 681.342   7-0.49309 0.21646 0.08607-0.16994-0.94047 0.98474
  -4   1   1 19046.8 702.621   7-0.45199 0.17544 0.07623 0.00679-0.95572 0.99996
   4   1  -1 18749.3 679.300   5 0.42809-0.15083 0.14818-0.06447 0.95400-0.99745
  -3   1   1 384.111 61.9261   2 0.37558-0.57925 0.23276-0.14939 0.94998-0.89257
   3  -1  -1 38.3625 26.8780   4-0.22280 0.42670 0.21099-0.29447-0.97644 0.91818
  -3  -1   1 267.556 62.7201   9 0.25579-0.45957 0.13727-0.22049 0.98730-0.92899
  -3   1   1 394.555 80.9489   6-0.30441 0.10095 0.51916-0.43592-0.84068 0.89807
  -3  -1   1 308.499 74.6380   3-0.44856 0.24540-0.23724 0.15414-0.92832 0.98557
   3   1  -1 363.538 83.4449   8 0.59520-0.39176-0.20974 0.29338 0.87042-0.92853
   3  -1  -1 397.607 78.5024   5 0.59675-0.39310 0.24103-0.32432 0.86030-0.91701
  -3  -1   1 352.418 86.2525   7-0.56880 0.36582 0.10440-0.18821-0.90505 0.96257
   3   1  -1 272.298 72.1052   2 0.42478-0.22126 0.29077-0.20735 0.91972-0.97709
   3  -1  -1 275.884 75.1250   8 0.48407-0.28078-0.15853 0.07551 0.93380-0.99178
  -3   1   1 327.037 81.5806   7-0.50814 0.30531 0.08969-0.00669-0.93421 0.99167
   2   1  -1 72013.9 1087.21   2 0.48242-0.35251 0.36098-0.27761 0.87182-0.94246
  -2   1   1 82637.4 1045.80   5 0.58987-0.71982 0.23714-0.15384 0.86548-0.79551
  -2   1   1 79157.4 1283.91   6-0.31435 0.18450 0.57528-0.49210-0.79973 0.87033
   2  -1  -1 69887.9 1077.60   8 0.58143-0.45180-0.20331 0.12032 0.87980-0.95100
  -2   1   1 69235.4 1087.92   7-0.62282 0.49366 0.11767-0.03469-0.87313 0.94374
  -2  -1   1 84247.7 1212.86   7-0.72042 0.59097 0.14218-0.22590-0.79764 0.86839
  -3   1  -1 78.3874 41.3147   7 0.21294-0.45244-0.07475 0.15874-0.91981 0.78152
   4  -1   1 12144.7 613.373   8-0.09956 0.41137 0.09397-0.17779 0.95635-0.80505
  -4  -1  -1 11207.3 559.048   7 0.13803-0.45115-0.05844-0.02483-0.94759 0.79616
  -4   1  -1 12014.0 647.639   7 0.10951-0.42279-0.05217 0.13614-0.95658 0.80497
   5   1   1 119.053 73.3881   8-0.05179 0.43689 0.07415 0.00876 0.97021-0.80597
   5  -1   1 90.2124 57.0778   8-0.02293 0.40828 0.06208-0.14591 0.97729-0.81267
  -5   1  -1 216.366 101.709   7 0.02758-0.41459-0.03405 0.11799-0.97768 0.81273
  -5  -1  -1 158.532 67.4422   7 0.04302-0.42988-0.03748-0.04579-0.97424 0.80947
  -6   1  -1 63.1139 57.6373   6-0.09182-0.36789-0.25001 0.33391-0.96451 0.78713
   6   1   1 4.21802 53.7978   8 0.02960 0.42906 0.04001 0.04281 0.98771-0.81014
  -6   1  -1 111.796 70.9322   7-0.04173-0.41901-0.01857 0.10247-0.99010 0.81180
   6  -1   1 -47.005 70.7222   8 0.04307 0.41582 0.03432-0.11817 0.98987-0.81193
  -6  -1  -1 230.429 100.323   7-0.03450-0.42605-0.02018-0.06309-0.98904 0.81093
   7  -1   1 2012.63 317.258   8 0.10222 0.43021 0.00922-0.09310 0.99684-0.80559
  -7   1  -1 1842.31 238.480   6-0.12804-0.40524-0.14460 0.22856-0.98810 0.79749
   7   1   1 2263.19 315.743   8 0.09914 0.43306 0.01054 0.07221 0.99658-0.80570
  -7   1  -1 2053.61 357.704   7-0.10307-0.43137-0.00474 0.08862-0.99694 0.80528
  -7  -1  -1 2032.23 324.105   7-0.10138-0.43287-0.00512-0.07814-0.99681 0.80535
   8  -1   1 2885.68 387.394   8 0.15673 0.44921-0.01410-0.06980 0.99962-0.79508
   8   1   1 2554.56 383.190   8 0.16101 0.44469-0.01595 0.09863 0.99969-0.79553
  -8  -1  -1 2687.93 389.423   7-0.16130-0.44661 0.00849-0.09176-0.99978 0.79495
  -8   1  -1 3026.80 424.883   7-0.15909-0.44903 0.00799 0.07586-0.99974 0.79471
   9   1   1 520.129 177.531   8 0.21772 0.46149-0.04043 0.12303 0.99847-0.78103
   9   1   1 632.648 167.781   2 0.20869 0.47030 0.04552 0.03833 0.99852-0.78245
   9  -1   1 358.124 181.398   8 0.20797 0.47148-0.03621-0.04774 0.99896-0.78113
  -9  -1  -1 46.8808 136.739   7-0.21666-0.46494 0.02117-0.10448-0.99910 0.78098
  -9   1  -1 554.710 218.561   7-0.21158-0.47027 0.02000 0.06382-0.99930 0.78097
 -12   2   1 134.388 150.343   7-0.52905-0.33757 0.09474 0.07175-0.92489 0.86229
 -12  -2   1 -107.34 139.465   3-0.49256-0.37394-0.27397 0.10768-0.90116 0.83861
  12   2  -1 141.751 200.920   5 0.50930 0.35643 0.19231-0.02516 0.91681-0.85440
  12  -2  -1 345.051 290.707   8 0.51477 0.35109-0.17254 0.00592 0.91892-0.85768
 -12  -2   1 250.541 208.517   7-0.56465-0.30152 0.10339-0.27108-0.90726 0.84491
 -11  -2   1 756.127 283.859   7-0.54091-0.25156 0.09761-0.26526-0.91928 0.87031
 -11   2   1 883.215 306.348   7-0.50437-0.28850 0.08879 0.07773-0.93581 0.88663
  11   2  -1 727.388 269.907   2 0.45166 0.34001 0.32318-0.15593 0.89924-0.85083
 -11  -2   1 1110.78 344.405   3-0.46810-0.32472-0.25347 0.08713-0.91694 0.86777
  11   2  -1 937.398 306.273   5 0.48451 0.30765 0.17873-0.01161 0.92957-0.88037
  11  -2  -1 1089.81 378.409   8 0.48997 0.30230-0.16122-0.00538 0.93108-0.88307
  11   2  -1 1100.36 303.635   8 0.55841 0.23346-0.19263 0.35925 0.89444-0.84685
 -10  -2   1 -1.1086 98.8010   3-0.44538-0.27375-0.23461 0.06822-0.93008 0.89427
 -10  -2   1 -62.052 115.100   7-0.51965-0.19913 0.09246-0.26006-0.92918 0.89359
  10  -2  -1 -73.175 113.245   8 0.46710 0.25157-0.15084-0.01575 0.94125-0.90649
  10   2  -1 -19.383 96.4820   5 0.46159 0.25701 0.16627 0.00085 0.94023-0.90424
  10  -2  -1 -108.25 111.349   5 0.54142 0.17752 0.21004-0.37668 0.89826-0.86208
  10   2  -1 26.6126 97.5044   2 0.42959 0.28861 0.29654-0.12936 0.91627-0.88102
  10   2  -1 217.568 178.462   8 0.53814 0.18019-0.18328 0.34994 0.90631-0.87191
 -10   2   1 142.973 101.547   7-0.48176-0.23736 0.08335 0.08319-0.94493 0.90916
  -9  -2   1 206.919 146.602   3-0.42491-0.22052-0.21775 0.05132-0.94076 0.91829
   9   2  -1 291.529 157.405   5 0.44112 0.20391 0.15519 0.01190 0.94890-0.92612
  -9   2   1 270.242 207.692   7-0.46184-0.18350 0.07858 0.08798-0.95230 0.92990
   9  -2  -1 403.835 163.558   5 0.52490 0.12045 0.20090-0.36756 0.90810-0.88515
   9  -2  -1 466.032 206.406   8 0.44674 0.19832-0.14164-0.02493 0.94952-0.92800
   9   2  -1 405.662 177.264   2 0.40960 0.23512 0.27270-0.10560 0.93000-0.90794
   9   2  -1 387.433 119.149   8 0.52158 0.12322-0.17566 0.34236 0.91537-0.89415
  -9  -2   1 273.426 142.927   7-0.50171-0.14336 0.08815-0.25567-0.93693 0.91469
   8   2  -1 445.817 161.776   8 0.51021 0.06104-0.17046 0.33719 0.92124-0.91323
   8   2  -1 354.861 156.043   5 0.42391 0.14756 0.14594 0.02117 0.95558-0.94603
  -8  -2   1 130.548 81.4159   9-0.02579-0.54659-0.50122 0.33551 0.84637-0.85339
  -8  -2   1 297.625 160.233   3-0.40743-0.16430-0.20345 0.03696-0.94905 0.93992
   8  -2  -1 230.179 117.851   5 0.51372 0.05804 0.19473-0.36143 0.91440-0.90469
   8  -2  -1 84.3171 95.2230   8 0.42974 0.14171-0.13398-0.03257 0.95587-0.94759
   8   2  -1 389.234 147.070   2 0.39231 0.17891 0.25232-0.08528 0.94066-0.93180
  -8   2   1 291.042 76.5993   7-0.44561-0.12597 0.07470 0.09186-0.95786 0.94883
  -8  -2   1 87.4664 114.214   7-0.48844-0.08294 0.08495-0.25243-0.94232 0.93343
  -7  -2   1 -81.132 84.0060   3-0.39392-0.10410-0.19246 0.02594-0.95496 0.95916
  -7   2   1 337.585 268.918   3-0.54125 0.04346-0.31539 0.48252-0.86413 0.86806
  -7   2   1 -68.809 65.2523   6-0.29300-0.20503 0.46072-0.29392-0.87712 0.88147
  -7  -2   1 62.3985 69.7704   9 0.02573-0.52439-0.40145 0.23549 0.90536-0.89952
   7  -2  -1 7.15271 57.4924   8 0.41732 0.08051-0.12841-0.03814 0.96020-0.96517
   7  -2  -1 -165.43 145.230   5 0.51044-0.01230 0.19293-0.35964 0.91619-0.91976
   7   2  -1 -33.399 85.5704   8 0.50650-0.00879-0.16876 0.33553 0.92311-0.92831
   7   2  -1 85.2213 151.160   5 0.41115 0.08677 0.13908 0.02802 0.96019-0.96389
   7   2  -1 47.0852 68.7925   2 0.37862 0.11909 0.23630-0.06932 0.94836-0.95272
  -7   2   1 -84.005 119.501   7-0.43447-0.06333 0.07205 0.09452-0.96145 0.96576
  -7  -2   1 8.73252 94.9482   7-0.48186-0.01582 0.08337-0.25080-0.94490 0.94932
   7  -2  -1 -35.385 65.7458   4-0.02528 0.52368-0.40050 0.23463-0.90529 0.89984
   6  -2  -1 2741.69 340.163   8 0.41142 0.01279-0.12576-0.04077 0.96217-0.98039
  -6  -2   1 2453.14 321.381   3-0.38592-0.03838-0.18596 0.01941-0.95827 0.97577
   6   2  -1 2033.79 275.689   2 0.36979 0.05439 0.22603-0.05910 0.95299-0.97060
   6  -2  -1 2526.47 272.438   5 0.51940-0.09487 0.19787-0.36461 0.91123-0.92806
  -6   2   1 2593.05 264.487   3-0.55668 0.13252-0.32874 0.49580-0.85061 0.86784
   6   2  -1 2407.52 312.911   5 0.40461 0.01975 0.13559 0.03152 0.96244-0.97939
  -6   2   1 2402.37 259.311   6-0.28466-0.13977 0.42102-0.25427-0.89865 0.91623
   6   2  -1 2706.77 302.488   8 0.51453-0.09036-0.17243 0.33923 0.91904-0.93747
  -6   2   1 2112.10 310.781   7-0.43069 0.00666 0.07115 0.09541-0.96263 0.98026
  -6  -2   1 2398.54 300.500   7-0.48539 0.06141 0.08421-0.25159-0.94352 0.96125
   5   2  -1 9025.21 538.347   2 0.36767-0.01701 0.22355-0.05669 0.95407-0.98493
   5   2  -1 10059.5 500.686   8 0.54165-0.19101-0.18489 0.35172 0.90432-0.93601
  -5   2   1 14184.1 608.910   3-0.59588 0.24533-0.36312 0.53011-0.81181 0.84233
   5  -2  -1 10981.7 519.311   5 0.54850-0.19758 0.21397-0.38075 0.89385-0.92395
   5  -2  -1 9586.00 569.700   8 0.41508-0.06452-0.12740-0.03911 0.96096-0.99242
  -5  -2   1 9399.31 486.482   9 0.12730-0.47846-0.18421 0.01778 0.98168-0.94981
  -5  -2   1 9848.58 534.539   7-0.50507 0.15477 0.08895-0.25625-0.93552 0.96654
  -5   2   1 9504.06 577.792   7-0.43801 0.08777 0.07289 0.09366-0.96033 0.99125
  -5   2   1 10143.1 513.810   6-0.27904-0.07178 0.39530-0.22858-0.91131 0.94214
   4  -2  -1 121.750 55.7277   4-0.15422 0.43172-0.02680-0.13992-0.99928 0.95439
   4   2  -1 292.640 40.1912   6-0.21736 0.49480 0.14866 0.01830-0.98816 0.94377
   4   2  -1 127.307 34.3802   4-0.19004 0.46787 0.09293 0.07440-0.99566 0.95054
  -4   2   1 205.808 73.7381   6-0.27696-0.00023 0.38599-0.21933-0.91565 0.95973
  -4  -2   1 275.520 97.5814   7-0.55220 0.27554 0.10036-0.26757-0.91369 0.95798
  -4  -2   1 268.011 74.3981   9 0.17701-0.45435-0.06696-0.09960 0.99778-0.95260
   4   2  -1 120.923 48.5824   8 0.60159-0.32448-0.21273 0.37959 0.86591-0.91088
   4  -2  -1 222.955 61.8083   5 0.61248-0.33521 0.24994-0.41678 0.84794-0.89132
  -4   2   1 109.732 44.8297   1 0.14355-0.42052 0.01159 0.15538 0.99923-0.95512
   4  -2  -1 117.228 60.9040   8 0.43351-0.15662-0.13567-0.03081 0.95450-0.99922
   4   2  -1 183.824 55.7223   2 0.37502-0.09792 0.23211-0.06527 0.95028-0.99440
  -4   2   1 287.687 95.5677   7-0.46298 0.18650 0.07885 0.08768-0.95190 0.99608
  -3   2   1 1257.69 171.177   7-0.51776 0.31503 0.09200 0.07447-0.93002 0.98741
  -3   2   1 1711.35 99.1912   2 0.47485-0.67857 0.35158-0.18485 0.87900-0.82149
   3   2  -1 1303.17 111.889   6-0.11481 0.31863-0.18387 0.35124-0.98083 0.92324
  -3   2   1 1379.52 173.315   6-0.27925 0.07570 0.39623-0.22963-0.91087 0.96819
  -3  -2   1 1210.18 159.231   9 0.22471-0.42831 0.05357-0.22016 0.99750-0.93915
   3  -2  -1 1496.90 113.120   3-0.38341 0.58687-0.18393 0.01684-0.95928 0.90204
  -3  -2   1 1483.38 167.612   7-0.64861 0.44554 0.12408-0.29118-0.85563 0.91318
   3  -2  -1 1207.32 164.473   8 0.47585-0.27263-0.15480-0.01165 0.93748-0.99543
   2   2  -1 547.003 86.3366   6-0.06315 0.19316-0.32894 0.49643-0.93802 0.86702
  -2   2   1 602.461 110.531   6-0.28650 0.15662 0.42965-0.26312-0.89418 0.96474
  -2  -2   1 490.013 101.516   9 0.26962-0.39953 0.17606-0.34259 0.97974-0.90823
   2  -2  -1 479.083 96.8060   4-0.22356 0.35354 0.21384-0.38096-0.97577 0.90426
  -2  -2   1 572.263 108.928   3-0.48164 0.35222-0.26480 0.09827-0.90842 0.97894
  -2   2   1 602.787 107.922   7-0.62515 0.49611 0.11825 0.04816-0.87162 0.94214
  -2   2   1 478.237 92.6699   1 0.16992-0.29968-0.25294 0.41983 0.96760-0.89690
   2  -2  -1 572.321 107.285   8 0.55863-0.42912-0.19274 0.02633 0.89430-0.96545
   2   2  -1 573.887 104.355   5 0.53732-0.40719 0.20776-0.04053 0.90077-0.97088
   1   2  -1 18358.0 592.355   2 0.50583-0.44957 0.39032-0.22367 0.84767-0.93156
  -1  -2   1 18198.6 608.688   9 0.31027-0.36656 0.29704-0.46344 0.94404-0.85940
  -1   2   1 16898.2 575.886   6-0.29875 0.24251 0.48954-0.32308-0.85989 0.94366
   1   2  -1 18875.6 618.360   6-0.03893 0.09513-0.39274 0.56026-0.91059 0.82622
  -1  -2   1 19086.7 612.354   3-0.57858 0.52278-0.34785 0.18133-0.82979 0.91347
   1   2  -1 11443.0 502.112   5 0.67081-0.61432 0.28356-0.11630 0.79485-0.87835
   0   2   1 47.1256 34.0958   6-0.31462 0.33202 0.57690-0.41053-0.79845 0.89540
   0   2  -1 23.1643 38.1491   6-0.03107 0.01351-0.41287 0.58038-0.90074 0.80304
   0  -2  -1 56.9568 45.5609   9-0.06703 0.05002-0.57612 0.40864 0.78947-0.88758
  -1  -2  -1 25564.0 854.338   9-0.06513-0.02540-0.57276 0.40548 0.79229-0.90356
  -1   2  -1 26800.5 892.269   6-0.03379-0.05755-0.40595 0.57342-0.90419 0.79318
   2  -2   1 1472.08 230.145   4 0.05602 0.10843-0.59838 0.43205-0.77575 0.89997
  -2   2  -1 1289.77 188.599   6-0.04372-0.12136-0.38032 0.54778-0.91637 0.79205
  -3   2  -1 6671.56 433.875   6-0.05880-0.17999-0.34059 0.50803-0.93343 0.79581
   3  -2   1 6426.94 413.875   8-0.12824 0.36661 0.10582-0.27309 0.94675-0.80858
  -3   2  -1 6098.77 417.448   7 0.15613-0.39567-0.06239 0.23004-0.94143 0.80309
  -4   2  -1 2133.11 248.555   6-0.07769-0.23480-0.28940 0.45683-0.95228 0.80138
   4  -2   1 1890.64 255.230   8-0.05302 0.36494 0.07466-0.24190 0.96988-0.81840
  -4  -2  -1 1904.46 228.265   7 0.11884-0.43185-0.05422-0.11260-0.95373 0.80243
  -4   2  -1 2189.55 304.565   7 0.06815-0.38144-0.04305 0.21066-0.96811 0.81644
  -5   2  -1 5160.67 404.346   6-0.09945-0.28669-0.22834 0.39576-0.97043 0.80628
   5  -2   1 5220.65 467.360   8 0.01109 0.37439 0.04781-0.21506 0.98440-0.81960
  -5  -2  -1 4744.63 418.210   7 0.02234-0.40908-0.03289-0.13391-0.97879 0.81414
  -5   2  -1 4917.12 482.148   7-0.00377-0.38327-0.02706 0.19463-0.98391 0.81890
  -6   2  -1 357.705 112.619   6-0.12346-0.33631-0.15829 0.32573-0.98577 0.80834
   6  -2   1 250.619 117.197   8 0.06834 0.39068 0.02363-0.19087 0.99335-0.81523
  -6  -2  -1 210.971 81.7836   7-0.05539-0.40504-0.01549-0.15128-0.99196 0.81397
   6   2   1 131.582 63.2317   1 0.17141 0.28794-0.27217 0.43884 0.96238-0.78555
   6   2   1 194.650 109.490   8 0.04802 0.41056 0.03224 0.13387 0.99061-0.81323
  -6   2  -1 313.356 128.137   7-0.06617-0.39461-0.01307 0.18061-0.99330 0.81493
   7  -2   1 1683.99 319.327   8 0.12108 0.41147 0.00118-0.16842 0.99820-0.80678
  -7   2  -1 1938.95 342.708   7-0.12247-0.41200-0.00034 0.16784-0.99829 0.80655
   7   2   1 1811.79 296.367   8 0.12035 0.41177 0.00149 0.16451 0.99816-0.80748
  -7  -2  -1 1422.08 271.798   7-0.12196-0.41214-0.00046-0.16631-0.99826 0.80692
  -7   2  -1 1903.05 266.796   6-0.14925-0.38412-0.07967 0.24713-0.99630 0.80564
  -8   2  -1 -58.199 147.058   7-0.17470-0.43348 0.01155 0.15590-0.99992 0.79480
   8   2   1 -7.3360 71.3001   8 0.18381 0.42183-0.02576 0.19166 0.99967-0.79571
  -8  -2  -1 -18.440 62.7665   7-0.18144-0.42632 0.01309-0.17986-0.99992 0.79522
   8  -2   1 -81.417 87.4346   8 0.17070 0.43536-0.02012-0.14714 0.99976-0.79503
  10   2   1 29.5803 69.2954   2 0.25734 0.49526 0.09878 0.06849 0.99185-0.76260
 -10  -2  -1 238.683 142.738   3-0.26085-0.49430-0.08648-0.08063-0.99273 0.76229
 -10  -2  -1 269.343 179.364   7-0.28797-0.46721 0.03765-0.20448-0.99316 0.76196
  10   2   1 -39.882 73.7692   8 0.29558 0.45724-0.07440 0.24019 0.99014-0.75995
 -12  -3   1 303.670 136.472   3-0.48783-0.37875-0.26998 0.02017-0.90435 0.84182
 -12  -3   1 247.710 179.520   7-0.59434-0.27167 0.11065-0.36176-0.89072 0.82840
 -11  -3   1 787.956 283.969   7-0.57288-0.21944 0.10540-0.35644-0.90285 0.85392
  11   3  -1 649.882 246.907   2 0.44365 0.34810 0.31346-0.06292 0.90566-0.85722
 -11  -3   1 753.551 303.684   3-0.46459-0.32830-0.25055 0.00068-0.91906 0.86991
  11   3  -1 207.885 117.801   5 0.48703 0.30508 0.18012 0.07038 0.92832-0.87919
  11  -3  -1 736.153 325.388   8 0.49404 0.29835-0.16307-0.08696 0.92917-0.88108
 -11   3   1 420.680 156.060   7-0.51527-0.27761 0.09140 0.15874-0.93112 0.88183
  10   3  -1 1194.01 304.695   2 0.42296 0.29531 0.28860-0.03812 0.92100-0.88574
  10  -3  -1 948.021 299.437   8 0.47250 0.24627-0.15329-0.09675 0.93894-0.90411
  10   3  -1 645.575 227.712   5 0.46547 0.25308 0.16837 0.08213 0.93850-0.90257
 -10  -3   1 845.115 265.954   3-0.44317-0.27602-0.23279-0.01714-0.93128 0.89550
 -10   3   1 214.438 162.152   7-0.49420-0.22490 0.08633 0.16383-0.94002 0.90414
 -10  -3   1 1004.33 271.902   7-0.55442-0.16421 0.10090-0.35188-0.91257 0.87700
  -9   3   1 1367.23 369.258   7-0.47608-0.16924 0.08199 0.16820-0.94710 0.92461
   9  -3  -1 868.919 253.466   8 0.45360 0.19155-0.14473-0.10529 0.94682-0.92524
   9   3  -1 1004.06 244.593   5 0.44648 0.19853 0.15809 0.09240 0.94670-0.92399
  -9  -3   1 1198.65 284.955   3-0.42405-0.22142-0.21705-0.03292-0.94118 0.91875
   9   3  -1 967.927 250.071   8 0.57459 0.07020-0.20013 0.45001 0.88428-0.86324
   9   3  -1 1216.78 280.897   2 0.40436 0.24043 0.26650-0.01609 0.93334-0.91128
  -9  -3   1 1247.77 297.554   7-0.54004-0.10492 0.09739-0.34831-0.91970 0.89749
  -8  -3   1 -203.41 143.575   3-0.40789-0.16385-0.20384-0.04618-0.94884 0.93974
  -8  -3   1 71.6058 72.7459   9 0.00000-0.57233-0.45211 0.20263 0.87757-0.88486
   8  -3  -1 0.58863 54.9743   5 0.57973-0.00790 0.23143-0.48168 0.87286-0.86313
   8   3  -1 -5.9268 98.9376   8 0.56994 0.00134-0.19797 0.44788 0.88726-0.87943
   8  -3  -1 133.639 128.079   8 0.43818 0.13335-0.13777-0.11225 0.95278-0.94446
   8   3  -1 13.8902 118.110   5 0.43084 0.14062 0.14965 0.10084 0.95295-0.94348
   8   3  -1 -93.887 122.839   2 0.38843 0.18286 0.24777 0.00261 0.94291-0.93406
   8  -3  -1 46.5249 102.046   4-0.00233 0.57438-0.45919 0.21007-0.87397 0.88166
  -8   3   1 91.9867 113.222   6-0.29143-0.28031 0.45315-0.20294-0.88141 0.87240
  -8   3   1 7.25448 108.237   7-0.46191-0.10962 0.07859 0.17158-0.95228 0.94316
  -8  -3   1 -9.2256 60.0206   7-0.53134-0.03993 0.09529-0.34614-0.92383 0.91495
   7   3  -1 -44.029 126.277   2 0.37594 0.12184 0.23317 0.01716 0.94979-0.95418
  -7   3   1 126.318 84.9423   6-0.28217-0.21598 0.40951-0.15934-0.90443 0.90866
   7  -3  -1 89.6226 73.8531   5 0.58714-0.08892 0.23560-0.48589 0.86749-0.87103
   7   3  -1 312.547 214.051   5 0.41968 0.07824 0.14365 0.10684 0.95714-0.96090
   7  -3  -1 270.220 155.494   8 0.42741 0.07047-0.13293-0.11707 0.95670-0.96162
   7   3  -1 652.333 272.967   8 0.57554-0.07778-0.20057 0.45052 0.88366-0.88905
  -7  -3   1 252.390 120.280   3-0.39565-0.10237-0.19387-0.05618-0.95423 0.95846
  -7   3   1 61.2537 108.559   7-0.45315-0.04458 0.07651 0.17366-0.95533 0.95955
  -7  -3   1 -40.996 176.418   7-0.53091 0.03331 0.09519-0.34596-0.92403 0.92847
   7  -3  -1 49.1616 56.3176   4-0.04048 0.53892-0.36040 0.11100-0.92376 0.91844
   6  -3  -1 1581.33 234.667   4-0.07628 0.50108-0.26201 0.01233-0.95990 0.94147
  -6   3   1 1613.99 272.575   7-0.45211 0.02816 0.07626 0.17389-0.95568 0.97322
  -6  -3   1 1025.38 236.546   9 0.08482-0.50961-0.27851 0.02863 0.95644-0.93773
   6   3  -1 1677.07 239.822   8 0.59707-0.17281-0.21062 0.46060 0.86911-0.88774
   6  -3  -1 1524.44 238.220   5 0.61188-0.18731 0.24961-0.49994 0.84843-0.86523
  -6  -3   1 1702.76 253.184   7-0.54299 0.11905 0.09811-0.34880-0.91827 0.93601
   6  -3  -1 1469.49 253.435   8 0.42316 0.00106-0.13102-0.11898 0.95820-0.97638
   6   3  -1 1167.29 233.823   5 0.41466 0.00971 0.14097 0.10954 0.95895-0.97595
  -6  -3   1 1434.57 258.885   3-0.38864-0.03565-0.18816-0.06189-0.95717 0.97471
  -6   3   1 1659.86 246.343   6-0.27472-0.14983 0.37603-0.12589-0.92016 0.93765
   6   3  -1 1359.07 243.979   2 0.36794 0.05631 0.22387 0.02643 0.95393-0.97157
  -5  -3   1 103.717 59.6322   9 0.12500-0.47602-0.18946-0.06054 0.98057-0.94876
   5  -3  -1 10.9680 54.1950   4-0.10957 0.46069-0.16531-0.08466-0.98375 0.95214
   5   3  -1 83.8821 37.7889   6-0.30057 0.65152 0.49894-0.24893-0.85396 0.82247
  -5   3   1 29.3599 37.8575   6-0.26964-0.08126 0.35390-0.10379-0.92969 0.96043
   5  -3  -1 -6.9899 58.9964   5 0.66501-0.31409 0.28019-0.53057 0.80069-0.83076
  -5  -3   1 88.6366 71.6383   3-0.38879 0.03825-0.18828-0.06178-0.95711 0.98794
  -5   3   1 61.5705 56.2612   1 0.12061-0.47123 0.18521 0.06518 0.98094-0.95018
   5  -3  -1 0.53235 89.4210   8 0.42822-0.07767-0.13329-0.11669 0.95641-0.98785
   5   3  -1 117.174 88.6985   5 0.41838-0.06754 0.14296 0.10758 0.95761-0.98788
   5   3  -1 92.0302 76.1522   8 0.64448-0.29373-0.23295 0.48298 0.83264-0.86458
  -5   3   1 13.7291 61.4641   7-0.46248 0.11233 0.07873 0.17137-0.95208 0.98291
   5   3  -1 -83.983 83.6437   2 0.36590-0.01519 0.22152 0.02876 0.95495-0.98585
  -5  -3   1 145.416 78.1444   7-0.57508 0.22476 0.10594-0.35652-0.90165 0.93269
   4   3  -1 1160.11 121.148   6-0.22619 0.50363 0.18102 0.06940-0.98230 0.93778
  -4   3   1 1189.53 186.822   6-0.26750-0.00976 0.34473-0.09468-0.93344 0.97744
  -4  -3   1 1091.87 186.334   9 0.16345-0.44067-0.09976-0.15031 0.99493-0.94987
  -4   3   1 378.762 94.8137   9 0.30775-0.58612 0.28920-0.03860 0.94694-0.90169
   4  -3  -1 1207.67 195.113   8 0.44718-0.17033-0.14183-0.10813 0.94935-0.99404
   4  -3  -1 1076.26 183.425   4-0.14012 0.41751-0.07173-0.17849-0.99658 0.95173
  -4  -3   1 1449.77 182.608   7-0.64081 0.36410 0.12215-0.37261-0.86109 0.90542
  -4   3   1 968.635 165.660   1 0.13635-0.41338 0.06984 0.18051 0.99655-0.95248
  -4   3   1 1127.46 190.003   7-0.49052 0.21416 0.08545 0.16460-0.94150 0.98558
   3   3  -1 1366.18 143.769   6-0.17081 0.37464-0.01091 0.26168-0.99989 0.94232
  -3   3   1 1515.77 206.144   6-0.26886 0.06525 0.35053-0.10053-0.93108 0.98834
  -3   3   1 1113.60 165.198   1 0.14852-0.35196-0.03118 0.28151 0.99901-0.94165
  -3  -3   1 1241.59 184.258   9 0.19974-0.40317-0.01063-0.23936 0.99975-0.94136
   3   3  -1 1297.94 181.897   5 0.47093-0.26717 0.17133 0.07928 0.93601-0.99285
   3  -3  -1 1364.97 202.291   8 0.48765-0.28452-0.16016-0.08976 0.93216-0.99007
  -3   3   1 1142.10 177.668   7-0.54733 0.34474 0.09917 0.15079-0.91613 0.97340
   3  -3  -1 1415.28 192.566   4-0.16765 0.37127 0.01707-0.26751-0.99978 0.94165
  -3  -3   1 1380.95 191.762   3-0.42391 0.22084-0.21694-0.03309-0.94125 0.99861
   2   3  -1 16212.4 625.614   2 0.42146-0.29155 0.28682-0.03668 0.92204-0.99273
  -2   3   1 16740.0 654.871   6-0.27416 0.14423 0.37356-0.12363-0.92126 0.99177
  -2  -3   1 16129.9 615.836   3-0.47036 0.34103-0.25536 0.00539-0.91555 0.98612
   2   3  -1 17449.9 609.738   5 0.53761-0.40742 0.20792 0.04276 0.90059-0.97076
   2  -3  -1 17184.2 625.536   8 0.56267-0.43327-0.19460-0.05527 0.89182-0.96291
  -2  -3   1 16694.4 657.388   9 0.23312-0.36289 0.07577-0.32566 0.99560-0.92403
   2   3  -1 17492.3 575.641   6-0.13330 0.26332-0.12873 0.37967-0.99055 0.91961
  -2  -3   1 19215.1 706.565   4 0.02155-0.15175-0.51790 0.26757-0.83701 0.90843
   2   3  -1 18394.3 443.278   7-0.46275 0.59246 0.07879 0.17188-0.95198 0.88088
   2  -3  -1 16564.2 637.801   4-0.19185 0.32171 0.09925-0.34985-0.99503 0.92359
  -2   3   1 18752.4 632.212   7-0.65225 0.52333 0.12499 0.12486-0.85303 0.92341
   1   3  -1 2103.17 217.918   2 0.47450-0.41826 0.35117-0.10110 0.87932-0.96325
   1   3  -1 2181.27 224.908   6-0.11022 0.16643-0.19731 0.44832-0.97794 0.89363
  -1  -3   1 2135.55 236.974   9 0.26323-0.31939 0.15804-0.40775 0.98348-0.89877
   1  -3  -1 2530.78 242.124   9-0.02019 0.07668-0.49068 0.23958 0.85344-0.93828
   1  -3  -1 1951.20 230.301   8 0.69084-0.63519-0.25516 0.00537 0.79008-0.87420
   1   3  -1 2333.49 234.660   5 0.65097-0.59441 0.27203-0.02127 0.81430-0.89786
  -1  -3   1 2298.49 249.948   4 0.00931-0.06590-0.48811 0.23792-0.85651 0.94117
  -1  -3   1 2409.59 228.597   3-0.54812 0.49245-0.32133 0.07140-0.85822 0.94194
  -1   3   1 2169.29 228.245   6-0.28361 0.22735 0.41615-0.16631-0.90112 0.98486
   0  -3  -1 78.4256 42.5974   9-0.01524-0.00172-0.48133 0.23037 0.85954-0.95758
   0   3  -1 76.0820 57.1588   6-0.09810 0.08052-0.23220 0.48325-0.96942 0.87176
   0   3  -1 40.0774 65.3697   2 0.55211-0.56954 0.45013-0.20016 0.78965-0.88674
   0   3   1 71.3554 48.6744   6-0.29688 0.31430 0.48005-0.23031-0.86572 0.96265
   0  -3  -1 48.1219 38.6200   4-0.22925 0.21149 0.23541-0.48619-0.97045 0.87235
   0  -3   1 100.628 55.1333   9 0.28953-0.27213 0.23391-0.48340 0.96502-0.86721
   0  -3   1 55.8959 32.5145   4 0.00652 0.01052-0.48122 0.23118-0.86079 0.95869
  -1   3  -1 14781.1 678.295   6-0.09433 0.00298-0.24291 0.49395-0.96652 0.85552
   1   3   1 14949.4 641.713   1 0.17088-0.07985-0.26521 0.51546 0.96432-0.85386
   1   3   1 17417.0 745.788   6-0.31267 0.40373 0.56530-0.31564-0.80747 0.91758
   1  -3   1 16297.9 663.180   9 0.31148-0.22057 0.30081-0.55007 0.94262-0.83175
  -1  -3  -1 15185.0 655.018   9-0.01948-0.07100-0.48935 0.23851 0.85432-0.96559
  -1  -3  -1 16421.7 667.896   4-0.24195 0.15040 0.28489-0.53570-0.95609 0.84468
  -2  -3  -1 3054.87 317.992   9-0.03018-0.13387-0.50939 0.25870 0.84073-0.96522
  -2   3  -1 3242.11 331.043   6-0.09697-0.06812-0.23542 0.48644-0.96856 0.84425
   2   3   1 3147.62 297.671   1 0.17178-0.00711-0.27712 0.52734 0.96097-0.83725
   2  -3   1 3652.19 343.580   9 0.32863-0.16429 0.35596-0.60496 0.91955-0.79567
   2  -3   1 2562.12 247.264   8-0.12117 0.28606 0.10291-0.35371 0.94921-0.82419
   2  -3   1 3184.94 330.249   4 0.02009 0.14427-0.51438 0.26465-0.83940 0.96374
  -3   3  -1 4270.72 381.201   6-0.10461-0.13422-0.21355 0.46456-0.97415 0.83653
   3   3   1 4305.42 336.279   1 0.17115 0.06717-0.26872 0.51893 0.96335-0.82636
  -3  -3  -1 4784.75 421.851   9-0.04564-0.19205-0.53781 0.28726 0.82008-0.95779
   3  -3   1 4532.87 365.601   8-0.05436 0.29283 0.07522-0.32596 0.96953-0.83120
  -3   3  -1 4557.85 384.433   7 0.08213-0.32165-0.04614 0.29744-0.96441 0.82605
  -3  -3  -1 2623.42 283.270   4-0.25403 0.01495 0.33388-0.58468-0.93883 0.80082
  -4   3  -1 160.635 108.009   7 0.01165-0.32491-0.03050 0.28177-0.98097 0.82928
   4   3   1 -39.163 59.1370   1 0.16875 0.14322-0.23839 0.48856 0.97127-0.82102
  -4   3  -1 77.4877 71.7588   6-0.11616-0.19635-0.17989 0.43088-0.98165 0.83074
  -4  -3  -1 -16.841 39.1962   4-0.25222-0.06056 0.32641-0.57721-0.94167 0.79038
   4  -3   1 60.4921 68.0536   8 0.00295 0.30908 0.05123-0.30195 0.98282-0.83117
  -4  -3  -1 95.1937 107.378   9-0.06469-0.24667-0.57198 0.32160 0.79294-0.94383
  -4  -3  -1 29.7147 39.7303   7 0.07071-0.38360-0.04362-0.20667-0.96744 0.81628
   4   3   1 112.236 65.4540   8-0.11490 0.42626 0.10032 0.14925 0.95134-0.80081
   4  -3   1 54.6021 85.9954   4 0.05052 0.26119-0.58591 0.33651-0.78614 0.93683
   5   3   1 1073.91 170.592   1 0.16398 0.22165-0.18303 0.43315 0.98311-0.81959
  -5   3  -1 1310.32 229.102   6-0.13087-0.25532-0.13608 0.38705-0.98945 0.82526
   5  -3   1 1342.96 244.633   8 0.05472 0.33087 0.02940-0.28009 0.99156-0.82659
   5   3   1 1527.71 208.442   8 0.00246 0.38250 0.05143 0.19800 0.98273-0.81884
  -5  -3  -1 1298.20 220.032   7-0.02190-0.36470-0.02301-0.22723-0.98705 0.82254
  -5   3  -1 1549.20 288.530   7-0.04857-0.33845-0.01703 0.26825-0.99106 0.82600
   6  -3   1 2645.37 369.330   8 0.10301 0.35614 0.00889-0.25956 0.99691-0.81861
  -6   3  -1 3190.19 364.989   6-0.14811-0.31172-0.08323 0.33419-0.99598 0.81852
   6   3   1 3468.95 349.060   8 0.09040 0.36813 0.01426 0.23504 0.99578-0.81859
  -6   3  -1 3205.04 430.676   7-0.10263-0.35812-0.00484 0.25602-0.99691 0.81848
  -6  -3  -1 3067.55 355.682   7-0.09597-0.36432-0.00634-0.24387-0.99635 0.81849
   7   3   1 2933.25 354.142   8 0.16234 0.36973-0.01652 0.26570 0.99971-0.80923
  -7   3  -1 2889.60 356.295   6-0.16739-0.36604-0.02201 0.27297-0.99966 0.80895
   7  -3   1 2637.40 369.974   8 0.14895 0.38371-0.01077-0.23989 0.99944-0.80784
  -7   3  -1 2803.56 424.125   7-0.15276-0.38171 0.00654 0.24459-0.99959 0.80778
  -7  -3  -1 2625.39 362.445   7-0.15941-0.37453 0.00806-0.25826-0.99975 0.80854
  -8   3  -1 189.138 115.268   6-0.18830-0.41867 0.04708 0.20384-0.99888 0.79488
   8   3   1 490.163 154.831   8 0.22483 0.38077-0.04352 0.29258 0.99803-0.79429
  -8  -3  -1 181.742 134.287   7-0.21643-0.39119 0.02112-0.27133-0.99911 0.79461
   8  -3   1 209.390 117.972   8 0.19329 0.41291-0.02986-0.22079 0.99948-0.79457
  -8   3  -1 174.499 135.171   7-0.20037-0.40785 0.01743 0.23369-0.99965 0.79452
   9   3   1 636.934 210.419   8 0.28196 0.39730-0.06842 0.31748 0.99217-0.77545
   9  -3   1 683.276 255.962   8 0.23643 0.44327-0.04856-0.20208 0.99718-0.77898
   9   3   1 681.188 190.276   2 0.23067 0.44856 0.06946 0.18111 0.99620-0.78009
  -9   3  -1 324.624 144.823   7-0.24605-0.43590 0.02793 0.22315-0.99735 0.77890
  -9  -3  -1 245.777 164.684   7-0.26904-0.41225 0.03325-0.28348-0.99530 0.77748
  10   3   1 113.119 128.066   2 0.26661 0.48611 0.10903 0.14159 0.98994-0.76066
 -10  -3  -1 80.9643 106.946   3-0.27197-0.48323-0.09519-0.15551-0.99088 0.76042
 -10  -3  -1 27.2947 66.0086   7-0.31939-0.43574 0.04495-0.29536-0.98865 0.75789
  12   4  -1 -187.13 213.337   2 0.46306 0.40226 0.33708-0.00315 0.88961-0.82799
  11   4  -1 750.813 302.522   2 0.44227 0.34957 0.31180 0.02207 0.90674-0.85829
  11  -4  -1 602.472 300.562   8 0.50469 0.28780-0.16794-0.16558 0.92400-0.87584
 -11  -4   1 442.129 248.597   3-0.46757-0.32536-0.25303-0.08039-0.91726 0.86811
  11   4  -1 551.582 298.058   5 0.49605 0.29605 0.18505 0.14883 0.92379-0.87475
 -11   4   1 936.405 328.177   7-0.53309-0.25974 0.09572 0.23809-0.92301 0.87358
  10   4  -1 165.101 153.196   2 0.42321 0.29515 0.28889 0.04492 0.92083-0.88557
  10   4  -1 202.788 189.736   5 0.47624 0.24230 0.17423 0.15963 0.93353-0.89769
  10  -4  -1 -214.63 169.929   8 0.48492 0.23394-0.15892-0.17461 0.93341-0.89851
 -10  -4   1 61.9573 125.570   3-0.44777-0.27145-0.23659-0.09688-0.92876 0.89298
 -10   4   1 463.007 280.275   7-0.51413-0.20492 0.09112 0.24268-0.93162 0.89561
   9   4  -1 4161.19 551.773   2 0.40628 0.23859 0.26876 0.06500 0.93213-0.91008
   9   4  -1 3606.13 517.909   5 0.45916 0.18585 0.16495 0.16891 0.94130-0.91867
  -9  -4   1 4268.29 568.667   3-0.43035-0.21513-0.22223-0.11130-0.93802 0.91560
   9  -4  -1 3858.67 549.973   8 0.46799 0.17724-0.15124-0.18229 0.94088-0.91924
  -9  -4   1 4157.17 522.324   7-0.59133-0.05350 0.10991-0.44413-0.89247 0.87029
  -9   4   1 4641.51 628.939   7-0.49842-0.14681 0.08735 0.24646-0.93829 0.91568
  -8  -4   1 656.410 260.639   9 0.01180-0.58403-0.42908 0.09587 0.89073-0.89818
  -8   4   1 853.120 216.941   6-0.28589-0.28597 0.42674-0.09315-0.89569 0.88656
   8  -4  -1 587.999 215.530   8 0.45472 0.11686-0.14523-0.18829 0.94637-0.93799
   8   4  -1 947.855 253.477   5 0.44560 0.12587 0.15761 0.17625 0.94707-0.93766
  -8  -4   1 1140.53 293.307   3-0.41597-0.15578-0.21043-0.12313-0.94509 0.93601
   8   4  -1 895.882 238.063   2 0.39200 0.17936 0.25195 0.08179 0.94084-0.93202
   8  -4  -1 521.789 254.641   4-0.01314 0.58522-0.43180 0.09914-0.88925 0.89707
  -8   4   1 840.637 273.306   7-0.48705-0.08438 0.08461 0.24918-0.94287 0.93362
  -8  -4   1 1034.86 245.795   7-0.58917 0.01799 0.10939-0.44351-0.89372 0.88487
  -7  -4   1 4410.31 512.619   3-0.40548-0.09251-0.20186-0.13172-0.94993 0.95418
   7   4  -1 3967.16 475.101   2 0.38107 0.11677 0.23916 0.09456 0.94703-0.95144
  -7   4   1 4373.88 456.130   6-0.27778-0.22047 0.38961-0.05604-0.91398 0.91811
   7   4  -1 4313.61 504.206   5 0.43664 0.06128 0.15279 0.18110 0.95068-0.95451
   7  -4  -1 3645.91 462.957   8 0.44633 0.05157-0.14145-0.19207 0.94968-0.95457
   7  -4  -1 4541.11 495.618   4-0.04492 0.54335-0.34850 0.01556-0.92881 0.92356
  -7   4   1 3933.83 490.308   7-0.48157-0.01606 0.08330 0.25047-0.94501 0.94911
  -7  -4   1 4494.19 464.189   7-0.59741 0.09987 0.11140-0.44544-0.88891 0.89338
   6  -4  -1 1488.60 274.321   4-0.07440 0.49914-0.26735-0.06588-0.95826 0.93988
  -6   4   1 1731.11 273.351   6-0.27134-0.15328 0.36126-0.02771-0.92660 0.94399
  -6  -4   1 1335.65 276.544   9 0.08376-0.50841-0.28078-0.05269 0.95568-0.93705
   6  -4  -1 1238.57 258.503   8 0.44456-0.02035-0.14065-0.19287 0.95036-0.96851
   6   4  -1 1786.79 306.263   5 0.43390-0.00950 0.15131 0.18258 0.95176-0.96884
  -6  -4   1 1851.99 313.118   3-0.40008-0.02417-0.19746-0.13613-0.95232 0.96988
  -6  -4   1 1862.59 264.895   7-0.62138 0.19746 0.11732-0.45124-0.87407 0.89185
   6   4  -1 1681.84 290.006   2 0.37440 0.04989 0.23138 0.10231 0.95061-0.96828
  -6   4   1 1767.30 298.923   7-0.48431 0.06049 0.08396 0.24977-0.94394 0.96136
  -5  -4   1 134.538 76.0945   7-0.67017 0.31982 0.12946-0.46327-0.83974 0.87085
   5  -4  -1 55.9329 58.2247   4-0.10147 0.45249-0.18935-0.14413-0.97885 0.94727
  -5   4   1 91.1124 117.837   6-0.26700-0.08399 0.34256-0.00904-0.93431 0.96496
   5   4  -1 69.7676 49.8350   6-0.28307 0.63412 0.41366-0.08013-0.90237 0.87083
   5  -4  -1 140.107 86.5774   8 0.45206-0.10155-0.14404-0.18946 0.94743-0.97883
   5   4  -1 44.4260 67.1860   5 0.43973-0.08885 0.15444 0.17949 0.94946-0.97979
  -5  -4   1 158.274 70.7076   3-0.40145 0.05097-0.19858-0.13501-0.95172 0.98257
  -5  -4   1 67.6951 58.2985   9 0.11699-0.46787-0.20757-0.12597 0.97648-0.94473
   5   4  -1 58.5427 71.6621   2 0.37320-0.02246 0.22999 0.10368 0.95123-0.98217
  -5   4   1 210.282 119.169   7-0.49900 0.14899 0.08749 0.24617-0.93805 0.96875
   4   4  -1 2454.09 306.942   2 0.37914-0.10198 0.23690 0.09674 0.94808-0.99228
   4   4  -1 2455.76 229.262   6-0.23660 0.51401 0.22019 0.11366-0.97359 0.92890
  -4   4   1 2313.07 301.896   6-0.26513-0.01218 0.33468-0.00119-0.93742 0.98134
  -4  -4   1 2215.42 290.134   3-0.41203 0.13529-0.20720-0.12636-0.94694 0.99107
  -4  -4   1 2371.54 303.325   9 0.14828-0.42535-0.13569-0.19781 0.99034-0.94526
   4  -4  -1 2365.78 302.899   8 0.47294-0.19614-0.15349-0.18000 0.93875-0.98339
   4   4  -1 2279.92 282.501   5 0.45769-0.18035 0.16416 0.16983 0.94194-0.98555
   4  -4  -1 2212.98 280.970   4-0.12599 0.40326-0.11563-0.21807-0.99178 0.94697
  -4   4   1 2426.38 286.812   7-0.53168 0.25547 0.09538 0.23818-0.92367 0.96760
   3  -4  -1 354.983 118.307   4-0.14779 0.35130-0.04742-0.28648-0.99831 0.94023
   3  -4  -1 379.223 106.974   9-0.03080 0.23398-0.51055 0.17577 0.83992-0.89846
  -3   4   1 425.717 52.7232   2 0.32485-0.52865 0.17441 0.15943 0.97279-0.91546
   3   4  -1 213.786 60.3947   6-0.19919 0.40299 0.08434 0.24982-0.99628 0.93855
  -3  -4   1 320.962 47.5072   8-0.04387-0.15963 0.07083-0.40542 0.97225-0.91391
  -3  -4   1 283.001 107.219   3-0.43536 0.23238-0.22634-0.10717-0.93544 0.99281
  -3   4   1 361.784 120.397   6-0.26613 0.06249 0.33892-0.00549-0.93575 0.99295
   3  -4  -1 497.579 139.399   8 0.51375-0.31070-0.17208-0.16137 0.91944-0.97730
  -3  -4   1 483.587 150.081   9 0.17724-0.38052-0.06641-0.26698 0.99782-0.93936
  -3  -4   1 344.839 125.024   4 0.01492-0.21884-0.50183 0.16799-0.84772 0.90590
  -3   4   1 437.926 107.784   7-0.59250 0.39005 0.11019 0.22324-0.89180 0.94889
   2  -4  -1 1638.62 209.005   9-0.00676 0.13666-0.46516 0.13057 0.86971-0.94131
  -2  -4   1 1657.26 224.477   4-0.00130-0.12904-0.46176 0.12804-0.87247 0.94389
   2   4  -1 1410.65 185.099   6-0.17127 0.30132-0.00940 0.34379-0.99991 0.92897
  -2  -4   1 1296.25 213.117   9 0.20329-0.33294-0.00161-0.33163 0.99972-0.92811
   2  -4  -1 1562.92 205.874   8 0.58484-0.45557-0.20490-0.12847 0.87752-0.94852
  -2   4   1 1291.00 197.174   6-0.27031 0.14036 0.35681-0.02345-0.92847 0.99892
  -2  -4   1 1668.34 217.608   3-0.47659 0.34734-0.26056-0.07289-0.91166 0.98224
   2   4  -1 1412.37 194.467   5 0.55556-0.42529 0.21790 0.11624 0.88933-0.95959
   2   4  -1 1372.58 93.8639   7-0.26318 0.39305 0.03190 0.30257-0.99588 0.92479
  -2   4   1 1820.14 207.973   7-0.69744 0.56867 0.13634 0.19695-0.81783 0.88798
   1   4  -1 14312.9 639.933   6-0.15195 0.20819-0.07119 0.40568-0.99703 0.91274
  -1   4   1 13286.4 641.610   6-0.27784 0.22158 0.38992-0.05665-0.91383 0.99752
   1  -4  -1 14667.1 654.096   9 0.00399 0.05255-0.44438 0.10991 0.88209-0.96687
  -1  -4   1 15023.6 628.186   3-0.54257 0.48699-0.31653-0.01684-0.86301 0.94674
  -1  -4   1 13196.3 654.887   9 0.22634-0.28239 0.05788-0.39094 0.99717-0.91239
   1   4  -1 17894.7 708.063   5 0.65574-0.59910 0.27479 0.05943 0.80977-0.89342
   1   4  -1 13854.9 607.628   2 0.46585-0.40963 0.34052-0.00700 0.88715-0.97113
   0   4  -1 680.568 171.871   6-0.14011 0.12254-0.10795 0.44250-0.99331 0.89567
   0  -4   1 406.317 140.141   9 0.24599-0.22851 0.11040-0.44325 0.99148-0.89356
   0  -4  -1 491.695 159.345   4-0.19504 0.17718 0.11037-0.44462-0.99381 0.89580
   0   4  -1 720.355 176.976   2 0.52876-0.54624 0.41961-0.08620 0.82083-0.91797
   0  -4  -1 730.859 174.548   9 0.00552-0.02242-0.44139 0.10700 0.88381-0.98181
   0  -4   1 486.727 98.0919   8-0.11045 0.12815 0.09848-0.43292 0.95282-0.85433
   0   4   1 634.032 178.808   6-0.28862 0.30603 0.43960-0.10643-0.88888 0.98578
   0   4  -1 125.934 65.3911   7 0.24916-0.26720-0.08258 0.41769-0.90416 0.80579
   0  -4   1 929.830 209.698   4-0.00961 0.02653-0.44079 0.10733-0.88436 0.98231
   0  -4  -1 724.618 108.340   7-0.51557 0.49732 0.09147-0.42441-0.93099 0.83414
   1  -4   1 -101.95 100.572   9 0.26183-0.17086 0.15411-0.48671 0.98425-0.87321
  -1   4  -1 19.3829 50.3343   6-0.13452 0.04316-0.12504 0.45960-0.99107 0.88009
   1   4   1 4.91129 46.4129   1 0.15909-0.06812-0.13121 0.46485 0.99122-0.88082
  -1  -4  -1 -35.644 62.5684   4-0.20397 0.11236 0.14205-0.47634-0.98959 0.87826
  -1  -4  -1 -37.456 58.6465   9 0.00029-0.09070-0.45155 0.11724 0.87790-0.98916
   1   4   1 -91.499 80.5132   6-0.30205 0.39314 0.50654-0.17349-0.84905 0.95913
   1   4   1 148.637 29.5871   8 0.55877-0.46725-0.19280 0.52539 0.89422-0.78393
   1  -4   1 3.55995 55.0862   8-0.06055 0.15186 0.07779-0.41216 0.96787-0.85605
  -1   4  -1 20.3367 35.8499   7 0.12778-0.21962-0.05618 0.39121-0.95092 0.83927
   2  -4   1 51.9507 35.8461   9 0.27338-0.10900 0.18679-0.51916 0.97733-0.85320
   2   4   1 -57.700 71.4950   1 0.15976 0.00484-0.13814 0.47176 0.99030-0.86663
  -2   4  -1 45.9451 58.5768   6-0.13411-0.03101-0.12628 0.46083-0.99090 0.86659
  -2  -4  -1 -13.599 33.5852   4-0.20897 0.04360 0.16005-0.49437-0.98668 0.86204
  -2  -4  -1 -16.664 44.5784   9-0.01007-0.15390-0.47151 0.13727 0.86578-0.99029
   2   4   1 5.71851 73.8474   6-0.31677 0.48151 0.59003-0.25709-0.78788 0.91109
   2  -4   1 7.24233 44.6330   8-0.01616 0.18108 0.05925-0.39357 0.97881-0.85367
  -2   4  -1 158.066 69.5452   7 0.05204-0.21768-0.03948 0.37446-0.97211 0.84712
   2  -4   1 5.41419 46.5321   4 0.00347 0.16081-0.47365 0.14049-0.86541 0.98985
  -3   4  -1 5283.08 479.687   6-0.13799-0.10085-0.11445 0.44897-0.99250 0.85488
   3   4   1 4555.62 385.569   1 0.15884 0.07941-0.12870 0.46229 0.99154-0.85461
   3  -4   1 5480.13 422.907   8 0.02577 0.21276 0.04163-0.37589 0.98706-0.84858
  -3  -4  -1 5468.93 479.056   9-0.02449-0.21311-0.49877 0.16463 0.84803-0.98578
   3  -4   1 5969.92 508.036   4 0.01567 0.22232-0.50363 0.17062-0.84655 0.98420
  -4  -4  -1 161.406 104.213   9-0.04214-0.26914-0.53145 0.19742 0.82485-0.97583
   4   4   1 121.204 71.2420   8-0.02772 0.33908 0.06408 0.26867 0.97618-0.82581
  -4   4  -1 335.852 129.211   6-0.14544-0.16712-0.09151 0.42602-0.99516 0.84423
  -4  -4  -1 76.3445 61.1780   4-0.20438-0.10837 0.14350-0.47782-0.98937 0.83817
   4  -4   1 210.154 88.9972   9 0.28051 0.03050 0.20741-0.53936 0.97229-0.82196
   4  -4   1 171.855 96.3087   8 0.06638 0.24574 0.02446-0.35867 0.99310-0.84129
   4   4   1 206.733 76.8629   1 0.15611 0.15580-0.10154 0.43509 0.99460-0.84441
  -4  -4  -1 236.470 63.0103   7-0.01499-0.29779-0.02455-0.30908-0.98590 0.83488
  -4   4  -1 271.700 134.991   7-0.05834-0.25484-0.01483 0.34973-0.99234 0.84063
   4  -4   1 241.114 108.038   4 0.03082 0.28085-0.54004 0.20719-0.82147 0.97229
   5   4   1 11420.8 567.104   1 0.15113 0.23443-0.05457 0.38808 0.99811-0.83464
  -5  -4  -1 13899.2 894.706   9-0.06245-0.32255-0.56802 0.23412 0.79623-0.96038
   5  -4   1 11004.5 694.064   8 0.10620 0.27948 0.00753-0.34169 0.99717-0.83203
  -5  -4  -1 10681.3 559.995   7-0.09524-0.29123-0.00651-0.32707-0.99629 0.83193
  -5   4  -1 12234.4 771.291   7-0.10546-0.28147-0.00420 0.33906-0.99713 0.83204
  -6   4  -1 279.946 122.199   6-0.16874-0.29115-0.01766 0.35212-0.99977 0.82227
   6  -4   1 362.606 155.818   8 0.14553 0.31371-0.00929-0.32482 0.99934-0.82088
   6   4   1 346.133 105.288   8 0.16664 0.29191-0.01837 0.35081 0.99974-0.82276
   6   4   1 329.487 82.8832   1 0.14307 0.31613 0.01560 0.31781 0.99916-0.82242
  -6   4  -1 215.889 116.986   7-0.15006-0.31063 0.00593 0.32888-0.99952 0.82104
  -6  -4  -1 346.498 102.600   7-0.16001-0.30012 0.00820-0.34175-0.99976 0.82205
  -7   4  -1 1702.70 283.319   6-0.18370-0.34981 0.03162 0.30282-0.99951 0.80878
   7  -4   1 871.709 219.975   8 0.18451 0.34826-0.02607-0.30803 0.99966-0.80789
  -7   4  -1 1153.64 288.553   7-0.19302-0.34139 0.01574 0.31904-0.99980 0.80792
  -7  -4  -1 1063.91 208.065   7-0.21660-0.31720 0.02116-0.35471-0.99910 0.80811
  -8   4  -1 -36.868 100.225   6-0.20028-0.40676 0.08813 0.24624-0.99593 0.79184
   8  -4   1 108.299 67.6174   8 0.22327 0.38305-0.04284-0.29122 0.99813-0.79305
   8   4   1 66.5181 120.673   2 0.21822 0.38763 0.05586 0.27806 0.99765-0.79473
  -8   4  -1 52.7632 105.466   7-0.23512-0.37307 0.02542 0.30937-0.99811 0.79295
  -8  -4  -1 -63.657 90.8653   7-0.26809-0.33936 0.03303-0.36660-0.99540 0.79109
   9   4   1 3154.96 487.153   2 0.24903 0.43032 0.08960 0.24437 0.99339-0.77728
  -9   4  -1 1242.76 323.294   7-0.27622-0.40569 0.03492 0.29983-0.99454 0.77599
   9  -4   1 1889.58 328.260   8 0.26191 0.41794-0.05967-0.27439 0.99471-0.77637
  -9  -4  -1 586.576 231.927   7-0.31759-0.36375 0.04453-0.37839-0.98894 0.77185
  -9  -4  -1 2649.27 436.710   3-0.25396-0.42756-0.08108-0.25327-0.99376 0.77661
  10   4   1 -73.689 118.867   2 0.28072 0.47211 0.12472 0.20927 0.98661-0.75730
 -10  -4  -1 146.011 95.6183   3-0.28872-0.46649-0.10834-0.22594-0.98768 0.75718
  11   5  -1 187.033 220.361   2 0.44610 0.34583 0.31642 0.10078 0.90373-0.85528
 -11   5   1 264.926 223.873   7-0.55733-0.23541 0.10161 0.31586-0.91108 0.86147
  10   5  -1 758.227 271.568   5 0.49290 0.22565 0.18332 0.23390 0.92539-0.88965
 -10  -5   1 532.430 251.858   3-0.45791-0.26130-0.24500-0.17205-0.92300 0.88721
  10   5  -1 196.420 221.466   2 0.42875 0.28970 0.29553 0.12165 0.91688-0.88163
  10  -5  -1 341.374 210.221   8 0.50347 0.21545-0.16739-0.24968 0.92461-0.88961
 -10   5   1 505.728 261.705   7-0.54092-0.17802 0.09761 0.31984-0.91927 0.88309
   9   5  -1 239.070 155.835   2 0.41358 0.23137 0.27743 0.13973 0.92739-0.90536
  -9  -5   1 -139.73 136.624   9-0.01859-0.62729-0.48767 0.07093 0.85542-0.87597
   9   5  -1 113.498 103.142   5 0.47803 0.16698 0.17521 0.24202 0.93268-0.91015
   9  -5  -1 572.394 255.768   8 0.48885 0.15643-0.16071-0.25636 0.93160-0.90988
  -9  -5   1 269.714 183.662   3-0.44240-0.20307-0.23216-0.18493-0.93170 0.90927
  -9   5   1 759.490 339.493   7-0.52816-0.11697 0.09452 0.32291-0.92531 0.90253
  -8   5   1 109.574 108.844   6-0.28432-0.28763 0.41948-0.00248-0.89943 0.89019
  -8  -5   1 -0.9632 91.6683   9 0.01521-0.58730-0.42236 0.00549 0.89441-0.90198
   8  -5  -1 262.603 135.830   8 0.47814 0.09346-0.15584-0.26123 0.93646-0.92802
   8   5  -1 81.6669 148.075   5 0.46687 0.10462 0.16914 0.24810 0.93787-0.92855
  -8  -5   1 -66.801 108.236   3-0.43000-0.14172-0.22193-0.19519-0.93820 0.92912
   8   5  -1 -7.9393 107.156   2 0.40106 0.17038 0.26260 0.15452 0.93540-0.92660
   8  -5  -1 4.82322 99.2276   4-0.01628 0.58834-0.42378 0.00757-0.89350 0.90140
  -8   5   1 215.185 167.182   7-0.52016-0.05114 0.09258 0.32482-0.92895 0.91953
   7  -5  -1 217.614 150.262   4-0.04349 0.54187-0.35234-0.06414-0.92720 0.92200
  -7   5   1 -31.737 79.8100   6-0.27730-0.22103 0.38748 0.02949-0.91496 0.91898
  -7  -5   1 6.38768 127.895   9 0.04728-0.54557-0.35767-0.05930 0.92607-0.92060
   7  -5  -1 347.206 171.040   8 0.47254 0.02537-0.15329-0.26377 0.93892-0.94374
   7   5  -1 411.833 179.387   5 0.46050 0.03747 0.16568 0.25159 0.94071-0.94463
  -7  -5   1 254.819 126.587   3-0.42150-0.07645-0.21496-0.20219-0.94243 0.94668
   7   5  -1 333.934 138.969   2 0.39182 0.10608 0.25173 0.16539 0.94095-0.94540
  -7   5   1 170.137 114.479   7-0.51860 0.02112 0.09220 0.32515-0.92964 0.93358
   6  -5  -1 626.013 190.099   4-0.06852 0.49317-0.28385-0.13290-0.95296 0.93461
  -6  -5   1 872.218 221.814   9 0.07750-0.50199-0.29424-0.12279 0.95110-0.93253
  -6   5   1 1502.10 326.505   6-0.27181-0.15290 0.36328 0.05368-0.92573 0.94302
   6  -5  -1 1212.97 282.047   8 0.47375-0.04956-0.15384-0.26322 0.93840-0.95648
   6   5  -1 935.366 232.698   5 0.46042-0.03598 0.16564 0.25166 0.94075-0.95791
  -6  -5   1 1229.42 281.906   3-0.41799-0.00619-0.21209-0.20504-0.94413 0.96168
  -6   5   1 1652.60 378.226   7-0.52587 0.10221 0.09396 0.32333-0.92636 0.94360
   6   5  -1 1080.48 269.101   2 0.38664 0.03770 0.24566 0.17144 0.94393-0.96163
   5  -5  -1 783.086 222.639   4-0.09128 0.44220-0.21911-0.19788-0.97185 0.94030
  -5   5   1 548.473 192.344   1 0.11238-0.46313 0.24026 0.17689 0.96852-0.93781
  -5   5   1 364.351 162.223   6-0.26816-0.08289 0.34753 0.06942-0.93230 0.96287
   5   5  -1 804.579 155.401   6-0.28063 0.63173 0.40249 0.01452-0.90787 0.87624
   5  -5  -1 741.230 185.538   8 0.48427-0.13381-0.15862-0.25843 0.93371-0.96504
   5   5  -1 502.023 165.504   5 0.46883-0.11790 0.17019 0.24714 0.93698-0.96740
  -5  -5   1 481.098 167.178   3-0.42097 0.07056-0.21453-0.20259-0.94269 0.97354
  -5  -5   1 613.364 189.894   9 0.10571-0.45646-0.23276-0.18426 0.97010-0.93840
  -5  -5   1 571.489 207.828   4 0.05650-0.40765-0.59948 0.18199-0.77482 0.80656
   5   5  -1 682.511 210.825   2 0.38657-0.03579 0.24557 0.17151 0.94397-0.97494
  -5   5   1 886.199 212.246   7-0.54569 0.19585 0.09877 0.31843-0.91694 0.94745
   4   5  -1 2253.60 314.411   2 0.39293-0.11575 0.25304 0.16404 0.94030-0.98454
   4   5  -1 2507.56 269.333   6-0.24715 0.52459 0.26121 0.15608-0.96250 0.91771
  -4   5   1 2242.29 327.051   6-0.26664-0.01074 0.34106 0.07586-0.93491 0.97875
   4   5  -1 2070.29 291.353   5 0.48891-0.21151 0.18114 0.23626 0.92739-0.97110
  -4  -5   1 2416.86 328.578   3-0.43249 0.15584-0.22398-0.19310-0.93693 0.98104
  -4  -5   1 2678.81 354.353   9 0.13195-0.40886-0.17357-0.24336 0.98383-0.93873
   4  -5  -1 2592.01 336.049   8 0.50783-0.23113-0.16937-0.24766 0.92244-0.96700
  -4  -5   1 3290.71 379.806   4 0.02443-0.30206-0.52482 0.10748-0.83225 0.87718
  -4   5   1 2144.54 296.940   1 0.12296-0.40012 0.16886 0.24827 0.98400-0.94000
   4  -5  -1 1801.83 319.754   4-0.11168 0.38883-0.15902-0.25818-0.98492 0.94013
  -4   5   1 2535.85 309.562   7-0.58387 0.30783 0.10808 0.30899-0.89675 0.94047
  -3   5   1 2519.83 171.828   2 0.40309-0.60697 0.26500 0.15224 0.93414-0.87673
   3   5  -1 2102.86 290.998   2 0.40747-0.20391 0.27017 0.14688 0.93137-0.98888
   3   5  -1 2239.05 258.680   6-0.21906 0.42283 0.15487 0.26270-0.98713 0.92919
  -3   5   1 2170.54 317.487   6-0.26752 0.06384 0.34481 0.07206-0.93340 0.99052
  -3  -5   1 2141.65 277.749   3-0.45540 0.25251-0.24291-0.17411-0.92446 0.98182
   3  -5  -1 2307.65 296.249   8 0.55005-0.34713-0.18877-0.22822 0.89945-0.95719
  -3  -5   1 2341.03 317.072   9 0.15557-0.35881-0.11851-0.29834 0.99273-0.93450
   3  -5  -1 1948.98 291.241   4-0.12959 0.33297-0.10454-0.31284-0.99319 0.93514
  -3   5   1 1807.54 264.779   1 0.13148-0.33504 0.10713 0.30997 0.99301-0.93573
  -3   5   1 2292.69 274.681   7-0.64949 0.44721 0.12430 0.29261-0.85501 0.91184
   2  -5  -1 -17.478 52.8701   4-0.14488 0.27447-0.05667-0.36084-0.99773 0.92638
   2   5  -1 92.0526 80.5349   6-0.19709 0.32710 0.07707 0.34072-0.99691 0.92579
  -2   5   1 -51.614 93.7769   6-0.27102 0.14102 0.35985 0.05696-0.92719 0.99757
  -2  -5   1 -26.350 68.1630   9 0.17687-0.30639-0.06733-0.34926 0.99776-0.92607
   2  -5  -1 99.1316 70.6771   9 0.00280 0.12710-0.44668 0.02879 0.88076-0.95233
   2   5  -1 73.2293 40.5284   5 0.58505-0.45474 0.23442 0.18315 0.86902-0.93938
  -2  -5   1 48.8221 67.0873   3-0.49360 0.36445-0.27484-0.14209-0.90045 0.97102
   2   5  -1 -9.6501 63.2461   2 0.43235-0.30248 0.29986 0.11717 0.91425-0.98502
   2  -5  -1 88.5712 60.8308   8 0.61922-0.49011-0.22101-0.19588 0.85287-0.92371
  -2   5   1 -47.768 52.3464   1 0.13813-0.26809 0.05579 0.36130 0.99751-0.92696
  -2   5   1 124.842 54.7413   2 0.25863-0.38868 0.10020 0.31727 0.99160-0.92108
   2  -5  -1 24.4082 20.4643   3-0.29770 0.42782-0.11543-0.30229-0.98574 0.91514
  -1  -5   1 172.107 79.4096   3-0.55199 0.49652-0.32467-0.09217-0.85482 0.93854
   1   5  -1 104.569 71.3210   6-0.18105 0.23730 0.02277 0.39518-0.99975 0.91547
   1  -5  -1 90.6512 45.6172   4-0.15738 0.21320-0.01655-0.40107-0.99959 0.91493
   1   5  -1 34.5979 57.0706   5 0.67617-0.61947 0.28671 0.13098 0.78931-0.87308
  -1   5   1 56.8025 62.0248   6-0.27724 0.22097 0.38727 0.02945-0.91506 0.99869
  -1  -5   1 87.1487 85.2346   9 0.19500-0.25096-0.02251-0.39388 0.99964-0.91480
   1  -5  -1 77.1145 54.3067   9 0.01063 0.04593-0.43138 0.01356 0.88946-0.97421
  -1  -5   1 129.389 32.0428   8 0.16682-0.22311-0.01845-0.39953 0.99975-0.91461
  -1   5   1 135.794 84.6975   1 0.14309-0.19944 0.01545 0.40162 0.99916-0.91534
   0   5  -1 11039.7 646.597   2 0.52312-0.54064 0.41234 0.00454 0.82776-0.92493
   0   5  -1 7648.60 546.293   6-0.17026 0.15271-0.01269 0.43072-0.99986 0.90221
   0   5   1 7733.81 542.183   6-0.28616 0.30358 0.42804-0.01143-0.89502 0.99186
   0  -5   1 8410.14 564.412   9 0.20992-0.19238 0.01526-0.43144 0.99942-0.90142
   0  -5  -1 8410.50 575.769   9 0.01136-0.02821-0.42994 0.01216 0.89026-0.98824
   0  -5   1 9963.32 416.721   8 0.09154-0.07401 0.01377-0.43174 0.99589-0.89735
   0  -5   1 8236.83 591.255   4-0.01418 0.03098-0.42915 0.01225-0.89066 0.98865
   0  -5  -1 8558.41 572.019   4-0.16689 0.14893 0.01459-0.43229-0.99981 0.90184
   0   5   1 8345.11 566.748   1 0.14648-0.12919-0.01329 0.43034 0.99933-0.90224
  -1  -5  -1 2522.71 325.359   9 0.00657-0.09692-0.43932 0.02156 0.88499-0.99624
  -1   5  -1 2591.02 334.132   6-0.16429 0.07295-0.03201 0.45006-0.99934 0.88835
   1  -5   1 2472.62 249.894   8 0.08068 0.01057 0.01839-0.43630 0.99478-0.88287
   1   5   1 2324.25 306.904   6-0.29743 0.38856 0.48283-0.06633-0.86402 0.97406
   1  -5   1 2341.36 293.659   9 0.22122-0.13023 0.04446-0.46041 0.99811-0.88696
   1  -5   1 2076.65 312.874   4-0.01026 0.10075-0.43916 0.02238-0.88526 0.99651
  -1   5  -1 2460.04 214.647   7-0.06434-0.02727-0.01348 0.43201-0.99308 0.88155
   1   5   1 2100.81 292.849   1 0.14838-0.05745-0.02986 0.44690 0.99905-0.88869
   2   5   1 5065.13 448.576   1 0.14880 0.01575-0.03363 0.45065 0.99894-0.87532
  -2   5  -1 5141.83 489.974   6-0.16250-0.00261-0.03775 0.45580-0.99911 0.87479
   2   5   1 6610.48 555.885   6-0.31029 0.47509 0.55161-0.13524-0.81777 0.94096
   2  -5   1 5509.25 437.144   9 0.22836-0.06400 0.06320-0.47894 0.99674-0.87246
   2  -5   1 5479.50 411.251   8 0.09082 0.07410 0.01408-0.43193 0.99582-0.87055
   2  -5   1 5269.42 487.620   4-0.00270 0.16688-0.45824 0.04161-0.87452 0.99902
  -2  -5  -1 5108.29 471.935   9-0.00262-0.16128-0.45719 0.03947 0.87455-0.99906
  -2   5  -1 5378.93 381.939   7-0.08274-0.08268-0.00933 0.42787-0.99511 0.87018
   3  -5   1 367.683 133.608   8 0.11064 0.12791 0.00563-0.42341 0.99750-0.85889
   3  -5   1 366.522 115.158   9 0.23060 0.00707 0.06911-0.48468 0.99623-0.85881
   3   5   1 284.752 126.417   1 0.14769 0.09050-0.02382 0.44080 0.99918-0.86230
  -3  -5  -1 382.743 169.456   9-0.01545-0.22207-0.48174 0.06405 0.85928-0.99705
  -3   5  -1 501.626 161.827   6-0.16433-0.07452-0.03188 0.44992-0.99935 0.86171
   3   5   1 62.4872 36.3753   8 0.03050 0.20743 0.03963 0.37635 0.98786-0.85096
  -3  -5  -1 352.686 69.0034   7-0.08693-0.15208-0.00839-0.40846-0.99552 0.85806
  -3   5  -1 444.290 144.758   7-0.10965-0.12957-0.00325 0.42177-0.99744 0.85912
   3  -5   1 176.378 97.5668   4 0.00796 0.22992-0.48479 0.06831-0.85858 0.99632
  -4   5  -1 527.349 184.959   6-0.16927-0.14330-0.01590 0.43391-0.99980 0.84886
   4  -5   1 875.784 158.253   9 0.22673 0.08418 0.05890-0.47432 0.99709-0.84654
  -4  -5  -1 656.992 205.728   9-0.03130-0.27989-0.51148 0.09385 0.83927-0.99029
   4  -5   1 643.815 159.225   8 0.13578 0.17638-0.00511-0.41260 0.99897-0.84702
   4   5   1 730.747 167.647   1 0.14486 0.16699 0.00061 0.41633 0.99935-0.84921
  -4   5  -1 852.202 203.892   7-0.14044-0.17257 0.00374 0.41476-0.99918 0.84745
  -4  -5  -1 813.552 123.439   7-0.15400-0.15870 0.00682-0.42362-0.99962 0.84882
   4  -5   1 630.423 180.440   4 0.02135 0.29027-0.51740 0.10109-0.83735 0.98828
   5  -5   1 150.907 55.6451   9 0.21462 0.16945 0.02733-0.44271 0.99900-0.83531
   5  -5   1 180.192 106.421   8 0.16414 0.22160-0.01730-0.40037 0.99973-0.83443
   5   5   1 235.279 98.8671   1 0.13996 0.24553 0.04113 0.37576 0.99830-0.83488
  -5  -5  -1 131.675 79.8295   4-0.15373-0.23264-0.02838-0.38940-0.99922 0.83486
  -5   5  -1 142.627 135.018   6-0.17690-0.20936 0.00906 0.40892-0.99996 0.83572
  -5  -5  -1 202.376 136.170   9-0.04971-0.33519-0.54519 0.12767 0.81444-0.97866
   5  -5   1 306.905 122.482   4 0.03711 0.34821-0.55486 0.13873-0.81052 0.97461
  -5   5  -1 -94.626 90.8400   7-0.17334-0.21344 0.01124 0.40723-0.99992 0.83479
  -5  -5  -1 165.163 72.9383   7-0.20667-0.17970 0.01887-0.43567-0.99947 0.83536
   6  -5   1 3572.45 524.755   4 0.05501 0.40403-0.59611 0.18013-0.77767 0.95489
   6  -5   1 2936.41 368.372   8 0.19465 0.26467-0.03045-0.38716 0.99944-0.82082
   6   5   1 4307.75 397.090   1 0.13243 0.32671 0.09998 0.31683 0.99380-0.81711
  -7   5  -1 265.789 97.5087   7-0.24277-0.29156 0.02718 0.39130-0.99760 0.80579
   7   5   1 453.338 195.470   2 0.21911 0.31334 0.05683 0.36053 0.99756-0.80784
  -7   5  -1 355.876 163.113   6-0.19861-0.33489 0.08234 0.33550-0.99646 0.80553
   7  -5   1 500.727 175.885   8 0.22663 0.30625-0.04430-0.37327 0.99791-0.80596
  -8   5  -1 78.9802 110.287   6-0.21221-0.39492 0.13015 0.28770-0.99097 0.78686
   8  -5   1 95.3813 104.456   8 0.25976 0.34669-0.05872-0.35883 0.99495-0.78974
  -8   5  -1 281.596 141.566   7-0.27823-0.32983 0.03539 0.38304-0.99431 0.78904
  -8  -5  -1 149.482 140.975   3-0.24935-0.35839-0.07749-0.34052-0.99441 0.79057
   9   5   1 363.890 180.494   2 0.27066 0.40880 0.11352 0.30386 0.98903-0.77291
  -9   5  -1 -9.9709 84.7579   7-0.31511-0.36692 0.04395 0.37467-0.98933 0.77117
  -9  -5  -1 -52.431 172.390   3-0.27917-0.40230-0.10083-0.31712-0.98957 0.77239
 -10  -6   1 200.787 143.649   3-0.47259-0.24661-0.25722-0.24340-0.91417 0.87834
  10   6  -1 -137.52 122.203   2 0.43841 0.28011 0.30716 0.19342 0.90971-0.87447
  10   6  -1 -50.115 167.191   5 0.51462 0.20396 0.19522 0.30535 0.91390-0.87828
  10  -6  -1 195.520 167.861   8 0.52739 0.19158-0.17833-0.32231 0.91226-0.87715
 -10   6   1 136.252 184.900   7-0.57398-0.14480 0.10567 0.39543-0.90225 0.86584
  -9   6   1 1328.94 324.182   6-0.29257-0.35308 0.45867 0.04175-0.87829 0.85567
  -9  -6   1 332.978 297.218   9-0.01700-0.62875-0.48465-0.01574 0.85739-0.87806
   9   6  -1 616.760 281.104   5 0.50214 0.14291 0.18837 0.31221 0.92063-0.89821
  -9  -6   1 733.698 242.744   3-0.45907-0.18636-0.24596-0.25470-0.92233 0.89987
   9  -6  -1 1148.86 358.031   8 0.51531 0.12998-0.17279-0.32786 0.91864-0.89681
   9   6  -1 542.031 237.286   2 0.42499 0.22003 0.29104 0.20952 0.91957-0.89755
  -9   6   1 695.699 279.781   7-0.56455-0.08042 0.10337 0.39771-0.90731 0.88430
  -8  -6   1 -58.818 99.4399   9 0.01312-0.58505-0.42649-0.07400 0.89216-0.89982
  -8   6   1 254.705 163.984   6-0.28535-0.28669 0.42426 0.07615-0.89698 0.88762
   8   6  -1 14.7493 191.714   5 0.49357 0.07797 0.18368 0.31693 0.92505-0.91585
  -8  -6   1 -163.41 172.062   3-0.44871-0.12296-0.23736-0.26331-0.92824 0.91913
   8  -6  -1 -65.640 168.196   8 0.50739 0.06420-0.16917-0.33149 0.92266-0.91411
   8   6  -1 115.864 105.509   2 0.41422 0.15727 0.27820 0.22235 0.92696-0.91819
   8  -6  -1 14.8924 150.090   4-0.01464 0.58666-0.42797-0.07179-0.89129 0.89923
  -8   6   1 -58.060 122.265   7-0.56037-0.01075 0.10235 0.39867-0.90950 0.89986
  -7   6   1 919.990 262.621   6-0.27929-0.21913 0.39643 0.10398-0.91077 0.91468
  -7  -6   1 823.424 266.432   9 0.04144-0.53957-0.36965-0.13089 0.92069-0.91529
   7   6  -1 201.348 111.070   5 0.48993 0.00808 0.18170 0.31894 0.92688-0.93091
   7  -6  -1 201.481 148.315   8 0.50483-0.00696-0.16801-0.33267 0.92393-0.92865
  -7  -6   1 737.368 257.638   3-0.44227-0.05562-0.23205-0.26863-0.93177 0.93599
   7   6  -1 461.897 177.670   2 0.40666 0.09130 0.26923 0.23132 0.93189-0.93637
  -7   6   1 340.493 181.087   7-0.56318 0.06589 0.10303 0.39792-0.90804 0.91174
   7  -6  -1 445.233 208.180   4-0.03842 0.53673-0.36588-0.13414-0.92137 0.91621
   6  -6  -1 28.6214 71.5155   4-0.06014 0.48471-0.30707-0.19320-0.94491 0.92658
  -6  -6   1 8.28395 106.346   9 0.06786-0.49222-0.31472-0.18583 0.94364-0.92512
  -6   6   1 22.1732 97.6036   6-0.27463-0.15015 0.37559 0.12482-0.92036 0.93755
  -6  -6   1 -23.194 124.199   3-0.44075 0.01664-0.23079-0.26989-0.93259 0.95011
   6   6  -1 47.0841 116.801   5 0.49270-0.06819 0.18321 0.31748 0.92549-0.94277
   6  -6  -1 204.250 123.301   8 0.50926-0.08514-0.17003-0.33063 0.92172-0.93969
   6   6  -1 86.9442 110.451   2 0.40298 0.02140 0.26488 0.23566 0.93421-0.95194
  -6   6   1 165.635 164.924   7-0.57543 0.15197 0.10602 0.39482-0.90146 0.91845
   5   6  -1 4969.51 547.696   2 0.40410-0.05329 0.26619 0.23435 0.93351-0.96451
  -5   6   1 4792.04 544.298   6-0.27158-0.07953 0.36227 0.13811-0.92616 0.95663
   5   6  -1 5786.40 481.301   6-0.28335 0.63451 0.41501 0.08547-0.90169 0.86994
   5  -6  -1 4780.77 522.090   8 0.52306-0.17268-0.17634-0.32430 0.91458-0.94579
  -5  -6   1 5129.11 554.508   3-0.44547 0.09515-0.23468-0.26596-0.93003 0.96085
  -5  -6   1 4595.37 528.874   9 0.09227-0.44287-0.26232-0.23818 0.96159-0.92993
   5   6  -1 5089.35 514.852   5 0.50388-0.15288 0.18933 0.31141 0.91971-0.95025
   5  -6  -1 4936.12 557.319   4-0.07973 0.43054-0.25224-0.24825-0.96282 0.93129
  -5   6   1 6023.15 544.550   7-0.60079 0.25115 0.11224 0.38848-0.88689 0.91713
  -4   6   1 78.2617 124.240   7-0.64471 0.36885 0.12311 0.37745-0.85838 0.90179
  -4  -6   1 40.9640 80.6014   9 0.11451-0.39139-0.21314-0.28730 0.97514-0.93032
   4  -6  -1 88.7331 88.7331   4-0.09712 0.37414-0.20210-0.29858-0.97598 0.93121
   4   6  -1 -4.9263 54.6883   6-0.25747 0.53493 0.30274 0.19800-0.94917 0.90425
  -4   6   1 89.8355 108.072   6-0.27038-0.00704 0.35709 0.14326-0.92836 0.97210
  -4   6   1 58.7898 97.5511   1 0.11621-0.39343 0.21502 0.28549 0.97463-0.93065
   4  -6  -1 92.4783 73.1904   9-0.03681 0.31312-0.52165 0.02018 0.83202-0.87750
   4   6  -1 183.002 105.663   5 0.52631-0.24883 0.20167 0.29914 0.90728-0.95111
  -4  -6   1 41.6211 60.0271   3-0.45816 0.18161-0.24521-0.25539-0.92286 0.96694
   4  -6  -1 79.8806 81.0183   8 0.54958-0.27300-0.18855-0.31206 0.89973-0.94415
   4   6  -1 123.606 78.3605   2 0.41107-0.13389 0.27447 0.22609 0.92903-0.97330
  -4  -6   1 -43.285 76.6986   4 0.01931-0.29708-0.51248 0.01178-0.84068 0.88557
  -3   6   1 1089.85 207.770   7-0.71497 0.51283 0.14079 0.35958-0.80258 0.85906
   3  -6  -1 1009.70 238.436   4-0.11222 0.31545-0.15743-0.34342-0.98521 0.92717
   3   6  -1 945.155 194.331   6-0.23519 0.43893 0.21483 0.28615-0.97489 0.91678
  -3   6   1 966.743 231.940   6-0.27123 0.06751 0.36077 0.13954-0.92680 0.98383
   3  -6  -1 924.636 181.172   9-0.01258 0.21573-0.47629-0.02501 0.86277-0.92123
   3   6  -1 1155.64 223.039   5 0.56396-0.36001 0.22259 0.27831 0.88377-0.94092
  -3  -6   1 1037.31 203.864   3-0.48116 0.27838-0.26440-0.23611-0.90873 0.96605
   3   6  -1 880.685 211.130   2 0.42531-0.22175 0.29140 0.20912 0.91935-0.97689
  -3   6   1 799.752 200.756   1 0.12367-0.32730 0.16387 0.33663 0.98488-0.92763
   3  -6  -1 1005.05 221.623   8 0.59364-0.39087-0.20901-0.29153 0.87151-0.92908
  -3  -6   1 908.149 230.104   9 0.13470-0.33778-0.16725-0.33294 0.98503-0.92668
  -3  -6   1 990.862 243.060   4 0.00278-0.20699-0.47193-0.02867-0.86645 0.92459
  -2   6   1 672.403 189.596   1 0.12953-0.25955 0.12162 0.37885 0.99125-0.92074
  -2   6   1 692.129 130.577   2 0.33612-0.46627 0.18725 0.31364 0.96840-0.89784
   2  -6  -1 420.176 156.731   4-0.12488 0.25434-0.11904-0.38193-0.99132 0.91999
   2   6  -1 634.150 171.433   6-0.21715 0.34713 0.14791 0.35324-0.98828 0.91692
  -2   6   1 593.101 167.474   6-0.27427 0.14427 0.37407 0.12619-0.92103 0.99132
  -2  -6   1 448.470 154.335   9 0.15200-0.28151-0.12694-0.37310 0.99160-0.92013
   2  -6  -1 573.582 145.747   9 0.00160 0.12831-0.44901-0.05218 0.87940-0.95097
  -2  -6   1 479.501 159.113   3-0.51748 0.38844-0.29505-0.20535-0.88321 0.95371
   2   6  -1 630.627 171.173   2 0.44839-0.31852 0.31921 0.18128 0.90190-0.97269
   2  -6  -1 625.720 183.891   8 0.66175-0.53278-0.24118-0.25926 0.81767-0.88829
  -2  -6   1 578.639 186.922   4-0.00724-0.12337-0.44680-0.05371-0.88103 0.95245
   1   6  -1 8707.69 588.713   2 0.48217-0.42601 0.36066 0.13979 0.87207-0.95608
   1   6  -1 8817.76 615.133   6-0.20348 0.25970 0.09929 0.40203-0.99481 0.91026
  -1   6   1 9491.68 515.452   2 0.26744-0.32381 0.10996 0.39104 0.98976-0.90599
  -1   6   1 9425.36 670.822   6-0.27958 0.22329 0.39775 0.10241-0.91014 0.99368
  -1  -6   1 11143.6 672.627   3-0.57062 0.51526-0.34087-0.15943-0.83760 0.92125
  -1  -6   1 9858.58 700.184   9 0.16671-0.22262-0.09193-0.40783 0.99573-0.91092
   1  -6  -1 10144.6 458.396   3-0.29738 0.35388-0.11518-0.38616-0.98581 0.90189
   1  -6  -1 9545.30 653.480   9 0.00827 0.04832-0.43600-0.06514 0.88687-0.97163
  -1  -6   1 10136.1 724.150   4-0.01202-0.04497-0.43468-0.06576-0.88770 0.97241
   1  -6  -1 9333.76 675.839   4-0.13497 0.19065-0.08785-0.41322-0.99506 0.91044
  -1   6   1 8835.05 639.154   1 0.13390-0.19031 0.08879 0.41168 0.99493-0.91115
   0  -6  -1 168.759 99.9430   4-0.14230 0.12422-0.06485-0.43628-0.99713 0.89920
   0   6  -1 284.843 124.359   6-0.19391 0.17635 0.06616 0.43530-0.99774 0.89996
   0  -6  -1 514.309 162.938   9 0.00905-0.02586-0.43447-0.06668 0.88773-0.98572
   0   6   1 664.613 202.405   1 0.13687-0.11964 0.06584 0.43461 0.99685-0.89980
   0   6   1 296.810 114.104   6-0.28713 0.30456 0.43257 0.06750-0.89264 0.98941
   0  -6   1 452.380 133.761   9 0.17822-0.16065-0.06400-0.43553 0.99798-0.89995
   0  -6   1 448.927 90.8003   8 0.27620-0.25894-0.06591-0.43561 0.99295-0.89442
   0  -6   1 554.238 190.246   4-0.01244 0.02913-0.43360-0.06674-0.88828 0.98629
   1  -6   1 6182.82 523.004   9 0.18625-0.09526-0.04427-0.45503 0.99902-0.88780
  -1   6  -1 5692.00 541.902   6-0.18805 0.09670 0.04624 0.45524-0.99892 0.88780
   1   6   1 6335.99 553.674   6-0.29667 0.38782 0.47902 0.02094-0.86634 0.97631
   1   6   1 6841.63 531.195   2 0.20696-0.11592 0.04365 0.45736 0.99865-0.88838
  -1  -6  -1 6406.07 565.179   9 0.00508-0.09537-0.44223-0.05892 0.88333-0.99458
   1  -6   1 7729.42 453.990   8 0.21747-0.12637-0.04033-0.46111 0.99848-0.88646
   1  -6   1 7062.79 612.296   4-0.00917 0.09955-0.44192-0.05831-0.88374 0.99502
  -1  -6  -1 6931.61 574.903   4-0.14661 0.05477-0.05119-0.44998-0.99809 0.88685
   1   6   1 3983.73 449.769   1 0.13844-0.04760 0.05327 0.44716 0.99766-0.88736
   2   6   1 159.094 124.072   1 0.13866 0.02583 0.05160 0.44880 0.99776-0.87419
   2   6   1 352.843 157.587   6-0.30773 0.47257 0.53725-0.03744-0.82816 0.95129
  -2  -6  -1 97.6520 81.4239   4-0.14753-0.01802-0.04825-0.45293-0.99827 0.87374
  -2   6  -1 93.1073 89.9502   6-0.18560 0.02049 0.03802 0.46347-0.99928 0.87482
   2  -6   1 114.214 54.4193   9 0.19025-0.02591-0.03438-0.46473 0.99937-0.87501
  -2  -6  -1 423.194 169.212   9-0.00282-0.16100-0.45757-0.04360 0.87432-0.99884
  -2   6  -1 175.752 79.9735   7-0.23135 0.06628 0.02455 0.47747-0.99835 0.87350
   2  -6   1 115.611 51.5223   4-0.00270 0.16678-0.45826-0.04184-0.87451 0.99905
   2  -6   1 209.665 104.385   8 0.19887-0.03404-0.03227-0.46911 0.99931-0.87392
   3   6   1 185.373 143.835   6-0.31940 0.55791 0.60672-0.10705-0.77388 0.91012
  -3  -6  -1 54.7876 56.1328   4-0.14454-0.09468-0.05775-0.44344-0.99766 0.85984
  -3   6  -1 593.684 204.105   6-0.18622-0.05264 0.04011 0.46137-0.99920 0.86141
   3   6   1 98.6059 89.1400   1 0.13742 0.10072 0.06148 0.43889 0.99715-0.86031
   3  -6   1 111.306 61.8344   9 0.18948 0.04812-0.03629-0.46267 0.99931-0.86181
  -3  -6  -1 101.744 99.3162   9-0.01405-0.22338-0.47907-0.02210 0.86099-0.99877
   3  -6   1 198.611 112.558   8 0.19912 0.03940-0.03238-0.46894 0.99931-0.86055
   3   6   1 229.938 127.564   2 0.19873 0.03955 0.03474 0.46620 0.99920-0.86242
  -3   6  -1 208.512 114.389   7-0.22461-0.01432 0.02300 0.47908-0.99872 0.86045
   3  -6   1 173.075 95.9919   4 0.00658 0.23122-0.48139-0.01858-0.86069 0.99848
   4   6   1 716.473 191.916   1 0.13456 0.17723 0.08373 0.41660 0.99540-0.84529
  -4  -6  -1 728.388 187.427   4-0.13685-0.17602-0.08201-0.41917-0.99565 0.84457
  -4   6  -1 871.169 261.571   6-0.18956-0.12302 0.05135 0.45009-0.99866 0.84757
  -4  -6  -1 1099.44 267.627   9-0.02812-0.28296-0.50556 0.00440 0.84339-0.99442
   4  -6   1 686.943 153.260   9 0.18279 0.12800-0.05280-0.44605 0.99863-0.84799
   4   6   1 764.349 203.842   2 0.20550 0.10638 0.04207 0.45884 0.99876-0.84873
   4  -6   1 878.489 215.919   8 0.21000 0.10217-0.03708-0.46416 0.99887-0.84677
  -4   6  -1 732.012 187.948   7-0.23380-0.07896 0.02512 0.47701-0.99820 0.84652
   4  -6   1 487.869 166.074   4 0.01837 0.29315-0.51023 0.01041-0.84218 0.99319
  -5   6  -1 2989.43 445.545   6-0.19527-0.19100 0.07084 0.43059-0.99740 0.83300
   5   6   1 2844.86 416.559   2 0.21718 0.16828 0.05473 0.44614 0.99775-0.83449
   5  -6   1 3019.39 400.508   8 0.22748 0.15830-0.04467-0.45651 0.99785-0.83240
   5  -6   1 3746.94 529.184   4 0.03241 0.35285-0.54381 0.04415-0.81872 0.98291
  -5  -6  -1 3767.75 527.980   9-0.04467-0.34011-0.53605 0.03492 0.82141-0.98567
   5   6   1 3363.85 387.571   1 0.12983 0.25562 0.11943 0.38084 0.99153-0.82815
  -6   6  -1 33.8854 100.964   6-0.20304-0.25688 0.09773 0.40362-0.99497 0.81722
   6   6   1 -84.123 90.6943   2 0.23262 0.22638 0.07159 0.42925 0.99594-0.81943
   6  -6   1 39.0430 97.2038   8 0.24940 0.20999-0.05420-0.44691 0.99603-0.81725
  -6  -6  -1 30.5053 142.073   9-0.06339-0.39514-0.56967 0.06863 0.79486-0.97232
   6  -6   1 336.840 223.935   4 0.04848 0.41051-0.58124 0.08177-0.78994 0.96727
  -6   6  -1 63.7708 100.313   7-0.27447-0.18590 0.03451 0.46761-0.99473 0.81625
  -7   6  -1 498.579 184.123   6-0.21270-0.32089 0.13188 0.36945-0.99072 0.79975
   7   6   1 355.665 211.920   2 0.25108 0.28147 0.09186 0.40896 0.99303-0.80330
   7  -6   1 307.171 186.651   8 0.27488 0.25817-0.06533-0.43586 0.99313-0.80129
  -7   6  -1 219.946 182.444   7-0.30146-0.23278 0.04079 0.46152-0.99137 0.79981
  -7  -6  -1 694.508 230.185   3-0.25853-0.27537-0.08466-0.41699-0.99309 0.80257
   8  -6   1 71.9330 70.0408   8 0.30253 0.30420-0.07745-0.42382 0.98900-0.78409
  -8   6  -1 146.638 151.001   6-0.22394-0.38330 0.17273 0.32859-0.98392 0.77978
   8   6   1 48.1312 125.390   2 0.27194 0.33413 0.11494 0.38585 0.98874-0.78580
  -8   6  -1 87.1799 100.806   7-0.32989-0.27811 0.04740 0.45481-0.98688 0.78181
  -8  -6  -1 128.427 141.339   3-0.28230-0.32536-0.10330-0.39830-0.98896 0.78511
   9   6   1 50.1032 112.788   2 0.29477 0.38481 0.14044 0.36036 0.98278-0.76663
  -9  -6  -1 72.3015 189.480   3-0.30797-0.37343-0.12354-0.37800-0.98335 0.76614
 -10   7   1 517.346 251.706   7-0.61275-0.10586 0.11519 0.46954-0.87955 0.84285
  -9   7   1 -291.16 272.424   7-0.60694-0.03783 0.11375 0.47092-0.88316 0.85986
  -9   7   1 120.340 194.645   6-0.29439-0.35136 0.46760 0.11623-0.87313 0.85037
  -9  -7   1 -102.39 167.373   9-0.01994-0.62564-0.49021-0.09380 0.85375-0.87451
  -9  -7   1 164.686 204.140   3-0.47945-0.16591-0.26297-0.32127-0.90983 0.88731
   9   7  -1 -32.161 115.287   5 0.53067 0.11444 0.20408 0.37987 0.90473-0.88245
   9   7  -1 227.442 156.377   2 0.43961 0.20550 0.30858 0.27541 0.90880-0.88681
   9  -7  -1 101.147 171.113   8 0.54659 0.09870-0.18717-0.39709 0.90148-0.87951
   9  -7  -1 -221.56 198.350   4 0.01327 0.63241-0.49780-0.08525-0.85034 0.87137
  -8   7   1 2255.55 443.220   7-0.60686 0.03594 0.11374 0.47086-0.88321 0.87327
  -8   7   1 2011.02 427.410   6-0.28809-0.28403 0.43714 0.14670-0.89020 0.88072
  -8  -7   1 1573.37 438.054   9 0.00716-0.57894-0.43818-0.14588 0.88564-0.89338
  -8  -7   1 2370.68 489.523   3-0.47114-0.10046-0.25601-0.32824-0.91507 0.90590
   8   7  -1 1525.13 364.711   5 0.52475 0.04686 0.20082 0.38317 0.90818-0.89912
   8   7  -1 2364.12 467.345   2 0.43050 0.14108 0.29763 0.28635 0.91561-0.90686
   8  -7  -1 1647.63 382.413   8 0.54159 0.02997-0.18487-0.39941 0.90436-0.89566
   8  -7  -1 1801.88 430.966   4-0.00978 0.58174-0.44038-0.14293-0.88459 0.89255
  -7   7   1 455.166 194.751   7-0.61429 0.11722 0.11557 0.46893-0.87858 0.88198
  -7   7   1 777.881 271.619   6-0.28286-0.21563 0.41271 0.17114-0.90284 0.90664
  -7  -7   1 563.695 280.962   9 0.03245-0.53044-0.38791-0.19617 0.91208-0.90674
   7   7  -1 717.865 275.569   5 0.52392-0.02582 0.20035 0.38367 0.90866-0.91283
  -7  -7   1 684.271 281.109   3-0.46674-0.03106-0.25234-0.33190-0.91776 0.92192
   7  -7  -1 489.682 246.677   8 0.54216-0.04435-0.18513-0.39915 0.90403-0.90860
   7   7  -1 623.961 210.590   2 0.42453 0.07349 0.29047 0.29352 0.91990-0.92440
   7  -7  -1 460.663 238.314   4-0.03089 0.52910-0.38581-0.19774-0.91233 0.90716
   6  -7  -1 1284.57 306.411   4-0.05004 0.47450-0.33468-0.24910-0.93444 0.91611
  -6   7   1 1855.49 374.948   7-0.63172 0.20847 0.11988 0.46449-0.86727 0.88394
  -6   7   1 1731.39 405.975   6-0.27890-0.14594 0.39462 0.18922-0.91163 0.92871
  -6  -7   1 1523.38 345.215   9 0.05586-0.48008-0.33991-0.24414 0.93366-0.91520
   6   7  -1 1162.43 299.912   5 0.52953-0.10495 0.20345 0.38062 0.90540-0.92281
  -6  -7   1 1564.69 353.176   3-0.46717 0.04316-0.25270-0.33151-0.91750 0.93497
   6  -7  -1 1440.74 338.593   8 0.54990-0.12585-0.18870-0.39557 0.89954-0.91735
   6   7  -1 1251.28 321.975   2 0.42228 0.00215 0.28780 0.29621 0.92147-0.93923
  -5   7   1 -50.356 76.0634   7-0.66265 0.31321 0.12758 0.45663-0.84542 0.87530
   5  -7  -1 173.471 166.546   4-0.06720 0.41787-0.28753-0.29645-0.95173 0.92019
  -5  -7   1 -161.12 108.886   9 0.07727-0.42774-0.29474-0.28924 0.95092-0.91932
  -5   7   1 -119.15 103.302   6-0.27636-0.07478 0.38332 0.20051-0.91688 0.94724
   5   7  -1 -33.921 67.1409   5 0.54347-0.19240 0.21118 0.37297 0.89700-0.92768
  -5  -7   1 -25.860 97.4893   3-0.47360 0.12338-0.25806-0.32610-0.91355 0.94430
   5  -7  -1 85.2879 119.150   8 0.56699-0.21673-0.19660-0.38763 0.88913-0.92017
   5   7  -1 37.3226 136.857   2 0.42454-0.07370 0.29048 0.29353 0.91989-0.95092
  -4  -7   1 2652.66 427.452   9 0.09654-0.37331-0.25299-0.33087 0.96440-0.91963
   4   7  -1 2516.32 402.680   2 0.43217-0.15498 0.29964 0.28438 0.91438-0.95868
   4  -7  -1 2609.55 440.517   4-0.08228 0.35917-0.24499-0.33918-0.96491 0.92013
   4   7  -1 2429.74 350.880   6-0.26746 0.54494 0.34453 0.23965-0.93351 0.88846
  -4   7   1 3089.77 468.706   6-0.27545-0.00200 0.37926 0.20452-0.91871 0.96236
   4  -7  -1 2588.46 398.549   8 0.59644-0.32000-0.21032-0.37388 0.86956-0.91377
   4   7  -1 2518.64 373.449   5 0.56822-0.29065 0.22497 0.35927 0.88089-0.92487
  -4  -7   1 2073.00 352.088   3-0.48751 0.21107-0.26971-0.31438-0.90457 0.94858
  -4  -7   1 3124.52 435.957   4 0.02126-0.29918-0.51721-0.06687-0.83748 0.88235
   4  -7  -1 2033.68 351.145   9-0.03883 0.31508-0.52536-0.05934 0.82933-0.87485
   3  -7  -1 499.984 209.667   4-0.09521 0.29832-0.20769-0.37662-0.97466 0.91662
   3   7  -1 555.779 171.731   6-0.24917 0.45290 0.26923 0.31516-0.96010 0.90183
  -3   7   1 331.771 112.521   6-0.27629 0.07255 0.38304 0.20073-0.91700 0.97393
  -3  -7   1 483.594 208.023   9 0.11353-0.31665-0.21534-0.36839 0.97460-0.91667
   3  -7  -1 489.753 190.394   9-0.01817 0.22127-0.48687-0.09768 0.85595-0.91447
  -3   7   1 490.459 184.785   1 0.11595-0.31963 0.21675 0.36713 0.97423-0.91702
   3   7  -1 422.625 154.861   5 0.60709-0.40305 0.24689 0.33747 0.85226-0.90958
  -3  -7   1 538.845 165.236   3-0.51081 0.30814-0.28938-0.29463-0.88821 0.94545
   3   7  -1 507.437 166.166   2 0.44629-0.24276 0.31665 0.26735 0.90358-0.96114
   3  -7  -1 526.140 174.339   8 0.64232-0.43969-0.23192-0.35218 0.83445-0.89178
  -3  -7   1 491.637 181.508   4 0.00704-0.21140-0.48251-0.10149-0.86000 0.91813
   2   7  -1 4247.86 466.985   2 0.46811-0.33827 0.34330 0.24069 0.88514-0.95595
   2   7  -1 4106.12 465.987   6-0.23407 0.36406 0.21059 0.37400-0.97589 0.90446
  -2   7   1 4939.96 549.774   6-0.27901 0.14899 0.39517 0.18853-0.91137 0.98156
  -2  -7   1 4537.68 470.238   3-0.54581 0.41688-0.31933-0.26457-0.86023 0.93065
  -2  -7   1 4310.58 516.459   9 0.12806-0.25757-0.18250-0.40105 0.98204-0.91093
   2  -7  -1 4602.37 478.659   9-0.00561 0.13551-0.46295-0.12153 0.87106-0.94269
   2   7  -1 4893.83 525.256   5 0.66409-0.53363 0.27965 0.30484 0.80162-0.87230
  -2   7   1 3891.99 478.270   1 0.12119-0.25127 0.18117 0.40270 0.98172-0.91125
  -2  -7   1 4579.80 529.598   4-0.00181-0.12895-0.46049-0.12344-0.87321 0.94463
   2  -7  -1 4066.84 503.770   4-0.10588 0.23520-0.17630-0.40811-0.98159 0.91027
  -1  -7   1 244.861 74.2170   9 0.14023-0.19611-0.15444-0.42870 0.98733-0.90260
   1   7  -1 602.993 184.247   2 0.49896-0.44284 0.38162 0.20230 0.85509-0.93911
  -1  -7   1 554.713 176.864   3-0.59502 0.53977-0.36236-0.22141-0.81274 0.89629
   1  -7  -1 561.102 180.951   4-0.11416 0.16969-0.15160-0.43290-0.98624 0.90163
   1   7  -1 653.809 194.217   6-0.22223 0.27845 0.16642 0.41832-0.98509 0.90039
  -1   7   1 454.355 159.738   6-0.28363 0.22734 0.41626 0.16737-0.90106 0.98451
   1  -7  -1 335.424 154.148   9 0.00063 0.05597-0.45090-0.13357 0.87829-0.96309
  -1   7   1 720.808 209.833   1 0.12509-0.18156 0.15382 0.43004 0.98656-0.90282
  -1  -7   1 555.061 201.268   4-0.00622-0.05088-0.44939-0.13447-0.87957 0.96429
   0  -7  -1 86.7619 87.3097   4-0.11985 0.10164-0.13439-0.45016-0.98908 0.89116
   0   7  -1 167.747 108.061   6-0.21361 0.19603 0.13513 0.44969-0.99025 0.89224
   0   7   1 410.603 133.634   2 0.29134-0.27403 0.13660 0.44790 0.98376-0.88674
   0   7  -1 468.171 183.549   2 0.53980-0.55741 0.43394 0.14990 0.80661-0.90378
   0   7   1 181.570 62.5070   6-0.29011 0.30755 0.44683 0.13671-0.88493 0.98161
   0  -7  -1 235.647 131.867   9 0.00176-0.01855-0.44870-0.13581 0.87958-0.97761
   0  -7   1 419.280 172.599   9 0.14902-0.13145-0.13395-0.44903 0.99060-0.89279
   0  -7  -1 443.952 121.573   3-0.32548 0.30834-0.13744-0.44746-0.97879 0.88153
   0  -7   1 181.767 78.6397   4-0.00686 0.02341-0.44777-0.13601-0.88048 0.97849
   0   7   1 416.416 159.514   1 0.12769-0.11053 0.13509 0.44875 0.98942-0.89242
  -1  -7  -1 628.281 209.785   4-0.12272 0.03077-0.12566-0.45892-0.99038 0.87917
  -1   7  -1 775.471 233.126   6-0.20804 0.11668 0.11531 0.46956-0.99295 0.88162
   1   7   1 1100.04 248.381   6-0.29831 0.38946 0.48728 0.09614-0.86129 0.97117
   1   7   1 1050.83 234.187   2 0.26643-0.17542 0.10884 0.47566 0.98998-0.87970
   1  -7   1 833.971 195.172   9 0.15450-0.06354-0.12104-0.46176 0.99240-0.88145
  -1  -7  -1 783.628 198.872   9-0.00132-0.08891-0.45468-0.12987 0.87605-0.98732
  -1  -7  -1 1071.57 207.164   3-0.28656 0.19562-0.10664-0.47842-0.98812 0.87754
   1  -7   1 1085.30 277.765   4-0.00424 0.09448-0.45440-0.12929-0.87673 0.98802
   1   7   1 859.502 241.217   1 0.12902-0.03822 0.12541 0.45841 0.99076-0.88049
  -2   7  -1 7323.33 703.114   6-0.20533 0.04021 0.10579 0.47912-0.99409 0.86947
   2   7   1 7307.20 643.544   2 0.25326-0.08859 0.09427 0.49020 0.99263-0.86910
   2   7   1 8579.34 756.894   6-0.30784 0.47269 0.53778 0.04549-0.82778 0.95083
   2  -7   1 7310.44 599.529   9 0.15616 0.00813-0.11711-0.46550 0.99291-0.86881
  -2  -7  -1 6752.22 657.502   9-0.00799-0.15575-0.46753-0.11707 0.86825-0.99278
  -2  -7  -1 7819.58 618.197   3-0.26673 0.10196-0.09107-0.49409-0.99178 0.86789
   2  -7   1 8107.11 556.283   8 0.30855-0.14389-0.08009-0.50503 0.98797-0.86277
   2  -7   1 7046.93 692.461   4 0.00128 0.16269-0.46820-0.11538-0.86868 0.99324
   2   7   1 7156.38 654.594   1 0.12904 0.03539 0.12522 0.45857 0.99078-0.86725
  -2  -7  -1 7286.88 636.847   4-0.12243-0.04322-0.12652-0.45807-0.99026 0.86575
  -3  -7  -1 1164.27 251.562   4-0.11853-0.12080-0.13839-0.44619-0.98845 0.85067
   3   7   1 1089.06 285.423   2 0.24877-0.01045 0.08931 0.49513 0.99344-0.85665
  -3   7  -1 910.438 250.269   6-0.20521-0.03365 0.10536 0.47953-0.99414 0.85620
   3  -7   1 820.501 188.894   9 0.15329 0.08426-0.12391-0.45855 0.99202-0.85474
   3   7   1 940.458 316.270   6-0.31806 0.55660 0.59806-0.01494-0.78122 0.91739
  -3  -7  -1 1029.08 273.845   9-0.01777-0.21957-0.48611-0.09851 0.85644-0.99424
   3  -7   1 1229.57 253.957   8 0.29141-0.05300-0.07257-0.51254 0.99078-0.85228
   3   7   1 835.432 196.917   1 0.12770 0.11038 0.13506 0.44870 0.98943-0.85263
   3  -7   1 685.021 231.234   4 0.00936 0.22835-0.48822-0.09523-0.85644 0.99425
  -3  -7  -1 1269.05 277.777   3-0.25951 0.02093-0.08542-0.49980-0.99294 0.85573
   4  -7   1 1462.12 238.212   9 0.14475 0.16595-0.14394-0.43845 0.98907-0.83869
  -4  -7  -1 1628.79 278.962   4-0.11031-0.20263-0.16311-0.42146-0.98416 0.83312
  -4   7  -1 1304.32 304.453   6-0.20743-0.10516 0.11315 0.47170-0.99322 0.84192
   4   7   1 1940.01 383.300   2 0.25087 0.06104 0.09163 0.49276 0.99307-0.84304
  -4  -7  -1 1617.48 326.450   9-0.03022-0.28075-0.50946-0.07518 0.84068-0.99173
   4  -7   1 1674.92 320.840   8 0.28883 0.02332-0.07143-0.51355 0.99118-0.83923
   4   7   1 1433.39 281.257   1 0.12484 0.18689 0.15558 0.42814 0.98628-0.83621
   4  -7   1 1607.11 321.705   4 0.01977 0.29166-0.51361-0.06969-0.83992 0.99096
  -4  -7  -1 1561.39 315.689   3-0.26110-0.05130-0.08667-0.49858-0.99269 0.84215
  -5   7  -1 552.790 214.644   6-0.21180-0.17449 0.12868 0.45616-0.99118 0.82664
  -5  -7  -1 800.866 281.172   9-0.04507-0.33960-0.53677-0.04788 0.82087-0.98516
   5   7   1 794.878 226.235   1 0.12026 0.26513 0.18764 0.39603 0.98046-0.81712
   5  -7   1 552.800 168.731   8 0.29626 0.08959-0.07469-0.51031 0.99003-0.82489
   5   7   1 532.266 182.672   2 0.25811 0.12739 0.09962 0.48474 0.99170-0.82843
   5  -7   1 918.482 266.756   4 0.03230 0.35289-0.54355-0.03960-0.81892 0.98315
  -5   7  -1 908.883 239.975   7-0.33907-0.04719 0.04956 0.53621-0.98522 0.82018
  -5  -7  -1 462.349 191.768   3-0.26911-0.11710-0.09294-0.49232-0.99138 0.82751
  -6   7  -1 147.340 124.796   6-0.21800-0.24194 0.15099 0.43377-0.98778 0.80987
   6   7   1 245.687 176.680   2 0.26943 0.18965 0.11215 0.47217 0.98931-0.81281
  -6  -7  -1 559.784 239.326   9-0.06203-0.39636-0.56726-0.01736 0.79684-0.97434
   6  -7   1 476.368 213.902   8 0.30980 0.14970-0.08065-0.50429 0.98774-0.80928
   6  -7   1 431.012 287.419   4 0.04678 0.41215-0.57733-0.00564-0.79308 0.97048
  -6   7  -1 533.770 207.738   7-0.34996-0.11015 0.05211 0.53366-0.98311 0.80463
  -6  -7  -1 435.885 205.090   3-0.28192-0.17807-0.10300-0.48225-0.98904 0.81183
  -7   7  -1 -252.07 179.225   6-0.22600-0.30766 0.18032 0.40449-0.98244 0.79145
   7   7   1 5.03383 105.304   2 0.28401 0.24860 0.12840 0.45588 0.98576-0.79602
   7  -7   1 20.8925 114.289   8 0.32801 0.20515-0.08867-0.49623 0.98427-0.79254
  -7   7  -1 8.21742 134.112   7-0.36708-0.16684 0.05612 0.52970-0.97949 0.78764
  -7  -7  -1 95.2017 115.076   3-0.29845-0.23533-0.11601-0.46920-0.98557 0.79502
   8   7   1 1918.32 458.168   2 0.30129 0.30486 0.14776 0.43649 0.98082-0.77787
  -8   7  -1 138.673 136.526   6-0.23537-0.37192 0.21552 0.36925-0.97472 0.77046
  -8  -7  -1 1498.57 367.079   3-0.31789-0.28966-0.13141-0.45374-0.98084 0.77694
  -9   8   1 -227.52 294.724   6-0.29745-0.34838 0.48291 0.18435-0.86398 0.84109
   9  -8  -1 44.0518 172.801   8 0.58197 0.06328-0.20357-0.46432 0.87944-0.85728
  -8   8   1 54.3830 198.507   6-0.29196-0.28023 0.45572 0.21155-0.87996 0.87036
  -8  -8   1 366.257 160.143   9-0.00168-0.56993-0.45537-0.21225 0.87564-0.88345
   8   8  -1 442.729 238.552   2 0.44914 0.12250 0.32012 0.34734 0.90129-0.89256
  -8  -8   1 375.459 255.985   3-0.49651-0.07499-0.27729-0.39051-0.89845 0.88918
   8   8  -1 447.087 249.268   5 0.55963 0.01204 0.22016 0.44719 0.88666-0.87776
   8  -8  -1 231.966 157.456   8 0.57993-0.00843-0.20262-0.46529 0.88079-0.87190
   8  -8  -1 46.9255 208.468   4-0.00258 0.57446-0.45855-0.20829-0.87434 0.88229
  -7   8   1 190.175 179.269   6-0.28745-0.21110 0.43408 0.23320-0.89184 0.89551
  -7  -8   1 -97.821 103.778   9 0.02113-0.51896-0.41064-0.25694 0.90063-0.89535
  -7  -8   1 83.7799 170.322   3-0.49408-0.00362-0.27523-0.39256-0.90013 0.90420
   7   8  -1 192.630 176.175   5 0.56155-0.06336 0.22124 0.44618 0.88539-0.88972
   7   8  -1 4.44539 143.160   2 0.44463 0.05342 0.31466 0.35280 0.90489-0.90941
   7  -8  -1 229.517 243.374   8 0.58364-0.08590-0.20434-0.46355 0.87833-0.88270
   7  -8  -1 278.149 220.171   4-0.02154 0.51966-0.41020-0.25688-0.90048 0.89531
  -6  -8   1 267.435 198.856   9 0.04206-0.46613-0.36840-0.29912 0.92127-0.90287
  -6   8   1 865.818 348.101   6-0.28408-0.14081 0.41829 0.24899-0.90004 0.91700
  -6  -8   1 830.570 314.633   3-0.49635 0.07245-0.27716-0.39059-0.89856 0.91593
   6   8  -1 393.714 211.857   5 0.56993-0.14525 0.22594 0.44156 0.87972-0.89730
   6   8  -1 732.855 257.800   2 0.44371-0.01925 0.31354 0.35393 0.90562-0.92340
   6  -8  -1 636.582 270.925   8 0.59460-0.17067-0.20946-0.45842 0.87084-0.88844
   6  -8  -1 424.818 231.104   4-0.03865 0.46299-0.36528-0.30201-0.92164 0.90329
   5  -8  -1 319.211 201.518   4-0.05386 0.40441-0.32430-0.34318-0.93849 0.90694
  -5  -8   1 -114.29 180.294   9 0.06101-0.41138-0.32913-0.33829 0.93804-0.90649
  -5   8   1 -253.70 118.094   6-0.28198-0.06921 0.40866 0.25862-0.90485 0.93510
   5   8  -1 171.767 171.569   5 0.58647-0.23531 0.23523 0.43235 0.86798-0.89884
  -5  -8   1 128.543 136.460   3-0.50438 0.15428-0.28394-0.38375-0.89289 0.92355
   5   8  -1 138.970 182.038   2 0.44700-0.09616 0.31753 0.34998 0.90301-0.93405
   5  -8  -1 489.669 196.652   8 0.61484-0.26472-0.21894-0.44889 0.85619-0.88699
   4  -8  -1 111.405 130.938   4-0.06712 0.34387-0.28775-0.37988-0.95165 0.90686
   4   8  -1 233.843 129.029   6-0.27707 0.55457 0.38649 0.28114-0.91542 0.87022
  -4   8   1 286.830 251.996   6-0.28131 0.00382 0.40558 0.26167-0.90636 0.94989
  -4  -8   1 358.029 267.004   9 0.07790-0.35458-0.29336-0.37392 0.95140-0.90670
  -4  -8   1 167.476 151.829   3-0.51942 0.24311-0.29672-0.37089-0.88172 0.92562
   4   8  -1 287.532 152.982   5 0.61333-0.33568 0.25043 0.41725 0.84725-0.89141
   4   8  -1 250.919 204.185   2 0.45526-0.17806 0.32756 0.33994 0.89627-0.94058
  -4  -8   1 446.218 213.495   4 0.02743-0.30548-0.53199-0.13547-0.82722 0.87206
  -3  -8   1 -44.545 88.1103   3-0.54304 0.34049-0.31695-0.35056-0.86260 0.91972
   3  -8  -1 31.6158 110.714   4-0.07834 0.28130-0.25620-0.41157-0.96165 0.90360
   3   8  -1 231.263 174.659   6-0.26174 0.46548 0.32040 0.34743-0.94283 0.88443
  -3   8   1 -165.01 153.730   6-0.28216 0.07838 0.40949 0.25773-0.90444 0.96125
   3   8  -1 111.423 100.435   2 0.46933-0.26582 0.34480 0.32271 0.88405-0.94161
   3  -8  -1 -78.439 140.481   9-0.02829 0.23136-0.50588-0.16193 0.84317-0.90178
  -3  -8   1 -149.85 123.258   9 0.09257-0.29560-0.26167-0.40545 0.96179-0.90392
  -3  -8   1 226.449 143.179   4 0.01466-0.21914-0.50119-0.16621-0.84814 0.90625
   2  -8  -1 120.044 152.505   4-0.08743 0.21662-0.23021-0.43764-0.96897 0.89764
  -2   8   1 291.792 115.605   6-0.28461 0.15457 0.42079 0.24637-0.89876 0.96884
  -2   8   1 131.376 98.6065   1 0.11293-0.24306 0.23667 0.43060 0.96943-0.89899
   2   8  -1 -55.493 73.8277   6-0.24881 0.37878 0.26777 0.40023-0.96054 0.88889
  -2  -8   1 -49.695 111.619   9 0.10484-0.23429-0.23470-0.43223 0.96958-0.89855
  -2  -8   1 -60.066 108.437   3-0.57700 0.44818-0.34646-0.32092-0.83136 0.90164
   2   8  -1 -19.832 102.706   2 0.49019-0.36038 0.37064 0.29685 0.86415-0.93494
   2  -8  -1 137.598 128.750   9-0.01663 0.14649-0.48396-0.18382 0.85784-0.92955
  -2  -8   1 277.260 183.527   4 0.00648-0.13737-0.48113-0.18621-0.86085 0.93224
   1  -8  -1 733.397 261.637   4-0.09427 0.14968-0.21043-0.45749-0.97400 0.88938
   1   8  -1 766.576 260.679   6-0.23846 0.29466 0.22736 0.44077-0.97180 0.88689
   1   8  -1 930.288 273.792   2 0.51872-0.46265 0.40671 0.26072 0.83301-0.91699
  -1   8   1 790.455 240.563   6-0.28869 0.23238 0.43995 0.22714-0.88869 0.97202
  -1   8   1 574.136 187.595   1 0.11644-0.17295 0.21349 0.45375 0.97497-0.89127
   1  -8  -1 601.546 231.995   9-0.01046 0.06706-0.47225-0.19553 0.86531-0.95018
  -1  -8   1 846.632 236.266   9 0.11450-0.17043-0.21316-0.45357 0.97514-0.89094
  -1  -8   1 722.082 273.643   4 0.00221-0.05945-0.47052-0.19677-0.86729 0.95199
   0   8   1 490.756 176.324   2 0.34785-0.33060 0.20069 0.46729 0.96342-0.86636
   0  -8  -1 550.243 211.523   4-0.09867 0.08034-0.19756-0.47041-0.97702 0.87911
   0   8  -1 447.692 181.392   6-0.23079 0.21322 0.19818 0.47010-0.97870 0.88064
   0   8   1 369.138 193.858   6-0.29433 0.31178 0.46736 0.19964-0.87327 0.96983
   0  -8   1 446.184 185.785   9 0.12128-0.10375-0.19788-0.46866 0.97872-0.88136
   0  -8  -1 446.330 152.330   9-0.00886-0.00790-0.46918-0.19866 0.86723-0.96530
   0   8   1 365.029 173.506   1 0.11874-0.10164 0.19798 0.46924 0.97835-0.88139
   0  -8   1 217.918 157.930   4 0.00129 0.01513-0.46823-0.19899-0.86866 0.96666
  -1  -8  -1 330.307 156.479   4-0.10043 0.00835-0.19241-0.47558-0.97818 0.86697
   1   8   1 318.629 99.9635   2 0.32074-0.22978 0.16975 0.49825 0.97431-0.86401
  -1   8  -1 28.3604 135.371   6-0.22555 0.13420 0.17868 0.48964-0.98277 0.87136
   1   8   1 113.850 139.164   6-0.30143 0.39259 0.50332 0.16356-0.85115 0.96092
   1  -8   1 109.695 88.8736   9 0.12483-0.03391-0.18983-0.47652 0.98049-0.86999
  -1  -8  -1 236.031 173.585   9-0.01110-0.07909-0.47347-0.19445 0.86455-0.97586
   1   8   1 651.630 201.574   1 0.11984-0.02910 0.19050 0.47673 0.97989-0.86966
  -1  -8  -1 342.905 129.631   3-0.36147 0.27070-0.16623-0.50222-0.96750 0.85687
   1  -8   1 315.468 170.006   4 0.00332 0.08681-0.47329-0.19386-0.86563 0.97692
   2  -8   1 131.080 105.090   9 0.12468 0.03958-0.19018-0.47601 0.98042-0.85677
  -2  -8  -1 270.730 153.707   4-0.09923-0.06653-0.19593-0.47206-0.97739 0.85289
   2   8   1 177.335 112.609   2 0.30442-0.13976 0.15128 0.51669 0.97985-0.85630
  -2   8  -1 383.209 246.676   6-0.22273 0.05760 0.16824 0.50011-0.98476 0.86002
   2   8   1 565.383 235.110   6-0.30965 0.47454 0.54797 0.11877-0.82044 0.94339
  -2  -8  -1 136.496 122.118   9-0.01667-0.14702-0.48403-0.18396 0.85780-0.98236
   2   8   1 6.47233 128.932   1 0.11971 0.04467 0.19140 0.47579 0.97971-0.85622
  -2  -8  -1 260.624 113.963   3-0.33507 0.17047-0.14508-0.52352-0.97604 0.85210
   2  -8   1 224.877 125.529   4 0.00799 0.15586-0.48485-0.18220-0.85855 0.98311
  -3  -8  -1 111.339 77.2484   4-0.09466-0.14477-0.20929-0.45868-0.97427 0.83650
   3   8   1 65.6001 105.457   2 0.29638-0.05806 0.14225 0.52569 0.98231-0.84552
  -3   8  -1 420.224 181.064   6-0.22213-0.01674 0.16607 0.50228-0.98516 0.84711
   3   8   1 361.954 254.306   6-0.31855 0.55713 0.60116 0.06543-0.77861 0.91469
   3  -8   1 222.952 145.680   9 0.12017 0.11735-0.20042-0.46564 0.97815-0.84139
   3   8   1 365.170 185.795   1 0.11828 0.11976 0.20115 0.46601 0.97768-0.84092
  -3  -8  -1 497.039 239.373   9-0.02512-0.21214-0.49994-0.16811 0.84723-0.98506
  -3  -8  -1 143.725 133.702   3-0.32153 0.08313-0.13430-0.53438-0.97987 0.84262
   3  -8   1 336.447 207.573   4 0.01505 0.22255-0.50214-0.16480-0.84752 0.98535
  -4  -8  -1 422.257 167.170   4-0.08611-0.22693-0.23402-0.43394-0.96795 0.81692
  -4   8  -1 628.304 259.423   6-0.22362-0.08898 0.17156 0.49680-0.98414 0.83285
   4   8   1 548.367 227.810   2 0.29484 0.01710 0.14052 0.52738 0.98276-0.83272
   4   8   1 387.018 150.770   1 0.11542 0.19627 0.22031 0.44680 0.97340-0.82338
  -4  -8  -1 332.978 172.319   9-0.03613-0.27473-0.52041-0.14770 0.83292-0.98400
   4  -8   1 582.460 232.212   4 0.02428 0.28706-0.52444-0.14237-0.83251 0.98358
  -4  -8  -1 567.438 235.110   3-0.31728 0.00506-0.13093-0.53782-0.98100 0.83041
   5   8   1 209.142 156.412   1 0.11095 0.27440 0.24954 0.41752 0.96610-0.80279
  -5  -8  -1 134.969 158.998   9-0.04946-0.33510-0.54473-0.12343 0.81479-0.97911
   5   8   1 -244.61 166.226   2 0.29848 0.08707 0.14461 0.52324 0.98168-0.81840
  -5   8  -1 -59.139 197.035   6-0.22698-0.15935 0.18395 0.48439-0.98171 0.81715
   5  -8   1 107.350 160.693   8 0.36837 0.01741-0.10654-0.56223 0.97489-0.80983
   5  -8   1 -35.857 162.165   4 0.03552 0.34958-0.55111-0.11555-0.81333 0.97760
  -5  -8  -1 -75.659 164.627   3-0.31996-0.06608-0.13306-0.53571-0.98029 0.81638
   6   8   1 444.718 211.624   2 0.30632 0.15281 0.15343 0.51438 0.97924-0.80272
  -6   8  -1 508.051 218.938   6-0.23202-0.22799 0.20283 0.46548-0.97767 0.79983
  -6  -8  -1 298.622 205.592   9-0.06485-0.39342-0.57226-0.09591 0.79271-0.97024
   6  -8   1 243.082 93.8060   8 0.37405 0.08544-0.10908-0.55970 0.97337-0.79509
   6  -8   1 461.872 168.915   4 0.04861 0.41025-0.58154-0.08496-0.78970 0.96713
  -6  -8  -1 212.321 174.531   3-0.32796-0.13188-0.13941-0.52936-0.97810 0.80084
   7   8   1 38.6437 119.821   2 0.31760 0.21510 0.16618 0.50159 0.97543-0.78568
  -7   8  -1 -78.510 167.076   6-0.23858-0.29510 0.22781 0.44045-0.97168 0.78057
  -7  -8  -1 144.876 193.909   3-0.34011-0.19353-0.14911-0.51965-0.97452 0.78391
   8   8   1 126.473 168.941   5 0.39296 0.21272 0.12937 0.53720 0.96627-0.76474
  -7   9   1 209.958 240.206   6-0.29267-0.20593 0.45918 0.29157-0.87800 0.88154
  -7  -9   1 -106.45 213.417   3-0.52361 0.02603-0.30028-0.45105-0.87848 0.88242
   7   9  -1 391.288 243.060   5 0.60206-0.10380 0.24403 0.50678 0.85621-0.86075
   7  -9  -1 173.161 246.318   4-0.01079 0.50878-0.43780-0.31280-0.88600 0.88080
  -6   9   1 111.442 225.552   6-0.28979-0.13513 0.44529 0.30545-0.88578 0.90261
  -6  -9   1 236.469 198.728   9 0.02680-0.45074-0.39929-0.35167 0.90645-0.88811
  -6  -9   1 398.440 191.302   3-0.52760 0.10381-0.30368-0.44760-0.87533 0.89258
   6   9  -1 519.718 251.397   2 0.46666-0.04218 0.34150 0.40946 0.88644-0.90423
   6  -9  -1 520.219 294.049   4-0.02622 0.45043-0.39805-0.35275-0.90649 0.88811
  -5   9   1 130.179 117.149   6-0.28807-0.06316 0.43706 0.31367-0.89024 0.92036
  -5  -9   1 63.9477 172.935   9 0.04374-0.39398-0.36494-0.38590 0.92283-0.89135
  -5  -9   1 168.265 100.810   3-0.53706 0.18708-0.31181-0.43941-0.86763 0.89814
   5   9  -1 177.288 183.650   2 0.47087-0.12003 0.34670 0.40431 0.88265-0.91370
   5  -9  -1 -59.313 154.945   4-0.03984 0.39024-0.36210-0.38886-0.92303 0.89144
   4  -9  -1 1271.00 352.114   4-0.05160 0.32822-0.33044-0.42067-0.93611 0.89128
  -4  -9   1 758.570 233.922   9 0.05864-0.33522-0.33409-0.41659 0.93604-0.89141
  -4   9   1 1413.51 390.161   6-0.28761 0.01007 0.43481 0.31591-0.89145 0.93485
  -4  -9   1 1195.21 267.276   3-0.55311 0.27692-0.32563-0.42547-0.85383 0.89758
   4   9  -1 1260.17 346.542   2 0.47966-0.20248 0.35754 0.39346 0.87448-0.91878
   3  -9  -1 219.613 220.890   4-0.06144 0.26426-0.30351-0.44771-0.94619 0.88811
   3   9  -1 127.526 116.163   2 0.49370-0.29022 0.37505 0.37596 0.86057-0.91811
   3   9  -1 112.428 158.840   6-0.27323 0.47697 0.36947 0.38180-0.92306 0.86449
  -3   9   1 365.881 266.829   6-0.28846 0.08466 0.43886 0.31182-0.88928 0.94596
  -3  -9   1 345.530 197.190   3-0.57696 0.37451-0.34642-0.40457-0.83140 0.88835
  -3  -9   1 -91.998 182.410   9 0.07138-0.27436-0.30725-0.44327 0.94642-0.88863
  -3  -9   1 136.978 141.023   4 0.02455-0.22917-0.52509-0.22572-0.83206 0.89014
   2   9  -1 3273.99 514.217   2 0.51373-0.38395 0.40033 0.35066 0.83881-0.90958
   2  -9  -1 2828.74 521.581   4-0.06925 0.19828-0.28181-0.46948-0.95363 0.88227
   2   9  -1 2874.17 474.469   6-0.26206 0.39203 0.32171 0.42972-0.94235 0.87056
  -2   9   1 2897.28 547.178   6-0.29068 0.16063 0.44954 0.30108-0.88343 0.95338
  -2  -9   1 3290.72 581.543   9 0.08182-0.21122-0.28498-0.46533 0.95428-0.88333
   2  -9  -1 2461.28 466.843   9-0.03027 0.16010-0.50958-0.24150 0.84060-0.91243
  -2  -9   1 2963.38 508.526   4 0.01678-0.14780-0.50636-0.24440-0.84475 0.91612
   1  -9  -1 178.185 169.660   4-0.07491 0.13017-0.26590-0.48545-0.95871 0.87407
   1   9  -1 382.498 214.922   6-0.25295 0.30915 0.28438 0.46719-0.95533 0.87028
   1   9  -1 199.502 201.131   2 0.54034-0.48430 0.43466 0.31628 0.80589-0.88984
  -1  -9   1 274.073 133.522   9 0.08970-0.14561-0.26793-0.48220 0.95984-0.87573
  -1   9   1 253.896 145.082   6-0.29431 0.23799 0.46721 0.28335-0.87336 0.95656
   1  -9  -1 248.661 177.328   9-0.02402 0.08059-0.49789-0.25321 0.84862-0.93359
  -1  -9   1 283.086 186.653   4 0.01251-0.06988-0.49596-0.25476-0.85152 0.93620
   0  -9  -1 -264.29 210.482   4-0.07827 0.05979-0.25639-0.49499-0.96159 0.86367
   0   9  -1 -105.09 105.456   6-0.24599 0.22840 0.25664 0.49502-0.96384 0.86552
   0   9   1 324.724 227.173   6-0.29926 0.31670 0.49216 0.25830-0.85825 0.95469
   0  -9   1 -10.230 104.326   9 0.09480-0.07726-0.25679-0.49312 0.96327-0.86601
   0  -9  -1 5.02134 106.785   9-0.02191 0.00515-0.49392-0.25723 0.85129-0.94944
   0  -9   1 336.446 241.526   4 0.01129 0.00501-0.49296-0.25771-0.85344 0.95141
  -1  -9  -1 -32.298 107.480   4-0.07912-0.01307-0.25396-0.49742-0.96231 0.85109
   1   9   1 -22.199 166.449   1 0.11076-0.02007 0.25078 0.49982 0.96577-0.85558
  -1   9  -1 -135.87 124.933   6-0.24115 0.14978 0.23771 0.51402-0.96910 0.85750
  -1  -9  -1 304.691 208.848   9-0.02336-0.06680-0.49664-0.25462 0.84947-0.96084
   1   9   1 -252.62 206.304   6-0.30543 0.39661 0.52461 0.22574-0.83697 0.94661
   1  -9   1 106.501 113.983   9 0.09679-0.00588-0.25244-0.49728 0.96456-0.85416
   1  -9   1 -13.419 112.236   4 0.01278 0.07721-0.49661-0.25400-0.85110 0.96237
   1   9   1 57.0764 130.383   2 0.37113-0.28022 0.22758 0.52390 0.95231-0.84197
   2   9   1 2416.45 449.912   2 0.35267-0.18803 0.20622 0.54526 0.96127-0.83769
  -2  -9  -1 2365.47 476.078   4-0.07719-0.08869-0.25944-0.49193-0.96068 0.83617
   2   9   1 1898.72 391.067   1 0.11048 0.05385 0.25253 0.49804 0.96530-0.84184
  -2   9  -1 2438.65 516.586   6-0.23833 0.07321 0.22686 0.52490-0.97192 0.84705
   2   9   1 2498.25 510.761   6-0.31256 0.47747 0.56469 0.18552-0.80794 0.93076
   2  -9   1 1970.74 392.127   9 0.09521 0.06900-0.25590-0.49366 0.96353-0.84002
  -2  -9  -1 2235.54 451.809   9-0.02790-0.13573-0.50515-0.24621 0.84367-0.96829
   2  -9   1 1627.74 419.580   4 0.01671 0.14702-0.50620-0.24432-0.84486 0.96941
  -3  -9  -1 -115.96 158.460   4-0.07209-0.16745-0.27383-0.47752-0.95622 0.81844
   3   9   1 -67.230 114.579   2 0.34197-0.10367 0.19395 0.55750 0.96597-0.82915
  -3   9  -1 43.1391 233.066   6-0.23746-0.00143 0.22347 0.52830-0.97277 0.83462
  -3  -9  -1 -442.39 217.394   9-0.03519-0.20199-0.51867-0.23279 0.83417-0.97203
  -3  -9  -1 -226.56 144.791   3-0.38212 0.14391-0.18289-0.56924-0.95979 0.82245
   3  -9   1 -155.34 154.008   4 0.02288 0.21460-0.52109-0.22935-0.83483 0.97264
   3  -9   1 33.0056 116.359   9 0.08945 0.14801-0.26847-0.48099 0.95967-0.82306
   3   9   1 -105.38 267.197   6-0.32026 0.55888 0.61228 0.13778-0.76907 0.90501
   4   9   1 406.335 251.285   2 0.33756-0.02561 0.18889 0.56251 0.96781-0.81775
  -4   9  -1 585.348 134.901   6-0.23837-0.07425 0.22700 0.52478-0.97189 0.82045
  -4  -9  -1 729.140 238.455   9-0.04493-0.26584-0.53654-0.21502 0.82104-0.97215
  -4  -9  -1 1129.88 388.187   3-0.37304 0.06099-0.17554-0.57667-0.96330 0.81264
   4  -9   1 828.099 367.679   4 0.03109 0.28014-0.54069-0.20962-0.82100 0.97205
   5   9   1 -139.87 196.613   2 0.33826 0.04732 0.18969 0.56167 0.96752-0.80423
  -5   9  -1 -186.87 145.561   6-0.24096-0.14538 0.23697 0.51479-0.96930 0.80458
  -5  -9  -1 119.892 160.593   9-0.05690-0.32754-0.55812-0.19350 0.80427-0.96861
  -5  -9  -1 -216.22 239.172   3-0.37115-0.01471-0.17402-0.57824-0.96400 0.80001
   5  -9   1 103.172 261.524   4 0.04121 0.34380-0.56445-0.18573-0.80322 0.96748
   6   9   1 -174.60 216.662   2 0.34316 0.11601 0.19532 0.55600 0.96546-0.78893
  -6   9  -1 -27.603 98.5782   6-0.24506-0.21497 0.25298 0.49875-0.96489 0.78689
  -6  -9  -1 115.617 216.896   3-0.37489-0.08478-0.17705-0.57524-0.96260 0.78526
   6  -9   1 352.230 185.016   4 0.05313 0.40565-0.59184-0.15819-0.78124 0.95870
   7   9   1 158.607 215.251   5 0.43309 0.09921 0.15087 0.59911 0.95208-0.76389
   5  10  -1 2465.04 538.418   2 0.49567-0.14482 0.37751 0.45698 0.85854-0.88956
  -5 -10   1 4151.04 689.343   3-0.57104 0.22118-0.34125-0.49346-0.83718 0.86751
  -4  10   1 -5.9597 116.648   6-0.29410 0.01654 0.46615 0.36802-0.87398 0.91723
   4  10  -1 -117.63 234.230   2 0.50490-0.22773 0.38912 0.44539 0.84871-0.89298
  -4 -10   1 -200.97 244.316   9 0.03876-0.31527-0.37510-0.45899 0.91817-0.87363
   4 -10  -1 92.8289 237.683   4-0.03572 0.31219-0.37307-0.46150-0.91817 0.87330
   3 -10  -1 868.091 413.660   4-0.04439 0.24707-0.34994-0.48472-0.92821 0.87009
   3  10  -1 551.393 170.042   2 0.51886-0.31540 0.40689 0.42763 0.83284-0.89034
   3  10  -1 612.903 252.695   6-0.28381 0.48758 0.41713 0.41757-0.90063 0.84188
  -3  10   1 114.846 154.118   6-0.29494 0.09112 0.47033 0.36381-0.87153 0.92806
  -3 -10   1 290.365 283.892   9 0.04989-0.25279-0.35229-0.48160 0.92842-0.87072
  -3 -10   1 460.605 242.927   4 0.03613-0.24089-0.55256-0.28164-0.81225 0.87029
   2 -10  -1 45.4017 184.965   4-0.05112 0.18001-0.33175-0.50298-0.93559 0.86420
   2  10  -1 176.601 207.353   2 0.53810-0.40836 0.43174 0.40276 0.80885-0.87956
   2  10  -1 51.2551 195.279   6-0.27410 0.40408 0.37329 0.46157-0.92138 0.84941
  -2  10   1 89.1146 112.347   6-0.29698 0.16690 0.48052 0.35356-0.86543 0.93523
   2 -10  -1 300.326 216.676   9-0.04593 0.17570-0.53833-0.29601 0.81969-0.89167
  -2 -10   1 -44.354 125.967   9 0.05874-0.18812-0.33388-0.49980 0.93613-0.86528
  -2 -10   1 -62.318 98.5481   4 0.02859-0.15975-0.53475-0.29943-0.82527 0.89659
   1 -10  -1 2150.77 533.903   4-0.05581 0.11093-0.31898-0.51579-0.94051 0.85584
   1  10  -1 1764.22 421.259   6-0.26605 0.32225 0.33856 0.49644-0.93590 0.85068
  -1  10   1 2077.89 515.815   6-0.30020 0.24388 0.49699 0.33703-0.85520 0.93826
  -1 -10   1 1429.51 455.172   9 0.06513-0.12102-0.32046-0.51302 0.94144-0.85744
   1 -10  -1 1583.98 440.393   9-0.03945 0.09598-0.52650-0.30789 0.82849-0.91360
  -1 -10   1 1872.25 478.478   4 0.02425-0.08176-0.52438-0.30977-0.83256 0.91718
   0 -10  -1 -44.431 162.555   4-0.05830 0.03967-0.31215-0.52263-0.94306 0.84509
   0  10  -1 298.816 179.215   6-0.25978 0.24219 0.31226 0.52282-0.94580 0.84733
   0 -10  -1 62.6480 143.446   9-0.03682 0.02005-0.52168-0.31280 0.83200-0.93028
   0 -10   1 317.690 212.385   9 0.06882-0.05131-0.31267-0.52061 0.94441-0.84728
   0  10   1 -51.994 147.776   6-0.30456 0.32200 0.51996 0.31396-0.84014 0.93642
   0 -10   1 289.603 231.015   4 0.02272-0.00656-0.52071-0.31339-0.83509 0.93302
  -1 -10  -1 2993.26 572.271   4-0.05840-0.03394-0.31188-0.52290-0.94316 0.83191
  -1  10  -1 2531.55 545.687   6-0.25529 0.16392 0.29385 0.54131-0.95221 0.84046
   1  10   1 3386.11 639.250   6-0.30994 0.40112 0.54962 0.28421-0.81923 0.92873
   1 -10   1 2088.20 478.459   9 0.06949 0.02137-0.31125-0.52184 0.94494-0.83469
  -1 -10  -1 2737.74 579.439   9-0.03753-0.05262-0.52298-0.31161 0.83106-0.94253
   1 -10   1 2433.99 523.734   4 0.02372 0.06615-0.52311-0.31095-0.83344 0.94467
  -2 -10  -1 392.246 299.476   4-0.05584-0.11017-0.31888-0.51589-0.94055 0.81602
   2  10   1 -227.45 258.632   6-0.31613 0.48105 0.58602 0.24766-0.79114 0.91381
  -2  10  -1 -156.43 178.716   6-0.25254 0.08741 0.28273 0.55246-0.95586 0.83084
   2 -10   1 105.818 99.1693   9 0.06672 0.09744-0.31713-0.51581 0.94272-0.81937
  -2 -10  -1 -81.574 143.988   9-0.04116-0.12243-0.52965-0.30506 0.82618-0.95087
   2  10   1 368.807 259.105   2 0.39849-0.23391 0.25959 0.57538 0.93697-0.81334
   2 -10   1 -236.22 195.344   4 0.02700 0.13660-0.53096-0.30303-0.82795 0.95246
  -3 -10  -1 100.092 180.564   4-0.05029-0.18936-0.33400-0.50073-0.93471 0.79691
  -3  10  -1 -34.684 142.896   6-0.25147 0.01258 0.27841 0.55679-0.95724 0.81893
  -3 -10  -1 -10.336 146.414   9-0.04742-0.18970-0.54104-0.29381 0.81762-0.95555
   3  10   1 30.0583 141.814   2 0.38584-0.14754 0.24472 0.59024 0.94438-0.80752
   3 -10   1 393.503 360.037   4 0.03239 0.20496-0.54375-0.29017-0.81877 0.95655
   4  10   1 583.245 340.939   2 0.37914-0.06719 0.23690 0.59801 0.94808-0.79799
   2  11  -1 586.841 363.458   6-0.28514 0.41512 0.42322 0.49507-0.89752 0.82536
  -2 -11   1 77.6535 113.099   4 0.04163-0.17291-0.56540-0.35219-0.80247 0.87375
   1  11  -1 165.159 266.507   6-0.27801 0.33421 0.39067 0.52773-0.91348 0.82809
   1 -11  -1 -31.320 157.088   9-0.05642 0.11293-0.55727-0.36041 0.80495-0.89022
  -1 -11   1 696.196 305.359   4 0.03715-0.09480-0.55497-0.36260-0.81044 0.89501
   0 -11   1 -18.097 180.782   9 0.04306-0.02555-0.36633-0.55029 0.92221-0.82524
   0 -11  -1 261.917 297.932   9-0.05328 0.03650-0.55162-0.36615 0.80943-0.90784
   1 -11   1 20.0635 151.693   9 0.04259 0.04825-0.36731-0.54914 0.92176-0.81169
   1  11   1 118.119 163.403   6-0.31469 0.40587 0.57731 0.33999-0.79812 0.90744
   2  11   1 438.311 316.484   6-0.32003 0.48495 0.61069 0.30648-0.77045 0.89294
  -2 -11  -1 156.796 141.790   4-0.03485-0.13129-0.37536-0.54277-0.91714 0.79257
 -12   0   2 55.0504 114.584   7-0.62048-0.22772 0.11709-0.11818-0.87465 0.90970
  12   0  -2 7.04965 117.360   5 0.61334 0.23553 0.25043-0.24984 0.84724-0.88122
  12   0  -2 138.778 225.172   8 0.61762 0.23052-0.22025 0.22073 0.85409-0.89073
  11   0  -2 156.998 122.358   5 0.59811 0.17717 0.24180-0.24122 0.85926-0.90646
 -11   0   2 -69.077 194.844   3-0.58937-0.18535-0.35735 0.35815-0.81874 0.86649
  11   0  -2 -58.788 123.970   8 0.60264 0.17193-0.21322 0.21374 0.86516-0.91500
 -11   0   2 71.4162 136.004   7-0.60544-0.16900 0.11339-0.11443-0.88407 0.93250
 -10   0   2 7090.44 753.553   3-0.57769-0.12337-0.34706 0.34782-0.83068 0.89176
  10   0  -2 5419.20 638.380   5 0.58636 0.11535 0.23515-0.23460 0.86806-0.92849
  10   0  -2 5798.42 665.616   8 0.59122 0.10978-0.20788 0.20842 0.87318-0.93625
 -10   0   2 6173.36 715.202   7-0.59407-0.10664 0.11058-0.11161-0.89088 0.95266
  -9   0   2 58.4571 93.1594   3-0.57022-0.05717-0.34052 0.34124-0.83798 0.91238
   9   0  -2 -83.211 111.815   5 0.57914 0.04900 0.23110-0.23055 0.87327-0.94695
   9   0  -2 -7.9097 101.906   8 0.58443 0.04300-0.20471 0.20530 0.87780-0.95408
  -9   0   2 36.5885 127.068   7-0.58748-0.03949 0.10897-0.10996-0.89470 0.96981
   8   0  -2 64.6879 76.2390   2 0.55215 0.00181 0.45018-0.44973 0.78959-0.87797
  -8   0   2 173.434 127.379   3-0.56830 0.01457-0.33883 0.33951-0.83983 0.92753
   8   0  -2 103.797 75.5048   5 0.57790-0.02335 0.23040-0.22988 0.87416-0.96109
   8   0  -2 130.660 96.0863   8 0.58377-0.02992-0.20440 0.20501 0.87824-0.96777
  -8   0   2 -18.446 57.1322   7-0.58722 0.03398 0.10891-0.10985-0.89485 0.98327
  -7   0   2 14.7408 23.8751   9 0.10942-0.59130-0.22452 0.22589 0.97228-0.86820
  -7   0   2 -7.8843 66.2700   3-0.57367 0.09361-0.34355 0.34418-0.83463 0.93562
   7   0  -2 44.0427 63.1835   5 0.58468-0.10373 0.23421-0.23369 0.86929-0.96950
   7   0  -2 35.4219 61.0959   8 0.59130-0.11105-0.20792 0.20856 0.87313-0.97589
  -7   0   2 0.22562 69.7113   7-0.59551 0.11598 0.11094-0.11186-0.89003 0.99173
   6   0  -2 6131.61 498.225   5 0.60232-0.19496 0.24418-0.24367 0.85601-0.96952
   6   0  -2 5263.85 468.526   8 0.60999-0.20332-0.21667 0.21734 0.85980-0.97581
  -6   0   2 5823.52 491.388   7-0.61556 0.20972 0.11588-0.11677-0.87779 0.99272
  -5   0   2 67.2951 54.4073   7-0.65187 0.31968 0.12489-0.12575-0.85330 0.98145
  -5   0   2 5.12881 23.8457   9 0.30446-0.63885 0.27904-0.27873 0.95056-0.82036
  -5   0   2 -136.76 154.623   3-0.61629 0.28349-0.38135 0.38188-0.78866 0.91617
   5   0  -2 27.8319 34.4923   5 0.63465-0.30092 0.26262-0.26213 0.82919-0.95601
   5   0  -2 -60.491 68.1388   8 0.64383-0.31076-0.23265 0.23335 0.83318-0.96244
  -4   0   2 39141.8 1169.68   7-0.71019 0.45158 0.13957-0.14037-0.80684 0.94816
 -12   1   2 512.418 268.770   7-0.61429-0.23398 0.11557-0.03311-0.87858 0.91359
 -12  -1   2 25.0731 185.874   7-0.63390-0.21421 0.12042-0.20500-0.86581 0.90087
 -12  -1   2 379.774 290.372   3-0.58072-0.26776-0.34971 0.26716-0.82764 0.86212
  12   1  -2 269.112 200.726   5 0.59727 0.25151 0.24132-0.15728 0.85990-0.89392
  12  -1  -2 194.788 188.381   8 0.60362 0.24460-0.21368 0.13086 0.86444-0.90098
  12   1  -2 459.367 272.542   8 0.63953 0.20854-0.23060 0.31436 0.83676-0.87350
 -11  -1   2 177.891 191.035   7-0.61970-0.15467 0.11690-0.20144-0.87515 0.92358
 -11  -1   2 86.8524 132.129   3-0.56487-0.20993-0.33585 0.25327-0.84307 0.89089
  11  -1  -2 137.027 132.942   5 0.62388 0.15149 0.25645-0.33936 0.83850-0.88568
  11   1  -2 186.744 151.609   5 0.58143 0.19379 0.23239-0.14836 0.87164-0.91886
  11  -1  -2 321.449 213.330   8 0.58808 0.18656-0.20642 0.12362 0.87533-0.92509
  11   1  -2 -164.94 155.968   8 0.62586 0.14865-0.22413 0.30792 0.84774-0.89769
 -11   1   2 -175.62 191.592   7-0.59907-0.17544 0.11181-0.02933-0.88792 0.93631
 -10  -1   2 451.374 243.326   7-0.60939-0.09126 0.11436-0.19885-0.88164 0.94343
  10   1  -2 381.398 202.161   2 0.53139 0.16956 0.42299-0.33913 0.81753-0.87943
 -10  -1   2 91.6089 116.299   3-0.55197-0.14915-0.32465 0.24203-0.85484 0.91601
  10  -1  -2 199.049 155.246   5 0.61393 0.08786 0.25076-0.33370 0.84677-0.90719
  10   1  -2 228.020 143.582   5 0.56883 0.13282 0.22531-0.14130 0.88047-0.94092
  10  -1  -2 73.6014 113.640   8 0.57588 0.12518-0.20073 0.11795 0.88344-0.94645
  10   1  -2 209.523 176.557   8 0.61610 0.08486-0.21954 0.30336 0.85524-0.91839
 -10   1   2 326.189 182.730   7-0.58740-0.11335 0.10895-0.02645-0.89475 0.95650
  -9   1   2 -66.980 77.6751   3-0.61042-0.01693-0.37608 0.46013-0.79555 0.86986
   9   1  -2 157.846 121.534   2 0.52169 0.10578 0.41050-0.32672 0.82948-0.90456
  -9  -1   2 -32.285 136.579   3-0.54282-0.08460-0.31675 0.23409-0.86279 0.93728
   9  -1  -2 -26.908 82.1396   5 0.60904 0.01915 0.24799-0.33094 0.85071-0.92438
   9   1  -2 0.55552 83.2588   5 0.56040 0.06768 0.22060-0.13659 0.88615-0.95985
   9  -1  -2 168.971 170.843   8 0.56799 0.05949-0.19706 0.11431 0.88850-0.96475
   9   1  -2 67.3268 118.012   8 0.61146 0.01594-0.21736 0.30121 0.85871-0.93508
  -9   1   2 84.4639 72.8821   7-0.58033-0.04666 0.10721-0.02470-0.89874 0.97384
  -9  -1   2 2.49828 112.501   7-0.60415-0.02278 0.11307-0.19750-0.88486 0.95997
  -8  -1   2 594.988 242.622   7-0.60566 0.05243 0.11344-0.19782-0.88394 0.97235
   8   1  -2 475.063 136.816   2 0.51619 0.03778 0.40347-0.31977 0.83597-0.92425
  -8  -1   2 526.267 158.250   3-0.53857-0.01517-0.31310 0.23039-0.86638 0.95419
  -8   1   2 427.272 187.348   3-0.61239 0.05869-0.37785 0.46185-0.79326 0.88086
   8  -1  -2 491.119 180.095   5 0.61091-0.05633 0.24905-0.33203 0.84921-0.93614
   8   1  -2 509.363 182.090   5 0.55741-0.00290 0.21893-0.13493 0.88811-0.97507
   8  -1  -2 298.317 158.421   8 0.56573-0.01185-0.19601 0.11329 0.88992-0.97941
   8   1  -2 363.486 109.392   8 0.61364-0.05978-0.21838 0.30226 0.85709-0.94669
  -8   1   2 554.488 179.446   7-0.57934 0.02608 0.10697-0.02443-0.89930 0.98770
   7   1  -2 4522.85 469.164   2 0.51610-0.03564 0.40335-0.31974 0.83608-0.93758
  -7  -1   2 3652.27 411.776   3-0.54069 0.06062-0.31492 0.23218-0.86460 0.96569
   7  -1  -2 3950.22 447.031   5 0.62185-0.14088 0.25529-0.33830 0.84021-0.94042
   7   1  -2 3475.82 396.816   5 0.56165-0.08071 0.22130-0.13730 0.88532-0.98554
  -7   1   2 3354.21 406.815   7-0.58652 0.10701 0.10873-0.02618-0.89525 0.99693
  -7  -1   2 3802.26 425.684   7-0.61634 0.13679 0.11607-0.20040-0.87729 0.97898
  -6  -1   2 396.138 124.302   7-0.63957 0.23368 0.12184-0.20610-0.86194 0.97688
   6  -1  -2 292.145 78.4813   4-0.18806 0.59596 0.08607-0.16928-0.99629 0.87964
   6   1  -2 425.314 56.4431   6-0.23223 0.63956 0.20361-0.11996-0.97750 0.86224
   6   1  -2 -3.9440 25.0509   4-0.23951 0.64766 0.27521-0.19137-0.95913 0.84228
   6   1  -2 438.659 158.704   2 0.52295-0.11600 0.41212-0.32858 0.82797-0.94271
  -6   1   2 248.277 48.0543   9 0.20683-0.61526 0.00738 0.07707 0.99960-0.88265
  -6  -1   2 404.001 108.271   3-0.55121 0.14482-0.32400 0.24122-0.85551 0.96987
  -6  -1   2 283.303 83.3969   9 0.20534-0.61335 0.00358-0.08637 0.99967-0.88275
   6  -1  -2 309.572 150.245   5 0.64509-0.23774 0.26863-0.35167 0.81978-0.93328
  -6   1   2 96.1975 74.6880   1 0.16346-0.56997-0.17734 0.26098 0.98414-0.86924
   6   1  -2 230.266 99.0355   5 0.57561-0.16825 0.22911-0.14512 0.87578-0.98929
   6  -1  -2 287.912 120.140   8 0.58634-0.17971-0.20561 0.12295 0.87651-0.99247
   6   1  -2 275.423 112.584   8 0.64874-0.24201-0.23497 0.31893 0.82904-0.94513
  -6   1   2 299.997 110.288   7-0.60485 0.19906 0.11324-0.03068-0.88443 0.99936
   5   1  -2 1864.29 325.552   2 0.53854-0.20516 0.43231-0.34885 0.80827-0.93628
  -5   1   2 1124.82 210.607   7-0.63855 0.30646 0.12158-0.03901-0.86264 0.99077
  -5  -1   2 1082.61 206.271   7-0.68010 0.34783 0.13196-0.21617-0.83201 0.96017
   5  -1  -2 29.8282 46.2100   4-0.23853 0.57273 0.27138-0.35487-0.96031 0.83028
  -5  -1   2 1013.63 156.056   9 0.27022-0.60440 0.17777-0.26081 0.97937-0.84928
   5   1  -2 1112.21 206.138   5 0.60268-0.26892 0.24438-0.16039 0.85573-0.98256
   5  -1  -2 733.821 159.505   8 0.61545-0.28244-0.21923 0.13659 0.85573-0.98494
   5   1  -2 1215.38 245.511   8 0.68908-0.35592-0.25432 0.33831 0.79183-0.92119
  -4   1   2 1205.23 207.230   7-0.69314 0.43466 0.13526-0.05268-0.82143 0.96271
  -4  -1   2 1868.83 300.510   3-0.60826 0.34916-0.37415 0.29129-0.79803 0.93885
   4   1  -2 1553.03 243.397   5 0.64714-0.38703 0.26982-0.18582 0.81788-0.95803
   4  -1  -2 1733.44 255.835   8 0.66286-0.40351-0.24171 0.15910 0.81666-0.95910
 -12   2   2 224.088 232.885   7-0.61498-0.23333 0.11574 0.05030-0.87815 0.91309
 -12  -2   2 336.178 189.994   7-0.65488-0.19311 0.12565-0.29366-0.85114 0.88620
 -12  -2   2 572.255 338.620   3-0.56531-0.28327-0.33623 0.17023-0.84265 0.87719
  12   2  -2 549.286 284.399   5 0.58867 0.26005 0.23646-0.06900 0.86636-0.90042
  12  -2  -2 340.453 322.644   8 0.59689 0.25144-0.21053 0.04433 0.86924-0.90570
 -11  -2   2 189.026 211.509   7-0.64221-0.13205 0.12250-0.29044-0.86012 0.90855
  11   2  -2 37.5453 225.670   2 0.52377 0.25070 0.41317-0.24596 0.82698-0.87563
 -11  -2   2 272.537 145.131   3-0.54930-0.22558-0.32233 0.15630-0.85720 0.90510
  11   2  -2 257.849 175.280   5 0.57286 0.20230 0.22758-0.06012 0.87769-0.92496
  11  -2  -2 168.553 117.891   8 0.58140 0.19333-0.20330 0.03712 0.87982-0.92953
  11   2  -2 71.5449 153.276   8 0.65850 0.11599-0.23962 0.40662 0.82056-0.87065
 -11   2   2 118.847 156.126   7-0.60014-0.17440 0.11208 0.05398-0.88728 0.93561
 -10  -2   2 1073.56 320.086   7-0.63378-0.06680 0.12040-0.28829-0.86589 0.92766
  10   2  -2 1278.40 319.970   2 0.51036 0.19063 0.39605-0.22891 0.84264-0.90447
 -10  -2   2 1359.41 342.598   3-0.53602-0.16516-0.31091 0.14483-0.86849 0.92974
  10  -2  -2 1378.06 332.247   5 0.65265 0.04919 0.27300-0.43947 0.81271-0.87312
  10   2  -2 1091.76 272.989   5 0.56015 0.14144 0.22047-0.05303 0.88631-0.94680
  10  -2  -2 1198.01 308.340   8 0.56912 0.13200-0.19759 0.03145 0.88778-0.95073
  10   2  -2 1466.62 378.635   8 0.65142 0.04954-0.23624 0.40328 0.82674-0.89003
 -10   2   2 1651.34 388.751   7-0.58884-0.11193 0.10930 0.05677-0.89392 0.95563
  -9  -2   2 375.773 163.261   7-0.63087 0.00398 0.11967-0.28750-0.86784 0.94294
   9   2  -2 472.241 165.247   2 0.49992 0.12758 0.38284-0.21580 0.85407-0.92909
   9  -2  -2 422.379 213.418   5 0.65144-0.02319 0.27229-0.43879 0.81387-0.88753
  -9  -2   2 133.633 77.9679   3-0.52622-0.10124-0.30251 0.13640-0.87642 0.95100
   9   2  -2 276.085 122.134   5 0.55139 0.07665 0.21558-0.04815 0.89201-0.96573
   9  -2  -2 314.481 143.147   8 0.56097 0.06654-0.19382 0.02768 0.89287-0.96907
   9   2  -2 649.694 249.379   8 0.65014-0.02273-0.23563 0.40271 0.82784-0.90435
  -9   2   2 264.254 111.711   7-0.58208-0.04492 0.10765 0.05843-0.89776 0.97281
  -8  -2   2 981.387 242.211   7-0.63529 0.08209 0.12077-0.28853-0.86487 0.95326
  -8  -2   2 598.164 203.329   9 0.08221-0.63763-0.28412 0.11832 0.95457-0.86375
   8   2  -2 776.315 218.706   2 0.49324 0.06077 0.37446-0.20747 0.86105-0.94929
   8  -2  -2 1193.92 278.989   5 0.65797-0.10335 0.27609-0.44262 0.80762-0.89455
  -8  -2   2 843.180 218.972   3-0.52086-0.03290-0.29794 0.13180-0.88061 0.96850
   8   2  -2 1138.41 247.345   5 0.54774 0.00675 0.21355-0.04611 0.89433-0.98130
   8  -2  -2 1253.10 270.813   8 0.55815-0.00427-0.19252 0.02640 0.89459-0.98404
   8   2  -2 1377.18 302.087   8 0.65656-0.10268-0.23870 0.40581 0.82227-0.91201
  -8   2   2 864.914 233.218   7-0.58129 0.02806 0.10745 0.05863-0.89821 0.98656
  -7  -2   2 608.755 191.904   7-0.64966 0.17011 0.12434-0.29203-0.85489 0.95655
  -7  -2   2 844.761 194.706   9 0.13914-0.62072-0.15699-0.00910 0.98689-0.88303
   7  -2  -2 1129.59 191.024   4-0.12672 0.60816-0.11339-0.05300-0.99208 0.88873
   7   2  -2 769.358 192.730   2 0.49132-0.01083 0.37206-0.20515 0.86301-0.96448
   7  -2  -2 365.158 173.636   5 0.67484-0.19387 0.28593-0.45250 0.79069-0.89090
  -7  -2   2 889.637 214.503   3-0.52122 0.04116-0.29825 0.13208-0.88033 0.98151
   7   2  -2 1087.10 232.600   5 0.55077-0.06985 0.21523-0.04778 0.89241-0.99265
   7  -2  -2 997.333 233.411   8 0.56236-0.08211-0.19446 0.02837 0.89201-0.99471
   7   2  -2 1343.22 292.843   8 0.67329-0.19294-0.24670 0.41385 0.80709-0.91008
  -7   2   2 959.395 143.439   1 0.12877-0.60895 0.12719 0.03992 0.99052-0.88903
  -7   2   2 857.642 219.468   7-0.58846 0.10901 0.10921 0.05686-0.89414 0.99578
  -6   2   2 1121.66 229.235   7-0.60638 0.20066 0.11362 0.05244-0.88350 0.99838
  -6  -2   2 1065.25 204.605   7-0.67757 0.27163 0.13132-0.29893-0.83400 0.94893
  -6   2   2 1020.71 146.240   1 0.15276-0.55934-0.06962 0.23667 0.99723-0.88238
   6  -2  -2 641.459 175.931   4-0.17125 0.57904 0.02907-0.19579-0.99955 0.88296
  -6  -2   2 906.370 182.175   9 0.19298-0.60076-0.02759-0.13873 0.99955-0.88264
   6   2  -2 1018.93 205.822   2 0.49544-0.08849 0.37722-0.21037 0.85878-0.97350
  -6  -2   2 1064.22 218.968   3-0.52901 0.12264-0.30489 0.13871-0.87420 0.98865
   6   2  -2 1129.43 211.380   5 0.56266-0.15531 0.22187-0.05441 0.88464-0.99818
   6  -2  -2 714.741 205.490   8 0.57593-0.16933-0.20076 0.03470 0.88341-0.99935
   6   2  -2 215.601 144.269   8 0.70371-0.29691-0.26141 0.42859 0.77682-0.89308
  -5   2   2 -59.629 85.1664   7-0.63897 0.30697 0.12169 0.04435-0.86236 0.99043
  -5  -2   2 9.99670 34.6040   9 0.24301-0.57700 0.10230-0.26872 0.99257-0.86253
  -5  -2   2 23.8697 31.9139   7-0.72368 0.39131 0.14302-0.31053-0.79463 0.92279
   5  -2  -2 30.3406 50.8416   4-0.21043 0.54449 0.16529-0.33230-0.98577 0.85585
   5   2  -2 -0.3672 62.3438   2 0.50717-0.17378 0.39200-0.22522 0.84620-0.97419
  -5  -2   2 120.278 99.4544   3-0.54643 0.21375-0.31986 0.15366-0.85969 0.98738
   5   2  -2 5.76277 19.9190   5 0.58638-0.25260 0.23516-0.06770 0.86805-0.99489
   5  -2  -2 1.23899 65.5219   8 0.60207-0.26913-0.21295 0.04692 0.86556-0.99474
  -5   2   2 22.8476 53.4165   1 0.16854-0.50152-0.23588 0.40285 0.97188-0.84370
  -4   2   2 88.1588 66.0645   7-0.69131 0.43294 0.13479 0.03122-0.82294 0.96416
   4  -2  -2 163.919 110.594   4-0.24382 0.50408 0.29234-0.45953-0.95366 0.81038
   4   2  -2 127.263 97.7735   2 0.52824-0.26842 0.41894-0.25222 0.82148-0.96273
  -4  -2   2 178.690 90.9009   9 0.28813-0.54835 0.22975-0.39618 0.96622-0.82305
   4  -2  -2 71.9567 71.6205   8 0.64490-0.38564-0.23314 0.06715 0.83229-0.97468
 -12  -3   2 406.119 262.650   7-0.68368-0.16421 0.13286-0.38425-0.82915 0.86421
 -12  -3   2 357.404 266.776   3-0.55695-0.29169-0.32897 0.07948-0.85037 0.88495
 -11   3   2 422.000 217.902   7-0.60819-0.16636 0.11406 0.13560-0.88239 0.93063
 -11  -3   2 241.125 212.347   7-0.67328-0.10091 0.13024-0.38156-0.83734 0.88576
  11   3  -2 405.768 218.475   2 0.51119 0.26334 0.39709-0.14662 0.84171-0.89032
 -11  -3   2 351.777 243.672   3-0.54131-0.23364-0.31544 0.06591-0.86408 0.91203
  11   3  -2 396.471 231.799   5 0.57144 0.20368 0.22678 0.02407 0.87868-0.92600
  11  -3  -2 199.031 184.113   8 0.58178 0.19304-0.20348-0.04612 0.87957-0.92922
 -10  -3   2 414.724 186.597   7-0.66757-0.03295 0.12882-0.38005-0.84172 0.90348
  10   3  -2 457.610 206.317   2 0.49799 0.20307 0.38041-0.13000 0.85612-0.91792
 -10  -3   2 848.757 266.753   3-0.52829-0.17294-0.30427 0.05471-0.87478 0.93609
  10   3  -2 62.4001 133.937   5 0.55921 0.14236 0.21993 0.03090 0.88693-0.94747
  10  -3  -2 342.028 172.232   8 0.57002 0.13117-0.19801-0.05158 0.88721-0.95012
 -10   3   2 464.154 229.411   7-0.59782-0.10292 0.11151 0.13815-0.88866 0.95028
  -9  -3   2 600.449 203.547   7-0.66796 0.04111 0.12892-0.38006-0.84142 0.91651
   9   3  -2 357.833 138.857   2 0.48755 0.14001 0.36735-0.11700 0.86679-0.94180
  -9  -3   2 567.792 222.480   3-0.51855-0.10895-0.29597 0.04637-0.88239 0.95703
   9   3  -2 588.354 221.920   5 0.55081 0.07721 0.21526 0.03559 0.89238-0.96615
   9  -3  -2 622.071 228.735   8 0.56230 0.06526-0.19442-0.05514 0.89205-0.96822
   9   3  -2 319.441 288.548   8 0.70111-0.07367-0.26015 0.51040 0.77955-0.85628
  -9   3   2 722.417 243.003   7-0.59205-0.03490 0.11009 0.13956-0.89206 0.96702
  -8  -3   2 312.781 158.977   7-0.67644 0.12324 0.13104-0.38211-0.83489 0.92326
   8  -3  -2 678.927 181.901   4-0.08098 0.63599-0.24868-0.00091-0.96385 0.87371
  -8  -3   2 229.720 133.455   9 0.08858-0.64387-0.27035 0.02084 0.95908-0.86841
   8   3  -2 561.275 156.903   2 0.48058 0.07348 0.35867-0.10839 0.87360-0.96184
  -8  -3   2 394.093 159.722   3-0.51297-0.04081-0.29122 0.04160-0.88661 0.97456
   8   3  -2 406.184 171.289   5 0.54731 0.00717 0.21331 0.03754 0.89460-0.98162
   8  -3  -2 421.454 191.668   8 0.55972-0.00582-0.19325-0.05631 0.89364-0.98306
  -8   3   2 375.162 160.853   7-0.59226 0.03909 0.11013 0.13949-0.89194 0.98022
  -7  -3   2 1578.56 288.753   9 0.13495-0.61635-0.16666-0.08303 0.98515-0.88133
  -7   3   2 401.920 177.503   6-0.31914-0.16143 0.60499-0.35514-0.77536 0.87676
   7   3  -2 1729.56 296.130   2 0.47789 0.00263 0.35536-0.10513 0.87615-0.97763
  -7  -3   2 1780.57 321.280   3-0.51263 0.03258-0.29094 0.04130-0.88686 0.98811
   7   3  -2 1391.42 275.762   5 0.55012-0.06920 0.21487 0.03599 0.89282-0.99311
   7  -3  -2 1534.62 304.872   8 0.56386-0.08362-0.19515-0.05437 0.89109-0.99376
  -7   3   2 1629.78 226.514   1 0.12556-0.60580 0.15043 0.10006 0.98711-0.88563
   7  -3  -2 2179.26 298.116   4-0.12012 0.60150-0.13356-0.11637-0.98920 0.88590
  -7  -3   2 2090.69 333.591   7-0.69576 0.21617 0.13592-0.38689-0.81924 0.92091
  -7   3   2 1922.58 351.088   7-0.60033 0.12094 0.11212 0.13748-0.88717 0.98872
  -6   3   2 581.988 170.605   7-0.61891 0.21327 0.11671 0.13286-0.87566 0.99044
  -6  -3   2 735.861 187.594   7-0.72952 0.32350 0.14450-0.39537-0.78916 0.90410
   6  -3  -2 443.096 136.231   4-0.15558 0.56327-0.02240-0.22785-0.99942 0.88289
  -6  -3   2 278.891 140.087   9 0.17852-0.58611-0.06326-0.18652 0.99803-0.88113
  -6   3   2 891.286 258.773   6-0.31611-0.09085 0.58595-0.33616-0.79120 0.90584
   6   3  -2 509.599 154.261   2 0.48058-0.07360 0.35868-0.10850 0.87360-0.98834
  -6  -3   2 391.651 151.466   3-0.51901 0.11267-0.29635 0.04671-0.88204 0.99656
   6   3  -2 521.018 167.965   5 0.56117-0.15380 0.22103 0.02986 0.88564-0.99921
   6  -3  -2 457.109 154.707   8 0.57682-0.17025-0.20117-0.04835 0.88283-0.99876
  -6   3   2 509.315 134.828   1 0.14418-0.55081 0.00638 0.24406 0.99931-0.88450
  -5   3   2 168.661 87.1338   7-0.65161 0.31970 0.12483 0.12470-0.85349 0.98146
  -5   3   2 148.661 81.2273   1 0.15792-0.49097-0.11946 0.36986 0.99267-0.86454
   5   3  -2 143.131 50.4804   6-0.12102 0.45501-0.16554 0.41678-0.98445 0.85586
   5  -3  -2 147.568 83.1128   4-0.18725 0.52118 0.08332-0.33383-0.99653 0.86670
  -5  -3   2 122.898 65.6079   9 0.21906-0.55285 0.03883-0.28864 0.99844-0.86842
  -5   3   2 190.396 87.2614   6-0.31471-0.01866 0.57739-0.32766-0.79806 0.92594
   5   3  -2 150.968 58.8728   2 0.48992-0.15651 0.37030-0.12018 0.86443-0.99243
  -5  -3   2 188.790 84.6865   3-0.53395 0.20131-0.30912 0.05947-0.87020 0.99796
   5   3  -2 10.1583 53.1217   5 0.58304-0.24923 0.23330 0.01763 0.87048-0.99736
   5  -3  -2 221.432 124.376   8 0.60140-0.26853-0.21263-0.03684 0.86605-0.99519
  -4   3   2 926.157 195.918   7-0.70295 0.44469 0.13773 0.11174-0.81315 0.95424
   4   3  -2 1252.93 197.228   6-0.06679 0.32693-0.31912 0.57052-0.94175 0.79972
  -4  -3   2 901.958 196.733   9 0.25607-0.51611 0.13805-0.38782 0.98717-0.84404
   4  -3  -2 526.013 142.520   4-0.21501 0.47514 0.18205-0.43276-0.98263 0.83946
   4   3  -2 1062.04 212.073   2 0.50738-0.24757 0.39228-0.14220 0.84596-0.98724
  -4   3   2 934.117 194.478   1 0.16779-0.42725-0.22697 0.47731 0.97398-0.83256
  -4   3   2 1281.42 269.023   6-0.31518 0.05546 0.58031-0.33063-0.79574 0.93686
   4  -3  -2 1098.60 207.003   8 0.64124-0.38208-0.23142-0.01803 0.83534-0.97769
   3  -3  -2 239.792 95.0361   4-0.23874 0.42503 0.27221-0.52305-0.96006 0.80354
  -3  -3   2 570.110 184.216   9 0.28912-0.47547 0.23267-0.48233 0.96538-0.80915
  -3   3   2 622.573 199.004   6-0.31766 0.13156 0.59556-0.34595-0.78331 0.93765
   3   3  -2 264.761 121.928   5 0.67260-0.48602 0.28461-0.03362 0.79302-0.94660
  -3  -3   2 597.643 167.440   3-0.59881 0.41351-0.36572 0.11608-0.80861 0.96277
   3  -3  -2 -5.0876 44.4265   8 0.70014-0.51469-0.25967 0.01027 0.78057-0.93606
  12   4  -2 258.993 197.672   2 0.51989 0.32819 0.40819-0.07435 0.83163-0.86704
 -11   4   2 139.362 173.061   7-0.62271-0.15180 0.11765 0.21565-0.87321 0.92132
  11   4  -2 349.311 200.629   2 0.50514 0.26946 0.38942-0.05564 0.84845-0.89704
 -11  -4   2 81.0677 106.898   3-0.53971-0.23528-0.31407-0.01898-0.86543 0.91341
  11   4  -2 517.626 256.664   5 0.57630 0.19878 0.22950 0.10471 0.87529-0.92268
  11  -4  -2 553.351 287.458   8 0.58846 0.18643-0.20660-0.12648 0.87507-0.92465
 -10   4   2 59.5025 209.402   7-0.61377-0.08691 0.11544 0.21784-0.87891 0.94040
  10   4  -2 285.322 195.842   2 0.49255 0.20857 0.37359-0.03985 0.86176-0.92356
 -10  -4   2 -37.191 92.4289   3-0.52737-0.17388-0.30349-0.02960-0.87551 0.93686
  10   4  -2 169.883 145.733   5 0.56499 0.13657 0.22316 0.11106 0.88308-0.94369
  10  -4  -2 178.583 143.488   8 0.57768 0.12356-0.20157-0.13150 0.88227-0.94512
  -9   4   2 1391.73 338.063   7-0.60955-0.01733 0.11440 0.21887-0.88154 0.95638
  -9  -4   2 1939.63 413.244   7-0.71547 0.08864 0.14092-0.47534-0.80213 0.87720
  -9  -4   2 579.981 297.251   9 0.04581-0.67472-0.36070 0.02774 0.92473-0.84712
   9   4  -2 1415.96 325.995   2 0.48259 0.14503 0.36118-0.02750 0.87166-0.94668
  -9  -4   2 1475.42 337.000   3-0.51820-0.10930-0.29567-0.03744-0.88266 0.95734
   9   4  -2 1699.13 347.118   5 0.55745 0.07056 0.21895 0.11527 0.88809-0.96193
   9  -4  -2 1529.46 355.382   8 0.57090 0.05669-0.19842-0.13465 0.88665-0.96277
  -8   4   2 -31.408 95.8801   7-0.61137 0.05829 0.11485 0.21838-0.88041 0.96856
  -8  -4   2 121.763 167.587   7-0.72899 0.17575 0.14437-0.47868-0.78966 0.87805
   8  -4  -2 64.3322 108.954   4-0.07840 0.63338-0.25603-0.07712-0.96170 0.87160
  -8   4   2 163.551 149.018   6-0.31602-0.23825 0.58540-0.25216-0.79165 0.87971
  -8  -4   2 3.76278 92.8650   9 0.08705-0.64219-0.27367-0.05947 0.95801-0.86747
   8   4  -2 172.432 99.4325   2 0.47587 0.07822 0.35286-0.01922 0.87805-0.96631
  -8  -4   2 264.427 165.877   3-0.51299-0.04080-0.29123-0.04191-0.88659 0.97460
   8   4  -2 214.269 159.673   5 0.55468-0.00021 0.21741 0.11684 0.88989-0.97697
   8  -4  -2 -110.62 156.086   8 0.56919-0.01527-0.19762-0.13543 0.88774-0.97712
  -7   4   2 2166.22 369.470   7-0.62107 0.14177 0.11724 0.21593-0.87427 0.97568
   7   4  -2 2518.64 387.460   2 0.47312 0.00745 0.34945-0.01586 0.88060-0.98211
  -7   4   2 3146.33 449.480   6-0.31166-0.16900 0.55946-0.22627-0.81191 0.91322
  -7  -4   2 2665.97 404.591   3-0.51268 0.03265-0.29097-0.04218-0.88682 0.98812
   7   4  -2 2689.26 393.839   5 0.55798-0.07704 0.21925 0.11502 0.88774-0.98809
   7  -4  -2 2685.00 400.870   8 0.57398-0.09374-0.19985-0.13319 0.88467-0.98731
  -7   4   2 2332.02 317.185   1 0.12105-0.60135 0.18215 0.15173 0.98153-0.88008
  -7  -4   2 1649.00 319.476   9 0.12601-0.60736-0.18714-0.14611 0.98107-0.87751
   7  -4  -2 2106.47 334.940   4-0.11085 0.59215-0.16148-0.17199-0.98447 0.88120
  -6   4   2 223.438 138.461   7-0.64112 0.23560 0.12221 0.21090-0.86088 0.97552
   6  -4  -2 94.7596 90.1814   4-0.14032 0.54789-0.07109-0.26266-0.99663 0.88014
  -6   4   2 60.8755 90.3064   1 0.13643-0.54314 0.06916 0.26467 0.99660-0.88183
  -6  -4   2 114.742 118.401   9 0.16264-0.57012-0.10170-0.23161 0.99472-0.87800
  -6   4   2 -135.20 103.782   6-0.30858-0.09848 0.54189-0.20875-0.82484 0.93940
   6   4  -2 103.620 77.1743   2 0.47521-0.06820 0.35203-0.01848 0.87867-0.99344
  -6  -4   2 173.599 125.594   3-0.51853 0.11223-0.29596-0.03718-0.88240 0.99697
   6   4  -2 135.531 79.2247   5 0.56905-0.16166 0.22544 0.10887 0.88032-0.99395
   6  -4  -2 164.226 87.3073   8 0.58717-0.18064-0.20599-0.12702 0.87595-0.99183
  -5   4   2 151.094 79.2628   7-0.67480 0.34301 0.13063 0.20240-0.83616 0.96398
   5   4  -2 280.313 89.4821   6-0.17343 0.50742-0.00236 0.33695-0.99997 0.87141
   5  -4  -2 13.3405 91.7529   4-0.16676 0.50055 0.01415-0.34814-0.99981 0.87004
  -5   4   2 178.868 100.589   1 0.14847-0.48158-0.03072 0.36452 0.99903-0.87094
  -5  -4   2 177.090 87.3676   9 0.19671-0.53030-0.01824-0.31498 0.99970-0.86968
  -5   4   2 72.4125 79.0569   6-0.30705-0.02638 0.53343-0.20035-0.83085 0.95867
   5   4  -2 12.5869 72.1112   2 0.48321-0.14977 0.36194-0.02843 0.87107-0.99910
  -5  -4   2 71.2492 54.3859   3-0.53213 0.19955-0.30756-0.02556-0.87168 0.99949
   5   4  -2 207.551 107.750   5 0.59015-0.25631 0.23730 0.09706 0.86527-0.99221
   5  -4  -2 195.938 109.264   8 0.61124-0.27844-0.21725-0.11573 0.85888-0.98797
  -4   4   2 445.512 157.383   7-0.72600 0.46788 0.14361 0.18934-0.79247 0.93339
   4   4  -2 589.556 134.085   6-0.13030 0.39047-0.13781 0.47266-0.98918 0.84724
   4  -4  -2 543.155 145.334   4-0.19012 0.45011 0.09321-0.42740-0.99563 0.85256
  -4  -4   2 507.386 159.592   9 0.22772-0.48759 0.06150-0.39461 0.99688-0.85376
   4   4  -2 464.997 141.826   2 0.49833-0.23849 0.38084-0.04737 0.85576-0.99707
  -4   4   2 493.063 149.923   6-0.30731 0.04753 0.53488-0.20184-0.82983 0.97090
  -4  -4   2 593.193 169.086   3-0.55536 0.29649-0.32759-0.00552-0.85181 0.99283
   4   4  -2 584.792 156.240   5 0.62405-0.36378 0.25655 0.07785 0.83836-0.97864
   4  -4  -2 619.773 166.838   8 0.64933-0.39028-0.23525-0.09769 0.82853-0.97081
   3   4  -2 1241.15 206.989   6-0.10061 0.28693-0.22502 0.56000-0.97129 0.81593
   3  -4  -2 1283.66 252.320   4-0.21037 0.39654 0.16508-0.49943-0.98580 0.82939
   3   4  -2 1312.03 253.631   2 0.52180-0.33561 0.41064-0.07724 0.82935-0.98391
  -3  -4   2 1291.44 263.616   9 0.25562-0.44181 0.13681-0.46979 0.98738-0.83116
  -3   4   2 1521.55 273.695   6-0.30948 0.12334 0.54696-0.21399-0.82118 0.97548
  -3  -4   2 1099.77 225.925   3-0.59027 0.40506-0.35815 0.02507-0.81779 0.97199
   3  -4  -2 233.092 149.898   8 0.70462-0.51930-0.26185-0.07104 0.77586-0.93127
   2   4  -2 32.6151 54.1147   6-0.08125 0.19373-0.27957 0.61459-0.95551 0.78678
   2  -4  -2 -44.110 42.7930   4-0.22751 0.33985 0.22878-0.56321-0.97214 0.80240
  -2   4   2 86.9516 75.4554   6-0.31352 0.20102 0.57025-0.23735-0.80365 0.97118
  -2  -4   2 -73.822 57.4330   9 0.28021-0.39278 0.20653-0.53932 0.97251-0.80323
  -1   4   2 233.831 130.810   6-0.31914 0.28031 0.60496-0.27213-0.77538 0.95612
 -11   5   2 554.958 286.306   7-0.64319-0.13124 0.12273 0.29421-0.85944 0.90737
  11   5  -2 274.266 240.151   2 0.50439 0.27030 0.38847 0.02863 0.84927-0.89786
 -10   5   2 195.357 185.557   7-0.63609-0.06451 0.12097 0.29595-0.86432 0.92563
  10   5  -2 45.8255 123.017   2 0.49264 0.20854 0.37372 0.04336 0.86165-0.92347
 -10  -5   2 21.3200 101.709   3-0.53212-0.16914-0.30755-0.10907-0.87169 0.93305
  10   5  -2 -130.37 217.820   5 0.57657 0.12498 0.22965 0.18794 0.87510-0.93580
  10  -5  -2 -87.334 106.893   8 0.59130 0.11000-0.20791-0.20868 0.87313-0.93591
  -9   5   2 785.528 307.017   7-0.63385 0.00707 0.12041 0.29646-0.86584 0.94050
  -9  -5   2 612.080 302.245   9 0.04489-0.67366-0.36258-0.05403 0.92389-0.84641
   9   5  -2 974.251 298.379   2 0.48346 0.14423 0.36226 0.05479 0.87082-0.94586
  -9  -5   2 773.406 264.797   3-0.52385-0.10366-0.30048-0.11618-0.87829 0.95299
   9   5  -2 1021.24 307.014   5 0.57025 0.05777 0.22612 0.19149 0.87950-0.95342
   9  -5  -2 1037.03 306.652   8 0.58584 0.04178-0.20537-0.21123 0.87685-0.95290
  -8   5   2 38.7082 97.1665   7-0.63776 0.08481 0.12139 0.29544-0.86318 0.95114
   8  -5  -2 -100.57 162.913   4-0.07221 0.62712-0.27352-0.14315-0.95632 0.86624
  -8   5   2 27.7462 88.2800   6-0.31160-0.24277 0.55910-0.14250-0.81218 0.90014
  -8  -5   2 40.7857 75.1844   9 0.08076-0.63574-0.28725-0.12947 0.95351-0.86305
  -8  -5   2 -220.49 198.371   3-0.51936-0.03438-0.29666-0.12001-0.88177 0.96978
   8   5  -2 -91.086 96.8799   5 0.56863-0.01414 0.22520 0.19243 0.88061-0.96778
   8  -5  -2 -11.254 91.6513   8 0.58542-0.03150-0.20517-0.21143 0.87713-0.96645
  -7   5   2 1836.95 348.025   7-0.64961 0.17044 0.12433 0.29242-0.85492 0.95614
   7  -5  -2 1940.52 351.909   4-0.09997 0.58116-0.19377-0.22322-0.97787 0.87464
  -7   5   2 2229.05 314.689   1 0.11579-0.59615 0.21784 0.19941 0.97398-0.87255
  -7   5   2 2340.00 408.975   6-0.30746-0.17329 0.53577-0.11920-0.82921 0.93043
  -7  -5   2 1120.20 339.223   9 0.11443-0.59562-0.21331-0.20347 0.97510-0.87162
   7   5  -2 1635.32 331.778   2 0.47491 0.00571 0.35165 0.06532 0.87895-0.98050
  -7  -5   2 2391.15 416.382   3-0.51954 0.03955-0.29681-0.11985-0.88163 0.98294
   7   5  -2 1714.54 335.616   5 0.57288-0.09191 0.22759 0.19008 0.87768-0.97811
   7  -5  -2 2016.53 385.296   8 0.59135-0.11115-0.20794-0.20864 0.87309-0.97567
  -6   5   2 98.7354 116.437   7-0.67168 0.26627 0.12984 0.28681-0.83859 0.95302
   6  -5  -2 -29.215 91.2063   4-0.12515 0.53260-0.11821-0.29905-0.99143 0.87497
  -6   5   2 -73.337 123.183   6-0.30454-0.10258 0.51987-0.10334-0.84020 0.95469
   6   5  -2 79.7179 90.8034   2 0.47691-0.06986 0.35414 0.06281 0.87708-0.99189
  -6  -5   2 149.100 127.966   3-0.52547 0.11921-0.30186-0.11479-0.87702 0.99160
   6   5  -2 107.876 94.2547   5 0.58455-0.17712 0.23415 0.18356 0.86938-0.98310
   6  -5  -2 -77.600 131.878   8 0.60535-0.19889-0.21449-0.20206 0.86320-0.97901
  -6  -5   2 49.3092 81.6026   9 0.14597-0.55327-0.14109-0.27566 0.98952-0.87280
  -6   5   2 89.0926 78.9008   1 0.12903-0.53580 0.12529 0.29192 0.99077-0.87603
   5   5  -2 3129.80 404.884   2 0.48424-0.15079 0.36322 0.05370 0.87006-0.99814
   5   5  -2 3590.95 322.127   6-0.20449 0.53841 0.10282 0.31511-0.99442 0.86565
  -5   5   2 4465.79 515.014   6-0.30308-0.03042 0.51199-0.09552-0.84547 0.97322
  -5  -5   2 3102.61 406.921   3-0.53845 0.20595-0.31300-0.10363-0.86648 0.99430
  -5  -5   2 3574.73 433.758   9 0.17518-0.50857-0.07145-0.34515 0.99747-0.86741
   5   5  -2 4283.13 474.897   5 0.60557-0.27170 0.24603 0.17174 0.85346-0.98049
   5  -5  -2 4011.70 478.432   8 0.62963-0.29692-0.22591-0.19060 0.84477-0.97379
   5  -5  -2 3641.18 462.869   4-0.14773 0.48140-0.04760-0.36989-0.99830 0.86858
  -5   5   2 4361.39 486.259   7-0.70686 0.37518 0.13872 0.27782-0.80976 0.93735
  -5   5   2 3406.50 412.664   1 0.13971-0.47289 0.04316 0.37403 0.99821-0.87016
  -4   5   2 465.173 152.586   1 0.14819-0.40777-0.02825 0.44541 0.99909-0.85775
   4   5  -2 370.331 130.921   6-0.17060 0.43080-0.01160 0.42987-0.99988 0.85794
   4  -5  -2 369.987 148.990   4-0.16772 0.42757 0.01731-0.43499-0.99978 0.85676
  -4   5   2 308.331 124.279   6-0.30323 0.04338 0.51275-0.09634-0.84497 0.98598
  -4  -5   2 505.717 186.991   9 0.20160-0.46131-0.00592-0.41055 0.99975-0.85661
   4   5  -2 243.930 132.657   2 0.49787-0.23804 0.38026 0.03663 0.85624-0.99759
  -4  -5   2 200.968 100.849   3-0.56009 0.30129-0.33169-0.08490-0.84750 0.98854
   4   5  -2 562.848 196.400   5 0.63829-0.37797 0.26471 0.15312 0.82595-0.96633
   4  -5  -2 355.357 148.212   8 0.66678-0.40784-0.24358-0.17288 0.81311-0.95529
   3   5  -2 6470.96 576.515   2 0.51880-0.33261 0.40679 0.01004 0.83292-0.98753
   3   5  -2 6086.15 487.835   6-0.14519 0.33156-0.09230 0.51073-0.99508 0.83976
  -3   5   2 5885.44 554.253   6-0.30509 0.11892 0.52275-0.10638-0.83824 0.99251
  -3  -5   2 6949.53 619.893   3-0.59201 0.40691-0.35969-0.05685-0.81595 0.97015
  -3  -5   2 6311.71 585.784   9 0.22536-0.41140 0.05527-0.47156 0.99737-0.84114
   3  -5  -2 6514.87 562.417   4-0.18505 0.37109 0.07574-0.49357-0.99715 0.84082
   2   5  -2 172.050 107.958   6-0.12717 0.23968-0.14721 0.56573-0.98768 0.81899
   2  -5  -2 142.158 107.545   4-0.19975 0.31195 0.12693-0.54486-0.99175 0.82210
   2   5  -2 124.657 108.457   2 0.54778-0.43527 0.44441-0.02762 0.79576-0.96359
  -2   5   2 212.539 115.380   1 0.15975-0.27213-0.13805 0.55518 0.99031-0.82241
  -2   5   2 311.142 119.138   6-0.30867 0.19617 0.54248-0.12618-0.82442 0.99191
  -2  -5   2 353.540 168.642   9 0.24626-0.35872 0.11117-0.52726 0.99137-0.82206
   1   5  -2 481.593 181.751   6-0.11542 0.15410-0.18208 0.60063-0.98120 0.79916
   1  -5  -2 572.042 195.442   4-0.21175 0.25014 0.17010-0.58809-0.98490 0.80193
  -1  -5   2 497.867 186.568   9 0.26423-0.30313 0.16085-0.57671 0.98293-0.80056
  -1   5   2 412.238 173.090   6-0.31384 0.27501 0.57224-0.15602-0.80211 0.98281
  -1   5   2 174.725 142.012   1 0.16335-0.20211-0.17617 0.59329 0.98434-0.80317
   0   5  -2 939.005 283.900   6-0.10898 0.07384-0.20091 0.61948-0.97712 0.78173
   0  -5  -2 292.369 182.286   4-0.22105 0.18563 0.20444-0.62244-0.97792 0.78165
   0   5   2 -19.315 68.0497   6-0.32021 0.35505 0.61196-0.19583-0.76935 0.96324
   0   5   2 733.934 246.513   1 0.16575-0.13087-0.20297 0.62007 0.97923-0.78478
   2   5   2 -106.44 140.168   1 0.16736 0.01477-0.22185 0.63893 0.97515-0.75418
 -10   6   2 260.733 179.705   7-0.66416-0.03633 0.12796 0.37259-0.84429 0.90535
  10   6  -2 245.442 167.300   2 0.49719 0.20408 0.37941 0.12104 0.85696-0.91879
 -10  -6   2 809.993 357.624   3-0.54158-0.15967-0.31568-0.18452-0.86385 0.92519
  10   6  -2 612.010 293.423   5 0.59314 0.10842 0.23898 0.26197 0.86303-0.92384
  10  -6  -2 530.229 225.343   8 0.61009 0.09122-0.21671-0.28344 0.85973-0.92241
  -9   6   2 -33.375 158.883   7-0.66421 0.03755 0.12798 0.37251-0.84425 0.91866
  -9   6   2 235.282 185.871   6-0.31431-0.31376 0.57505-0.07503-0.79991 0.87449
   9   6  -2 38.1523 87.8446   2 0.48891 0.13884 0.36904 0.13139 0.86544-0.94051
  -9  -6   2 -203.36 206.800   9 0.03954-0.66817-0.37352-0.12670 0.91891-0.84153
  -9  -6   2 29.5747 95.3973   3-0.53439-0.09309-0.30950-0.19071-0.86984 0.94452
   9   6  -2 -68.640 211.398   5 0.58829 0.03976 0.23625 0.26473 0.86664-0.94068
   9  -6  -2 99.1099 137.639   8 0.60623 0.02138-0.21490-0.28527 0.86256-0.93851
   9  -6  -2 -72.926 115.815   4-0.03707 0.66560-0.36947-0.13044-0.91978 0.84284
  -8   6   2 627.316 230.612   7-0.67056 0.11772 0.12956 0.37084-0.83944 0.92715
   8  -6  -2 788.547 256.752   4-0.06367 0.61850-0.29733-0.20289-0.94837 0.85831
  -8   6   2 823.463 293.874   6-0.30963-0.24483 0.54783-0.04784-0.82054 0.90840
  -8  -6   2 718.432 268.368   9 0.07125-0.62608-0.30753-0.19276 0.94632-0.85596
   8   6  -2 671.689 241.688   2 0.48356 0.07065 0.36238 0.13803 0.87072-0.95905
  -8  -6   2 626.907 243.522   3-0.53087-0.02283-0.30649-0.19373-0.87270 0.96070
   8   6  -2 935.006 325.912   5 0.58807-0.03354 0.23612 0.26489 0.86681-0.95408
   8  -6  -2 771.432 255.028   8 0.60740-0.05350-0.21544-0.28471 0.86171-0.95094
  -7   6   2 417.801 187.647   7-0.68486 0.20583 0.13316 0.36715-0.82820 0.92916
   7  -6  -2 226.531 165.392   4-0.08794 0.56902-0.22877-0.27174-0.96935 0.86613
  -7   6   2 277.657 156.338   6-0.30586-0.17499 0.52689-0.02693-0.83540 0.93654
  -7  -6   2 228.931 197.925   9 0.10089-0.58191-0.24344-0.25686 0.96716-0.86376
   7   6  -2 264.354 147.131   2 0.48167-0.00102 0.36004 0.14035 0.87255-0.97413
  -7  -6   2 -15.151 85.5817   3-0.53181 0.05188-0.30729-0.19292-0.87194 0.97324
   7   6  -2 607.029 239.268   5 0.59358-0.11257 0.23923 0.26182 0.86271-0.96325
   7  -6  -2 -6.1791 93.4129   8 0.61478-0.13463-0.21892-0.28123 0.85624-0.95871
  -6   6   2 1538.28 320.692   7-0.70919 0.30393 0.13932 0.36087-0.80771 0.92187
   6  -6  -2 1096.87 272.271   4-0.10989 0.51721-0.16435-0.33640-0.98393 0.86749
  -6   6   2 1069.59 279.959   6-0.30320-0.10402 0.51263-0.01270-0.84505 0.95945
  -6  -6   2 1059.81 276.454   9 0.12835-0.53560-0.18181-0.31844 0.98218-0.86572
   6   6  -2 1175.46 293.843   2 0.48390-0.07682 0.36280 0.13758 0.87039-0.98524
  -6  -6   2 1260.45 306.778   3-0.53814 0.13196-0.31273-0.18745-0.86674 0.98130
   6   6  -2 1272.48 276.533   5 0.60618-0.19869 0.24637 0.25475 0.85298-0.96682
  -6   6   2 794.375 220.166   1 0.12170-0.52853 0.17767 0.32292 0.98239-0.86768
   6  -6  -2 1057.67 290.555   8 0.62995-0.22357-0.22607-0.27406 0.84451-0.96021
  -5   6   2 166.729 108.359   1 0.13132-0.46456 0.10833 0.39224 0.99288-0.86487
   5  -6  -2 97.8390 117.397   4-0.12955 0.46307-0.10468-0.39629-0.99318 0.86348
   5   6  -2 366.908 122.060   6-0.22671 0.56053 0.18296 0.31833-0.98191 0.85288
  -5   6   2 220.765 105.504   6-0.30184-0.03171 0.50554-0.00564-0.84971 0.97739
  -5  -6   2 368.976 186.598   9 0.15375-0.48713-0.12282-0.37727 0.99216-0.86237
   5   6  -2 168.608 69.9705   2 0.49095-0.15748 0.37160 0.12877 0.86338-0.99150
  -5  -6   2 357.144 155.128   3-0.55098 0.21854-0.32380-0.17635-0.85571 0.98352
   5   6  -2 258.990 122.196   5 0.62754-0.29361 0.25854 0.24264 0.83538-0.96252
   5  -6  -2 203.054 87.1250   8 0.65482-0.32222-0.23787-0.26222 0.82379-0.95268
   4  -6  -2 -89.951 84.0460   4-0.14687 0.40659-0.05037-0.45078-0.99814 0.85516
   4   6  -2 -52.732 96.0840   6-0.19932 0.45947 0.08479 0.41682-0.99624 0.85409
   4   6  -2 -5.4914 79.8799   2 0.50364-0.24381 0.38752 0.11281 0.85008-0.99147
  -4   6   2 10.3640 77.7256   6-0.30195 0.04207 0.50606-0.00622-0.84937 0.99031
  -4  -6   2 27.6969 93.7987   9 0.17683-0.43638-0.06742-0.43239 0.99775-0.85459
  -4  -6   2 11.0993 88.9701   3-0.57162 0.31291-0.34175-0.15835-0.83663 0.97764
  -4   6   2 59.3387 97.4367   1 0.13911-0.39876 0.04802 0.45253 0.99796-0.85667
   4   6  -2 269.130 174.191   5 0.65959-0.39922 0.27703 0.22423 0.80604-0.94653
   4  -6  -2 30.9687 98.7217   8 0.69153-0.43271-0.25551-0.24453 0.78938-0.93141
   3   6  -2 0.61765 62.1536   6-0.17784 0.36424 0.01217 0.48971-0.99993 0.84460
   3  -6  -2 27.2471 88.5803   4-0.16184 0.34774-0.00203-0.49926-0.99982 0.84355
   3   6  -2 41.7342 93.9536   2 0.52274-0.33658 0.41185 0.08845 0.82822-0.98286
  -3   6   2 40.1587 86.3618   6-0.30358 0.11738 0.51470-0.01492-0.84367 0.99787
  -3  -6   2 -49.392 114.770   9 0.19723-0.38315-0.01694-0.48269 0.99972-0.84347
  -3  -6   2 185.594 169.162   3-0.60139 0.41638-0.36801-0.13201-0.80578 0.95995
  -3   6   2 -175.65 124.586   1 0.14529-0.33133-0.00305 0.50358 0.99937-0.84480
  -2   6   2 4689.97 513.765   1 0.15003-0.26247-0.04466 0.54519 0.99856-0.83071
   2   6  -2 4622.57 479.501   6-0.16169 0.27424-0.04032 0.54232-0.99899 0.83031
  -2   6   2 5235.07 564.471   6-0.30676 0.19424 0.53185-0.03214-0.83196 0.99940
  -2  -6   2 5355.70 583.809   9 0.21505-0.32739 0.02847-0.52787 0.99895-0.82961
   2   6  -2 3397.97 559.311   2 0.54887-0.43640 0.44584 0.05440 0.79423-0.96210
   1   6  -2 1091.12 268.934   6-0.15042 0.18914-0.07598 0.57803-0.99663 0.81460
   1  -6  -2 1630.67 335.421   4-0.18457 0.22285 0.07410-0.57555-0.99728 0.81439
  -1  -6   2 1608.78 317.439   9 0.23017-0.26898 0.06798-0.56714 0.99633-0.81392
  -1   6   2 1345.56 304.132   1 0.15351-0.19232-0.07663 0.57715 0.99674-0.81562
  -1   6   2 1458.78 312.244   6-0.31137 0.27255 0.55782-0.05818-0.81315 0.99381
   0   6   2 6585.17 733.301   1 0.15582-0.12101-0.09879 0.59929 0.99487-0.80048
   0   6  -2 5950.62 653.609   6-0.14348 0.10837-0.09758 0.59966-0.99451 0.79913
   0   6   2 5794.17 683.913   6-0.31720 0.35204 0.59262-0.09308-0.78574 0.97960
   0  -6   2 6105.85 666.367   9 0.24245-0.20776 0.10076-0.59968 0.99277-0.79729
   0  -6   2 6025.49 668.250   4 0.05392-0.01984-0.59364 0.09353-0.77975 0.97548
   0  -6  -2 5841.07 679.376   4-0.19221 0.15669 0.10050-0.60197-0.99490 0.79871
  -1   6  -2 760.378 234.375   6-0.14034 0.03143-0.10723 0.60930-0.99340 0.78469
  -1  -6  -2 731.025 301.975   4-0.19722 0.08793 0.11806-0.61954-0.99289 0.78341
   1  -6   2 1422.79 310.319   4 0.05471 0.05303-0.59543 0.09546-0.77824 0.98724
   1   6   2 1686.86 406.116   1 0.15706-0.04861-0.11087 0.61137 0.99364-0.78598
  -2  -6  -2 -174.79 216.609   4-0.19941 0.01637 0.12582-0.62728-0.99189 0.76913
   2   6   2 298.578 198.031   1 0.15723 0.02485-0.11258 0.61307 0.99345-0.77253
  -3  -6  -2 -48.721 126.578   4-0.19849-0.05825 0.12257-0.62401-0.99232 0.75629
   3   6   2 -3.2598 99.8220   1 0.15631 0.09943-0.10348 0.60394 0.99441-0.76022
 -10   7   2 -24.158 194.564   7-0.69732-0.00303 0.13631 0.44785-0.81793 0.87868
  -9   7   2 243.485 178.509   7-0.69988 0.07337 0.13695 0.44712-0.81577 0.88985
   9   7  -2 101.361 201.460   2 0.49797 0.12984 0.38039 0.20345 0.85613-0.93123
  -9  -7   2 -39.116 138.098   9 0.03104-0.65949-0.39077-0.19302 0.91068-0.83341
  -9  -7   2 -26.317 230.160   3-0.54893-0.07851-0.32202-0.26176-0.85752 0.93215
  -9   7   2 84.9745 148.625   6-0.31377-0.31442 0.57174 0.01168-0.80250 0.87696
   9   7  -2 -73.507 175.259   5 0.61073 0.01736 0.24896 0.33540 0.84935-0.92352
   9  -7  -2 -79.733 206.892   8 0.63131-0.00372-0.22671-0.35706 0.84343-0.91926
   9  -7  -2 94.1702 227.129   4-0.02979 0.65824-0.38870-0.19476-0.91097 0.83403
   8  -7  -2 88.1395 141.344   4-0.05347 0.60819-0.32535-0.25840-0.93809 0.84803
  -8   7   2 -10.459 156.579   7-0.70882 0.15614 0.13923 0.44476-0.80804 0.89541
  -8   7   2 255.316 216.039   6-0.30952-0.24504 0.54718 0.03621-0.82102 0.90876
   8   7  -2 116.515 162.430   2 0.49347 0.06079 0.37476 0.20908 0.86080-0.94916
  -8  -7   2 75.6552 127.061   9 0.05945-0.61411-0.33240-0.25141 0.93672-0.84644
  -8  -7   2 -73.208 102.986   3-0.54651-0.00714-0.31993-0.26384-0.85962 0.94758
   8   7  -2 -54.552 189.583   5 0.61206-0.05748 0.24970 0.33467 0.84828-0.93570
   8  -7  -2 -177.15 166.979   8 0.63420-0.08036-0.22808-0.35569 0.84111-0.93019
   7   7  -2 4059.22 604.178   2 0.49225-0.01156 0.37323 0.21061 0.86205-0.96367
  -7   7   2 3960.00 622.493   6-0.30612-0.17480 0.52837 0.05501-0.83438 0.93542
  -7  -7   2 4189.90 609.860   3-0.54835 0.06847-0.32152-0.26224-0.85802 0.95927
  -7  -7   2 3287.70 539.046   9 0.08586-0.56673-0.27625-0.30754 0.95718-0.85385
   7   7  -2 3782.86 574.093   5 0.61897-0.13791 0.25364 0.33080 0.84262-0.94330
   7  -7  -2 5447.36 739.639   8 0.64322-0.16314-0.23235-0.35140 0.83370-0.93603
   7  -7  -2 4349.14 652.078   4-0.07502 0.55599-0.26558-0.31844-0.95881 0.85558
  -7   7   2 5260.51 697.603   7-0.72570 0.24679 0.14352 0.44034-0.79276 0.89338
   6  -7  -2 342.541 165.078   4-0.09447 0.50165-0.20985-0.37439-0.97414 0.85770
  -6   7   2 322.744 198.154   1 0.11430-0.52119 0.22773 0.35626 0.97164-0.85696
  -6   7   2 176.084 151.335   6-0.30377-0.10352 0.51564 0.06771-0.84304 0.95736
   6   7  -2 274.956 190.431   2 0.49484-0.08775 0.37647 0.20735 0.85940-0.97428
  -6  -7   2 290.825 156.495   9 0.11019-0.51731-0.22279-0.36093 0.97272-0.85634
  -6  -7   2 191.329 164.793   3-0.55527 0.14917-0.32750-0.25621-0.85190 0.96641
   6   7  -2 551.379 233.853   5 0.63266-0.22513 0.26148 0.32304 0.83094-0.94491
   6  -7  -2 890.147 310.106   8 0.65972-0.25343-0.24021-0.34352 0.81947-0.93501
   5  -7  -2 1572.18 363.279   4-0.11179 0.44517-0.15868-0.42578-0.98498 0.85530
  -5   7   2 1081.79 314.217   6-0.30258-0.03104 0.50935 0.07397-0.84722 0.97481
   5   7  -2 948.215 257.524   2 0.50186-0.16838 0.38528 0.19854 0.85200-0.98016
  -5  -7   2 1397.22 337.790   9 0.13260-0.46583-0.17206-0.41142 0.98412-0.85436
  -5  -7   2 1485.28 333.426   3-0.56822 0.23586-0.33876-0.24490-0.83990 0.96766
   5   7  -2 1786.14 384.988   5 0.65457-0.32058 0.27411 0.31048 0.81089-0.93818
  -5   7   2 1173.42 307.042   1 0.12308-0.45639 0.16803 0.41593 0.98415-0.85618
   5  -7  -2 1658.99 402.728   8 0.68535-0.35286-0.25252-0.33117 0.79552-0.92422
  -4   7   2 285.612 169.515   1 0.13027-0.38998 0.11615 0.46779 0.99194-0.85069
   4  -7  -2 175.967 142.161   4-0.12699 0.38657-0.11256-0.47206-0.99219 0.84923
   4   7  -2 263.422 118.157   6-0.22181 0.48191 0.16486 0.42011-0.98538 0.84302
   4   7  -2 58.2818 107.560   2 0.51393-0.25411 0.40058 0.18322 0.83859-0.98001
  -4   7   2 133.391 97.4545   6-0.30267 0.04274 0.50989 0.07339-0.84686 0.98773
  -4  -7   2 242.907 128.455   9 0.15260-0.41216-0.12551-0.45780 0.99180-0.84892
  -4  -7   2 49.0933 97.7174   3-0.58824 0.32963-0.35634-0.22725-0.81993 0.96088
   3   7  -2 5178.19 642.469   2 0.53168-0.34553 0.42338 0.16039 0.81716-0.97182
   3   7  -2 4853.68 522.014   6-0.20335 0.38967 0.09884 0.48635-0.99485 0.83926
  -3   7   2 4884.11 607.345   6-0.30412 0.11790 0.51763 0.06560-0.84171 0.99584
  -3  -7   2 4238.76 621.655   3-0.61636 0.43145-0.38142-0.20211-0.78858 0.94269
  -3  -7   2 5114.08 639.820   9 0.17041-0.35626-0.08300-0.50001 0.99655-0.84040
   3  -7  -2 4651.36 577.692   4-0.14003 0.32579-0.07201-0.51272-0.99655 0.84032
  -3   7   2 4518.74 548.497   1 0.13603-0.32215 0.07233 0.51160 0.99636-0.84183
   2  -7  -2 25.3939 71.6761   4-0.15086 0.26280-0.03762-0.54721-0.99883 0.82930
   2   7  -2 -73.171 94.3932   6-0.18909 0.30163 0.04974 0.53563-0.99874 0.82993
  -2  -7   2 -7.4049 92.0319   9 0.18574-0.29798-0.04555-0.53716 0.99897-0.82962
  -2   7   2 13.2826 81.3667   6-0.30695 0.19441 0.53289 0.05027-0.83123 0.99860
  -2   7   2 -8.1552 118.710   1 0.14050-0.25300 0.03677 0.54715 0.99850-0.83070
   1   7  -2 5177.99 591.369   6-0.17871 0.21746 0.01502 0.57055-0.99989 0.81789
  -1   7   2 5000.38 602.751   6-0.31105 0.27222 0.55594 0.02715-0.81455 0.99516
  -1  -7   2 5207.24 621.032   9 0.19842-0.23716-0.01393-0.56854 0.99974-0.81729
  -1  -7   2 6185.78 718.913   4 0.05383-0.09353-0.59344 0.00980-0.77991 0.96239
   1  -7  -2 4867.11 617.076   4-0.15942 0.19756-0.00996-0.57493-0.99972 0.81689
  -1   7   2 5081.32 624.291   1 0.14378-0.18267 0.00968 0.57424 0.99926-0.81819
   0  -7  -2 -85.369 187.590   4-0.16559 0.12996 0.01031-0.59523-0.99984 0.80371
   0  -7   2 -134.15 178.049   9 0.20837-0.17366 0.01130-0.59351 0.99952-0.80400
   0   7   2 -118.87 148.610   6-0.31625 0.35113 0.58683-0.00385-0.79049 0.98428
   0  -7   2 8.99988 113.529   4 0.05138-0.01743-0.58785 0.00432-0.78455 0.98031
   0   7   2 68.1008 116.031   1 0.14595-0.11120-0.00874 0.59265 0.99936-0.80502
   1   7   2 731.219 300.116   1 0.14705-0.03866-0.01823 0.60212 0.99928-0.79167
  -1   7  -2 621.830 284.620   6-0.16804 0.05913-0.01994 0.60551-0.99971 0.79099
  -1  -7  -2 690.767 233.462   4-0.16927 0.05987 0.02245-0.60737-0.99970 0.79028
   1  -7   2 511.742 157.967   9 0.21537-0.10726 0.02929-0.61124 0.99891-0.79032
   1  -7   2 602.527 247.238   4 0.05218 0.05543-0.58969 0.00627-0.78303 0.99207
   2   7   2 262.263 186.185   1 0.14708 0.03495-0.01847 0.60234 0.99927-0.77841
  -2   7  -2 -42.930 116.054   6-0.16722-0.01547-0.02256 0.60811-0.99965 0.77760
  -2  -7  -2 460.378 292.244   4-0.17020-0.01292 0.02556-0.61046-0.99963 0.77695
   2  -7   2 -48.646 91.3148   4 0.05587 0.12545-0.59804 0.01475-0.77604 0.99834
  -8   8   2 682.871 353.827   6-0.31077-0.24388 0.55426 0.11257-0.81580 0.90344
  -8  -8   2 318.811 288.791   9 0.04585-0.60035-0.36061-0.30671 0.92477-0.83457
  -8  -8   2 321.284 215.478   3-0.56544 0.01185-0.33634-0.33099-0.84253 0.93040
   8   8  -2 609.015 346.658   5 0.63978-0.08515 0.26557 0.40220 0.82461-0.91220
   8  -8  -2 -101.09 174.704   8 0.66501-0.11123-0.24274-0.42465 0.81472-0.90361
   8  -8  -2 421.657 370.061   4-0.04201 0.59661-0.35633-0.31094-0.92551 0.83544
   7  -8  -2 -97.449 122.579   4-0.06138 0.54221-0.30365-0.36386-0.94614 0.84289
   7   8  -2 -132.73 194.318   2 0.50574-0.02502 0.39019 0.27711 0.84778-0.94942
  -7   8   2 121.869 211.864   6-0.30775-0.17324 0.53732 0.12949-0.82811 0.92903
  -7  -8   2 -271.27 269.119   9 0.06961-0.55035-0.31100-0.35626 0.94503-0.84179
  -7  -8   2 202.247 126.069   3-0.56824 0.08844-0.33879-0.32852-0.83988 0.94105
   7   8  -2 233.948 184.472   5 0.64813-0.16701 0.27038 0.39745 0.81697-0.91782
   7  -8  -2 32.8795 209.113   8 0.67569-0.19571-0.24787-0.41952 0.80483-0.90695
   6  -8  -2 2108.89 484.681   4-0.07879 0.48583-0.25491-0.41282-0.96203 0.84559
   6   8  -2 2186.13 476.646   2 0.50877-0.10166 0.39402 0.27327 0.84443-0.95934
  -6   8   2 2240.72 527.369   6-0.30567-0.10165 0.52595 0.14084-0.83605 0.95026
  -6  -8   2 2294.87 491.738   9 0.09141-0.49839-0.26421-0.40297 0.96100-0.84469
  -6  -8   2 1748.64 425.040   3-0.57582 0.16980-0.34542-0.32184-0.83253 0.94696
   6   8  -2 2205.39 465.715   5 0.66295-0.25536 0.27898 0.38893 0.80275-0.91690
   6  -8  -2 1655.35 470.204   8 0.69355-0.28737-0.25648-0.41086 0.78734-0.90265
   5  -8  -2 -112.32 179.440   4-0.09424 0.42748-0.21051-0.45740-0.97398 0.84429
  -5   8   2 176.114 201.120   1 0.11485-0.44821 0.22406 0.44328 0.97252-0.84459
   5   8  -2 82.3070 148.163   2 0.51585-0.18237 0.40303 0.26426 0.83637-0.96454
  -5   8   2 -79.239 121.440   6-0.30466-0.02899 0.52044 0.14632-0.83981 0.96731
  -5  -8   2 424.903 239.131   9 0.11114-0.44441-0.22067-0.44637 0.97326-0.84387
  -5  -8   2 -9.0292 212.187   3-0.58899 0.25673-0.35701-0.31019-0.81914 0.94680
   4   8  -2 6726.86 788.150   2 0.52749-0.26770 0.41799 0.24930 0.82240-0.96383
   4   8  -2 6135.11 657.244   6-0.24042 0.50043 0.23488 0.43342-0.96985 0.82720
  -4   8   2 6449.50 775.607   6-0.30478 0.04481 0.52110 0.14562-0.83937 0.98014
  -4  -8   2 5984.00 815.781   3-0.60859 0.35007-0.37445-0.29267-0.79765 0.93851
  -4  -8   2 6693.16 796.101   9 0.12876-0.38836-0.18087-0.48600 0.98237-0.83988
  -4   8   2 5575.90 663.762   1 0.12154-0.38131 0.17881 0.48851 0.98217-0.84096
   4  -8  -2 6202.48 748.973   4-0.10769 0.36712-0.17091-0.49716-0.98266 0.83972
   3  -8  -2 79.6866 124.291   4-0.11914 0.30475-0.13656-0.53162-0.98874 0.83252
   3   8  -2 282.499 184.247   6-0.22449 0.41077 0.17475 0.49378-0.98353 0.82770
   3   8  -2 79.2436 154.811   2 0.54419-0.35807 0.43969 0.22757 0.80070-0.95537
  -3   8   2 76.9924 128.192   6-0.30609 0.11983 0.52823 0.13845-0.83448 0.98852
  -3  -8   2 101.832 191.369   9 0.14441-0.33024-0.14473-0.52173 0.98894-0.83299
  -3   8   2 105.573 106.748   1 0.12692-0.31308 0.14071 0.52660 0.98860-0.83412
  -2   8   2 1126.58 323.559   1 0.13110-0.24366 0.10997 0.55734 0.99269-0.82492
   2  -8  -2 1468.20 369.798   4-0.12849 0.24030-0.10794-0.56032-0.99278 0.82327
   2   8  -2 1201.21 321.643   6-0.21178 0.32428 0.12862 0.54007-0.99119 0.82211
  -2  -8   2 1517.26 383.784   9 0.15746-0.26973-0.11404-0.55222 0.99329-0.82428
  -2   8   2 1285.16 338.820   6-0.30861 0.19605 0.54207 0.12454-0.82472 0.99200
  -1   8   2 1671.01 419.667   1 0.13416-0.17310 0.08679 0.58052 0.99512-0.81409
   1  -8  -2 1132.85 330.132   4-0.13570 0.17371-0.08560-0.58272-0.99529 0.81249
   1   8  -2 1058.79 313.705   6-0.20223 0.24093 0.09490 0.57395-0.99526 0.81297
  -1  -8   2 1445.83 357.551   9 0.16824-0.20696-0.08825-0.57760 0.99608-0.81373
  -1   8   2 1298.90 364.235   6-0.31224 0.27341 0.56285 0.10370-0.80935 0.98986
  -1  -8   2 1246.98 379.917   4 0.05530-0.09513-0.59677-0.07028-0.77711 0.95959
   0   8  -2 6229.06 754.360   6-0.19554 0.16043 0.07176 0.59712-0.99733 0.80169
   0   8   2 6690.76 855.718   6-0.31688 0.35174 0.59062 0.07582-0.78739 0.98111
   0   8   2 7211.33 739.312   2 0.23340-0.19868 0.07243 0.59580 0.99583-0.80154
   0  -8   2 6090.38 754.396   9 0.17628-0.14154-0.06878-0.59674 0.99766-0.80213
   0  -8   2 6213.21 808.033   4 0.05303-0.01920-0.59161-0.07535-0.78143 0.97721
   0  -8  -2 7272.75 928.858   4-0.14064 0.10487-0.07011-0.59822-0.99671 0.80063
   0   8   2 8989.54 1021.41   1 0.13615-0.10147 0.07137 0.59593 0.99643-0.80214
  -1  -8  -2 20.5375 187.176   4-0.14316 0.03365-0.06215-0.60617-0.99734 0.78797
  -1   8  -2 -95.373 277.385   6-0.19164 0.08275 0.05843 0.61053-0.99825 0.78937
   1   8   2 654.715 324.433   1 0.13710-0.02877 0.06398 0.60332 0.99698-0.78941
   1  -8   2 207.937 171.218   9 0.18134-0.07325-0.05638-0.60889 0.99844-0.78982
   1   8   2 211.320 140.904   2 0.21813-0.10972 0.05577 0.61244 0.99766-0.79013
   1  -8   2 255.518 241.351   4 0.05369 0.05381-0.59311-0.07375-0.78018 0.98924
  -2  -8  -2 283.745 217.109   4-0.14303-0.04020-0.06254-0.60576-0.99731 0.77467
   2   8   2 262.833 157.378   1 0.13697 0.04498 0.06491 0.60237 0.99691-0.77609
   2   8   2 513.215 269.523   2 0.21185-0.02980 0.04895 0.61922 0.99825-0.77748
  -3  -8  -2 240.527 131.029   4-0.13995-0.11697-0.07228-0.59598-0.99653 0.76063
   3   8   2 -56.387 143.487   1 0.13574 0.11988 0.07455 0.59270 0.99618-0.76209
   3   8   2 -55.113 249.271   2 0.21240 0.04327 0.04955 0.61856 0.99820-0.76420
  -7   9   2 1022.53 384.003   6-0.31034-0.17074 0.55180 0.19844-0.81763 0.91843
  -7  -9   2 1577.72 503.223   3-0.59072 0.11102-0.35855-0.39231-0.81732 0.91836
   7   9  -2 212.616 266.276   5 0.68021-0.19903 0.28907 0.46215 0.78507-0.88613
   6  -9  -2 128.149 236.740   4-0.06283 0.46973-0.29967-0.45155-0.94755 0.83107
   6   9  -2 -48.111 142.809   2 0.52491-0.11778 0.41464 0.33614 0.82559-0.94051
  -6   9   2 146.724 182.617   6-0.30853-0.09886 0.54164 0.20859-0.82502 0.93912
  -6  -9   2 210.561 195.879   3-0.59897 0.19305-0.36587-0.38493-0.80843 0.92274
  -6  -9   2 13.5365 240.852   9 0.07199-0.47885-0.30596-0.44465 0.94690-0.83067
   5  -9  -2 -285.66 249.137   4-0.07671 0.40980-0.26081-0.49056-0.96027 0.83056
   5   9  -2 115.824 123.366   2 0.53211-0.19864 0.42393 0.32685 0.81662-0.94480
  -5  -9   2 -39.426 216.528   3-0.61240 0.28022-0.37786-0.37286-0.79325 0.92077
  -5   9   2 58.6863 220.334   6-0.30767-0.02603 0.53686 0.21337-0.82843 0.95582
  -5  -9   2 84.1910 155.044   9 0.08968-0.42284-0.26798-0.48249 0.95983-0.83051
   4  -9  -2 1123.61 406.661   4-0.08871 0.34799-0.22652-0.52499-0.96994 0.82699
  -4   9   2 869.951 318.571   1 0.11279-0.37261 0.23764 0.51308 0.96919-0.82801
   4   9  -2 787.223 323.209   2 0.54343-0.28365 0.43870 0.31208 0.80173-0.94316
  -4   9   2 1027.94 415.666   6-0.30781 0.04782 0.53768 0.21251-0.82785 0.96851
  -4  -9   2 1186.78 408.500   9 0.10530-0.36481-0.23368-0.51659 0.96986-0.82745
   3  -9  -2 824.839 346.469   4-0.09880 0.28426-0.19717-0.55443-0.97711 0.82088
   3   9  -2 951.818 405.378   6-0.24261 0.42885 0.24340 0.50848-0.96757 0.81151
  -3   9   2 1146.20 375.928   6-0.30901 0.12273 0.54437 0.20578-0.82306 0.97699
  -3  -9   2 142.577 150.866   9 0.11879-0.30467-0.20354-0.54654 0.97743-0.82192
  -3   9   2 393.034 197.751   1 0.11783-0.30405 0.20416 0.54655 0.97704-0.82258
   2  -9  -2 284.559 197.696   4-0.10692 0.21858-0.17323-0.57846-0.98221 0.81270
   2   9  -2 488.788 233.492   6-0.23136 0.34388 0.20034 0.55179-0.97823 0.80906
  -2  -9   2 170.698 155.810   9 0.13024-0.24246-0.17748-0.57212 0.98305-0.81410
  -2   9   2 162.279 206.919   6-0.31126 0.19869 0.55711 0.19297-0.81368 0.98086
  -2   9   2 273.286 140.110   1 0.12175-0.23436 0.17733 0.57338 0.98245-0.81473
   1  -9  -2 1684.94 510.845   4-0.11297 0.15084-0.15515-0.59658-0.98562 0.80283
   1   9  -2 839.463 300.892   6-0.22256 0.26124 0.16764 0.58456-0.98487 0.80236
  -1  -9   2 1203.07 411.482   9 0.13918-0.17790-0.15688-0.59235 0.98691-0.80470
  -1   9   2 791.414 263.073   6-0.31448 0.27564 0.57608 0.17393-0.79910 0.97951
  -1   9   2 1624.38 421.149   1 0.12460-0.16360 0.15732 0.59338 0.98599-0.80500
   0  -9  -2 465.527 267.747   4-0.11686 0.08097-0.14347-0.60827-0.98762 0.79155
   0   9  -2 278.905 204.568   6-0.21625 0.18112 0.14465 0.60761-0.98880 0.79299
   0  -9   2 -161.75 188.448   9 0.14534-0.11066-0.14256-0.60650 0.98929-0.79409
   0   9   2 -103.72 239.676   6-0.31857 0.35345 0.60133 0.14859-0.77847 0.97209
   0   9   2 163.458 237.047   1 0.12641-0.09178 0.14435 0.60634 0.98805-0.79380
  -1  -9  -2 -149.47 217.361   4-0.11840 0.00876-0.13880-0.61293-0.98838 0.77903
  -1   9  -2 205.301 302.091   6-0.21227 0.10336 0.13035 0.62194-0.99094 0.78181
   1   9   2 -181.46 213.898   2 0.28105-0.17269 0.12509 0.62661 0.98652-0.77895
   1   9   2 -66.758 269.094   1 0.12720-0.01894 0.13866 0.61202 0.98891-0.78138
  -2  -9  -2 13.5091 186.800   4-0.11738-0.06596-0.14188-0.60981-0.98788 0.76527
   2   9   2 337.672 484.367   2 0.27039-0.08834 0.11322 0.63845 0.98910-0.76830
   2   9   2 121.173 207.364   1 0.12694 0.05497 0.14054 0.61013 0.98863-0.76784
   5  10  -2 -364.65 307.051   2 0.54998-0.21651 0.44731 0.38698 0.79267-0.92085
   3 -10  -2 412.843 342.368   4-0.07880 0.26411-0.25490-0.58015-0.96204 0.80578
   3  10  -2 58.2937 251.658   6-0.25853 0.44478 0.30715 0.52815-0.94763 0.79142
  -3  10   2 14.8839 209.093   6-0.31254 0.12623 0.56460 0.26901-0.80801 0.96181
  -3 -10   2 -261.89 326.441   9 0.09364-0.27947-0.25934-0.57411 0.96250-0.80709
   2 -10  -2 817.896 409.698   4-0.08584 0.19735-0.23479-0.60031-0.96774 0.79821
  -2  10   2 1207.73 403.025   1 0.11236-0.22503 0.24041 0.59369 0.96848-0.80080
   2  10  -2 1012.93 407.613   6-0.24844 0.36090 0.26633 0.56911-0.96098 0.79150
  -2 -10   2 1069.57 482.204   9 0.10326-0.21555-0.23820-0.59503 0.96862-0.80014
  -2  10   2 1314.59 416.134   6-0.31455 0.20197 0.57646 0.25709-0.79879 0.96584
   1 -10  -2 -221.35 270.195   4-0.09090 0.12863-0.22020-0.61492-0.97157 0.78878
   1  10  -2 218.199 164.600   6-0.24046 0.27912 0.23504 0.60050-0.96981 0.78707
  -1  10   2 640.558 422.512   1 0.11501-0.15405 0.22303 0.61106 0.97276-0.79181
  -1 -10   2 159.994 216.542   9 0.11053-0.14933-0.22205-0.61095 0.97291-0.79133
  -1  10   2 444.334 322.205   6-0.31740 0.27856 0.59395 0.23953-0.78465 0.96493
  -1 -10  -2 277.018 382.485   4-0.09456-0.01519-0.20958-0.62552-0.97420 0.76486
   1  10   2 342.664 515.521   1 0.11729-0.00907 0.20783 0.62625 0.97624-0.76875
 -12   0   3 -68.975 133.973   7-0.70505-0.12498 0.13826-0.13972-0.81134 0.94371
  12   0  -3 116.531 148.853   8 0.69798 0.13269-0.25862 0.25951 0.78281-0.91712
 -11   0   3 241.805 186.831   7-0.69894-0.05735 0.13671-0.13814-0.81657 0.96228
  11   0  -3 -267.15 279.868   8 0.69159 0.06552-0.25553 0.25645 0.78932-0.93685
 -10   0   3 -217.18 204.309   7-0.69742 0.01486 0.13633-0.13771-0.81785 0.97688
  10   0  -3 107.546 188.033   8 0.68952-0.00597-0.25452 0.25549 0.79140-0.95216
  -9   0   3 -205.40 149.203   7-0.70160 0.09275 0.13739-0.13873-0.81430 0.98661
   9   0  -3 -225.36 221.790   8 0.69278-0.08281-0.25611 0.25710 0.78812-0.96211
  -8   0   3 1218.68 305.549   7-0.71290 0.17772 0.14026-0.14156-0.80443 0.99000
   8   0  -3 621.577 293.646   8 0.70264-0.16627-0.26089 0.26191 0.77795-0.96519
  -7   0   3 -72.281 116.454   7-0.73298 0.27145 0.14538-0.14664-0.78586 0.98464
 -12   1   3 742.213 346.377   7-0.69799-0.13209 0.13647-0.05443-0.81737 0.94974
 -12  -1   3 643.139 261.362   7-0.71851-0.11147 0.14169-0.22660-0.79939 0.93175
  12   1  -3 109.798 184.679   5 0.67379 0.15791 0.28531-0.20102 0.79178-0.92236
  12  -1  -3 1220.66 474.152   8 0.68306 0.14768-0.25142 0.16899 0.79776-0.93198
 -11   1   3 58.6730 152.313   7-0.69148-0.06483 0.13484-0.05275-0.82280 0.96851
 -11  -1   3 128.009 211.929   7-0.71330-0.04295 0.14037-0.22523-0.80408 0.94978
  11   1  -3 82.0234 161.144   5 0.66606 0.09208 0.28079-0.19650 0.79966-0.94347
  11  -1  -3 328.620 234.646   8 0.67583 0.08133-0.24793 0.16555 0.80470-0.95216
 -10   1   3 -101.24 140.653   7-0.68943 0.00687 0.13432-0.05222-0.82448 0.98351
 -10  -1   3 42.9184 122.762   7-0.71285 0.03029 0.14025-0.22505-0.80448 0.96349
  10   1  -3 269.126 228.053   5 0.66225 0.02230 0.27858-0.19430 0.80344-0.96050
  10  -1  -3 177.700 221.552   8 0.67269 0.01086-0.24643 0.16407 0.80765-0.96835
  -9  -1   3 132.389 69.9365   7-0.71831 0.10945 0.14164-0.22639-0.79957 0.97185
   9   1  -3 -18.000 81.1056   5 0.66332-0.05235 0.27920-0.19493 0.80238-0.97271
   9  -1  -3 -169.11 215.284   8 0.67462-0.06466-0.24736 0.16503 0.80584-0.97978
   8   1  -3 5391.57 687.308   5 0.67040-0.13302 0.28333-0.19907 0.79527-0.97889
   8  -1  -3 9143.27 839.378   8 0.68280-0.14646-0.25130 0.16900 0.79801-0.98519
  -8   1   3 9336.87 796.135   7-0.70330 0.16817 0.13782-0.05568-0.81285 0.99840
  -8  -1   3 6114.35 667.196   7-0.73113 0.19591 0.14491-0.22960-0.78763 0.97318
  -7  -1   3 125.626 79.8622   9 0.24924-0.71387 0.11927-0.20193 0.99020-0.78815
   7  -1  -3 247.184 218.628   8 0.69867-0.23593-0.25895 0.17669 0.78210-0.98254
 -12  -2   3 133.760 232.349   7-0.73851-0.09141 0.14680-0.31512-0.78050 0.91284
  12   2  -3 191.334 316.623   5 0.66334 0.16831 0.27922-0.11147 0.80236-0.93296
  12  -2  -3 256.044 214.193   8 0.67454 0.15627-0.24732 0.08155 0.80591-0.94008
 -11   2   3 1430.38 419.307   7-0.69064-0.06568 0.13462 0.03100-0.82349 0.96916
 -11  -2   3 733.684 321.270   7-0.73470-0.02153 0.14582-0.31407-0.78420 0.92988
  11   2  -3 1409.55 453.026   5 0.65518 0.10291 0.27447-0.10674 0.81030-0.95414
  11  -2  -3 1393.90 478.527   8 0.66695 0.09025-0.24367 0.07793 0.81295-0.96036
 -10   2   3 433.146 246.825   7-0.68858 0.00602 0.13410 0.03153-0.82519 0.98418
 -10  -2   3 371.603 206.196   7-0.73586 0.05330 0.14612-0.31430-0.78308 0.94206
 -10  -2   3 -285.33 405.667   3-0.61694-0.06640-0.38194 0.21612-0.78789 0.94606
  10   2  -3 527.380 281.979   5 0.65078 0.03375 0.27192-0.10419 0.81448-0.97156
  10  -2  -3 682.949 278.796   8 0.66330 0.02028-0.24192 0.07621 0.81627-0.97693
  -9   2   3 3098.98 520.491   7-0.69192 0.08312 0.13495 0.03068-0.82244 0.99471
  -9  -2   3 2284.43 543.639   3-0.61506 0.00542-0.38025 0.21440-0.79012 0.96159
   9   2  -3 2874.37 508.828   5 0.65100-0.04004 0.27205-0.10432 0.81428-0.98462
   9  -2  -3 2777.92 504.045   8 0.66449-0.05452-0.24249 0.07680 0.81520-0.98911
  -8   2   3 994.355 282.371   7-0.70198 0.16691 0.13749 0.02813-0.81398 0.99950
  -8  -2   3 455.397 187.206   9 0.17746-0.71568-0.06587-0.10005 0.99786-0.80888
   8   2  -3 676.889 242.594   5 0.65688-0.11950 0.27546-0.10772 0.80867-0.99229
   8  -2  -3 719.094 246.952   8 0.67163-0.13530-0.24591 0.08025 0.80864-0.99580
  -7   2   3 328.976 190.127   7-0.72032 0.25895 0.14216 0.02347-0.79773 0.99646
   7  -2  -3 27.7244 63.1160   4-0.20310 0.66740 0.13894-0.30584-0.99005 0.78835
  -7  -2   3 8.65815 75.5560   9 0.23008-0.69449 0.06773-0.23385 0.99635-0.79439
   7   2  -3 104.828 114.561   5 0.66970-0.20592 0.28292-0.11518 0.79598-0.99291
   7  -2  -3 304.292 185.865   8 0.68605-0.22338-0.25286 0.08721 0.79483-0.99523
 -11   3   3 786.704 346.854   7-0.69607-0.06023 0.13600 0.11320-0.81898 0.96458
 -11  -3   3 1257.08 390.259   3-0.61191-0.14516-0.37742 0.12819-0.79382 0.93876
  11   3  -3 1029.57 420.426   5 0.65076 0.10729 0.27190-0.02076 0.81450-0.95837
  11  -3  -3 1365.31 418.725   8 0.66444 0.09282-0.24246-0.00668 0.81524-0.96261
 -10   3   3 529.870 253.736   7-0.69443 0.01192 0.13558 0.11360-0.82035 0.97927
 -10  -3   3 672.158 347.553   3-0.60575-0.07761-0.37191 0.12266-0.80088 0.95914
  10   3  -3 61.0945 149.374   5 0.64625 0.03826 0.26930-0.01814 0.81871-0.97582
  10  -3  -3 215.041 256.278   8 0.66075 0.02287-0.24069-0.00843 0.81856-0.97919
  -9   3   3 571.665 240.864   7-0.69813 0.08938 0.13651 0.11266-0.81725 0.98945
  -9  -3   3 558.523 270.536   3-0.60329-0.00636-0.36970 0.12042-0.80366 0.97523
   9   3  -3 569.728 232.739   5 0.64614-0.03519 0.26924-0.01807 0.81881-0.98918
   9  -3  -3 628.180 272.210   8 0.66171-0.05174-0.24115-0.00795 0.81771-0.99159
  -8   3   3 430.177 213.672   7-0.70839 0.17339 0.13912 0.11003-0.80842 0.99386
   8  -3  -3 201.175 143.953   4-0.14854 0.68642-0.04506-0.20506-0.99845 0.81012
  -8  -3   3 -62.951 90.4083   9 0.16701-0.70508-0.09121-0.15824 0.99580-0.80696
  -8  -3   3 308.508 215.988   3-0.60525 0.06930-0.37146 0.12215-0.80145 0.98630
   8   3  -3 250.237 189.700   5 0.65143-0.11405 0.27229-0.02112 0.81388-0.99753
   8  -3  -3 274.303 180.864   8 0.66836-0.13206-0.24434-0.00475 0.81166-0.99879
  -7   3   3 1601.02 361.466   7-0.72670 0.26541 0.14378 0.10534-0.79182 0.99046
   7  -3  -3 410.886 215.815   4-0.18386 0.64803 0.07166-0.32209-0.99746 0.79584
  -7  -3   3 774.912 279.937   9 0.21117-0.67538 0.01846-0.26803 0.99932-0.79741
  -7  -3   3 1444.44 361.376   3-0.61252 0.15027-0.37798 0.12864-0.79310 0.99121
   7   3  -3 1596.70 378.785   5 0.66325-0.19944 0.27916-0.02796 0.80245-0.99940
   7  -3  -3 1661.80 370.973   8 0.68195-0.21932-0.25088 0.00181 0.79883-0.99921
 -11   4   3 2470.79 597.108   7-0.70733-0.04894 0.13884 0.19396-0.80935 0.95481
 -11  -4   3 3720.71 782.932   3-0.60692-0.15019-0.37295 0.04023-0.79956 0.94455
  11   4  -3 2124.02 531.266   5 0.65214 0.10589 0.27270 0.06185 0.81321-0.95713
  11  -4  -3 2766.88 597.011   8 0.66771 0.08959-0.24404-0.08859 0.81226-0.95958
 -10   4   3 242.523 135.550   7-0.70651 0.02404 0.13864 0.19414-0.81006 0.96885
 -10  -4   3 181.804 218.260   3-0.60080-0.08256-0.36749 0.03475-0.80643 0.96476
  10   4  -3 120.773 143.061   5 0.64789 0.03661 0.27025 0.06432 0.81719-0.97435
  10  -4  -3 411.341 298.641   8 0.66436 0.01928-0.24242-0.09018 0.81531-0.97590
  -9   4   3 313.196 193.235   7-0.71098 0.10229 0.13977 0.19296-0.80614 0.97821
   9   4  -3 -111.63 258.101   2 0.55018 0.06017 0.44758-0.11400 0.79239-0.96450
  -9  -4   3 149.376 103.687   9 0.11294-0.72474-0.21664-0.11624 0.97428-0.79862
  -9  -4   3 177.988 158.454   3-0.59818-0.01146-0.36517 0.03239-0.80931 0.98095
   9   4  -3 223.035 157.241   5 0.64791-0.03696 0.27025 0.06432 0.81717-0.98760
   9  -4  -3 -57.651 139.490   8 0.66552-0.05556-0.24299-0.08961 0.81426-0.98810
  -8   4   3 178.358 86.8013   7-0.72188 0.18696 0.14256 0.19015-0.79629 0.98161
   8  -4  -3 155.193 169.248   4-0.13546 0.67324-0.08636-0.24729-0.99522 0.80693
   8   4  -3 27.3024 172.370   2 0.54898-0.01215 0.44599-0.11247 0.79408-0.97943
  -8  -4   3 479.902 218.457   9 0.15410-0.69208-0.12199-0.21102 0.99227-0.80365
  -8  -4   3 304.353 221.596   3-0.59973 0.06381-0.36654 0.03375-0.80761 0.99253
   8   4  -3 95.8488 131.622   5 0.65305-0.11567 0.27324 0.06136 0.81233-0.99603
   8  -4  -3 269.129 225.965   8 0.67217-0.13589-0.24618-0.08640 0.80813-0.99523
  -7   4   3 695.188 252.920   7-0.74058 0.27937 0.14734 0.18530-0.77846 0.97697
   7  -4  -3 451.120 249.732   4-0.16578 0.62984 0.01093-0.34488-0.99984 0.79828
   7   4  -3 225.311 232.613   2 0.55161-0.08833 0.44947-0.11601 0.79036-0.98897
  -7   4   3 771.718 261.709   1 0.14871-0.61141-0.03279 0.36665 0.99897-0.80016
  -7  -4   3 606.550 261.238   9 0.19223-0.65623-0.02943-0.30357 0.99951-0.79764
  -7  -4   3 1384.78 364.802   3-0.60623 0.14401-0.37233 0.03954-0.80035 0.99853
   7   4  -3 697.810 246.731   5 0.66440-0.20058 0.27983 0.05480 0.80131-0.99831
   7  -4  -3 664.077 227.002   8 0.68542-0.22284-0.25256-0.08000 0.79545-0.99578
   6  -4  -3 265.670 295.010   4-0.19253 0.58280 0.10162-0.43580-0.99478 0.77992
  -6   4   3 -253.15 281.329   1 0.15970-0.54883-0.13751 0.47132 0.99038-0.77826
 -10   5   3 109.612 233.092   7-0.72425 0.04186 0.14317 0.27323-0.79410 0.95270
  10   5  -3 31.1473 167.208   2 0.55083 0.13309 0.44843-0.03147 0.79147-0.95036
 -10  -5   3 592.764 372.240   3-0.60121-0.08216-0.36785-0.04841-0.80598 0.96434
  10   5  -3 671.915 370.024   5 0.65497 0.02952 0.27435 0.14359 0.81050-0.96774
  10  -5  -3 -13.865 172.831   8 0.67348 0.01018-0.24681-0.16933 0.80691-0.96744
  -9   5   3 126.928 187.651   7-0.72980 0.12121 0.14458 0.27176-0.78889 0.96077
   9   5  -3 64.5262 122.986   2 0.54645 0.06397 0.44266-0.02575 0.79760-0.96973
  -9  -5   3 -80.150 172.615   9 0.10363-0.71526-0.23737-0.17908 0.96885-0.79332
  -9  -5   3 170.448 153.127   3-0.59876-0.01087-0.36567-0.05061-0.80868 0.98036
   9   5  -3 202.946 210.151   5 0.65543-0.04447 0.27461 0.14336 0.81007-0.98056
   9  -5  -3 233.991 292.556   8 0.67519-0.06522-0.24762-0.16850 0.80531-0.97910
   8  -5  -3 149.705 111.574   4-0.12181 0.65949-0.12844-0.28873-0.98998 0.80172
   8   5  -3 387.625 311.758   2 0.54515-0.00828 0.44095-0.02407 0.79939-0.98478
  -8  -5   3 170.370 166.128   9 0.13983-0.67746-0.15538-0.26106 0.98717-0.79842
  -8  -5   3 712.074 302.138   3-0.60024 0.06435-0.36700-0.04929-0.80704 0.99200
   8   5  -3 95.5302 106.061   5 0.66082-0.12341 0.27774 0.14026 0.80484-0.98862
   8  -5  -3 671.716 270.051   8 0.68218-0.14594-0.25099-0.16513 0.79862-0.98566
   7  -5  -3 -11.125 159.667   4-0.14835 0.61227-0.04566-0.37180-0.99842 0.79691
   7   5  -3 114.536 144.051   2 0.54741-0.08410 0.44392-0.02709 0.79627-0.99492
  -7  -5   3 245.383 140.006   9 0.17318-0.63691-0.07631-0.34007 0.99710-0.79520
  -7  -5   3 -47.977 149.998   3-0.60638 0.14422-0.37247-0.04382-0.80018 0.99840
   7   5  -3 -114.01 101.784   5 0.67208-0.20821 0.28431 0.13373 0.79355-0.99063
  -7   5   3 249.497 207.126   1 0.14025-0.60303 0.03882 0.37843 0.99841-0.79964
   6   5  -3 53.6985 309.225   2 0.55374-0.16401 0.45229-0.03550 0.78730-0.99922
   6  -5  -3 713.995 366.707   4-0.17195 0.56209 0.03142-0.44912-0.99949 0.78469
  -6  -5   3 232.211 270.833   9 0.20353-0.59356-0.00103-0.41532 0.99972-0.78486
  -6   5   3 328.545 289.741   1 0.15063-0.53982-0.05009 0.46729 0.99832-0.78624
   5  -5  -3 -414.50 340.322   4-0.19272 0.50903 0.10225-0.52014-0.99472 0.76661
  10   6  -3 190.297 216.007   2 0.55130 0.13268 0.44906 0.05127 0.79080-0.94972
  10  -6  -3 377.283 311.017   8 0.68744-0.00378-0.25353-0.24616 0.79346-0.95390
   9   6  -3 1245.78 455.023   2 0.54722 0.06325 0.44367 0.05662 0.79653-0.96869
  -9  -6   3 1258.11 475.898   3-0.60413-0.00548-0.37045-0.12936-0.80272 0.97441
  -9  -6   3 767.122 402.540   9 0.09190-0.70337-0.26314-0.23686 0.96134-0.78591
   9   6  -3 996.837 388.282   5 0.66793-0.05695 0.28188 0.21947 0.79778-0.96837
   9  -6  -3 1201.94 411.049   8 0.68993-0.07998-0.25472-0.24496 0.79099-0.96469
   8  -6  -3 40.1899 132.669   4-0.10766 0.64522-0.17102-0.32966-0.98264 0.79440
   8   6  -3 611.389 355.744   2 0.54604-0.00913 0.44212 0.05814 0.79817-0.98358
  -8  -6   3 762.806 318.719   3-0.60581 0.06996-0.37196-0.12784-0.80082 0.98579
  -8  -6   3 446.836 264.830   9 0.12386-0.66156-0.19203-0.30802 0.98002-0.79163
   8   6  -3 347.492 258.046   5 0.67379-0.13636 0.28531 0.21609 0.79178-0.97566
   8  -6  -3 604.749 240.080   8 0.69751-0.16132-0.25840-0.24127 0.78329-0.97024
  -7   6   3 -1.6567 184.702   1 0.13200-0.59484 0.10322 0.39742 0.99345-0.79472
   7  -6  -3 -169.75 243.593   4-0.13122 0.59502-0.09949-0.40146-0.99379 0.79232
   7   6  -3 164.126 146.459   2 0.54818-0.08484 0.44494 0.05530 0.79519-0.99388
  -7  -6   3 82.6932 220.747   3-0.61187 0.14975-0.37739-0.12242-0.79386 0.99210
  -7  -6   3 374.727 199.012   9 0.15353-0.61730-0.12333-0.37661 0.99209-0.79052
   6  -6  -3 -114.23 237.025   4-0.15227 0.54226-0.03309-0.46810-0.99903 0.78429
   6   6  -3 -52.268 274.620   2 0.55408-0.16434 0.45274 0.04746 0.78681-0.99877
  -6   6   3 -11.407 182.291   1 0.14175-0.53100 0.02657 0.47403 0.99887-0.78684
   9  -7  -3 207.884 354.985   4-0.06957 0.68076-0.28091-0.30298-0.95392 0.77886
   8   7  -3 1081.54 520.095   2 0.55076-0.01381 0.44834 0.13534 0.79157-0.97703
  -8  -7   3 1412.54 454.777   3-0.61556 0.07974-0.38070-0.20266-0.78953 0.97448
   7  -7  -3 482.617 476.527   4-0.11422 0.57787-0.15140-0.43305-0.98628 0.78482
   7   7  -3 57.7089 347.432   2 0.55295-0.08957 0.45123 0.13243 0.78845-0.98718
  -7   7   3 -319.32 367.974   1 0.12381-0.58671 0.16291 0.42111 0.98504-0.78634
   5  -7  -3 203.107 204.848   4-0.14986 0.46589-0.04084-0.54400-0.99867 0.77069
  -5   7   3 -72.873 158.204   1 0.14044-0.45615 0.03729 0.54669 0.99848-0.77318
   8  -8  -3 295.193 336.029   4-0.07798 0.61529-0.25721-0.41048-0.96135 0.77310
   7  -8  -3 -600.00 848.542   4-0.09718 0.56069-0.20194-0.46599-0.97601 0.77456
   6  -8  -3 -446.75 506.354   4-0.11432 0.50401-0.15111-0.51702-0.98633 0.77163
   5  -8  -3 165.345 352.773   4-0.12943 0.44530-0.10505-0.56325-0.99313 0.76518
   0   0   0    0.00    0.00
   1   5   2 -32.268 134.466   1 0.16706-0.05856-0.21827 0.63537 0.97596-0.76825
  -1  -5  -2 -342.37 182.138   4-0.22759 0.11837 0.22908-0.64708-0.97207 0.76250
   5  -6  -3 130.442 215.580   4-0.17085 0.48703 0.02774-0.52911-0.99958 0.77155
  -5   6   3 49.8822 282.183   1 0.14955-0.46520-0.04031 0.54089 0.99873-0.77339
  -3  -7  -2 133.569 188.914   4-0.16809-0.08873 0.01853-0.60340-0.99976 0.76381
   3   7   2 165.185 97.8287   1 0.14599 0.10970-0.00903 0.59290 0.99936-0.76522
   1   4   0 200.344 119.001   6-0.23841 0.31210 0.22715 0.10653-0.97185 0.98480
   1  -4   0 138.816 64.0854   3-0.50810 0.58216-0.28709-0.04655-0.89020 0.90342
  -1   4   0 208.522 77.6231   7-0.44971 0.37655 0.07568 0.25824-0.95649 0.94286
   1  -4   0 335.958 128.369   9 0.14519-0.07142-0.14291-0.19064 0.98923-0.97580
  -1  -4   0 215.317 104.344   3-0.29164 0.21824-0.11064-0.22336-0.98706 0.97388
   1   4   0 147.895 110.943   1 0.12604-0.05266 0.14703 0.18651 0.98764-0.97455
   1  -4   0 170.141 87.5473   8 0.34936-0.27600-0.09812-0.23582 0.97960-0.96615
  -1   4   0 432.918 152.464   6-0.21163 0.13785 0.12807 0.20583-0.99126 0.97770
  -1   4   0 137.780 76.9101   2 0.40181-0.47560 0.26350 0.07015 0.93493-0.94827
   1   4   0 60.2521 86.6950   2 0.27198-0.19834 0.11499 0.21879 0.98873-0.97561
  -1  -4   0 319.530 130.948   9 0.11949-0.19275-0.20195-0.13182 0.97780-0.99110
  -1  -4   0 82.4927 76.4543   4-0.11476 0.04060-0.14979-0.18413-0.98656 0.97338
   2  -3  -2 -249.48 140.395   4-0.25845 0.37090 0.35235-0.60327-0.93151 0.76164
  10   1   1 462.191 159.341   2 0.25457 0.49792 0.09572-0.01178 0.99238-0.76316
  10   1   1 119.420 145.875   8 0.27107 0.48174-0.06366 0.14621 0.99362-0.76309
 -10   1  -1 75.9852 82.4651   7-0.26131-0.49423 0.03146 0.05232-0.99606 0.76440
 -10  -1  -1 39.6335 71.2142   3-0.25675-0.49834-0.08326-0.00027-0.99335 0.76293
 -10  -1  -1 206.441 136.604   7-0.26861-0.48667 0.03315-0.11649-0.99535 0.76391
  -6   7   3 -80.865 297.067   1 0.13296-0.52227 0.09592 0.48808 0.99423-0.78223
   6  -7  -3 -227.17 403.028   4-0.13313 0.52298-0.09356-0.49110-0.99446 0.77975
   2  10   2 197.614 284.445   1 0.11689 0.06497 0.21048 0.62358 0.97565-0.75489
   0 -10  -2 -159.94 240.549   4-0.09386 0.05784-0.21161-0.62351-0.97371 0.77764
   0  10  -2 291.103 370.952   6-0.23456 0.19944 0.21244 0.62320-0.97545 0.77946
   0  10   2 -176.55 211.165   6-0.32100 0.35588 0.61712 0.21627-0.76482 0.95832
   9  -2   1 92.0466 69.9429   8 0.21811 0.46146-0.04061-0.12668 0.99844-0.78042
   9   2   1 195.107 108.124   8 0.24144 0.43771-0.05073 0.21653 0.99676-0.77955
  -9  -2  -1 51.4063 110.292   7-0.23637-0.44510 0.02571-0.19250-0.99803 0.78007
   9   2   1 74.4778 58.5199   2 0.21671 0.46242 0.05422 0.11298 0.99780-0.78172
  -9   2  -1 342.399 194.515   7-0.22425-0.45766 0.02292 0.14452-0.99874 0.78034
   6  -3  -3 253.381 177.951   8 0.70385-0.31491-0.26147 0.01244 0.77667-0.99027
   3   9   2 -197.30 405.522   2 0.26664-0.01095 0.10906 0.64256 0.98993-0.75590
   3   9   2 -151.38 200.653   1 0.12558 0.12999 0.15033 0.60032 0.98712-0.75307
  -3  -9  -2 -353.59 468.251   3-0.28385 0.02767-0.10452-0.64815-0.98866 0.75386
   8  -7  -3 -58.095 266.263   4-0.09305 0.63049-0.21398-0.37021-0.97313 0.78489
;
_shelx_hkl_checksum              89963
loop_
_space_group_symop_operation_xyz
'x, y, z'
'-x+1/2, y+1/2, -z'
'-x, -y, -z'
'x-1/2, -y-1/2, z'
loop_
_atom_site_label
_atom_site_type_symbol
_atom_site_fract_x
_atom_site_fract_y
_atom_site_fract_z
_atom_site_U_iso_or_equiv
_atom_site_adp_type
_atom_site_occupancy
_atom_site_site_symmetry_order
_atom_site_calc_flag
_atom_site_refinement_flags_posn
_atom_site_refinement_flags_adp
_atom_site_refinement_flags_occupancy
_atom_site_disorder_assembly
_atom_site_disorder_group
C1 C 0.6983(6) 0.3019(6) 0.779(2) 0.030(5) Uani 1 1 d . U . . .
H1D H 0.610438 0.249080 0.779781 0.036 Uiso 1 1 calc R U . . .
H1E H 0.729628 0.346493 0.899922 0.036 Uiso 1 1 calc R U . . .
C2 C 0.8032(7) 0.1837(6) 0.739(3) 0.026(5) Uani 1 1 d . U . . .
N1 N 0.6773(5) 0.4273(5) 0.6448(19) 0.027(6) Uani 1 1 d . U . . .
H1A H 0.635641 0.389091 0.537041 0.033 Uiso 1 1 calc R U . . .
H1B H 0.759128 0.468301 0.633827 0.033 Uiso 1 1 calc R U . . .
H1C H 0.624252 0.501796 0.681117 0.033 Uiso 1 1 calc R U . . .
O1 O 0.4838(6) 0.8629(5) 0.950(2) 0.043(5) Uani 1 1 d . U . . .
H1 H 0.505457 0.955579 0.968111 0.052 Uiso 0.5 1 calc D U P . .
O2 O 0.4673(4) 0.6433(4) 0.7153(16) 0.021(4) Uani 1 1 d . U . . .
O3 O 0.4367(4) 0.9242(5) 0.6081(17) 0.027(5) Uani 1 1 d . U . . .
H3 H 0.493623 0.959297 0.549839 0.032 Uiso 0.5 1 calc D U P . .
O4 O 0.8627(5) 0.1985(4) 0.6130(17) 0.031(5) Uani 1 1 d . U . . .
O5 O 0.8188(4) 0.0631(5) 0.8551(16) 0.038(6) Uani 1 1 d . U . . .
H5 H 0.863561 -0.006500 0.815827 0.045 Uiso 1 1 calc . U . . .
P1 P 0.50831(17) 0.81307(17) 0.7542(8) 0.022(4) Uani 1 1 d . U . . .
H1P H 0.608378 0.820829 0.755006 0.026 Uiso 1 1 calc R U . . .
loop_
_atom_site_aniso_label
_atom_site_aniso_U_11
_atom_site_aniso_U_22
_atom_site_aniso_U_33
_atom_site_aniso_U_23
_atom_site_aniso_U_13
_atom_site_aniso_U_12
C1 0.031(3) 0.021(2) 0.041(16) 0.001(4) 0.015(5) 0.004(2)
C2 0.025(3) 0.016(2) 0.041(16) -0.004(4) 0.016(5) -0.003(2)
N1 0.026(3) 0.018(2) 0.038(18) 0.005(5) 0.006(5) 0.0011(18)
O1 0.086(4) 0.028(2) 0.026(15) -0.011(5) 0.038(6) -0.011(3)
O2 0.035(2) 0.0157(18) 0.015(14) -0.005(3) 0.008(4) -0.0028(15)
O3 0.038(2) 0.032(2) 0.016(14) 0.007(4) 0.020(4) 0.0083(17)
O4 0.039(3) 0.024(2) 0.037(17) -0.002(4) 0.023(5) 0.0057(17)
O5 0.043(3) 0.027(2) 0.048(17) 0.010(4) 0.023(5) 0.0082(18)
P1 0.0275(9) 0.0140(8) 0.027(11) -0.0023(15) 0.012(2) -0.0032(6)
loop_
_atom_type_symbol
_atom_type_description
_atom_type_scat_dispersion_real
_atom_type_scat_dispersion_imag
_atom_type_scat_source
C C 0.0033 0.0016 'International Tables Vol C Tables 4.2.6.8 and 6.1.1.4'
H H 0.0000 0.0000 'International Tables Vol C Tables 4.2.6.8 and 6.1.1.4'
N N 0.0061 0.0033 'International Tables Vol C Tables 4.2.6.8 and 6.1.1.4'
O O 0.0106 0.0060 'International Tables Vol C Tables 4.2.6.8 and 6.1.1.4'
P P 0.1023 0.0942 'International Tables Vol C Tables 4.2.6.8 and 6.1.1.4'
loop_
_geom_angle_atom_site_label_1
_geom_angle_atom_site_label_2
_geom_angle_atom_site_label_3
_geom_angle
_geom_angle_site_symmetry_1
_geom_angle_site_symmetry_3
_geom_angle_publ_flag
N1 C1 C2 112.0(12) . . ?
N1 C1 H1D 109.2 . . ?
C2 C1 H1D 109.2 . . ?
N1 C1 H1E 109.2 . . ?
C2 C1 H1E 109.2 . . ?
H1D C1 H1E 107.9 . . ?
O4 C2 O5 124.9(6) . . ?
O4 C2 C1 122.0(12) . . ?
O5 C2 C1 113.0(13) . . ?
C1 N1 H1A 109.5 . . ?
C1 N1 H1B 109.5 . . ?
H1A N1 H1B 109.5 . . ?
C1 N1 H1C 109.5 . . ?
H1A N1 H1C 109.5 . . ?
H1B N1 H1C 109.5 . . ?
P1 O1 H1 109.5 . . ?
P1 O3 H3 109.5 . . ?
C2 O5 H5 109.5 . . ?
O3 P1 O2 112.8(6) . . ?
O3 P1 O1 111.4(4) . . ?
O2 P1 O1 110.7(5) . . ?
O3 P1 H1P 107.2 . . ?
O2 P1 H1P 107.2 . . ?
O1 P1 H1P 107.2 . . ?
loop_
_geom_bond_atom_site_label_1
_geom_bond_atom_site_label_2
_geom_bond_distance
_geom_bond_site_symmetry_2
_geom_bond_publ_flag
C1 N1 1.447(14) . ?
C1 C2 1.503(10) . ?
C1 H1D 0.9700 . ?
C1 H1E 0.9700 . ?
C2 O4 1.195(17) . ?
C2 O5 1.327(15) . ?
N1 H1A 0.8900 . ?
N1 H1B 0.8900 . ?
N1 H1C 0.8900 . ?
O1 P1 1.570(17) . ?
O1 H1 0.8200 . ?
O2 P1 1.511(4) . ?
O3 P1 1.510(10) . ?
O3 H3 0.8200 . ?
O5 H5 0.8200 . ?
P1 H1P 0.9800 . ?
loop_
_geom_hbond_atom_site_label_D
_geom_hbond_atom_site_label_H
_geom_hbond_atom_site_label_A
_geom_hbond_distance_DH
_geom_hbond_distance_HA
_geom_hbond_distance_DA
_geom_hbond_angle_DHA
_geom_hbond_site_symmetry_A
_geom_hbond_publ_flag
N1 H1A O2 0.89 1.98 2.849(18) 166.5 3_666 yes
N1 H1B O3 0.89 2.00 2.890(6) 175.9 4_675 yes
N1 H1C O2 0.89 2.00 2.871(6) 165.3 . yes
O1 H1 O1 0.82 1.65 2.448(13) 162.4 3_677 yes
O3 H3 O3 0.82 1.76 2.545(17) 159.3 3_676 yes
O5 H5 O2 0.82 1.79 2.608(8) 174.0 4_665 yes
loop_
_geom_torsion_atom_site_label_1
_geom_torsion_atom_site_label_2
_geom_torsion_atom_site_label_3
_geom_torsion_atom_site_label_4
_geom_torsion
_geom_torsion_site_symmetry_1
_geom_torsion_site_symmetry_2
_geom_torsion_site_symmetry_3
_geom_torsion_site_symmetry_4
_geom_torsion_publ_flag
N1 C1 C2 O4 1.9(17) . . . . ?
N1 C1 C2 O5 -176.7(8) . . . . ?

_cod_database_fobs_code 2109028
